MODEL 1
REMARK VINA RESULT:     -14.3      0.000      0.000
REMARK SMILES CC1(C)S[C@@H]2c3ccccc3C(=O)N2[C@H]1C(=O)N[C@H](Cc1c[nH]c2ccccc12)C(=O)NCCCNC(=O)c1ccc(-c2c3nc(c(-c4cc(S(=O)(=O)[O-])ccc4F)c4ccc([nH]4)c(-c4cc(S(=O)(=O)[O-])ccc4F)c4nc(c(-c5cc(S(=O)(=O)[O-])ccc5F)c5ccc2[nH]5)C=C4)C=C3)cc1
REMARK SMILES IDX 34 1 33 2 32 3 30 4 31 5 19 7 18 8 16 9 17 10 15 12 1 13
REMARK SMILES IDX 2 14 3 15 4 16 5 17 14 18 6 19 12 20 7 21 11 22 13 23 8 24
REMARK SMILES IDX 10 25 9 26 20 27 21 28 22 29 29 30 23 31 24 32 28 33 25 35
REMARK SMILES IDX 27 36 26 37 35 38 36 39 37 40 38 42 39 43 40 44 101 45 41 46
REMARK SMILES IDX 100 47 42 48 43 49 44 50 94 51 45 52 99 53 93 54 95 55 46 56
REMARK SMILES IDX 98 57 92 58 91 59 47 61 79 62 59 63 78 64 60 65 63 66 77 67
REMARK SMILES IDX 96 68 61 69 62 70 76 72 97 73 64 74 48 75 49 76 57 77 50 78
REMARK SMILES IDX 56 79 58 80 55 81 51 82 52 83 53 84 54 85 80 86 81 87 89 88
REMARK SMILES IDX 82 89 88 90 90 91 87 92 83 93 84 94 85 95 86 96 65 97 66 98
REMARK SMILES IDX 74 99 67 100 73 101 75 102 72 103 68 104 69 105 70 106
REMARK SMILES IDX 71 107
REMARK H PARENT 32 6 18 11 23 34 36 41 95 60 63 71
REMARK Flexibility Score: inf
ROOT
ATOM      1  C   UNL A   1      31.784  29.367  27.250  1.00  0.00     0.042 C 
ENDROOT
BRANCH   1   2
ATOM      2  C   UNL A   1      32.096  27.877  27.299  1.00  0.00     0.117 C 
BRANCH   2   3
ATOM      3  N   UNL A   1      31.003  26.984  26.943  1.00  0.00    -0.354 N 
ATOM      4  C   UNL A   1      30.919  25.891  26.140  1.00  0.00     0.242 C 
ATOM      5  O   UNL A   1      29.899  25.200  26.243  1.00  0.00    -0.273 OA
ATOM      6  H   UNL A   1      30.148  27.223  27.371  1.00  0.00     0.163 HD
BRANCH   4   7
ATOM      7  C   UNL A   1      32.053  25.458  25.204  1.00  0.00     0.175 C 
BRANCH   7   8
ATOM      8  N   UNL A   1      33.035  24.708  26.063  1.00  0.00    -0.342 N 
ATOM      9  C   UNL A   1      33.923  23.683  25.977  1.00  0.00     0.244 C 
ATOM     10  O   UNL A   1      34.291  23.255  27.084  1.00  0.00    -0.273 OA
ATOM     11  H   UNL A   1      33.034  25.077  26.976  1.00  0.00     0.164 HD
BRANCH   9  12
ATOM     12  C   UNL A   1      34.564  23.065  24.701  1.00  0.00     0.191 C 
ATOM     13  C   UNL A   1      36.918  23.706  25.601  1.00  0.00     0.026 C 
ATOM     14  C   UNL A   1      36.090  22.801  24.684  1.00  0.00     0.042 C 
ATOM     15  C   UNL A   1      36.640  22.956  23.253  1.00  0.00     0.026 C 
ATOM     16  S   UNL A   1      36.263  20.980  25.082  1.00  0.00    -0.123 SA
ATOM     17  C   UNL A   1      34.502  20.698  25.118  1.00  0.00     0.176 C 
ATOM     18  N   UNL A   1      33.941  21.783  24.404  1.00  0.00    -0.309 N 
ATOM     19  C   UNL A   1      33.880  19.502  24.525  1.00  0.00    -0.002 A 
ATOM     20  C   UNL A   1      33.062  21.384  23.421  1.00  0.00     0.256 C 
ATOM     21  C   UNL A   1      33.922  18.191  24.969  1.00  0.00     0.007 A 
ATOM     22  C   UNL A   1      32.982  19.904  23.532  1.00  0.00     0.046 A 
ATOM     23  O   UNL A   1      32.486  22.060  22.601  1.00  0.00    -0.269 OA
ATOM     24  C   UNL A   1      33.074  17.269  24.356  1.00  0.00     0.000 A 
ATOM     25  C   UNL A   1      32.153  19.001  22.896  1.00  0.00     0.014 A 
ATOM     26  C   UNL A   1      32.208  17.666  23.320  1.00  0.00     0.001 A 
ENDBRANCH   9  12
ENDBRANCH   7   8
BRANCH   7  27
ATOM     27  C   UNL A   1      32.704  26.618  24.454  1.00  0.00     0.072 C 
BRANCH  27  28
ATOM     28  C   UNL A   1      31.986  27.603  23.561  1.00  0.00    -0.020 A 
ATOM     29  C   UNL A   1      32.754  28.566  22.917  1.00  0.00     0.087 A 
ATOM     30  C   UNL A   1      30.614  27.910  23.220  1.00  0.00     0.003 A 
ATOM     31  N   UNL A   1      31.951  29.332  22.134  1.00  0.00    -0.361 N 
ATOM     32  C   UNL A   1      30.645  29.092  22.462  1.00  0.00     0.046 A 
ATOM     33  C   UNL A   1      29.327  27.393  23.498  1.00  0.00     0.010 A 
ATOM     34  H   UNL A   1      32.260  29.960  21.441  1.00  0.00     0.166 HD
ATOM     35  C   UNL A   1      29.512  29.841  22.121  1.00  0.00     0.026 A 
ATOM     36  C   UNL A   1      28.176  28.137  23.170  1.00  0.00     0.001 A 
ATOM     37  C   UNL A   1      28.273  29.365  22.530  1.00  0.00     0.002 A 
ENDBRANCH  27  28
ENDBRANCH   7  27
ENDBRANCH   4   7
ENDBRANCH   2   3
ENDBRANCH   1   2
BRANCH   1  38
ATOM     38  C   UNL A   1      32.739  30.191  26.409  1.00  0.00     0.118 C 
BRANCH  38  39
ATOM     39  N   UNL A   1      32.666  31.604  26.729  1.00  0.00    -0.352 N 
ATOM     40  C   UNL A   1      33.475  32.356  27.541  1.00  0.00     0.251 C 
ATOM     41  H   UNL A   1      31.928  32.095  26.300  1.00  0.00     0.163 HD
ATOM     42  O   UNL A   1      33.126  33.487  27.867  1.00  0.00    -0.269 OA
BRANCH  40  43
ATOM     43  C   UNL A   1      34.739  31.780  28.047  1.00  0.00     0.039 A 
ATOM     44  C   UNL A   1      34.796  30.452  28.477  1.00  0.00     0.014 A 
ATOM     45  C   UNL A   1      35.873  32.590  28.113  1.00  0.00     0.014 A 
ATOM     46  C   UNL A   1      35.929  29.992  29.136  1.00  0.00     0.010 A 
ATOM     47  C   UNL A   1      37.047  32.088  28.680  1.00  0.00     0.010 A 
ATOM     48  C   UNL A   1      37.071  30.801  29.241  1.00  0.00    -0.014 A 
BRANCH  48  49
ATOM     49  C   UNL A   1      38.285  30.281  29.922  1.00  0.00     0.031 A 
ATOM     50  C   UNL A   1      38.644  30.729  31.312  1.00  0.00     0.074 A 
ATOM     51  C   UNL A   1      39.058  29.378  29.284  1.00  0.00     0.049 A 
ATOM     52  N   UNL A   1      39.671  30.384  32.045  1.00  0.00    -0.248 NA
ATOM     53  C   UNL A   1      37.743  31.694  31.965  1.00  0.00     0.031 C 
ATOM     54  C   UNL A   1      38.806  28.873  27.933  1.00  0.00     0.029 A 
ATOM     55  N   UNL A   1      40.196  28.721  29.678  1.00  0.00    -0.354 N 
ATOM     56  C   UNL A   1      39.553  31.099  33.232  1.00  0.00     0.074 A 
ATOM     57  C   UNL A   1      38.374  31.927  33.108  1.00  0.00     0.031 C 
ATOM     58  C   UNL A   1      39.736  27.959  27.627  1.00  0.00     0.029 A 
ATOM     59  C   UNL A   1      40.699  27.870  28.720  1.00  0.00     0.049 A 
ATOM     60  H   UNL A   1      40.614  28.847  30.560  1.00  0.00     0.167 HD
ATOM     61  C   UNL A   1      40.348  31.055  34.326  1.00  0.00     0.034 A 
ATOM     62  C   UNL A   1      41.820  27.121  28.705  1.00  0.00     0.034 A 
ATOM     63  C   UNL A   1      41.507  30.204  34.440  1.00  0.00     0.049 A 
ATOM     64  C   UNL A   1      42.704  27.110  29.924  1.00  0.00     0.074 A 
ATOM     65  C   UNL A   1      42.347  30.053  35.529  1.00  0.00     0.029 A 
ATOM     66  N   UNL A   1      41.993  29.367  33.445  1.00  0.00    -0.354 N 
ATOM     67  N   UNL A   1      42.540  27.742  31.062  1.00  0.00    -0.248 NA
ATOM     68  C   UNL A   1      43.917  26.283  29.868  1.00  0.00     0.031 C 
ATOM     69  C   UNL A   1      43.384  29.197  35.167  1.00  0.00     0.029 A 
ATOM     70  C   UNL A   1      43.141  28.727  33.885  1.00  0.00     0.049 A 
ATOM     71  H   UNL A   1      41.583  29.245  32.558  1.00  0.00     0.167 HD
ATOM     72  C   UNL A   1      43.615  27.372  31.865  1.00  0.00     0.074 A 
ATOM     73  C   UNL A   1      44.406  26.436  31.093  1.00  0.00     0.031 C 
ATOM     74  C   UNL A   1      43.919  27.778  33.124  1.00  0.00     0.034 A 
BRANCH  61  75
ATOM     75  C   UNL A   1      40.016  31.925  35.515  1.00  0.00     0.023 A 
ATOM     76  C   UNL A   1      39.115  31.456  36.492  1.00  0.00     0.031 A 
ATOM     77  C   UNL A   1      40.439  33.263  35.591  1.00  0.00     0.131 A 
ATOM     78  C   UNL A   1      38.622  32.334  37.465  1.00  0.00     0.055 A 
ATOM     79  C   UNL A   1      39.986  34.119  36.596  1.00  0.00     0.041 A 
ATOM     80  F   UNL A   1      41.294  33.761  34.683  1.00  0.00    -0.206 F 
ATOM     81  C   UNL A   1      39.060  33.661  37.528  1.00  0.00     0.022 A 
BRANCH  78  82
ATOM     82  S   UNL A   1      37.327  31.815  38.623  1.00  0.00     0.124 S 
ATOM     83  O   UNL A   1      36.282  32.803  38.365  1.00  0.00    -0.237 OA
ATOM     84  O   UNL A   1      37.033  30.461  38.163  1.00  0.00    -0.237 OA
ATOM     85  O   UNL A   1      37.964  31.915  39.931  1.00  0.00    -0.744 OA
ENDBRANCH  78  82
ENDBRANCH  61  75
BRANCH  62  86
ATOM     86  C   UNL A   1      42.127  26.305  27.492  1.00  0.00     0.023 A 
ATOM     87  C   UNL A   1      41.710  24.963  27.405  1.00  0.00     0.031 A 
ATOM     88  C   UNL A   1      42.941  26.810  26.465  1.00  0.00     0.131 A 
ATOM     89  C   UNL A   1      42.182  24.151  26.367  1.00  0.00     0.055 A 
ATOM     90  C   UNL A   1      43.337  26.019  25.384  1.00  0.00     0.041 A 
ATOM     91  F   UNL A   1      43.377  28.078  26.508  1.00  0.00    -0.206 F 
ATOM     92  C   UNL A   1      42.976  24.676  25.344  1.00  0.00     0.022 A 
BRANCH  89  93
ATOM     93  S   UNL A   1      41.915  22.357  26.401  1.00  0.00     0.124 S 
ATOM     94  O   UNL A   1      42.640  21.919  25.212  1.00  0.00    -0.237 OA
ATOM     95  O   UNL A   1      42.520  21.992  27.680  1.00  0.00    -0.237 OA
ATOM     96  O   UNL A   1      40.463  22.222  26.342  1.00  0.00    -0.744 OA
ENDBRANCH  89  93
ENDBRANCH  62  86
BRANCH  74  97
ATOM     97  C   UNL A   1      45.153  27.219  33.795  1.00  0.00     0.023 A 
ATOM     98  C   UNL A   1      45.052  26.064  34.596  1.00  0.00     0.031 A 
ATOM     99  C   UNL A   1      46.373  27.917  33.790  1.00  0.00     0.131 A 
ATOM    100  C   UNL A   1      46.128  25.677  35.403  1.00  0.00     0.055 A 
ATOM    101  C   UNL A   1      47.464  27.490  34.549  1.00  0.00     0.041 A 
ATOM    102  F   UNL A   1      46.520  29.031  33.055  1.00  0.00    -0.206 F 
ATOM    103  C   UNL A   1      47.337  26.376  35.376  1.00  0.00     0.022 A 
BRANCH 100 104
ATOM    104  S   UNL A   1      45.958  24.323  36.599  1.00  0.00     0.124 S 
ATOM    105  O   UNL A   1      44.750  23.651  36.125  1.00  0.00    -0.237 OA
ATOM    106  O   UNL A   1      47.201  23.583  36.402  1.00  0.00    -0.237 OA
ATOM    107  O   UNL A   1      45.827  25.000  37.884  1.00  0.00    -0.744 OA
ENDBRANCH 100 104
ENDBRANCH  74  97
ENDBRANCH  48  49
ENDBRANCH  40  43
ENDBRANCH  38  39
ENDBRANCH   1  38
TORSDOF 17
ENDMDL
MODEL 2
REMARK VINA RESULT:     -14.3      0.539      7.025
REMARK SMILES CC1(C)S[C@@H]2c3ccccc3C(=O)N2[C@H]1C(=O)N[C@H](Cc1c[nH]c2ccccc12)C(=O)NCCCNC(=O)c1ccc(-c2c3nc(c(-c4cc(S(=O)(=O)[O-])ccc4F)c4ccc([nH]4)c(-c4cc(S(=O)(=O)[O-])ccc4F)c4nc(c(-c5cc(S(=O)(=O)[O-])ccc5F)c5ccc2[nH]5)C=C4)C=C3)cc1
REMARK SMILES IDX 34 1 33 2 32 3 30 4 31 5 19 7 18 8 16 9 17 10 15 12 1 13
REMARK SMILES IDX 2 14 3 15 4 16 5 17 14 18 6 19 12 20 7 21 11 22 13 23 8 24
REMARK SMILES IDX 10 25 9 26 20 27 21 28 22 29 29 30 23 31 24 32 28 33 25 35
REMARK SMILES IDX 27 36 26 37 35 38 36 39 37 40 38 42 39 43 40 44 101 45 41 46
REMARK SMILES IDX 100 47 42 48 43 49 44 50 94 51 45 52 99 53 93 54 95 55 46 56
REMARK SMILES IDX 98 57 92 58 91 59 47 61 79 62 59 63 78 64 60 65 63 66 77 67
REMARK SMILES IDX 96 68 61 69 62 70 76 72 97 73 64 74 48 75 49 76 57 77 50 78
REMARK SMILES IDX 56 79 58 80 55 81 51 82 52 83 53 84 54 85 80 86 81 87 89 88
REMARK SMILES IDX 82 89 88 90 90 91 87 92 83 93 84 94 85 95 86 96 65 97 66 98
REMARK SMILES IDX 74 99 67 100 73 101 75 102 72 103 68 104 69 105 70 106
REMARK SMILES IDX 71 107
REMARK H PARENT 32 6 18 11 23 34 36 41 95 60 63 71
REMARK Flexibility Score: inf
ROOT
ATOM      1  C   UNL A   1      31.781  29.315  27.012  1.00  0.00     0.042 C 
ENDROOT
BRANCH   1   2
ATOM      2  C   UNL A   1      32.004  27.868  27.435  1.00  0.00     0.117 C 
BRANCH   2   3
ATOM      3  N   UNL A   1      30.957  26.927  27.067  1.00  0.00    -0.354 N 
ATOM      4  C   UNL A   1      30.927  25.842  26.250  1.00  0.00     0.242 C 
ATOM      5  O   UNL A   1      29.943  25.100  26.344  1.00  0.00    -0.273 OA
ATOM      6  H   UNL A   1      30.092  27.117  27.498  1.00  0.00     0.163 HD
BRANCH   4   7
ATOM      7  C   UNL A   1      32.080  25.478  25.308  1.00  0.00     0.175 C 
BRANCH   7   8
ATOM      8  N   UNL A   1      33.072  24.714  26.144  1.00  0.00    -0.342 N 
ATOM      9  C   UNL A   1      33.958  23.689  26.032  1.00  0.00     0.244 C 
ATOM     10  O   UNL A   1      34.338  23.244  27.127  1.00  0.00    -0.273 OA
ATOM     11  H   UNL A   1      33.081  25.067  27.063  1.00  0.00     0.164 HD
BRANCH   9  12
ATOM     12  C   UNL A   1      34.585  23.093  24.738  1.00  0.00     0.191 C 
ATOM     13  C   UNL A   1      36.947  23.739  25.613  1.00  0.00     0.026 C 
ATOM     14  C   UNL A   1      36.112  22.841  24.696  1.00  0.00     0.042 C 
ATOM     15  C   UNL A   1      36.641  23.017  23.260  1.00  0.00     0.026 C 
ATOM     16  S   UNL A   1      36.304  21.016  25.069  1.00  0.00    -0.123 SA
ATOM     17  C   UNL A   1      34.546  20.720  25.126  1.00  0.00     0.176 C 
ATOM     18  N   UNL A   1      33.966  21.811  24.434  1.00  0.00    -0.309 N 
ATOM     19  C   UNL A   1      33.923  19.527  24.527  1.00  0.00    -0.002 A 
ATOM     20  C   UNL A   1      33.076  21.417  23.459  1.00  0.00     0.256 C 
ATOM     21  C   UNL A   1      33.981  18.211  24.953  1.00  0.00     0.007 A 
ATOM     22  C   UNL A   1      33.009  19.936  23.552  1.00  0.00     0.046 A 
ATOM     23  O   UNL A   1      32.484  22.100  22.656  1.00  0.00    -0.269 OA
ATOM     24  C   UNL A   1      33.131  17.291  24.341  1.00  0.00     0.000 A 
ATOM     25  C   UNL A   1      32.177  19.035  22.917  1.00  0.00     0.014 A 
ATOM     26  C   UNL A   1      32.247  17.695  23.322  1.00  0.00     0.001 A 
ENDBRANCH   9  12
ENDBRANCH   7   8
BRANCH   7  27
ATOM     27  C   UNL A   1      32.712  26.686  24.619  1.00  0.00     0.072 C 
BRANCH  27  28
ATOM     28  C   UNL A   1      32.002  27.634  23.680  1.00  0.00    -0.020 A 
ATOM     29  C   UNL A   1      32.769  28.602  23.041  1.00  0.00     0.087 A 
ATOM     30  C   UNL A   1      30.636  27.901  23.286  1.00  0.00     0.003 A 
ATOM     31  N   UNL A   1      31.975  29.331  22.214  1.00  0.00    -0.361 N 
ATOM     32  C   UNL A   1      30.665  29.066  22.504  1.00  0.00     0.046 A 
ATOM     33  C   UNL A   1      29.352  27.359  23.531  1.00  0.00     0.010 A 
ATOM     34  H   UNL A   1      32.294  29.951  21.519  1.00  0.00     0.166 HD
ATOM     35  C   UNL A   1      29.528  29.781  22.108  1.00  0.00     0.026 A 
ATOM     36  C   UNL A   1      28.196  28.067  23.149  1.00  0.00     0.001 A 
ATOM     37  C   UNL A   1      28.287  29.284  22.485  1.00  0.00     0.002 A 
ENDBRANCH  27  28
ENDBRANCH   7  27
ENDBRANCH   4   7
ENDBRANCH   2   3
ENDBRANCH   1   2
BRANCH   1  38
ATOM     38  C   UNL A   1      33.026  30.042  26.546  1.00  0.00     0.118 C 
BRANCH  38  39
ATOM     39  N   UNL A   1      32.987  31.455  26.877  1.00  0.00    -0.352 N 
ATOM     40  C   UNL A   1      33.830  32.186  27.674  1.00  0.00     0.251 C 
ATOM     41  H   UNL A   1      32.248  31.962  26.470  1.00  0.00     0.163 HD
ATOM     42  O   UNL A   1      33.510  33.321  28.015  1.00  0.00    -0.269 OA
BRANCH  40  43
ATOM     43  C   UNL A   1      35.095  31.583  28.145  1.00  0.00     0.039 A 
ATOM     44  C   UNL A   1      35.124  30.273  28.628  1.00  0.00     0.014 A 
ATOM     45  C   UNL A   1      36.259  32.351  28.125  1.00  0.00     0.014 A 
ATOM     46  C   UNL A   1      36.270  29.796  29.253  1.00  0.00     0.010 A 
ATOM     47  C   UNL A   1      37.440  31.828  28.658  1.00  0.00     0.010 A 
ATOM     48  C   UNL A   1      37.443  30.565  29.271  1.00  0.00    -0.014 A 
BRANCH  48  49
ATOM     49  C   UNL A   1      38.669  30.026  29.917  1.00  0.00     0.031 A 
ATOM     50  C   UNL A   1      39.517  28.995  29.226  1.00  0.00     0.074 A 
ATOM     51  C   UNL A   1      39.028  30.491  31.131  1.00  0.00     0.049 A 
ATOM     52  N   UNL A   1      40.608  28.412  29.650  1.00  0.00    -0.248 NA
ATOM     53  C   UNL A   1      39.086  28.551  27.889  1.00  0.00     0.031 C 
ATOM     54  C   UNL A   1      38.280  31.491  31.895  1.00  0.00     0.029 A 
ATOM     55  N   UNL A   1      40.105  30.198  31.930  1.00  0.00    -0.354 N 
ATOM     56  C   UNL A   1      40.983  27.523  28.649  1.00  0.00     0.074 A 
ATOM     57  C   UNL A   1      39.983  27.614  27.609  1.00  0.00     0.031 C 
ATOM     58  C   UNL A   1      38.938  31.756  33.031  1.00  0.00     0.029 A 
ATOM     59  C   UNL A   1      40.110  30.891  33.120  1.00  0.00     0.049 A 
ATOM     60  H   UNL A   1      40.805  29.555  31.678  1.00  0.00     0.167 HD
ATOM     61  C   UNL A   1      42.071  26.718  28.600  1.00  0.00     0.034 A 
ATOM     62  C   UNL A   1      40.944  30.822  34.178  1.00  0.00     0.034 A 
ATOM     63  C   UNL A   1      43.071  26.658  29.637  1.00  0.00     0.049 A 
ATOM     64  C   UNL A   1      42.130  29.898  34.111  1.00  0.00     0.074 A 
ATOM     65  C   UNL A   1      44.234  25.909  29.653  1.00  0.00     0.029 A 
ATOM     66  N   UNL A   1      43.035  27.363  30.832  1.00  0.00    -0.354 N 
ATOM     67  N   UNL A   1      42.505  29.114  33.127  1.00  0.00    -0.248 NA
ATOM     68  C   UNL A   1      43.013  29.851  35.283  1.00  0.00     0.031 C 
ATOM     69  C   UNL A   1      44.855  26.092  30.887  1.00  0.00     0.029 A 
ATOM     70  C   UNL A   1      44.138  27.036  31.606  1.00  0.00     0.049 A 
ATOM     71  H   UNL A   1      42.331  28.001  31.092  1.00  0.00     0.167 HD
ATOM     72  C   UNL A   1      43.678  28.498  33.553  1.00  0.00     0.074 A 
ATOM     73  C   UNL A   1      43.968  29.025  34.870  1.00  0.00     0.031 C 
ATOM     74  C   UNL A   1      44.439  27.576  32.910  1.00  0.00     0.034 A 
BRANCH  61  75
ATOM     75  C   UNL A   1      42.278  25.833  27.393  1.00  0.00     0.023 A 
ATOM     76  C   UNL A   1      41.756  24.524  27.390  1.00  0.00     0.031 A 
ATOM     77  C   UNL A   1      43.129  26.209  26.339  1.00  0.00     0.131 A 
ATOM     78  C   UNL A   1      42.137  23.623  26.389  1.00  0.00     0.055 A 
ATOM     79  C   UNL A   1      43.462  25.323  25.314  1.00  0.00     0.041 A 
ATOM     80  F   UNL A   1      43.656  27.444  26.296  1.00  0.00    -0.206 F 
ATOM     81  C   UNL A   1      42.980  24.018  25.345  1.00  0.00     0.022 A 
BRANCH  78  82
ATOM     82  S   UNL A   1      41.631  21.883  26.454  1.00  0.00     0.124 S 
ATOM     83  O   UNL A   1      40.250  21.954  25.983  1.00  0.00    -0.237 OA
ATOM     84  O   UNL A   1      42.574  21.259  25.530  1.00  0.00    -0.237 OA
ATOM     85  O   UNL A   1      41.789  21.523  27.858  1.00  0.00    -0.744 OA
ENDBRANCH  78  82
ENDBRANCH  61  75
BRANCH  62  86
ATOM     86  C   UNL A   1      40.676  31.690  35.364  1.00  0.00     0.023 A 
ATOM     87  C   UNL A   1      39.645  31.371  36.269  1.00  0.00     0.031 A 
ATOM     88  C   UNL A   1      41.357  32.905  35.543  1.00  0.00     0.131 A 
ATOM     89  C   UNL A   1      39.267  32.295  37.250  1.00  0.00     0.055 A 
ATOM     90  C   UNL A   1      41.033  33.785  36.578  1.00  0.00     0.041 A 
ATOM     91  F   UNL A   1      42.337  33.262  34.699  1.00  0.00    -0.206 F 
ATOM     92  C   UNL A   1      39.967  33.491  37.424  1.00  0.00     0.022 A 
BRANCH  89  93
ATOM     93  S   UNL A   1      37.754  32.047  38.221  1.00  0.00     0.124 S 
ATOM     94  O   UNL A   1      38.237  32.225  39.587  1.00  0.00    -0.237 OA
ATOM     95  O   UNL A   1      36.897  33.114  37.710  1.00  0.00    -0.237 OA
ATOM     96  O   UNL A   1      37.335  30.695  37.869  1.00  0.00    -0.744 OA
ENDBRANCH  89  93
ENDBRANCH  62  86
BRANCH  74  97
ATOM     97  C   UNL A   1      45.687  27.058  33.588  1.00  0.00     0.023 A 
ATOM     98  C   UNL A   1      45.617  25.906  34.397  1.00  0.00     0.031 A 
ATOM     99  C   UNL A   1      46.887  27.790  33.581  1.00  0.00     0.131 A 
ATOM    100  C   UNL A   1      46.701  25.555  35.209  1.00  0.00     0.055 A 
ATOM    101  C   UNL A   1      47.987  27.399  34.346  1.00  0.00     0.041 A 
ATOM    102  F   UNL A   1      47.004  28.902  32.839  1.00  0.00    -0.206 F 
ATOM    103  C   UNL A   1      47.891  26.288  35.180  1.00  0.00     0.022 A 
BRANCH 100 104
ATOM    104  S   UNL A   1      46.567  24.205  36.414  1.00  0.00     0.124 S 
ATOM    105  O   UNL A   1      45.127  24.161  36.660  1.00  0.00    -0.237 OA
ATOM    106  O   UNL A   1      47.107  23.073  35.667  1.00  0.00    -0.237 OA
ATOM    107  O   UNL A   1      47.375  24.656  37.542  1.00  0.00    -0.744 OA
ENDBRANCH 100 104
ENDBRANCH  74  97
ENDBRANCH  48  49
ENDBRANCH  40  43
ENDBRANCH  38  39
ENDBRANCH   1  38
TORSDOF 17
ENDMDL
MODEL 3
REMARK VINA RESULT:     -14.2      1.487      3.564
REMARK SMILES CC1(C)S[C@@H]2c3ccccc3C(=O)N2[C@H]1C(=O)N[C@H](Cc1c[nH]c2ccccc12)C(=O)NCCCNC(=O)c1ccc(-c2c3nc(c(-c4cc(S(=O)(=O)[O-])ccc4F)c4ccc([nH]4)c(-c4cc(S(=O)(=O)[O-])ccc4F)c4nc(c(-c5cc(S(=O)(=O)[O-])ccc5F)c5ccc2[nH]5)C=C4)C=C3)cc1
REMARK SMILES IDX 34 1 33 2 32 3 30 4 31 5 19 7 18 8 16 9 17 10 15 12 1 13
REMARK SMILES IDX 2 14 3 15 4 16 5 17 14 18 6 19 12 20 7 21 11 22 13 23 8 24
REMARK SMILES IDX 10 25 9 26 20 27 21 28 22 29 29 30 23 31 24 32 28 33 25 35
REMARK SMILES IDX 27 36 26 37 35 38 36 39 37 40 38 42 39 43 40 44 101 45 41 46
REMARK SMILES IDX 100 47 42 48 43 49 44 50 94 51 45 52 99 53 93 54 95 55 46 56
REMARK SMILES IDX 98 57 92 58 91 59 47 61 79 62 59 63 78 64 60 65 63 66 77 67
REMARK SMILES IDX 96 68 61 69 62 70 76 72 97 73 64 74 48 75 49 76 57 77 50 78
REMARK SMILES IDX 56 79 58 80 55 81 51 82 52 83 53 84 54 85 80 86 81 87 89 88
REMARK SMILES IDX 82 89 88 90 90 91 87 92 83 93 84 94 85 95 86 96 65 97 66 98
REMARK SMILES IDX 74 99 67 100 73 101 75 102 72 103 68 104 69 105 70 106
REMARK SMILES IDX 71 107
REMARK H PARENT 32 6 18 11 23 34 36 41 95 60 63 71
REMARK Flexibility Score: inf
ROOT
ATOM      1  C   UNL A   1      31.764  29.332  27.239  1.00  0.00     0.042 C 
ENDROOT
BRANCH   1   2
ATOM      2  C   UNL A   1      31.831  27.810  27.258  1.00  0.00     0.117 C 
BRANCH   2   3
ATOM      3  N   UNL A   1      30.568  27.114  27.068  1.00  0.00    -0.354 N 
ATOM      4  C   UNL A   1      30.252  25.842  26.708  1.00  0.00     0.242 C 
ATOM      5  O   UNL A   1      29.080  25.488  26.880  1.00  0.00    -0.273 OA
ATOM      6  H   UNL A   1      29.780  27.682  27.233  1.00  0.00     0.163 HD
BRANCH   4   7
ATOM      7  C   UNL A   1      31.292  24.841  26.193  1.00  0.00     0.175 C 
BRANCH   7   8
ATOM      8  N   UNL A   1      30.787  24.371  24.855  1.00  0.00    -0.342 N 
ATOM      9  C   UNL A   1      31.019  24.563  23.529  1.00  0.00     0.244 C 
ATOM     10  O   UNL A   1      30.105  24.136  22.803  1.00  0.00    -0.273 OA
ATOM     11  H   UNL A   1      30.058  23.721  24.979  1.00  0.00     0.164 HD
BRANCH   9  12
ATOM     12  C   UNL A   1      32.283  25.158  22.846  1.00  0.00     0.191 C 
ATOM     13  C   UNL A   1      31.407  27.551  23.362  1.00  0.00     0.026 C 
ATOM     14  C   UNL A   1      32.612  26.656  23.058  1.00  0.00     0.042 C 
ATOM     15  C   UNL A   1      33.318  27.228  21.814  1.00  0.00     0.026 C 
ATOM     16  S   UNL A   1      33.908  26.672  24.409  1.00  0.00    -0.123 SA
ATOM     17  C   UNL A   1      34.006  24.894  24.503  1.00  0.00     0.176 C 
ATOM     18  N   UNL A   1      33.468  24.431  23.278  1.00  0.00    -0.309 N 
ATOM     19  C   UNL A   1      35.285  24.177  24.641  1.00  0.00    -0.002 A 
ATOM     20  C   UNL A   1      34.289  23.528  22.637  1.00  0.00     0.256 C 
ATOM     21  C   UNL A   1      36.126  24.105  25.739  1.00  0.00     0.007 A 
ATOM     22  C   UNL A   1      35.446  23.324  23.546  1.00  0.00     0.046 A 
ATOM     23  O   UNL A   1      34.148  23.017  21.551  1.00  0.00    -0.269 OA
ATOM     24  C   UNL A   1      37.174  23.188  25.697  1.00  0.00     0.000 A 
ATOM     25  C   UNL A   1      36.493  22.426  23.476  1.00  0.00     0.014 A 
ATOM     26  C   UNL A   1      37.366  22.365  24.571  1.00  0.00     0.001 A 
ENDBRANCH   9  12
ENDBRANCH   7   8
BRANCH   7  27
ATOM     27  C   UNL A   1      31.555  23.683  27.153  1.00  0.00     0.072 C 
BRANCH  27  28
ATOM     28  C   UNL A   1      32.539  22.560  26.929  1.00  0.00    -0.020 A 
ATOM     29  C   UNL A   1      33.620  22.467  27.800  1.00  0.00     0.087 A 
ATOM     30  C   UNL A   1      32.748  21.520  25.945  1.00  0.00     0.003 A 
ATOM     31  N   UNL A   1      34.371  21.384  27.472  1.00  0.00    -0.361 N 
ATOM     32  C   UNL A   1      33.986  20.929  26.242  1.00  0.00     0.046 A 
ATOM     33  C   UNL A   1      32.093  21.027  24.791  1.00  0.00     0.010 A 
ATOM     34  H   UNL A   1      35.080  20.992  28.032  1.00  0.00     0.166 HD
ATOM     35  C   UNL A   1      34.653  20.030  25.401  1.00  0.00     0.026 A 
ATOM     36  C   UNL A   1      32.752  20.130  23.929  1.00  0.00     0.001 A 
ATOM     37  C   UNL A   1      34.033  19.674  24.210  1.00  0.00     0.002 A 
ENDBRANCH  27  28
ENDBRANCH   7  27
ENDBRANCH   4   7
ENDBRANCH   2   3
ENDBRANCH   1   2
BRANCH   1  38
ATOM     38  C   UNL A   1      32.989  30.017  26.665  1.00  0.00     0.118 C 
BRANCH  38  39
ATOM     39  N   UNL A   1      32.979  31.447  26.914  1.00  0.00    -0.352 N 
ATOM     40  C   UNL A   1      33.854  32.210  27.644  1.00  0.00     0.251 C 
ATOM     41  H   UNL A   1      32.236  31.942  26.498  1.00  0.00     0.163 HD
ATOM     42  O   UNL A   1      33.560  33.367  27.926  1.00  0.00    -0.269 OA
BRANCH  40  43
ATOM     43  C   UNL A   1      35.123  31.615  28.114  1.00  0.00     0.039 A 
ATOM     44  C   UNL A   1      35.172  30.288  28.548  1.00  0.00     0.014 A 
ATOM     45  C   UNL A   1      36.272  32.407  28.143  1.00  0.00     0.014 A 
ATOM     46  C   UNL A   1      36.317  29.812  29.174  1.00  0.00     0.010 A 
ATOM     47  C   UNL A   1      37.454  31.888  28.677  1.00  0.00     0.010 A 
ATOM     48  C   UNL A   1      37.473  30.603  29.242  1.00  0.00    -0.014 A 
BRANCH  48  49
ATOM     49  C   UNL A   1      38.699  30.065  29.889  1.00  0.00     0.031 A 
ATOM     50  C   UNL A   1      39.114  30.523  31.260  1.00  0.00     0.074 A 
ATOM     51  C   UNL A   1      39.430  29.139  29.238  1.00  0.00     0.049 A 
ATOM     52  N   UNL A   1      40.157  30.166  31.963  1.00  0.00    -0.248 NA
ATOM     53  C   UNL A   1      38.256  31.515  31.930  1.00  0.00     0.031 C 
ATOM     54  C   UNL A   1      39.123  28.622  27.902  1.00  0.00     0.029 A 
ATOM     55  N   UNL A   1      40.568  28.462  29.602  1.00  0.00    -0.354 N 
ATOM     56  C   UNL A   1      40.095  30.898  33.143  1.00  0.00     0.074 A 
ATOM     57  C   UNL A   1      38.930  31.750  33.048  1.00  0.00     0.031 C 
ATOM     58  C   UNL A   1      40.023  27.685  27.577  1.00  0.00     0.029 A 
ATOM     59  C   UNL A   1      41.020  27.589  28.639  1.00  0.00     0.049 A 
ATOM     60  H   UNL A   1      41.017  28.590  30.467  1.00  0.00     0.167 HD
ATOM     61  C   UNL A   1      40.926  30.851  34.210  1.00  0.00     0.034 A 
ATOM     62  C   UNL A   1      42.124  26.816  28.596  1.00  0.00     0.034 A 
ATOM     63  C   UNL A   1      42.070  29.977  34.296  1.00  0.00     0.049 A 
ATOM     64  C   UNL A   1      43.049  26.802  29.785  1.00  0.00     0.074 A 
ATOM     65  C   UNL A   1      42.943  29.822  35.359  1.00  0.00     0.029 A 
ATOM     66  N   UNL A   1      42.504  29.117  33.297  1.00  0.00    -0.354 N 
ATOM     67  N   UNL A   1      42.936  27.451  30.919  1.00  0.00    -0.248 NA
ATOM     68  C   UNL A   1      44.241  25.949  29.699  1.00  0.00     0.031 C 
ATOM     69  C   UNL A   1      43.949  28.939  34.973  1.00  0.00     0.029 A 
ATOM     70  C   UNL A   1      43.653  28.459  33.707  1.00  0.00     0.049 A 
ATOM     71  H   UNL A   1      42.062  28.993  32.426  1.00  0.00     0.167 HD
ATOM     72  C   UNL A   1      44.030  27.068  31.691  1.00  0.00     0.074 A 
ATOM     73  C   UNL A   1      44.774  26.107  30.905  1.00  0.00     0.031 C 
ATOM     74  C   UNL A   1      44.384  27.483  32.933  1.00  0.00     0.034 A 
BRANCH  61  75
ATOM     75  C   UNL A   1      40.652  31.743  35.398  1.00  0.00     0.023 A 
ATOM     76  C   UNL A   1      39.532  31.491  36.216  1.00  0.00     0.031 A 
ATOM     77  C   UNL A   1      41.378  32.927  35.615  1.00  0.00     0.131 A 
ATOM     78  C   UNL A   1      39.138  32.437  37.169  1.00  0.00     0.055 A 
ATOM     79  C   UNL A   1      41.011  33.841  36.604  1.00  0.00     0.041 A 
ATOM     80  F   UNL A   1      42.451  33.217  34.861  1.00  0.00    -0.206 F 
ATOM     81  C   UNL A   1      39.876  33.606  37.374  1.00  0.00     0.022 A 
BRANCH  78  82
ATOM     82  S   UNL A   1      37.601  32.232  38.111  1.00  0.00     0.124 S 
ATOM     83  O   UNL A   1      36.676  33.079  37.362  1.00  0.00    -0.237 OA
ATOM     84  O   UNL A   1      37.365  30.796  37.996  1.00  0.00    -0.237 OA
ATOM     85  O   UNL A   1      37.941  32.713  39.446  1.00  0.00    -0.744 OA
ENDBRANCH  78  82
ENDBRANCH  61  75
BRANCH  62  86
ATOM     86  C   UNL A   1      42.373  25.979  27.384  1.00  0.00     0.023 A 
ATOM     87  C   UNL A   1      41.917  24.648  27.326  1.00  0.00     0.031 A 
ATOM     88  C   UNL A   1      43.170  26.449  26.328  1.00  0.00     0.131 A 
ATOM     89  C   UNL A   1      42.335  23.811  26.284  1.00  0.00     0.055 A 
ATOM     90  C   UNL A   1      43.512  25.636  25.246  1.00  0.00     0.041 A 
ATOM     91  F   UNL A   1      43.642  27.705  26.344  1.00  0.00    -0.206 F 
ATOM     92  C   UNL A   1      43.113  24.303  25.232  1.00  0.00     0.022 A 
BRANCH  89  93
ATOM     93  S   UNL A   1      42.019  22.026  26.346  1.00  0.00     0.124 S 
ATOM     94  O   UNL A   1      42.479  21.682  27.688  1.00  0.00    -0.237 OA
ATOM     95  O   UNL A   1      40.573  21.975  26.141  1.00  0.00    -0.237 OA
ATOM     96  O   UNL A   1      42.819  21.495  25.248  1.00  0.00    -0.744 OA
ENDBRANCH  89  93
ENDBRANCH  62  86
BRANCH  74  97
ATOM     97  C   UNL A   1      45.628  26.907  33.569  1.00  0.00     0.023 A 
ATOM     98  C   UNL A   1      45.537  25.740  34.354  1.00  0.00     0.031 A 
ATOM     99  C   UNL A   1      46.852  27.598  33.550  1.00  0.00     0.131 A 
ATOM    100  C   UNL A   1      46.627  25.335  35.133  1.00  0.00     0.055 A 
ATOM    101  C   UNL A   1      47.956  27.153  34.280  1.00  0.00     0.041 A 
ATOM    102  F   UNL A   1      46.991  28.722  32.829  1.00  0.00    -0.206 F 
ATOM    103  C   UNL A   1      47.840  26.027  35.092  1.00  0.00     0.022 A 
BRANCH 100 104
ATOM    104  S   UNL A   1      46.474  23.963  36.311  1.00  0.00     0.124 S 
ATOM    105  O   UNL A   1      45.026  23.883  36.495  1.00  0.00    -0.237 OA
ATOM    106  O   UNL A   1      47.070  22.855  35.571  1.00  0.00    -0.237 OA
ATOM    107  O   UNL A   1      47.223  24.414  37.479  1.00  0.00    -0.744 OA
ENDBRANCH 100 104
ENDBRANCH  74  97
ENDBRANCH  48  49
ENDBRANCH  40  43
ENDBRANCH  38  39
ENDBRANCH   1  38
TORSDOF 17
ENDMDL
