MODEL 1
REMARK VINA RESULT:     -13.2      0.000      0.000
REMARK SMILES O=C(NCCCNC(=O)[C@@H]1CCCN1S(=O)(=O)c1ccc2c3c(cccc13)C(=O)N2)c1ccc(-c2c3nc(c(-c4cc(S(=O)(=O)[O-])ccc4F)c4ccc([nH]4)c(-c4cc(S(=O)(=O)[O-])ccc4F)c4nc(c(-c5cc(S(=O)(=O)[O-])ccc5F)c5ccc2[nH]5)C=C4)C=C3)cc1
REMARK SMILES IDX 4 1 3 2 1 3 2 4 31 6 32 7 93 8 33 9 92 10 34 11 35 12 36 13
REMARK SMILES IDX 86 14 37 15 91 16 85 17 87 18 38 19 90 20 84 21 83 22 39 24
REMARK SMILES IDX 71 25 51 26 70 27 52 28 55 29 69 30 88 31 53 32 54 33 68 35
REMARK SMILES IDX 89 36 56 37 40 38 41 39 49 40 42 41 48 42 50 43 47 44 43 45
REMARK SMILES IDX 44 46 45 47 46 48 72 49 73 50 81 51 74 52 80 53 82 54 79 55
REMARK SMILES IDX 75 56 76 57 77 58 78 59 57 60 58 61 66 62 59 63 65 64 67 65
REMARK SMILES IDX 64 66 60 67 61 68 62 69 63 70 5 71 6 72 7 73 8 74 9 76 10 77
REMARK SMILES IDX 11 78 14 79 12 80 13 81 15 82 16 83 17 84 18 85 19 86 27 87
REMARK SMILES IDX 20 88 22 89 26 90 21 91 23 92 25 93 30 94 24 95 28 96 29 98
REMARK H PARENT 3 5 87 23 55 34 7 75 30 97
REMARK Flexibility Score: inf
ROOT
ATOM      1  C   UNL A   1      32.646  32.008  26.918  1.00  0.00     0.118 C 
ENDROOT
BRANCH   1   2
ATOM      2  N   UNL A   1      32.428  33.404  27.261  1.00  0.00    -0.352 N 
ATOM      3  O   UNL A   1      32.649  35.267  28.511  1.00  0.00    -0.269 OA
ATOM      4  C   UNL A   1      33.081  34.162  28.203  1.00  0.00     0.251 C 
ATOM      5  H   UNL A   1      31.722  33.866  26.752  1.00  0.00     0.163 HD
BRANCH   4   6
ATOM      6  C   UNL A   1      34.287  33.611  28.855  1.00  0.00     0.039 A 
ATOM      7  C   UNL A   1      35.561  33.947  28.384  1.00  0.00     0.014 A 
ATOM      8  C   UNL A   1      34.135  32.726  29.923  1.00  0.00     0.014 A 
ATOM      9  C   UNL A   1      36.679  33.304  28.905  1.00  0.00     0.010 A 
ATOM     10  C   UNL A   1      35.264  32.126  30.483  1.00  0.00     0.010 A 
ATOM     11  C   UNL A   1      36.540  32.387  29.958  1.00  0.00    -0.014 A 
BRANCH  11  12
ATOM     12  C   UNL A   1      37.740  31.744  30.545  1.00  0.00     0.031 A 
ATOM     13  C   UNL A   1      38.486  30.677  29.798  1.00  0.00     0.074 A 
ATOM     14  C   UNL A   1      38.138  32.117  31.776  1.00  0.00     0.049 A 
ATOM     15  N   UNL A   1      39.520  29.979  30.188  1.00  0.00    -0.248 NA
ATOM     16  C   UNL A   1      38.016  30.347  28.443  1.00  0.00     0.031 C 
ATOM     17  C   UNL A   1      37.480  33.138  32.592  1.00  0.00     0.029 A 
ATOM     18  N   UNL A   1      39.173  31.674  32.562  1.00  0.00    -0.354 N 
ATOM     19  C   UNL A   1      39.819  29.121  29.139  1.00  0.00     0.074 A 
ATOM     20  C   UNL A   1      38.845  29.369  28.099  1.00  0.00     0.031 C 
ATOM     21  C   UNL A   1      38.118  33.237  33.766  1.00  0.00     0.029 A 
ATOM     22  C   UNL A   1      39.195  32.251  33.810  1.00  0.00     0.049 A 
ATOM     23  H   UNL A   1      39.833  31.009  32.261  1.00  0.00     0.167 HD
ATOM     24  C   UNL A   1      40.821  28.216  29.057  1.00  0.00     0.034 A 
ATOM     25  C   UNL A   1      39.966  31.993  34.886  1.00  0.00     0.034 A 
ATOM     26  C   UNL A   1      41.793  27.994  30.096  1.00  0.00     0.049 A 
ATOM     27  C   UNL A   1      41.055  30.960  34.779  1.00  0.00     0.074 A 
ATOM     28  C   UNL A   1      42.885  27.143  30.068  1.00  0.00     0.029 A 
ATOM     29  N   UNL A   1      41.795  28.607  31.339  1.00  0.00    -0.354 N 
ATOM     30  N   UNL A   1      41.382  30.223  33.745  1.00  0.00    -0.248 NA
ATOM     31  C   UNL A   1      41.883  30.723  35.970  1.00  0.00     0.031 C 
ATOM     32  C   UNL A   1      43.504  27.187  31.315  1.00  0.00     0.029 A 
ATOM     33  C   UNL A   1      42.845  28.121  32.099  1.00  0.00     0.049 A 
ATOM     34  H   UNL A   1      41.147  29.284  31.637  1.00  0.00     0.167 HD
ATOM     35  C   UNL A   1      42.461  29.447  34.156  1.00  0.00     0.074 A 
ATOM     36  C   UNL A   1      42.746  29.819  35.524  1.00  0.00     0.031 C 
ATOM     37  C   UNL A   1      43.144  28.509  33.455  1.00  0.00     0.034 A 
BRANCH  24  38
ATOM     38  C   UNL A   1      40.968  27.387  27.809  1.00  0.00     0.023 A 
ATOM     39  C   UNL A   1      40.680  26.009  27.853  1.00  0.00     0.031 A 
ATOM     40  C   UNL A   1      41.584  27.907  26.658  1.00  0.00     0.131 A 
ATOM     41  C   UNL A   1      41.065  25.186  26.789  1.00  0.00     0.055 A 
ATOM     42  C   UNL A   1      41.934  27.087  25.585  1.00  0.00     0.041 A 
ATOM     43  F   UNL A   1      41.875  29.214  26.574  1.00  0.00    -0.206 F 
ATOM     44  C   UNL A   1      41.691  25.717  25.655  1.00  0.00     0.022 A 
BRANCH  41  45
ATOM     45  S   UNL A   1      40.833  23.390  26.866  1.00  0.00     0.124 S 
ATOM     46  O   UNL A   1      39.413  23.256  26.546  1.00  0.00    -0.237 OA
ATOM     47  O   UNL A   1      41.752  22.918  25.835  1.00  0.00    -0.237 OA
ATOM     48  O   UNL A   1      41.189  23.050  28.240  1.00  0.00    -0.744 OA
ENDBRANCH  41  45
ENDBRANCH  24  38
BRANCH  25  49
ATOM     49  C   UNL A   1      39.710  32.745  36.145  1.00  0.00     0.023 A 
ATOM     50  C   UNL A   1      38.822  32.234  37.110  1.00  0.00     0.031 A 
ATOM     51  C   UNL A   1      40.244  34.027  36.347  1.00  0.00     0.131 A 
ATOM     52  C   UNL A   1      38.439  33.030  38.195  1.00  0.00     0.055 A 
ATOM     53  C   UNL A   1      39.911  34.792  37.465  1.00  0.00     0.041 A 
ATOM     54  F   UNL A   1      41.086  34.557  35.447  1.00  0.00    -0.206 F 
ATOM     55  C   UNL A   1      38.991  34.301  38.388  1.00  0.00     0.022 A 
BRANCH  52  56
ATOM     56  S   UNL A   1      37.127  32.490  39.323  1.00  0.00     0.124 S 
ATOM     57  O   UNL A   1      37.308  33.390  40.458  1.00  0.00    -0.237 OA
ATOM     58  O   UNL A   1      35.931  32.724  38.517  1.00  0.00    -0.237 OA
ATOM     59  O   UNL A   1      37.444  31.088  39.576  1.00  0.00    -0.744 OA
ENDBRANCH  52  56
ENDBRANCH  25  49
BRANCH  37  60
ATOM     60  C   UNL A   1      44.290  27.789  34.118  1.00  0.00     0.023 A 
ATOM     61  C   UNL A   1      44.043  26.617  34.859  1.00  0.00     0.031 A 
ATOM     62  C   UNL A   1      45.566  28.370  34.192  1.00  0.00     0.131 A 
ATOM     63  C   UNL A   1      45.039  26.103  35.697  1.00  0.00     0.055 A 
ATOM     64  C   UNL A   1      46.570  27.827  34.994  1.00  0.00     0.041 A 
ATOM     65  F   UNL A   1      45.844  29.491  33.506  1.00  0.00    -0.206 F 
ATOM     66  C   UNL A   1      46.302  26.699  35.766  1.00  0.00     0.022 A 
BRANCH  63  67
ATOM     67  S   UNL A   1      44.701  24.695  36.791  1.00  0.00     0.124 S 
ATOM     68  O   UNL A   1      46.026  24.405  37.334  1.00  0.00    -0.237 OA
ATOM     69  O   UNL A   1      43.748  25.265  37.739  1.00  0.00    -0.237 OA
ATOM     70  O   UNL A   1      44.165  23.675  35.894  1.00  0.00    -0.744 OA
ENDBRANCH  63  67
ENDBRANCH  37  60
ENDBRANCH  11  12
ENDBRANCH   4   6
ENDBRANCH   1   2
BRANCH   1  71
ATOM     71  C   UNL A   1      31.424  31.379  26.256  1.00  0.00     0.042 C 
BRANCH  71  72
ATOM     72  C   UNL A   1      31.740  30.074  25.534  1.00  0.00     0.117 C 
BRANCH  72  73
ATOM     73  N   UNL A   1      31.857  28.992  26.500  1.00  0.00    -0.355 N 
ATOM     74  C   UNL A   1      31.396  27.710  26.437  1.00  0.00     0.238 C 
ATOM     75  H   UNL A   1      32.342  29.221  27.325  1.00  0.00     0.163 HD
ATOM     76  O   UNL A   1      31.439  27.035  27.466  1.00  0.00    -0.273 OA
BRANCH  74  77
ATOM     77  C   UNL A   1      30.878  27.188  25.128  1.00  0.00     0.162 C 
ATOM     78  C   UNL A   1      30.180  25.841  25.270  1.00  0.00     0.032 C 
ATOM     79  N   UNL A   1      31.795  27.002  23.948  1.00  0.00    -0.185 NA
ATOM     80  C   UNL A   1      29.853  25.503  23.832  1.00  0.00     0.019 C 
ATOM     81  C   UNL A   1      30.958  26.162  23.001  1.00  0.00     0.103 C 
BRANCH  79  82
ATOM     82  S   UNL A   1      33.377  26.323  24.159  1.00  0.00     0.244 S 
ATOM     83  O   UNL A   1      34.000  26.235  22.856  1.00  0.00    -0.207 OA
ATOM     84  O   UNL A   1      34.016  27.122  25.186  1.00  0.00    -0.207 OA
BRANCH  82  85
ATOM     85  C   UNL A   1      33.223  24.655  24.801  1.00  0.00     0.090 A 
ATOM     86  C   UNL A   1      33.166  24.519  26.214  1.00  0.00     0.024 A 
ATOM     87  C   UNL A   1      32.943  23.512  23.975  1.00  0.00     0.005 A 
ATOM     88  C   UNL A   1      33.080  23.275  26.862  1.00  0.00     0.028 A 
ATOM     89  C   UNL A   1      32.819  22.333  24.663  1.00  0.00     0.019 A 
ATOM     90  C   UNL A   1      32.705  23.360  22.576  1.00  0.00     0.010 A 
ATOM     91  C   UNL A   1      32.922  22.192  26.030  1.00  0.00     0.050 A 
ATOM     92  C   UNL A   1      32.494  21.089  24.139  1.00  0.00     0.050 A 
ATOM     93  C   UNL A   1      32.333  22.118  22.010  1.00  0.00     0.002 A 
ATOM     94  N   UNL A   1      32.737  20.856  26.333  1.00  0.00    -0.321 N 
ATOM     95  C   UNL A   1      32.223  20.955  22.783  1.00  0.00     0.014 A 
ATOM     96  C   UNL A   1      32.444  20.095  25.196  1.00  0.00     0.256 C 
ATOM     97  H   UNL A   1      32.802  20.484  27.242  1.00  0.00     0.170 HD
ATOM     98  O   UNL A   1      32.194  18.902  25.197  1.00  0.00    -0.269 OA
ENDBRANCH  82  85
ENDBRANCH  79  82
ENDBRANCH  74  77
ENDBRANCH  72  73
ENDBRANCH  71  72
ENDBRANCH   1  71
TORSDOF 15
ENDMDL
MODEL 2
REMARK VINA RESULT:     -13.1      5.315     10.712
REMARK SMILES O=C(NCCCNC(=O)[C@@H]1CCCN1S(=O)(=O)c1ccc2c3c(cccc13)C(=O)N2)c1ccc(-c2c3nc(c(-c4cc(S(=O)(=O)[O-])ccc4F)c4ccc([nH]4)c(-c4cc(S(=O)(=O)[O-])ccc4F)c4nc(c(-c5cc(S(=O)(=O)[O-])ccc5F)c5ccc2[nH]5)C=C4)C=C3)cc1
REMARK SMILES IDX 4 1 3 2 1 3 2 4 31 6 32 7 93 8 33 9 92 10 34 11 35 12 36 13
REMARK SMILES IDX 86 14 37 15 91 16 85 17 87 18 38 19 90 20 84 21 83 22 39 24
REMARK SMILES IDX 71 25 51 26 70 27 52 28 55 29 69 30 88 31 53 32 54 33 68 35
REMARK SMILES IDX 89 36 56 37 40 38 41 39 49 40 42 41 48 42 50 43 47 44 43 45
REMARK SMILES IDX 44 46 45 47 46 48 72 49 73 50 81 51 74 52 80 53 82 54 79 55
REMARK SMILES IDX 75 56 76 57 77 58 78 59 57 60 58 61 66 62 59 63 65 64 67 65
REMARK SMILES IDX 64 66 60 67 61 68 62 69 63 70 5 71 6 72 7 73 8 74 9 76 10 77
REMARK SMILES IDX 11 78 14 79 12 80 13 81 15 82 16 83 17 84 18 85 19 86 27 87
REMARK SMILES IDX 20 88 22 89 26 90 21 91 23 92 25 93 30 94 24 95 28 96 29 98
REMARK H PARENT 3 5 87 23 55 34 7 75 30 97
REMARK Flexibility Score: inf
ROOT
ATOM      1  C   UNL A   1      38.541  20.759  25.385  1.00  0.00     0.118 C 
ENDROOT
BRANCH   1   2
ATOM      2  N   UNL A   1      39.486  19.690  25.667  1.00  0.00    -0.352 N 
ATOM      3  O   UNL A   1      41.519  18.806  26.080  1.00  0.00    -0.269 OA
ATOM      4  C   UNL A   1      40.794  19.795  26.076  1.00  0.00     0.251 C 
ATOM      5  H   UNL A   1      39.145  18.774  25.550  1.00  0.00     0.163 HD
BRANCH   4   6
ATOM      6  C   UNL A   1      41.314  21.118  26.478  1.00  0.00     0.039 A 
ATOM      7  C   UNL A   1      41.236  21.532  27.813  1.00  0.00     0.014 A 
ATOM      8  C   UNL A   1      41.853  21.959  25.504  1.00  0.00     0.014 A 
ATOM      9  C   UNL A   1      41.586  22.835  28.151  1.00  0.00     0.010 A 
ATOM     10  C   UNL A   1      42.258  23.247  25.857  1.00  0.00     0.010 A 
ATOM     11  C   UNL A   1      42.099  23.704  27.176  1.00  0.00    -0.014 A 
BRANCH  11  12
ATOM     12  C   UNL A   1      42.522  25.075  27.552  1.00  0.00     0.031 A 
ATOM     13  C   UNL A   1      41.553  26.033  28.181  1.00  0.00     0.074 A 
ATOM     14  C   UNL A   1      43.787  25.456  27.296  1.00  0.00     0.049 A 
ATOM     15  N   UNL A   1      41.745  27.281  28.522  1.00  0.00    -0.248 NA
ATOM     16  C   UNL A   1      40.198  25.536  28.465  1.00  0.00     0.031 C 
ATOM     17  C   UNL A   1      44.806  24.606  26.679  1.00  0.00     0.029 A 
ATOM     18  N   UNL A   1      44.427  26.653  27.501  1.00  0.00    -0.354 N 
ATOM     19  C   UNL A   1      40.539  27.723  29.048  1.00  0.00     0.074 A 
ATOM     20  C   UNL A   1      39.611  26.617  28.964  1.00  0.00     0.031 C 
ATOM     21  C   UNL A   1      45.939  25.309  26.548  1.00  0.00     0.029 A 
ATOM     22  C   UNL A   1      45.714  26.674  27.017  1.00  0.00     0.049 A 
ATOM     23  H   UNL A   1      44.006  27.420  27.951  1.00  0.00     0.167 HD
ATOM     24  C   UNL A   1      40.244  28.941  29.557  1.00  0.00     0.034 A 
ATOM     25  C   UNL A   1      46.604  27.683  26.922  1.00  0.00     0.034 A 
ATOM     26  C   UNL A   1      41.186  30.026  29.649  1.00  0.00     0.049 A 
ATOM     27  C   UNL A   1      46.240  29.036  27.469  1.00  0.00     0.074 A 
ATOM     28  C   UNL A   1      40.990  31.274  30.214  1.00  0.00     0.029 A 
ATOM     29  N   UNL A   1      42.484  30.006  29.163  1.00  0.00    -0.354 N 
ATOM     30  N   UNL A   1      45.124  29.410  28.048  1.00  0.00    -0.248 NA
ATOM     31  C   UNL A   1      47.246  30.102  27.361  1.00  0.00     0.031 C 
ATOM     32  C   UNL A   1      42.140  32.032  30.008  1.00  0.00     0.029 A 
ATOM     33  C   UNL A   1      43.084  31.235  29.380  1.00  0.00     0.049 A 
ATOM     34  H   UNL A   1      42.914  29.235  28.728  1.00  0.00     0.167 HD
ATOM     35  C   UNL A   1      45.300  30.748  28.386  1.00  0.00     0.074 A 
ATOM     36  C   UNL A   1      46.635  31.113  27.967  1.00  0.00     0.031 C 
ATOM     37  C   UNL A   1      44.424  31.591  28.985  1.00  0.00     0.034 A 
BRANCH  24  38
ATOM     38  C   UNL A   1      38.859  29.204  30.087  1.00  0.00     0.023 A 
ATOM     39  C   UNL A   1      37.945  29.937  29.305  1.00  0.00     0.031 A 
ATOM     40  C   UNL A   1      38.525  28.922  31.422  1.00  0.00     0.131 A 
ATOM     41  C   UNL A   1      36.765  30.416  29.886  1.00  0.00     0.055 A 
ATOM     42  C   UNL A   1      37.331  29.372  31.985  1.00  0.00     0.041 A 
ATOM     43  F   UNL A   1      39.366  28.225  32.201  1.00  0.00    -0.206 F 
ATOM     44  C   UNL A   1      36.453  30.137  31.221  1.00  0.00     0.022 A 
BRANCH  41  45
ATOM     45  S   UNL A   1      35.628  31.475  28.951  1.00  0.00     0.124 S 
ATOM     46  O   UNL A   1      34.861  32.110  30.021  1.00  0.00    -0.237 OA
ATOM     47  O   UNL A   1      36.548  32.353  28.236  1.00  0.00    -0.237 OA
ATOM     48  O   UNL A   1      34.874  30.536  28.127  1.00  0.00    -0.744 OA
ENDBRANCH  41  45
ENDBRANCH  24  38
BRANCH  25  49
ATOM     49  C   UNL A   1      47.919  27.416  26.277  1.00  0.00     0.023 A 
ATOM     50  C   UNL A   1      48.080  27.598  24.891  1.00  0.00     0.031 A 
ATOM     51  C   UNL A   1      48.986  26.866  27.004  1.00  0.00     0.131 A 
ATOM     52  C   UNL A   1      49.254  27.165  24.265  1.00  0.00     0.055 A 
ATOM     53  C   UNL A   1      50.181  26.498  26.385  1.00  0.00     0.041 A 
ATOM     54  F   UNL A   1      48.871  26.666  28.326  1.00  0.00    -0.206 F 
ATOM     55  C   UNL A   1      50.313  26.631  25.005  1.00  0.00     0.022 A 
BRANCH  52  56
ATOM     56  S   UNL A   1      49.396  27.173  22.457  1.00  0.00     0.124 S 
ATOM     57  O   UNL A   1      48.606  26.004  22.082  1.00  0.00    -0.237 OA
ATOM     58  O   UNL A   1      48.805  28.467  22.122  1.00  0.00    -0.237 OA
ATOM     59  O   UNL A   1      50.831  27.064  22.223  1.00  0.00    -0.744 OA
ENDBRANCH  52  56
ENDBRANCH  25  49
BRANCH  37  60
ATOM     60  C   UNL A   1      44.842  33.015  29.252  1.00  0.00     0.023 A 
ATOM     61  C   UNL A   1      44.617  34.003  28.274  1.00  0.00     0.031 A 
ATOM     62  C   UNL A   1      45.638  33.340  30.362  1.00  0.00     0.131 A 
ATOM     63  C   UNL A   1      45.242  35.250  28.392  1.00  0.00     0.055 A 
ATOM     64  C   UNL A   1      46.220  34.601  30.498  1.00  0.00     0.041 A 
ATOM     65  F   UNL A   1      45.881  32.427  31.316  1.00  0.00    -0.206 F 
ATOM     66  C   UNL A   1      46.039  35.555  29.500  1.00  0.00     0.022 A 
BRANCH  63  67
ATOM     67  S   UNL A   1      45.111  36.486  27.071  1.00  0.00     0.124 S 
ATOM     68  O   UNL A   1      46.120  36.025  26.119  1.00  0.00    -0.237 OA
ATOM     69  O   UNL A   1      43.726  36.327  26.638  1.00  0.00    -0.237 OA
ATOM     70  O   UNL A   1      45.423  37.747  27.737  1.00  0.00    -0.744 OA
ENDBRANCH  63  67
ENDBRANCH  37  60
ENDBRANCH  11  12
ENDBRANCH   4   6
ENDBRANCH   1   2
BRANCH   1  71
ATOM     71  C   UNL A   1      37.176  20.225  24.962  1.00  0.00     0.042 C 
BRANCH  71  72
ATOM     72  C   UNL A   1      36.021  21.109  25.419  1.00  0.00     0.117 C 
BRANCH  72  73
ATOM     73  N   UNL A   1      34.764  20.579  24.912  1.00  0.00    -0.355 N 
ATOM     74  C   UNL A   1      33.486  21.002  25.127  1.00  0.00     0.238 C 
ATOM     75  H   UNL A   1      34.850  19.794  24.325  1.00  0.00     0.163 HD
ATOM     76  O   UNL A   1      32.569  20.269  24.756  1.00  0.00    -0.273 OA
BRANCH  74  77
ATOM     77  C   UNL A   1      33.263  22.333  25.787  1.00  0.00     0.162 C 
ATOM     78  C   UNL A   1      31.836  22.503  26.293  1.00  0.00     0.032 C 
ATOM     79  N   UNL A   1      33.550  23.619  25.058  1.00  0.00    -0.185 NA
ATOM     80  C   UNL A   1      31.853  23.926  26.807  1.00  0.00     0.019 C 
ATOM     81  C   UNL A   1      32.877  24.659  25.935  1.00  0.00     0.103 C 
BRANCH  79  82
ATOM     82  S   UNL A   1      33.094  23.810  23.395  1.00  0.00     0.244 S 
ATOM     83  O   UNL A   1      34.249  23.500  22.580  1.00  0.00    -0.207 OA
ATOM     84  O   UNL A   1      31.887  23.026  23.224  1.00  0.00    -0.207 OA
BRANCH  82  85
ATOM     85  C   UNL A   1      32.661  25.525  23.094  1.00  0.00     0.090 A 
ATOM     86  C   UNL A   1      33.629  26.318  22.423  1.00  0.00     0.024 A 
ATOM     87  C   UNL A   1      31.339  26.053  23.297  1.00  0.00     0.005 A 
ATOM     88  C   UNL A   1      33.444  27.684  22.149  1.00  0.00     0.028 A 
ATOM     89  C   UNL A   1      31.202  27.376  22.967  1.00  0.00     0.019 A 
ATOM     90  C   UNL A   1      30.111  25.462  23.720  1.00  0.00     0.010 A 
ATOM     91  C   UNL A   1      32.199  28.180  22.459  1.00  0.00     0.050 A 
ATOM     92  C   UNL A   1      30.037  28.132  23.003  1.00  0.00     0.050 A 
ATOM     93  C   UNL A   1      28.896  26.186  23.732  1.00  0.00     0.002 A 
ATOM     94  N   UNL A   1      31.668  29.439  22.257  1.00  0.00    -0.321 N 
ATOM     95  C   UNL A   1      28.836  27.540  23.375  1.00  0.00     0.014 A 
ATOM     96  C   UNL A   1      30.303  29.488  22.560  1.00  0.00     0.256 C 
ATOM     97  H   UNL A   1      32.188  30.212  21.937  1.00  0.00     0.170 HD
ATOM     98  O   UNL A   1      29.589  30.467  22.424  1.00  0.00    -0.269 OA
ENDBRANCH  82  85
ENDBRANCH  79  82
ENDBRANCH  74  77
ENDBRANCH  72  73
ENDBRANCH  71  72
ENDBRANCH   1  71
TORSDOF 15
ENDMDL
MODEL 3
REMARK VINA RESULT:     -13.1      1.711      2.109
REMARK SMILES O=C(NCCCNC(=O)[C@@H]1CCCN1S(=O)(=O)c1ccc2c3c(cccc13)C(=O)N2)c1ccc(-c2c3nc(c(-c4cc(S(=O)(=O)[O-])ccc4F)c4ccc([nH]4)c(-c4cc(S(=O)(=O)[O-])ccc4F)c4nc(c(-c5cc(S(=O)(=O)[O-])ccc5F)c5ccc2[nH]5)C=C4)C=C3)cc1
REMARK SMILES IDX 4 1 3 2 1 3 2 4 31 6 32 7 93 8 33 9 92 10 34 11 35 12 36 13
REMARK SMILES IDX 86 14 37 15 91 16 85 17 87 18 38 19 90 20 84 21 83 22 39 24
REMARK SMILES IDX 71 25 51 26 70 27 52 28 55 29 69 30 88 31 53 32 54 33 68 35
REMARK SMILES IDX 89 36 56 37 40 38 41 39 49 40 42 41 48 42 50 43 47 44 43 45
REMARK SMILES IDX 44 46 45 47 46 48 72 49 73 50 81 51 74 52 80 53 82 54 79 55
REMARK SMILES IDX 75 56 76 57 77 58 78 59 57 60 58 61 66 62 59 63 65 64 67 65
REMARK SMILES IDX 64 66 60 67 61 68 62 69 63 70 5 71 6 72 7 73 8 74 9 76 10 77
REMARK SMILES IDX 11 78 14 79 12 80 13 81 15 82 16 83 17 84 18 85 19 86 27 87
REMARK SMILES IDX 20 88 22 89 26 90 21 91 23 92 25 93 30 94 24 95 28 96 29 98
REMARK H PARENT 3 5 87 23 55 34 7 75 30 97
REMARK Flexibility Score: inf
ROOT
ATOM      1  C   UNL A   1      32.991  32.307  27.265  1.00  0.00     0.118 C 
ENDROOT
BRANCH   1   2
ATOM      2  N   UNL A   1      32.670  33.674  27.644  1.00  0.00    -0.352 N 
ATOM      3  O   UNL A   1      32.702  35.494  28.975  1.00  0.00    -0.269 OA
ATOM      4  C   UNL A   1      33.218  34.429  28.654  1.00  0.00     0.251 C 
ATOM      5  H   UNL A   1      31.970  34.115  27.110  1.00  0.00     0.163 HD
BRANCH   4   6
ATOM      6  C   UNL A   1      34.412  33.922  29.359  1.00  0.00     0.039 A 
ATOM      7  C   UNL A   1      35.694  34.268  28.917  1.00  0.00     0.014 A 
ATOM      8  C   UNL A   1      34.244  33.069  30.450  1.00  0.00     0.014 A 
ATOM      9  C   UNL A   1      36.807  33.664  29.492  1.00  0.00     0.010 A 
ATOM     10  C   UNL A   1      35.366  32.508  31.063  1.00  0.00     0.010 A 
ATOM     11  C   UNL A   1      36.653  32.778  30.569  1.00  0.00    -0.014 A 
BRANCH  11  12
ATOM     12  C   UNL A   1      37.846  32.177  31.213  1.00  0.00     0.031 A 
ATOM     13  C   UNL A   1      38.552  31.009  30.589  1.00  0.00     0.074 A 
ATOM     14  C   UNL A   1      38.273  32.683  32.385  1.00  0.00     0.049 A 
ATOM     15  N   UNL A   1      39.574  30.334  31.045  1.00  0.00    -0.248 NA
ATOM     16  C   UNL A   1      38.052  30.533  29.289  1.00  0.00     0.031 C 
ATOM     17  C   UNL A   1      37.654  33.810  33.083  1.00  0.00     0.029 A 
ATOM     18  N   UNL A   1      39.308  32.308  33.205  1.00  0.00    -0.354 N 
ATOM     19  C   UNL A   1      39.835  29.350  30.102  1.00  0.00     0.074 A 
ATOM     20  C   UNL A   1      38.850  29.499  29.053  1.00  0.00     0.031 C 
ATOM     21  C   UNL A   1      38.314  34.031  34.228  1.00  0.00     0.029 A 
ATOM     22  C   UNL A   1      39.366  33.028  34.374  1.00  0.00     0.049 A 
ATOM     23  H   UNL A   1      39.947  31.595  32.977  1.00  0.00     0.167 HD
ATOM     24  C   UNL A   1      40.812  28.415  30.116  1.00  0.00     0.034 A 
ATOM     25  C   UNL A   1      40.148  32.879  35.464  1.00  0.00     0.034 A 
ATOM     26  C   UNL A   1      41.795  28.292  31.160  1.00  0.00     0.049 A 
ATOM     27  C   UNL A   1      41.207  31.812  35.466  1.00  0.00     0.074 A 
ATOM     28  C   UNL A   1      42.865  27.415  31.220  1.00  0.00     0.029 A 
ATOM     29  N   UNL A   1      41.833  29.048  32.322  1.00  0.00    -0.354 N 
ATOM     30  N   UNL A   1      41.499  30.948  34.523  1.00  0.00    -0.248 NA
ATOM     31  C   UNL A   1      42.049  31.696  36.666  1.00  0.00     0.031 C 
ATOM     32  C   UNL A   1      43.504  27.590  32.445  1.00  0.00     0.029 A 
ATOM     33  C   UNL A   1      42.882  28.627  33.120  1.00  0.00     0.049 A 
ATOM     34  H   UNL A   1      41.206  29.773  32.545  1.00  0.00     0.167 HD
ATOM     35  C   UNL A   1      42.565  30.199  35.009  1.00  0.00     0.074 A 
ATOM     36  C   UNL A   1      42.882  30.722  36.320  1.00  0.00     0.031 C 
ATOM     37  C   UNL A   1      43.213  29.166  34.417  1.00  0.00     0.034 A 
BRANCH  24  38
ATOM     38  C   UNL A   1      40.918  27.440  28.973  1.00  0.00     0.023 A 
ATOM     39  C   UNL A   1      41.867  27.663  27.957  1.00  0.00     0.031 A 
ATOM     40  C   UNL A   1      39.957  26.433  28.784  1.00  0.00     0.131 A 
ATOM     41  C   UNL A   1      41.796  26.927  26.769  1.00  0.00     0.055 A 
ATOM     42  C   UNL A   1      39.912  25.679  27.611  1.00  0.00     0.041 A 
ATOM     43  F   UNL A   1      39.035  26.187  29.727  1.00  0.00    -0.206 F 
ATOM     44  C   UNL A   1      40.824  25.937  26.590  1.00  0.00     0.022 A 
BRANCH  41  45
ATOM     45  S   UNL A   1      42.915  27.277  25.385  1.00  0.00     0.124 S 
ATOM     46  O   UNL A   1      42.940  25.993  24.687  1.00  0.00    -0.237 OA
ATOM     47  O   UNL A   1      42.214  28.352  24.691  1.00  0.00    -0.237 OA
ATOM     48  O   UNL A   1      44.167  27.649  26.035  1.00  0.00    -0.744 OA
ENDBRANCH  41  45
ENDBRANCH  24  38
BRANCH  25  49
ATOM     49  C   UNL A   1      39.931  33.782  36.627  1.00  0.00     0.023 A 
ATOM     50  C   UNL A   1      39.357  33.288  37.813  1.00  0.00     0.031 A 
ATOM     51  C   UNL A   1      40.174  35.161  36.532  1.00  0.00     0.131 A 
ATOM     52  C   UNL A   1      38.980  34.175  38.827  1.00  0.00     0.055 A 
ATOM     53  C   UNL A   1      39.859  36.034  37.573  1.00  0.00     0.041 A 
ATOM     54  F   UNL A   1      40.710  35.677  35.415  1.00  0.00    -0.206 F 
ATOM     55  C   UNL A   1      39.242  35.545  38.722  1.00  0.00     0.022 A 
BRANCH  52  56
ATOM     56  S   UNL A   1      38.034  33.596  40.261  1.00  0.00     0.124 S 
ATOM     57  O   UNL A   1      38.928  32.595  40.834  1.00  0.00    -0.237 OA
ATOM     58  O   UNL A   1      37.887  34.827  41.033  1.00  0.00    -0.237 OA
ATOM     59  O   UNL A   1      36.803  33.077  39.675  1.00  0.00    -0.744 OA
ENDBRANCH  52  56
ENDBRANCH  25  49
BRANCH  37  60
ATOM     60  C   UNL A   1      44.351  28.499  35.145  1.00  0.00     0.023 A 
ATOM     61  C   UNL A   1      44.082  27.464  36.062  1.00  0.00     0.031 A 
ATOM     62  C   UNL A   1      45.653  29.023  35.091  1.00  0.00     0.131 A 
ATOM     63  C   UNL A   1      45.085  27.035  36.938  1.00  0.00     0.055 A 
ATOM     64  C   UNL A   1      46.662  28.558  35.935  1.00  0.00     0.041 A 
ATOM     65  F   UNL A   1      45.953  30.013  34.235  1.00  0.00    -0.206 F 
ATOM     66  C   UNL A   1      46.375  27.573  36.876  1.00  0.00     0.022 A 
BRANCH  63  67
ATOM     67  S   UNL A   1      44.729  25.824  38.241  1.00  0.00     0.124 S 
ATOM     68  O   UNL A   1      44.224  26.674  39.318  1.00  0.00    -0.237 OA
ATOM     69  O   UNL A   1      43.733  24.969  37.602  1.00  0.00    -0.237 OA
ATOM     70  O   UNL A   1      46.022  25.200  38.504  1.00  0.00    -0.744 OA
ENDBRANCH  63  67
ENDBRANCH  37  60
ENDBRANCH  11  12
ENDBRANCH   4   6
ENDBRANCH   1   2
BRANCH   1  71
ATOM     71  C   UNL A   1      31.789  31.573  26.682  1.00  0.00     0.042 C 
BRANCH  71  72
ATOM     72  C   UNL A   1      32.151  30.225  26.068  1.00  0.00     0.117 C 
BRANCH  72  73
ATOM     73  N   UNL A   1      31.097  29.795  25.162  1.00  0.00    -0.355 N 
ATOM     74  C   UNL A   1      31.142  28.916  24.122  1.00  0.00     0.238 C 
ATOM     75  H   UNL A   1      30.216  30.203  25.326  1.00  0.00     0.163 HD
ATOM     76  O   UNL A   1      30.168  28.867  23.370  1.00  0.00    -0.273 OA
BRANCH  74  77
ATOM     77  C   UNL A   1      32.358  28.051  23.954  1.00  0.00     0.162 C 
ATOM     78  C   UNL A   1      32.479  27.478  22.548  1.00  0.00     0.032 C 
ATOM     79  N   UNL A   1      32.600  26.868  24.854  1.00  0.00    -0.185 NA
ATOM     80  C   UNL A   1      33.697  26.589  22.674  1.00  0.00     0.019 C 
ATOM     81  C   UNL A   1      33.702  26.116  24.131  1.00  0.00     0.103 C 
BRANCH  79  82
ATOM     82  S   UNL A   1      31.296  25.808  25.287  1.00  0.00     0.244 S 
ATOM     83  O   UNL A   1      30.697  26.315  26.502  1.00  0.00    -0.207 OA
ATOM     84  O   UNL A   1      30.474  25.689  24.099  1.00  0.00    -0.207 OA
BRANCH  82  85
ATOM     85  C   UNL A   1      31.954  24.177  25.643  1.00  0.00     0.090 A 
ATOM     86  C   UNL A   1      32.164  23.861  27.012  1.00  0.00     0.024 A 
ATOM     87  C   UNL A   1      32.063  23.136  24.657  1.00  0.00     0.005 A 
ATOM     88  C   UNL A   1      32.705  22.637  27.441  1.00  0.00     0.028 A 
ATOM     89  C   UNL A   1      32.548  21.949  25.141  1.00  0.00     0.019 A 
ATOM     90  C   UNL A   1      31.711  23.065  23.277  1.00  0.00     0.010 A 
ATOM     91  C   UNL A   1      32.898  21.703  26.450  1.00  0.00     0.050 A 
ATOM     92  C   UNL A   1      32.704  20.761  24.438  1.00  0.00     0.050 A 
ATOM     93  C   UNL A   1      31.817  21.864  22.537  1.00  0.00     0.002 A 
ATOM     94  N   UNL A   1      33.338  20.396  26.534  1.00  0.00    -0.321 N 
ATOM     95  C   UNL A   1      32.320  20.687  23.105  1.00  0.00     0.014 A 
ATOM     96  C   UNL A   1      33.231  19.727  25.310  1.00  0.00     0.256 C 
ATOM     97  H   UNL A   1      33.685  19.983  27.357  1.00  0.00     0.170 HD
ATOM     98  O   UNL A   1      33.509  18.554  25.125  1.00  0.00    -0.269 OA
ENDBRANCH  82  85
ENDBRANCH  79  82
ENDBRANCH  74  77
ENDBRANCH  72  73
ENDBRANCH  71  72
ENDBRANCH   1  71
TORSDOF 15
ENDMDL
