MODEL 1
REMARK VINA RESULT:     -11.0      0.000      0.000
REMARK SMILES O=C(C[C@H]1C[C@H]2CC[C@@H](C1)N2C(=O)NCCC1CC1)NCCCNC(=O)c1ccc(-c2c3nc(c(-c4cc(S(=O)(=O)[O-])ccc4F)c4ccc([nH]4)c(-c4cc(S(=O)(=O)[O-])ccc4F)c4nc(c(-c5cc(S(=O)(=O)[O-])ccc5F)c5ccc2[nH]5)C=C4)C=C3)cc1
REMARK SMILES IDX 21 1 20 2 1 3 2 4 3 6 4 7 5 8 10 9 6 10 9 11 7 12 11 13 8 14
REMARK SMILES IDX 12 15 13 16 14 17 15 19 16 20 17 21 18 22 19 23 22 24 23 25
REMARK SMILES IDX 24 26 25 27 26 29 27 30 28 31 89 32 29 33 88 34 30 35 31 36
REMARK SMILES IDX 32 37 82 38 33 39 87 40 81 41 83 42 34 43 86 44 80 45 79 46
REMARK SMILES IDX 35 48 67 49 47 50 66 51 48 52 51 53 65 54 84 55 49 56 50 57
REMARK SMILES IDX 64 59 85 60 52 61 36 62 37 63 45 64 38 65 44 66 46 67 43 68
REMARK SMILES IDX 39 69 40 70 41 71 42 72 68 73 69 74 77 75 70 76 76 77 78 78
REMARK SMILES IDX 75 79 71 80 72 81 73 82 74 83 53 84 54 85 62 86 55 87 61 88
REMARK SMILES IDX 63 89 60 90 56 91 57 92 58 93 59 94
REMARK H PARENT 20 5 14 18 24 28 83 47 51 58
REMARK Flexibility Score: inf
ROOT
ATOM      1  C   UNL A   1      31.448  28.113  26.303  1.00  0.00     0.117 C 
ENDROOT
BRANCH   1   2
ATOM      2  N   UNL A   1      31.264  27.156  25.231  1.00  0.00    -0.356 N 
ATOM      3  O   UNL A   1      29.995  25.624  26.340  1.00  0.00    -0.275 OA
ATOM      4  C   UNL A   1      30.580  25.973  25.317  1.00  0.00     0.220 C 
ATOM      5  H   UNL A   1      31.666  27.378  24.360  1.00  0.00     0.163 HD
BRANCH   4   6
ATOM      6  C   UNL A   1      30.747  25.003  24.137  1.00  0.00     0.103 C 
BRANCH   6   7
ATOM      7  C   UNL A   1      31.538  23.670  24.228  1.00  0.00     0.002 C 
ATOM      8  C   UNL A   1      32.253  23.137  22.982  1.00  0.00     0.029 C 
ATOM      9  C   UNL A   1      32.584  23.699  25.390  1.00  0.00     0.029 C 
ATOM     10  C   UNL A   1      33.623  23.792  22.741  1.00  0.00     0.087 C 
ATOM     11  C   UNL A   1      34.026  24.135  24.985  1.00  0.00     0.087 C 
ATOM     12  C   UNL A   1      33.733  25.325  22.909  1.00  0.00     0.027 C 
ATOM     13  N   UNL A   1      34.481  23.360  23.835  1.00  0.00    -0.319 N 
ATOM     14  C   UNL A   1      34.058  25.546  24.397  1.00  0.00     0.027 C 
BRANCH  13  15
ATOM     15  C   UNL A   1      35.656  22.770  23.500  1.00  0.00     0.317 C 
ATOM     16  O   UNL A   1      36.248  23.071  22.457  1.00  0.00    -0.249 OA
ATOM     17  N   UNL A   1      36.287  21.868  24.256  1.00  0.00    -0.338 N 
ATOM     18  H   UNL A   1      37.227  21.757  23.985  1.00  0.00     0.165 HD
BRANCH  17  19
ATOM     19  C   UNL A   1      35.948  21.012  25.373  1.00  0.00     0.118 C 
BRANCH  19  20
ATOM     20  C   UNL A   1      35.084  19.833  24.926  1.00  0.00     0.025 C 
BRANCH  20  21
ATOM     21  C   UNL A   1      33.610  20.153  24.939  1.00  0.00    -0.009 C 
ATOM     22  C   UNL A   1      32.715  19.643  23.835  1.00  0.00     0.004 C 
ATOM     23  C   UNL A   1      32.545  19.121  25.230  1.00  0.00     0.004 C 
ENDBRANCH  20  21
ENDBRANCH  19  20
ENDBRANCH  17  19
ENDBRANCH  13  15
ENDBRANCH   6   7
ENDBRANCH   4   6
ENDBRANCH   1   2
BRANCH   1  24
ATOM     24  C   UNL A   1      32.863  28.023  26.888  1.00  0.00     0.042 C 
BRANCH  24  25
ATOM     25  C   UNL A   1      33.882  29.039  26.359  1.00  0.00     0.118 C 
BRANCH  25  26
ATOM     26  N   UNL A   1      33.634  30.400  26.792  1.00  0.00    -0.352 N 
ATOM     27  C   UNL A   1      34.339  31.200  27.663  1.00  0.00     0.251 C 
ATOM     28  H   UNL A   1      32.833  30.820  26.401  1.00  0.00     0.163 HD
ATOM     29  O   UNL A   1      33.872  32.288  27.978  1.00  0.00    -0.269 OA
BRANCH  27  30
ATOM     30  C   UNL A   1      35.622  30.744  28.253  1.00  0.00     0.039 A 
ATOM     31  C   UNL A   1      35.573  29.867  29.342  1.00  0.00     0.014 A 
ATOM     32  C   UNL A   1      36.859  31.185  27.776  1.00  0.00     0.014 A 
ATOM     33  C   UNL A   1      36.757  29.377  29.902  1.00  0.00     0.010 A 
ATOM     34  C   UNL A   1      38.040  30.644  28.296  1.00  0.00     0.010 A 
ATOM     35  C   UNL A   1      38.003  29.727  29.358  1.00  0.00    -0.014 A 
BRANCH  35  36
ATOM     36  C   UNL A   1      39.266  29.128  29.882  1.00  0.00     0.031 A 
ATOM     37  C   UNL A   1      39.951  29.719  31.086  1.00  0.00     0.074 A 
ATOM     38  C   UNL A   1      39.824  28.078  29.245  1.00  0.00     0.049 A 
ATOM     39  N   UNL A   1      41.090  29.383  31.638  1.00  0.00    -0.248 NA
ATOM     40  C   UNL A   1      39.276  30.847  31.742  1.00  0.00     0.031 C 
ATOM     41  C   UNL A   1      39.273  27.422  28.058  1.00  0.00     0.029 A 
ATOM     42  N   UNL A   1      40.981  27.380  29.498  1.00  0.00    -0.354 N 
ATOM     43  C   UNL A   1      41.274  30.263  32.700  1.00  0.00     0.074 A 
ATOM     44  C   UNL A   1      40.154  31.182  32.675  1.00  0.00     0.031 C 
ATOM     45  C   UNL A   1      40.077  26.408  27.701  1.00  0.00     0.029 A 
ATOM     46  C   UNL A   1      41.230  26.373  28.594  1.00  0.00     0.049 A 
ATOM     47  H   UNL A   1      41.576  27.583  30.256  1.00  0.00     0.167 HD
ATOM     48  C   UNL A   1      42.272  30.293  33.620  1.00  0.00     0.034 A 
ATOM     49  C   UNL A   1      42.277  25.528  28.480  1.00  0.00     0.034 A 
ATOM     50  C   UNL A   1      43.384  29.370  33.634  1.00  0.00     0.049 A 
ATOM     51  C   UNL A   1      43.404  25.619  29.479  1.00  0.00     0.074 A 
ATOM     52  C   UNL A   1      44.422  29.288  34.547  1.00  0.00     0.029 A 
ATOM     53  N   UNL A   1      43.614  28.379  32.688  1.00  0.00    -0.354 N 
ATOM     54  N   UNL A   1      43.542  26.433  30.500  1.00  0.00    -0.248 NA
ATOM     55  C   UNL A   1      44.513  24.670  29.315  1.00  0.00     0.031 C 
ATOM     56  C   UNL A   1      45.318  28.308  34.110  1.00  0.00     0.029 A 
ATOM     57  C   UNL A   1      44.796  27.710  32.975  1.00  0.00     0.049 A 
ATOM     58  H   UNL A   1      43.024  28.180  31.926  1.00  0.00     0.167 HD
ATOM     59  C   UNL A   1      44.736  26.069  31.118  1.00  0.00     0.074 A 
ATOM     60  C   UNL A   1      45.269  24.954  30.365  1.00  0.00     0.031 C 
ATOM     61  C   UNL A   1      45.332  26.604  32.214  1.00  0.00     0.034 A 
BRANCH  48  62
ATOM     62  C   UNL A   1      42.223  31.381  34.668  1.00  0.00     0.023 A 
ATOM     63  C   UNL A   1      41.231  31.408  35.663  1.00  0.00     0.031 A 
ATOM     64  C   UNL A   1      43.175  32.417  34.665  1.00  0.00     0.131 A 
ATOM     65  C   UNL A   1      41.165  32.484  36.561  1.00  0.00     0.055 A 
ATOM     66  C   UNL A   1      43.156  33.440  35.616  1.00  0.00     0.041 A 
ATOM     67  F   UNL A   1      44.136  32.459  33.728  1.00  0.00    -0.206 F 
ATOM     68  C   UNL A   1      42.137  33.486  36.561  1.00  0.00     0.022 A 
BRANCH  65  69
ATOM     69  S   UNL A   1      39.706  32.633  37.629  1.00  0.00     0.124 S 
ATOM     70  O   UNL A   1      39.160  33.920  37.203  1.00  0.00    -0.237 OA
ATOM     71  O   UNL A   1      38.927  31.456  37.265  1.00  0.00    -0.237 OA
ATOM     72  O   UNL A   1      40.267  32.619  38.978  1.00  0.00    -0.744 OA
ENDBRANCH  65  69
ENDBRANCH  48  62
BRANCH  49  73
ATOM     73  C   UNL A   1      42.332  24.537  27.365  1.00  0.00     0.023 A 
ATOM     74  C   UNL A   1      41.569  23.360  27.402  1.00  0.00     0.031 A 
ATOM     75  C   UNL A   1      43.195  24.727  26.269  1.00  0.00     0.131 A 
ATOM     76  C   UNL A   1      41.721  22.394  26.394  1.00  0.00     0.055 A 
ATOM     77  C   UNL A   1      43.295  23.792  25.237  1.00  0.00     0.041 A 
ATOM     78  F   UNL A   1      43.950  25.834  26.182  1.00  0.00    -0.206 F 
ATOM     79  C   UNL A   1      42.566  22.609  25.304  1.00  0.00     0.022 A 
BRANCH  76  80
ATOM     80  S   UNL A   1      40.870  20.802  26.582  1.00  0.00     0.124 S 
ATOM     81  O   UNL A   1      39.543  21.113  26.060  1.00  0.00    -0.237 OA
ATOM     82  O   UNL A   1      41.692  19.920  25.762  1.00  0.00    -0.237 OA
ATOM     83  O   UNL A   1      40.932  20.551  28.020  1.00  0.00    -0.744 OA
ENDBRANCH  76  80
ENDBRANCH  49  73
BRANCH  61  84
ATOM     84  C   UNL A   1      46.608  25.953  32.696  1.00  0.00     0.023 A 
ATOM     85  C   UNL A   1      46.602  24.892  33.620  1.00  0.00     0.031 A 
ATOM     86  C   UNL A   1      47.853  26.410  32.228  1.00  0.00     0.131 A 
ATOM     87  C   UNL A   1      47.815  24.364  34.089  1.00  0.00     0.055 A 
ATOM     88  C   UNL A   1      49.055  25.837  32.647  1.00  0.00     0.041 A 
ATOM     89  F   UNL A   1      47.924  27.425  31.351  1.00  0.00    -0.206 F 
ATOM     90  C   UNL A   1      49.041  24.817  33.593  1.00  0.00     0.022 A 
BRANCH  87  91
ATOM     91  S   UNL A   1      47.776  23.146  35.432  1.00  0.00     0.124 S 
ATOM     92  O   UNL A   1      46.941  22.094  34.863  1.00  0.00    -0.237 OA
ATOM     93  O   UNL A   1      49.188  22.820  35.601  1.00  0.00    -0.237 OA
ATOM     94  O   UNL A   1      47.174  23.881  36.544  1.00  0.00    -0.744 OA
ENDBRANCH  87  91
ENDBRANCH  61  84
ENDBRANCH  35  36
ENDBRANCH  27  30
ENDBRANCH  25  26
ENDBRANCH  24  25
ENDBRANCH   1  24
TORSDOF 18
ENDMDL
MODEL 2
REMARK VINA RESULT:     -10.8      3.207      8.600
REMARK SMILES O=C(C[C@H]1C[C@H]2CC[C@@H](C1)N2C(=O)NCCC1CC1)NCCCNC(=O)c1ccc(-c2c3nc(c(-c4cc(S(=O)(=O)[O-])ccc4F)c4ccc([nH]4)c(-c4cc(S(=O)(=O)[O-])ccc4F)c4nc(c(-c5cc(S(=O)(=O)[O-])ccc5F)c5ccc2[nH]5)C=C4)C=C3)cc1
REMARK SMILES IDX 21 1 20 2 1 3 2 4 3 6 4 7 5 8 10 9 6 10 9 11 7 12 11 13 8 14
REMARK SMILES IDX 12 15 13 16 14 17 15 19 16 20 17 21 18 22 19 23 22 24 23 25
REMARK SMILES IDX 24 26 25 27 26 29 27 30 28 31 89 32 29 33 88 34 30 35 31 36
REMARK SMILES IDX 32 37 82 38 33 39 87 40 81 41 83 42 34 43 86 44 80 45 79 46
REMARK SMILES IDX 35 48 67 49 47 50 66 51 48 52 51 53 65 54 84 55 49 56 50 57
REMARK SMILES IDX 64 59 85 60 52 61 36 62 37 63 45 64 38 65 44 66 46 67 43 68
REMARK SMILES IDX 39 69 40 70 41 71 42 72 68 73 69 74 77 75 70 76 76 77 78 78
REMARK SMILES IDX 75 79 71 80 72 81 73 82 74 83 53 84 54 85 62 86 55 87 61 88
REMARK SMILES IDX 63 89 60 90 56 91 57 92 58 93 59 94
REMARK H PARENT 20 5 14 18 24 28 83 47 51 58
REMARK Flexibility Score: inf
ROOT
ATOM      1  C   UNL A   1      31.493  30.436  26.836  1.00  0.00     0.117 C 
ENDROOT
BRANCH   1   2
ATOM      2  N   UNL A   1      31.860  29.768  25.604  1.00  0.00    -0.356 N 
ATOM      3  O   UNL A   1      34.059  29.378  26.057  1.00  0.00    -0.275 OA
ATOM      4  C   UNL A   1      33.108  29.308  25.280  1.00  0.00     0.220 C 
ATOM      5  H   UNL A   1      31.147  29.631  24.940  1.00  0.00     0.163 HD
BRANCH   4   6
ATOM      6  C   UNL A   1      33.318  28.879  23.819  1.00  0.00     0.103 C 
BRANCH   6   7
ATOM      7  C   UNL A   1      33.867  27.487  23.405  1.00  0.00     0.002 C 
ATOM      8  C   UNL A   1      33.803  26.329  24.407  1.00  0.00     0.029 C 
ATOM      9  C   UNL A   1      33.223  26.987  22.072  1.00  0.00     0.029 C 
ATOM     10  C   UNL A   1      32.429  25.639  24.450  1.00  0.00     0.087 C 
ATOM     11  C   UNL A   1      31.971  26.070  22.232  1.00  0.00     0.087 C 
ATOM     12  C   UNL A   1      31.169  26.534  24.457  1.00  0.00     0.027 C 
ATOM     13  N   UNL A   1      32.261  24.982  23.161  1.00  0.00    -0.319 N 
ATOM     14  C   UNL A   1      30.834  26.771  22.974  1.00  0.00     0.027 C 
BRANCH  13  15
ATOM     15  C   UNL A   1      31.978  23.655  23.179  1.00  0.00     0.317 C 
ATOM     16  O   UNL A   1      30.811  23.250  23.200  1.00  0.00    -0.249 OA
ATOM     17  N   UNL A   1      32.901  22.690  23.137  1.00  0.00    -0.338 N 
ATOM     18  H   UNL A   1      32.509  21.820  22.896  1.00  0.00     0.165 HD
BRANCH  17  19
ATOM     19  C   UNL A   1      34.329  22.591  23.353  1.00  0.00     0.118 C 
BRANCH  19  20
ATOM     20  C   UNL A   1      34.643  21.882  24.671  1.00  0.00     0.025 C 
BRANCH  20  21
ATOM     21  C   UNL A   1      33.858  22.438  25.833  1.00  0.00    -0.009 C 
ATOM     22  C   UNL A   1      33.781  21.670  27.131  1.00  0.00     0.004 C 
ATOM     23  C   UNL A   1      34.509  22.980  27.084  1.00  0.00     0.004 C 
ENDBRANCH  20  21
ENDBRANCH  19  20
ENDBRANCH  17  19
ENDBRANCH  13  15
ENDBRANCH   6   7
ENDBRANCH   4   6
ENDBRANCH   1   2
BRANCH   1  24
ATOM     24  C   UNL A   1      31.541  31.961  26.674  1.00  0.00     0.042 C 
BRANCH  24  25
ATOM     25  C   UNL A   1      32.763  32.669  27.270  1.00  0.00     0.118 C 
BRANCH  25  26
ATOM     26  N   UNL A   1      32.509  34.037  27.678  1.00  0.00    -0.352 N 
ATOM     27  C   UNL A   1      33.137  34.814  28.625  1.00  0.00     0.251 C 
ATOM     28  H   UNL A   1      31.770  34.481  27.203  1.00  0.00     0.163 HD
ATOM     29  O   UNL A   1      32.671  35.916  28.891  1.00  0.00    -0.269 OA
BRANCH  27  30
ATOM     30  C   UNL A   1      34.332  34.319  29.352  1.00  0.00     0.039 A 
ATOM     31  C   UNL A   1      34.136  33.642  30.560  1.00  0.00     0.014 A 
ATOM     32  C   UNL A   1      35.630  34.535  28.884  1.00  0.00     0.014 A 
ATOM     33  C   UNL A   1      35.231  33.120  31.257  1.00  0.00     0.010 A 
ATOM     34  C   UNL A   1      36.717  33.957  29.548  1.00  0.00     0.010 A 
ATOM     35  C   UNL A   1      36.529  33.234  30.737  1.00  0.00    -0.014 A 
BRANCH  35  36
ATOM     36  C   UNL A   1      37.690  32.592  31.420  1.00  0.00     0.031 A 
ATOM     37  C   UNL A   1      38.417  31.441  30.776  1.00  0.00     0.074 A 
ATOM     38  C   UNL A   1      38.063  33.013  32.646  1.00  0.00     0.049 A 
ATOM     39  N   UNL A   1      39.396  30.711  31.248  1.00  0.00    -0.248 NA
ATOM     40  C   UNL A   1      37.972  31.050  29.431  1.00  0.00     0.031 C 
ATOM     41  C   UNL A   1      37.432  34.105  33.391  1.00  0.00     0.029 A 
ATOM     42  N   UNL A   1      39.055  32.572  33.490  1.00  0.00    -0.354 N 
ATOM     43  C   UNL A   1      39.678  29.768  30.265  1.00  0.00     0.074 A 
ATOM     44  C   UNL A   1      38.726  29.986  29.196  1.00  0.00     0.031 C 
ATOM     45  C   UNL A   1      38.064  34.262  34.564  1.00  0.00     0.029 A 
ATOM     46  C   UNL A   1      39.108  33.249  34.687  1.00  0.00     0.049 A 
ATOM     47  H   UNL A   1      39.670  31.839  33.258  1.00  0.00     0.167 HD
ATOM     48  C   UNL A   1      40.649  28.819  30.247  1.00  0.00     0.034 A 
ATOM     49  C   UNL A   1      39.890  33.066  35.771  1.00  0.00     0.034 A 
ATOM     50  C   UNL A   1      41.593  28.610  31.321  1.00  0.00     0.049 A 
ATOM     51  C   UNL A   1      40.923  31.966  35.751  1.00  0.00     0.074 A 
ATOM     52  C   UNL A   1      42.642  27.707  31.382  1.00  0.00     0.029 A 
ATOM     53  N   UNL A   1      41.600  29.300  32.528  1.00  0.00    -0.354 N 
ATOM     54  N   UNL A   1      41.201  31.108  34.797  1.00  0.00    -0.248 NA
ATOM     55  C   UNL A   1      41.755  31.816  36.953  1.00  0.00     0.031 C 
ATOM     56  C   UNL A   1      43.226  27.793  32.649  1.00  0.00     0.029 A 
ATOM     57  C   UNL A   1      42.607  28.814  33.350  1.00  0.00     0.049 A 
ATOM     58  H   UNL A   1      40.980  30.028  32.763  1.00  0.00     0.167 HD
ATOM     59  C   UNL A   1      42.263  30.341  35.272  1.00  0.00     0.074 A 
ATOM     60  C   UNL A   1      42.583  30.849  36.589  1.00  0.00     0.031 C 
ATOM     61  C   UNL A   1      42.917  29.316  34.669  1.00  0.00     0.034 A 
BRANCH  48  62
ATOM     62  C   UNL A   1      40.717  27.911  29.040  1.00  0.00     0.023 A 
ATOM     63  C   UNL A   1      41.672  28.097  28.026  1.00  0.00     0.031 A 
ATOM     64  C   UNL A   1      39.802  26.853  28.893  1.00  0.00     0.131 A 
ATOM     65  C   UNL A   1      41.643  27.291  26.878  1.00  0.00     0.055 A 
ATOM     66  C   UNL A   1      39.834  25.999  27.788  1.00  0.00     0.041 A 
ATOM     67  F   UNL A   1      38.852  26.636  29.816  1.00  0.00    -0.206 F 
ATOM     68  C   UNL A   1      40.747  26.225  26.764  1.00  0.00     0.022 A 
BRANCH  65  69
ATOM     69  S   UNL A   1      42.692  27.750  25.471  1.00  0.00     0.124 S 
ATOM     70  O   UNL A   1      42.904  26.455  24.827  1.00  0.00    -0.237 OA
ATOM     71  O   UNL A   1      41.850  28.694  24.746  1.00  0.00    -0.237 OA
ATOM     72  O   UNL A   1      43.878  28.325  26.101  1.00  0.00    -0.744 OA
ENDBRANCH  65  69
ENDBRANCH  48  62
BRANCH  49  73
ATOM     73  C   UNL A   1      39.718  33.920  36.983  1.00  0.00     0.023 A 
ATOM     74  C   UNL A   1      39.119  33.414  38.148  1.00  0.00     0.031 A 
ATOM     75  C   UNL A   1      40.100  35.275  36.975  1.00  0.00     0.131 A 
ATOM     76  C   UNL A   1      38.871  34.268  39.235  1.00  0.00     0.055 A 
ATOM     77  C   UNL A   1      39.908  36.103  38.082  1.00  0.00     0.041 A 
ATOM     78  F   UNL A   1      40.676  35.812  35.888  1.00  0.00    -0.206 F 
ATOM     79  C   UNL A   1      39.276  35.604  39.216  1.00  0.00     0.022 A 
BRANCH  76  80
ATOM     80  S   UNL A   1      37.917  33.629  40.640  1.00  0.00     0.124 S 
ATOM     81  O   UNL A   1      38.788  32.566  41.130  1.00  0.00    -0.237 OA
ATOM     82  O   UNL A   1      37.801  34.808  41.490  1.00  0.00    -0.237 OA
ATOM     83  O   UNL A   1      36.668  33.180  40.026  1.00  0.00    -0.744 OA
ENDBRANCH  76  80
ENDBRANCH  49  73
BRANCH  61  84
ATOM     84  C   UNL A   1      44.084  28.707  35.413  1.00  0.00     0.023 A 
ATOM     85  C   UNL A   1      43.921  27.631  36.304  1.00  0.00     0.031 A 
ATOM     86  C   UNL A   1      45.381  29.221  35.233  1.00  0.00     0.131 A 
ATOM     87  C   UNL A   1      45.024  27.143  37.023  1.00  0.00     0.055 A 
ATOM     88  C   UNL A   1      46.486  28.689  35.899  1.00  0.00     0.041 A 
ATOM     89  F   UNL A   1      45.598  30.252  34.400  1.00  0.00    -0.206 F 
ATOM     90  C   UNL A   1      46.308  27.652  36.811  1.00  0.00     0.022 A 
BRANCH  87  91
ATOM     91  S   UNL A   1      44.744  25.902  38.315  1.00  0.00     0.124 S 
ATOM     92  O   UNL A   1      44.309  24.747  37.537  1.00  0.00    -0.237 OA
ATOM     93  O   UNL A   1      46.061  25.794  38.936  1.00  0.00    -0.237 OA
ATOM     94  O   UNL A   1      43.712  26.508  39.155  1.00  0.00    -0.744 OA
ENDBRANCH  87  91
ENDBRANCH  61  84
ENDBRANCH  35  36
ENDBRANCH  27  30
ENDBRANCH  25  26
ENDBRANCH  24  25
ENDBRANCH   1  24
TORSDOF 18
ENDMDL
MODEL 3
REMARK VINA RESULT:     -10.7      1.739      2.324
REMARK SMILES O=C(C[C@H]1C[C@H]2CC[C@@H](C1)N2C(=O)NCCC1CC1)NCCCNC(=O)c1ccc(-c2c3nc(c(-c4cc(S(=O)(=O)[O-])ccc4F)c4ccc([nH]4)c(-c4cc(S(=O)(=O)[O-])ccc4F)c4nc(c(-c5cc(S(=O)(=O)[O-])ccc5F)c5ccc2[nH]5)C=C4)C=C3)cc1
REMARK SMILES IDX 21 1 20 2 1 3 2 4 3 6 4 7 5 8 10 9 6 10 9 11 7 12 11 13 8 14
REMARK SMILES IDX 12 15 13 16 14 17 15 19 16 20 17 21 18 22 19 23 22 24 23 25
REMARK SMILES IDX 24 26 25 27 26 29 27 30 28 31 89 32 29 33 88 34 30 35 31 36
REMARK SMILES IDX 32 37 82 38 33 39 87 40 81 41 83 42 34 43 86 44 80 45 79 46
REMARK SMILES IDX 35 48 67 49 47 50 66 51 48 52 51 53 65 54 84 55 49 56 50 57
REMARK SMILES IDX 64 59 85 60 52 61 36 62 37 63 45 64 38 65 44 66 46 67 43 68
REMARK SMILES IDX 39 69 40 70 41 71 42 72 68 73 69 74 77 75 70 76 76 77 78 78
REMARK SMILES IDX 75 79 71 80 72 81 73 82 74 83 53 84 54 85 62 86 55 87 61 88
REMARK SMILES IDX 63 89 60 90 56 91 57 92 58 93 59 94
REMARK H PARENT 20 5 14 18 24 28 83 47 51 58
REMARK Flexibility Score: inf
ROOT
ATOM      1  C   UNL A   1      32.070  29.107  24.105  1.00  0.00     0.117 C 
ENDROOT
BRANCH   1   2
ATOM      2  N   UNL A   1      31.825  27.679  24.077  1.00  0.00    -0.356 N 
ATOM      3  O   UNL A   1      33.608  27.040  22.812  1.00  0.00    -0.275 OA
ATOM      4  C   UNL A   1      32.581  26.746  23.421  1.00  0.00     0.220 C 
ATOM      5  H   UNL A   1      31.043  27.351  24.578  1.00  0.00     0.163 HD
BRANCH   4   6
ATOM      6  C   UNL A   1      31.978  25.337  23.311  1.00  0.00     0.103 C 
BRANCH   6   7
ATOM      7  C   UNL A   1      32.828  24.037  23.333  1.00  0.00     0.002 C 
ATOM      8  C   UNL A   1      33.935  23.885  24.383  1.00  0.00     0.029 C 
ATOM      9  C   UNL A   1      31.928  22.762  23.416  1.00  0.00     0.029 C 
ATOM     10  C   UNL A   1      33.413  23.422  25.753  1.00  0.00     0.087 C 
ATOM     11  C   UNL A   1      31.668  22.214  24.853  1.00  0.00     0.087 C 
ATOM     12  C   UNL A   1      32.129  24.086  26.301  1.00  0.00     0.027 C 
ATOM     13  N   UNL A   1      32.931  22.061  25.569  1.00  0.00    -0.319 N 
ATOM     14  C   UNL A   1      30.970  23.242  25.744  1.00  0.00     0.027 C 
BRANCH  13  15
ATOM     15  C   UNL A   1      33.439  21.111  26.394  1.00  0.00     0.317 C 
ATOM     16  O   UNL A   1      34.171  21.414  27.342  1.00  0.00    -0.249 OA
ATOM     17  N   UNL A   1      33.175  19.806  26.290  1.00  0.00    -0.338 N 
ATOM     18  H   UNL A   1      33.410  19.319  27.112  1.00  0.00     0.165 HD
BRANCH  17  19
ATOM     19  C   UNL A   1      32.630  18.922  25.282  1.00  0.00     0.118 C 
BRANCH  19  20
ATOM     20  C   UNL A   1      32.726  17.459  25.717  1.00  0.00     0.025 C 
BRANCH  20  21
ATOM     21  C   UNL A   1      33.540  16.620  24.763  1.00  0.00    -0.009 C 
ATOM     22  C   UNL A   1      34.797  17.183  24.145  1.00  0.00     0.004 C 
ATOM     23  C   UNL A   1      34.892  16.046  25.118  1.00  0.00     0.004 C 
ENDBRANCH  20  21
ENDBRANCH  19  20
ENDBRANCH  17  19
ENDBRANCH  13  15
ENDBRANCH   6   7
ENDBRANCH   4   6
ENDBRANCH   1   2
BRANCH   1  24
ATOM     24  C   UNL A   1      31.699  29.706  25.467  1.00  0.00     0.042 C 
BRANCH  24  25
ATOM     25  C   UNL A   1      32.867  30.085  26.383  1.00  0.00     0.118 C 
BRANCH  25  26
ATOM     26  N   UNL A   1      32.861  31.474  26.801  1.00  0.00    -0.352 N 
ATOM     27  C   UNL A   1      33.736  32.164  27.610  1.00  0.00     0.251 C 
ATOM     28  H   UNL A   1      32.113  32.009  26.449  1.00  0.00     0.163 HD
ATOM     29  O   UNL A   1      33.464  33.316  27.929  1.00  0.00    -0.269 OA
BRANCH  27  30
ATOM     30  C   UNL A   1      34.966  31.520  28.132  1.00  0.00     0.039 A 
ATOM     31  C   UNL A   1      36.152  32.262  28.127  1.00  0.00     0.014 A 
ATOM     32  C   UNL A   1      34.977  30.202  28.595  1.00  0.00     0.014 A 
ATOM     33  C   UNL A   1      37.326  31.711  28.650  1.00  0.00     0.010 A 
ATOM     34  C   UNL A   1      36.136  29.676  29.176  1.00  0.00     0.010 A 
ATOM     35  C   UNL A   1      37.322  30.428  29.219  1.00  0.00    -0.014 A 
BRANCH  35  36
ATOM     36  C   UNL A   1      38.543  29.873  29.873  1.00  0.00     0.031 A 
ATOM     37  C   UNL A   1      38.980  30.367  31.226  1.00  0.00     0.074 A 
ATOM     38  C   UNL A   1      39.290  28.954  29.226  1.00  0.00     0.049 A 
ATOM     39  N   UNL A   1      40.050  30.059  31.915  1.00  0.00    -0.248 NA
ATOM     40  C   UNL A   1      38.108  31.352  31.881  1.00  0.00     0.031 C 
ATOM     41  C   UNL A   1      38.989  28.403  27.903  1.00  0.00     0.029 A 
ATOM     42  N   UNL A   1      40.458  28.324  29.585  1.00  0.00    -0.354 N 
ATOM     43  C   UNL A   1      39.986  30.817  33.080  1.00  0.00     0.074 A 
ATOM     44  C   UNL A   1      38.800  31.641  32.974  1.00  0.00     0.031 C 
ATOM     45  C   UNL A   1      39.931  27.506  27.574  1.00  0.00     0.029 A 
ATOM     46  C   UNL A   1      40.936  27.455  28.631  1.00  0.00     0.049 A 
ATOM     47  H   UNL A   1      40.910  28.481  30.446  1.00  0.00     0.167 HD
ATOM     48  C   UNL A   1      40.828  30.816  34.146  1.00  0.00     0.034 A 
ATOM     49  C   UNL A   1      42.065  26.715  28.597  1.00  0.00     0.034 A 
ATOM     50  C   UNL A   1      42.009  29.989  34.240  1.00  0.00     0.049 A 
ATOM     51  C   UNL A   1      43.015  26.775  29.768  1.00  0.00     0.074 A 
ATOM     52  C   UNL A   1      42.901  29.880  35.294  1.00  0.00     0.029 A 
ATOM     53  N   UNL A   1      42.473  29.139  33.243  1.00  0.00    -0.354 N 
ATOM     54  N   UNL A   1      42.918  27.469  30.878  1.00  0.00    -0.248 NA
ATOM     55  C   UNL A   1      44.223  25.943  29.684  1.00  0.00     0.031 C 
ATOM     56  C   UNL A   1      43.944  29.033  34.904  1.00  0.00     0.029 A 
ATOM     57  C   UNL A   1      43.658  28.536  33.643  1.00  0.00     0.049 A 
ATOM     58  H   UNL A   1      42.026  28.986  32.379  1.00  0.00     0.167 HD
ATOM     59  C   UNL A   1      44.036  27.129  31.638  1.00  0.00     0.074 A 
ATOM     60  C   UNL A   1      44.782  26.158  30.865  1.00  0.00     0.031 C 
ATOM     61  C   UNL A   1      44.406  27.575  32.865  1.00  0.00     0.034 A 
BRANCH  48  62
ATOM     62  C   UNL A   1      40.517  31.763  35.282  1.00  0.00     0.023 A 
ATOM     63  C   UNL A   1      39.479  31.510  36.195  1.00  0.00     0.031 A 
ATOM     64  C   UNL A   1      41.261  32.946  35.446  1.00  0.00     0.131 A 
ATOM     65  C   UNL A   1      39.163  32.459  37.180  1.00  0.00     0.055 A 
ATOM     66  C   UNL A   1      40.997  33.845  36.482  1.00  0.00     0.041 A 
ATOM     67  F   UNL A   1      42.252  33.255  34.595  1.00  0.00    -0.206 F 
ATOM     68  C   UNL A   1      39.933  33.613  37.346  1.00  0.00     0.022 A 
BRANCH  65  69
ATOM     69  S   UNL A   1      37.641  32.236  38.140  1.00  0.00     0.124 S 
ATOM     70  O   UNL A   1      37.363  30.818  37.928  1.00  0.00    -0.237 OA
ATOM     71  O   UNL A   1      38.060  32.611  39.485  1.00  0.00    -0.237 OA
ATOM     72  O   UNL A   1      36.696  33.151  37.502  1.00  0.00    -0.744 OA
ENDBRANCH  65  69
ENDBRANCH  48  62
BRANCH  49  73
ATOM     73  C   UNL A   1      42.382  25.872  27.407  1.00  0.00     0.023 A 
ATOM     74  C   UNL A   1      41.974  24.531  27.339  1.00  0.00     0.031 A 
ATOM     75  C   UNL A   1      43.149  26.381  26.343  1.00  0.00     0.131 A 
ATOM     76  C   UNL A   1      42.379  23.730  26.259  1.00  0.00     0.055 A 
ATOM     77  C   UNL A   1      43.495  25.598  25.240  1.00  0.00     0.041 A 
ATOM     78  F   UNL A   1      43.568  27.657  26.355  1.00  0.00    -0.206 F 
ATOM     79  C   UNL A   1      43.122  24.258  25.201  1.00  0.00     0.022 A 
BRANCH  76  80
ATOM     80  S   UNL A   1      42.003  21.955  26.305  1.00  0.00     0.124 S 
ATOM     81  O   UNL A   1      42.851  21.446  25.233  1.00  0.00    -0.237 OA
ATOM     82  O   UNL A   1      42.398  21.596  27.662  1.00  0.00    -0.237 OA
ATOM     83  O   UNL A   1      40.566  21.905  26.042  1.00  0.00    -0.744 OA
ENDBRANCH  76  80
ENDBRANCH  49  73
BRANCH  61  84
ATOM     84  C   UNL A   1      45.653  26.974  33.473  1.00  0.00     0.023 A 
ATOM     85  C   UNL A   1      45.623  25.768  34.197  1.00  0.00     0.031 A 
ATOM     86  C   UNL A   1      46.891  27.626  33.333  1.00  0.00     0.131 A 
ATOM     87  C   UNL A   1      46.794  25.283  34.801  1.00  0.00     0.055 A 
ATOM     88  C   UNL A   1      48.065  27.105  33.878  1.00  0.00     0.041 A 
ATOM     89  F   UNL A   1      46.981  28.784  32.660  1.00  0.00    -0.206 F 
ATOM     90  C   UNL A   1      48.019  25.934  34.629  1.00  0.00     0.022 A 
BRANCH  87  91
ATOM     91  S   UNL A   1      46.679  23.845  35.900  1.00  0.00     0.124 S 
ATOM     92  O   UNL A   1      46.485  22.754  34.951  1.00  0.00    -0.237 OA
ATOM     93  O   UNL A   1      47.967  23.873  36.587  1.00  0.00    -0.237 OA
ATOM     94  O   UNL A   1      45.523  24.148  36.742  1.00  0.00    -0.744 OA
ENDBRANCH  87  91
ENDBRANCH  61  84
ENDBRANCH  35  36
ENDBRANCH  27  30
ENDBRANCH  25  26
ENDBRANCH  24  25
ENDBRANCH   1  24
TORSDOF 18
ENDMDL
