MODEL 1
REMARK VINA RESULT:     -12.3      0.000      0.000
REMARK SMILES O=C(C[C@H](C1CCCCC1)N1Cc2ccccc2C1=O)NCCCNC(=O)c1ccc(-c2c3nc(c(-c4cc(S(=O)(=O)[O-])ccc4F)c4ccc([nH]4)c(-c4cc(S(=O)(=O)[O-])ccc4F)c4nc(c(-c5cc(S(=O)(=O)[O-])ccc5F)c5ccc2[nH]5)C=C4)C=C3)cc1
REMARK SMILES IDX 23 1 22 2 21 3 1 4 2 5 3 7 4 8 11 9 12 10 19 11 13 12 18 13
REMARK SMILES IDX 20 14 14 15 17 16 15 17 16 18 5 19 6 20 10 21 7 22 9 23 8 24
REMARK SMILES IDX 24 25 25 26 26 27 27 29 28 30 29 31 90 32 30 33 89 34 31 35
REMARK SMILES IDX 32 36 33 37 83 38 34 39 88 40 82 41 84 42 35 43 87 44 81 45
REMARK SMILES IDX 80 46 36 48 68 49 48 50 67 51 49 52 52 53 66 54 85 55 50 56
REMARK SMILES IDX 51 57 65 59 86 60 53 61 37 62 38 63 46 64 39 65 45 66 47 67
REMARK SMILES IDX 44 68 40 69 41 70 42 71 43 72 69 73 70 74 78 75 71 76 77 77
REMARK SMILES IDX 79 78 76 79 72 80 73 81 74 82 75 83 54 84 55 85 63 86 56 87
REMARK SMILES IDX 62 88 64 89 61 90 57 91 58 92 59 93 60 94
REMARK H PARENT 21 6 25 28 84 47 52 58
REMARK Flexibility Score: inf
ROOT
ATOM      1  C   UNL A   1      31.895  31.444  26.663  1.00  0.00     0.042 C 
ENDROOT
BRANCH   1   2
ATOM      2  C   UNL A   1      31.786  30.039  27.234  1.00  0.00     0.117 C 
BRANCH   2   3
ATOM      3  N   UNL A   1      32.648  29.065  26.598  1.00  0.00    -0.356 N 
ATOM      4  O   UNL A   1      31.415  27.311  27.390  1.00  0.00    -0.275 OA
ATOM      5  C   UNL A   1      32.300  27.730  26.650  1.00  0.00     0.222 C 
ATOM      6  H   UNL A   1      33.470  29.350  26.137  1.00  0.00     0.163 HD
BRANCH   5   7
ATOM      7  C   UNL A   1      33.052  26.840  25.687  1.00  0.00     0.125 C 
BRANCH   7   8
ATOM      8  C   UNL A   1      32.135  26.059  24.704  1.00  0.00     0.098 C 
BRANCH   8   9
ATOM      9  N   UNL A   1      31.244  26.959  23.945  1.00  0.00    -0.331 N 
ATOM     10  C   UNL A   1      31.690  28.122  23.201  1.00  0.00     0.156 C 
ATOM     11  C   UNL A   1      29.847  26.915  24.023  1.00  0.00     0.254 C 
ATOM     12  C   UNL A   1      30.427  28.766  22.756  1.00  0.00    -0.016 A 
ATOM     13  C   UNL A   1      29.338  28.089  23.291  1.00  0.00     0.045 A 
ATOM     14  O   UNL A   1      29.150  26.088  24.573  1.00  0.00    -0.269 OA
ATOM     15  C   UNL A   1      30.255  29.904  21.986  1.00  0.00     0.006 A 
ATOM     16  C   UNL A   1      28.043  28.539  23.122  1.00  0.00     0.014 A 
ATOM     17  C   UNL A   1      28.953  30.367  21.787  1.00  0.00     0.000 A 
ATOM     18  C   UNL A   1      27.856  29.699  22.362  1.00  0.00     0.001 A 
ENDBRANCH   8   9
BRANCH   8  19
ATOM     19  C   UNL A   1      32.823  24.903  23.862  1.00  0.00     0.012 C 
ATOM     20  C   UNL A   1      34.341  24.708  24.085  1.00  0.00     0.006 C 
ATOM     21  C   UNL A   1      32.042  23.576  24.023  1.00  0.00     0.006 C 
ATOM     22  C   UNL A   1      34.944  23.429  23.513  1.00  0.00     0.000 C 
ATOM     23  C   UNL A   1      32.712  22.378  23.356  1.00  0.00     0.000 C 
ATOM     24  C   UNL A   1      34.129  22.204  23.877  1.00  0.00     0.000 C 
ENDBRANCH   8  19
ENDBRANCH   7   8
ENDBRANCH   5   7
ENDBRANCH   2   3
ENDBRANCH   1   2
BRANCH   1  25
ATOM     25  C   UNL A   1      33.014  32.305  27.240  1.00  0.00     0.118 C 
BRANCH  25  26
ATOM     26  N   UNL A   1      32.608  33.649  27.613  1.00  0.00    -0.352 N 
ATOM     27  C   UNL A   1      33.147  34.492  28.560  1.00  0.00     0.251 C 
ATOM     28  H   UNL A   1      31.836  34.008  27.119  1.00  0.00     0.163 HD
ATOM     29  O   UNL A   1      32.631  35.591  28.750  1.00  0.00    -0.269 OA
BRANCH  27  30
ATOM     30  C   UNL A   1      34.302  34.061  29.385  1.00  0.00     0.039 A 
ATOM     31  C   UNL A   1      34.053  33.289  30.522  1.00  0.00     0.014 A 
ATOM     32  C   UNL A   1      35.618  34.380  29.039  1.00  0.00     0.014 A 
ATOM     33  C   UNL A   1      35.120  32.765  31.257  1.00  0.00     0.010 A 
ATOM     34  C   UNL A   1      36.683  33.795  29.729  1.00  0.00     0.010 A 
ATOM     35  C   UNL A   1      36.446  32.969  30.839  1.00  0.00    -0.014 A 
BRANCH  35  36
ATOM     36  C   UNL A   1      37.573  32.290  31.539  1.00  0.00     0.031 A 
ATOM     37  C   UNL A   1      38.317  31.158  30.886  1.00  0.00     0.074 A 
ATOM     38  C   UNL A   1      37.912  32.685  32.784  1.00  0.00     0.049 A 
ATOM     39  N   UNL A   1      39.330  30.463  31.339  1.00  0.00    -0.248 NA
ATOM     40  C   UNL A   1      37.848  30.735  29.558  1.00  0.00     0.031 C 
ATOM     41  C   UNL A   1      37.238  33.740  33.545  1.00  0.00     0.029 A 
ATOM     42  N   UNL A   1      38.906  32.255  33.629  1.00  0.00    -0.354 N 
ATOM     43  C   UNL A   1      39.622  29.524  30.355  1.00  0.00     0.074 A 
ATOM     44  C   UNL A   1      38.633  29.697  29.312  1.00  0.00     0.031 C 
ATOM     45  C   UNL A   1      37.863  33.905  34.722  1.00  0.00     0.029 A 
ATOM     46  C   UNL A   1      38.951  32.937  34.825  1.00  0.00     0.049 A 
ATOM     47  H   UNL A   1      39.529  31.528  33.401  1.00  0.00     0.167 HD
ATOM     48  C   UNL A   1      40.635  28.622  30.313  1.00  0.00     0.034 A 
ATOM     49  C   UNL A   1      39.771  32.800  35.888  1.00  0.00     0.034 A 
ATOM     50  C   UNL A   1      41.611  28.459  31.364  1.00  0.00     0.049 A 
ATOM     51  C   UNL A   1      40.866  31.763  35.832  1.00  0.00     0.074 A 
ATOM     52  C   UNL A   1      42.702  27.606  31.402  1.00  0.00     0.029 A 
ATOM     53  N   UNL A   1      41.612  29.150  32.569  1.00  0.00    -0.354 N 
ATOM     54  N   UNL A   1      41.164  30.926  34.865  1.00  0.00    -0.248 NA
ATOM     55  C   UNL A   1      41.743  31.665  37.005  1.00  0.00     0.031 C 
ATOM     56  C   UNL A   1      43.309  27.722  32.657  1.00  0.00     0.029 A 
ATOM     57  C   UNL A   1      42.659  28.715  33.371  1.00  0.00     0.049 A 
ATOM     58  H   UNL A   1      40.964  29.847  32.819  1.00  0.00     0.167 HD
ATOM     59  C   UNL A   1      42.286  30.226  35.303  1.00  0.00     0.074 A 
ATOM     60  C   UNL A   1      42.620  30.756  36.608  1.00  0.00     0.031 C 
ATOM     61  C   UNL A   1      42.979  29.238  34.679  1.00  0.00     0.034 A 
BRANCH  48  62
ATOM     62  C   UNL A   1      40.717  27.724  29.099  1.00  0.00     0.023 A 
ATOM     63  C   UNL A   1      41.657  27.947  28.077  1.00  0.00     0.031 A 
ATOM     64  C   UNL A   1      39.834  26.639  28.951  1.00  0.00     0.131 A 
ATOM     65  C   UNL A   1      41.640  27.151  26.922  1.00  0.00     0.055 A 
ATOM     66  C   UNL A   1      39.881  25.796  27.839  1.00  0.00     0.041 A 
ATOM     67  F   UNL A   1      38.899  26.386  29.881  1.00  0.00    -0.206 F 
ATOM     68  C   UNL A   1      40.776  26.059  26.808  1.00  0.00     0.022 A 
BRANCH  65  69
ATOM     69  S   UNL A   1      42.652  27.660  25.505  1.00  0.00     0.124 S 
ATOM     70  O   UNL A   1      41.905  28.813  25.008  1.00  0.00    -0.237 OA
ATOM     71  O   UNL A   1      43.939  27.950  26.126  1.00  0.00    -0.237 OA
ATOM     72  O   UNL A   1      42.630  26.489  24.630  1.00  0.00    -0.744 OA
ENDBRANCH  65  69
ENDBRANCH  48  62
BRANCH  49  73
ATOM     73  C   UNL A   1      39.592  33.651  37.101  1.00  0.00     0.023 A 
ATOM     74  C   UNL A   1      38.925  33.166  38.238  1.00  0.00     0.031 A 
ATOM     75  C   UNL A   1      40.037  34.985  37.121  1.00  0.00     0.131 A 
ATOM     76  C   UNL A   1      38.676  34.022  39.323  1.00  0.00     0.055 A 
ATOM     77  C   UNL A   1      39.842  35.814  38.227  1.00  0.00     0.041 A 
ATOM     78  F   UNL A   1      40.679  35.503  36.061  1.00  0.00    -0.206 F 
ATOM     79  C   UNL A   1      39.144  35.338  39.332  1.00  0.00     0.022 A 
BRANCH  76  80
ATOM     80  S   UNL A   1      37.638  33.421  40.685  1.00  0.00     0.124 S 
ATOM     81  O   UNL A   1      37.437  34.637  41.463  1.00  0.00    -0.237 OA
ATOM     82  O   UNL A   1      36.470  32.913  39.973  1.00  0.00    -0.237 OA
ATOM     83  O   UNL A   1      38.469  32.401  41.321  1.00  0.00    -0.744 OA
ENDBRANCH  76  80
ENDBRANCH  49  73
BRANCH  61  84
ATOM     84  C   UNL A   1      44.200  28.700  35.390  1.00  0.00     0.023 A 
ATOM     85  C   UNL A   1      44.112  27.664  36.338  1.00  0.00     0.031 A 
ATOM     86  C   UNL A   1      45.468  29.252  35.135  1.00  0.00     0.131 A 
ATOM     87  C   UNL A   1      45.257  27.264  37.046  1.00  0.00     0.055 A 
ATOM     88  C   UNL A   1      46.615  28.798  35.788  1.00  0.00     0.041 A 
ATOM     89  F   UNL A   1      45.614  30.247  34.245  1.00  0.00    -0.206 F 
ATOM     90  C   UNL A   1      46.510  27.811  36.763  1.00  0.00     0.022 A 
BRANCH  87  91
ATOM     91  S   UNL A   1      45.063  26.106  38.429  1.00  0.00     0.124 S 
ATOM     92  O   UNL A   1      45.297  24.819  37.782  1.00  0.00    -0.237 OA
ATOM     93  O   UNL A   1      46.099  26.551  39.355  1.00  0.00    -0.237 OA
ATOM     94  O   UNL A   1      43.691  26.334  38.878  1.00  0.00    -0.744 OA
ENDBRANCH  87  91
ENDBRANCH  61  84
ENDBRANCH  35  36
ENDBRANCH  27  30
ENDBRANCH  25  26
ENDBRANCH   1  25
TORSDOF 16
ENDMDL
MODEL 2
REMARK VINA RESULT:     -12.3      1.148      3.067
REMARK SMILES O=C(C[C@H](C1CCCCC1)N1Cc2ccccc2C1=O)NCCCNC(=O)c1ccc(-c2c3nc(c(-c4cc(S(=O)(=O)[O-])ccc4F)c4ccc([nH]4)c(-c4cc(S(=O)(=O)[O-])ccc4F)c4nc(c(-c5cc(S(=O)(=O)[O-])ccc5F)c5ccc2[nH]5)C=C4)C=C3)cc1
REMARK SMILES IDX 23 1 22 2 21 3 1 4 2 5 3 7 4 8 11 9 12 10 19 11 13 12 18 13
REMARK SMILES IDX 20 14 14 15 17 16 15 17 16 18 5 19 6 20 10 21 7 22 9 23 8 24
REMARK SMILES IDX 24 25 25 26 26 27 27 29 28 30 29 31 90 32 30 33 89 34 31 35
REMARK SMILES IDX 32 36 33 37 83 38 34 39 88 40 82 41 84 42 35 43 87 44 81 45
REMARK SMILES IDX 80 46 36 48 68 49 48 50 67 51 49 52 52 53 66 54 85 55 50 56
REMARK SMILES IDX 51 57 65 59 86 60 53 61 37 62 38 63 46 64 39 65 45 66 47 67
REMARK SMILES IDX 44 68 40 69 41 70 42 71 43 72 69 73 70 74 78 75 71 76 77 77
REMARK SMILES IDX 79 78 76 79 72 80 73 81 74 82 75 83 54 84 55 85 63 86 56 87
REMARK SMILES IDX 62 88 64 89 61 90 57 91 58 92 59 93 60 94
REMARK H PARENT 21 6 25 28 84 47 52 58
REMARK Flexibility Score: inf
ROOT
ATOM      1  C   UNL A   1      31.732  31.856  26.848  1.00  0.00     0.042 C 
ENDROOT
BRANCH   1   2
ATOM      2  C   UNL A   1      32.047  30.377  26.693  1.00  0.00     0.117 C 
BRANCH   2   3
ATOM      3  N   UNL A   1      32.493  29.994  25.369  1.00  0.00    -0.356 N 
ATOM      4  O   UNL A   1      34.318  28.893  26.195  1.00  0.00    -0.275 OA
ATOM      5  C   UNL A   1      33.582  29.155  25.248  1.00  0.00     0.222 C 
ATOM      6  H   UNL A   1      32.027  30.327  24.569  1.00  0.00     0.163 HD
BRANCH   5   7
ATOM      7  C   UNL A   1      33.762  28.542  23.878  1.00  0.00     0.125 C 
BRANCH   7   8
ATOM      8  C   UNL A   1      32.859  27.304  23.618  1.00  0.00     0.098 C 
BRANCH   8   9
ATOM      9  N   UNL A   1      33.541  26.039  23.960  1.00  0.00    -0.331 N 
ATOM     10  C   UNL A   1      34.061  25.716  25.276  1.00  0.00     0.156 C 
ATOM     11  C   UNL A   1      33.946  25.094  23.011  1.00  0.00     0.254 C 
ATOM     12  C   UNL A   1      34.775  24.429  25.070  1.00  0.00    -0.016 A 
ATOM     13  C   UNL A   1      34.759  24.091  23.723  1.00  0.00     0.045 A 
ATOM     14  O   UNL A   1      33.696  25.064  21.824  1.00  0.00    -0.269 OA
ATOM     15  C   UNL A   1      35.442  23.647  25.997  1.00  0.00     0.006 A 
ATOM     16  C   UNL A   1      35.443  22.993  23.237  1.00  0.00     0.014 A 
ATOM     17  C   UNL A   1      36.125  22.522  25.532  1.00  0.00     0.000 A 
ATOM     18  C   UNL A   1      36.138  22.204  24.161  1.00  0.00     0.001 A 
ENDBRANCH   8   9
BRANCH   8  19
ATOM     19  C   UNL A   1      31.348  27.419  24.088  1.00  0.00     0.012 C 
ATOM     20  C   UNL A   1      30.370  28.080  23.088  1.00  0.00     0.006 C 
ATOM     21  C   UNL A   1      30.827  26.047  24.583  1.00  0.00     0.006 C 
ATOM     22  C   UNL A   1      28.886  27.931  23.405  1.00  0.00     0.000 C 
ATOM     23  C   UNL A   1      29.341  26.037  24.927  1.00  0.00     0.000 C 
ATOM     24  C   UNL A   1      28.517  26.499  23.737  1.00  0.00     0.000 C 
ENDBRANCH   8  19
ENDBRANCH   7   8
ENDBRANCH   5   7
ENDBRANCH   2   3
ENDBRANCH   1   2
BRANCH   1  25
ATOM     25  C   UNL A   1      32.891  32.730  27.317  1.00  0.00     0.118 C 
BRANCH  25  26
ATOM     26  N   UNL A   1      32.511  34.081  27.695  1.00  0.00    -0.352 N 
ATOM     27  C   UNL A   1      33.086  34.921  28.623  1.00  0.00     0.251 C 
ATOM     28  H   UNL A   1      31.730  34.447  27.221  1.00  0.00     0.163 HD
ATOM     29  O   UNL A   1      32.588  36.027  28.822  1.00  0.00    -0.269 OA
BRANCH  27  30
ATOM     30  C   UNL A   1      34.258  34.480  29.418  1.00  0.00     0.039 A 
ATOM     31  C   UNL A   1      34.031  33.897  30.666  1.00  0.00     0.014 A 
ATOM     32  C   UNL A   1      35.565  34.606  28.939  1.00  0.00     0.014 A 
ATOM     33  C   UNL A   1      35.100  33.362  31.391  1.00  0.00     0.010 A 
ATOM     34  C   UNL A   1      36.622  34.005  29.628  1.00  0.00     0.010 A 
ATOM     35  C   UNL A   1      36.399  33.364  30.857  1.00  0.00    -0.014 A 
BRANCH  35  36
ATOM     36  C   UNL A   1      37.509  32.665  31.565  1.00  0.00     0.031 A 
ATOM     37  C   UNL A   1      38.232  31.515  30.920  1.00  0.00     0.074 A 
ATOM     38  C   UNL A   1      37.850  33.058  32.810  1.00  0.00     0.049 A 
ATOM     39  N   UNL A   1      39.229  30.801  31.381  1.00  0.00    -0.248 NA
ATOM     40  C   UNL A   1      37.761  31.096  29.592  1.00  0.00     0.031 C 
ATOM     41  C   UNL A   1      37.195  34.131  33.564  1.00  0.00     0.029 A 
ATOM     42  N   UNL A   1      38.832  32.612  33.662  1.00  0.00    -0.354 N 
ATOM     43  C   UNL A   1      39.506  29.852  30.403  1.00  0.00     0.074 A 
ATOM     44  C   UNL A   1      38.525  30.040  29.354  1.00  0.00     0.031 C 
ATOM     45  C   UNL A   1      37.819  34.288  34.742  1.00  0.00     0.029 A 
ATOM     46  C   UNL A   1      38.886  33.299  34.854  1.00  0.00     0.049 A 
ATOM     47  H   UNL A   1      39.441  31.871  33.439  1.00  0.00     0.167 HD
ATOM     48  C   UNL A   1      40.500  28.929  30.370  1.00  0.00     0.034 A 
ATOM     49  C   UNL A   1      39.698  33.149  35.921  1.00  0.00     0.034 A 
ATOM     50  C   UNL A   1      41.468  28.751  31.425  1.00  0.00     0.049 A 
ATOM     51  C   UNL A   1      40.772  32.090  35.875  1.00  0.00     0.074 A 
ATOM     52  C   UNL A   1      42.541  27.876  31.471  1.00  0.00     0.029 A 
ATOM     53  N   UNL A   1      41.478  29.447  32.627  1.00  0.00    -0.354 N 
ATOM     54  N   UNL A   1      41.057  31.243  34.913  1.00  0.00    -0.248 NA
ATOM     55  C   UNL A   1      41.642  31.979  37.052  1.00  0.00     0.031 C 
ATOM     56  C   UNL A   1      43.145  27.985  32.729  1.00  0.00     0.029 A 
ATOM     57  C   UNL A   1      42.513  28.995  33.435  1.00  0.00     0.049 A 
ATOM     58  H   UNL A   1      40.843  30.159  32.871  1.00  0.00     0.167 HD
ATOM     59  C   UNL A   1      42.162  30.522  35.359  1.00  0.00     0.074 A 
ATOM     60  C   UNL A   1      42.502  31.050  36.663  1.00  0.00     0.031 C 
ATOM     61  C   UNL A   1      42.838  29.517  34.743  1.00  0.00     0.034 A 
BRANCH  48  62
ATOM     62  C   UNL A   1      40.568  28.024  29.160  1.00  0.00     0.023 A 
ATOM     63  C   UNL A   1      41.496  28.242  28.124  1.00  0.00     0.031 A 
ATOM     64  C   UNL A   1      39.686  26.936  29.029  1.00  0.00     0.131 A 
ATOM     65  C   UNL A   1      41.466  27.440  26.974  1.00  0.00     0.055 A 
ATOM     66  C   UNL A   1      39.721  26.086  27.921  1.00  0.00     0.041 A 
ATOM     67  F   UNL A   1      38.764  26.687  29.973  1.00  0.00    -0.206 F 
ATOM     68  C   UNL A   1      40.603  26.346  26.878  1.00  0.00     0.022 A 
BRANCH  65  69
ATOM     69  S   UNL A   1      42.460  27.942  25.542  1.00  0.00     0.124 S 
ATOM     70  O   UNL A   1      41.684  29.067  25.025  1.00  0.00    -0.237 OA
ATOM     71  O   UNL A   1      43.742  28.275  26.150  1.00  0.00    -0.237 OA
ATOM     72  O   UNL A   1      42.461  26.753  24.692  1.00  0.00    -0.744 OA
ENDBRANCH  65  69
ENDBRANCH  48  62
BRANCH  49  73
ATOM     73  C   UNL A   1      39.531  34.010  37.130  1.00  0.00     0.023 A 
ATOM     74  C   UNL A   1      38.927  33.515  38.297  1.00  0.00     0.031 A 
ATOM     75  C   UNL A   1      39.925  35.360  37.117  1.00  0.00     0.131 A 
ATOM     76  C   UNL A   1      38.686  34.375  39.380  1.00  0.00     0.055 A 
ATOM     77  C   UNL A   1      39.739  36.195  38.219  1.00  0.00     0.041 A 
ATOM     78  F   UNL A   1      40.507  35.887  36.027  1.00  0.00    -0.206 F 
ATOM     79  C   UNL A   1      39.102  35.708  39.355  1.00  0.00     0.022 A 
BRANCH  76  80
ATOM     80  S   UNL A   1      37.723  33.753  40.788  1.00  0.00     0.124 S 
ATOM     81  O   UNL A   1      36.655  33.024  40.116  1.00  0.00    -0.237 OA
ATOM     82  O   UNL A   1      38.709  32.942  41.494  1.00  0.00    -0.237 OA
ATOM     83  O   UNL A   1      37.309  34.972  41.481  1.00  0.00    -0.744 OA
ENDBRANCH  76  80
ENDBRANCH  49  73
BRANCH  61  84
ATOM     84  C   UNL A   1      44.044  28.957  35.462  1.00  0.00     0.023 A 
ATOM     85  C   UNL A   1      43.947  27.854  36.329  1.00  0.00     0.031 A 
ATOM     86  C   UNL A   1      45.307  29.555  35.297  1.00  0.00     0.131 A 
ATOM     87  C   UNL A   1      45.074  27.430  37.051  1.00  0.00     0.055 A 
ATOM     88  C   UNL A   1      46.439  29.082  35.961  1.00  0.00     0.041 A 
ATOM     89  F   UNL A   1      45.461  30.614  34.486  1.00  0.00    -0.206 F 
ATOM     90  C   UNL A   1      46.323  28.024  36.858  1.00  0.00     0.022 A 
BRANCH  87  91
ATOM     91  S   UNL A   1      44.858  26.171  38.340  1.00  0.00     0.124 S 
ATOM     92  O   UNL A   1      44.608  26.988  39.523  1.00  0.00    -0.237 OA
ATOM     93  O   UNL A   1      43.719  25.408  37.841  1.00  0.00    -0.237 OA
ATOM     94  O   UNL A   1      46.132  25.456  38.337  1.00  0.00    -0.744 OA
ENDBRANCH  87  91
ENDBRANCH  61  84
ENDBRANCH  35  36
ENDBRANCH  27  30
ENDBRANCH  25  26
ENDBRANCH   1  25
TORSDOF 16
ENDMDL
MODEL 3
REMARK VINA RESULT:     -12.2      5.470      8.317
REMARK SMILES O=C(C[C@H](C1CCCCC1)N1Cc2ccccc2C1=O)NCCCNC(=O)c1ccc(-c2c3nc(c(-c4cc(S(=O)(=O)[O-])ccc4F)c4ccc([nH]4)c(-c4cc(S(=O)(=O)[O-])ccc4F)c4nc(c(-c5cc(S(=O)(=O)[O-])ccc5F)c5ccc2[nH]5)C=C4)C=C3)cc1
REMARK SMILES IDX 23 1 22 2 21 3 1 4 2 5 3 7 4 8 11 9 12 10 19 11 13 12 18 13
REMARK SMILES IDX 20 14 14 15 17 16 15 17 16 18 5 19 6 20 10 21 7 22 9 23 8 24
REMARK SMILES IDX 24 25 25 26 26 27 27 29 28 30 29 31 90 32 30 33 89 34 31 35
REMARK SMILES IDX 32 36 33 37 83 38 34 39 88 40 82 41 84 42 35 43 87 44 81 45
REMARK SMILES IDX 80 46 36 48 68 49 48 50 67 51 49 52 52 53 66 54 85 55 50 56
REMARK SMILES IDX 51 57 65 59 86 60 53 61 37 62 38 63 46 64 39 65 45 66 47 67
REMARK SMILES IDX 44 68 40 69 41 70 42 71 43 72 69 73 70 74 78 75 71 76 77 77
REMARK SMILES IDX 79 78 76 79 72 80 73 81 74 82 75 83 54 84 55 85 63 86 56 87
REMARK SMILES IDX 62 88 64 89 61 90 57 91 58 92 59 93 60 94
REMARK H PARENT 21 6 25 28 84 47 52 58
REMARK Flexibility Score: inf
ROOT
ATOM      1  C   UNL A   1      35.770  21.824  24.484  1.00  0.00     0.042 C 
ENDROOT
BRANCH   1   2
ATOM      2  C   UNL A   1      35.056  22.691  23.459  1.00  0.00     0.117 C 
BRANCH   2   3
ATOM      3  N   UNL A   1      34.096  23.618  24.021  1.00  0.00    -0.356 N 
ATOM      4  O   UNL A   1      33.649  24.547  21.981  1.00  0.00    -0.275 OA
ATOM      5  C   UNL A   1      33.368  24.424  23.170  1.00  0.00     0.222 C 
ATOM      6  H   UNL A   1      33.965  23.672  24.995  1.00  0.00     0.163 HD
BRANCH   5   7
ATOM      7  C   UNL A   1      32.170  25.097  23.801  1.00  0.00     0.125 C 
BRANCH   7   8
ATOM      8  C   UNL A   1      32.346  26.627  24.015  1.00  0.00     0.098 C 
BRANCH   8   9
ATOM      9  N   UNL A   1      31.231  27.399  23.431  1.00  0.00    -0.331 N 
ATOM     10  C   UNL A   1      31.387  28.640  22.696  1.00  0.00     0.156 C 
ATOM     11  C   UNL A   1      29.882  27.133  23.692  1.00  0.00     0.254 C 
ATOM     12  C   UNL A   1      29.991  29.091  22.458  1.00  0.00    -0.016 A 
ATOM     13  C   UNL A   1      29.103  28.234  23.097  1.00  0.00     0.045 A 
ATOM     14  O   UNL A   1      29.402  26.189  24.286  1.00  0.00    -0.269 OA
ATOM     15  C   UNL A   1      29.542  30.210  21.779  1.00  0.00     0.006 A 
ATOM     16  C   UNL A   1      27.744  28.479  23.127  1.00  0.00     0.014 A 
ATOM     17  C   UNL A   1      28.170  30.469  21.780  1.00  0.00     0.000 A 
ATOM     18  C   UNL A   1      27.279  29.619  22.461  1.00  0.00     0.001 A 
ENDBRANCH   8   9
BRANCH   8  19
ATOM     19  C   UNL A   1      32.822  27.089  25.456  1.00  0.00     0.012 C 
ATOM     20  C   UNL A   1      34.018  28.068  25.499  1.00  0.00     0.006 C 
ATOM     21  C   UNL A   1      31.620  27.611  26.283  1.00  0.00     0.006 C 
ATOM     22  C   UNL A   1      34.289  28.738  26.842  1.00  0.00     0.000 C 
ATOM     23  C   UNL A   1      32.009  28.203  27.634  1.00  0.00     0.000 C 
ATOM     24  C   UNL A   1      33.028  29.316  27.453  1.00  0.00     0.000 C 
ENDBRANCH   8  19
ENDBRANCH   7   8
ENDBRANCH   5   7
ENDBRANCH   2   3
ENDBRANCH   1   2
BRANCH   1  25
ATOM     25  C   UNL A   1      37.095  22.374  25.002  1.00  0.00     0.118 C 
BRANCH  25  26
ATOM     26  N   UNL A   1      38.065  21.356  25.370  1.00  0.00    -0.352 N 
ATOM     27  C   UNL A   1      39.203  21.473  26.138  1.00  0.00     0.251 C 
ATOM     28  H   UNL A   1      37.884  20.455  25.019  1.00  0.00     0.163 HD
ATOM     29  O   UNL A   1      39.918  20.488  26.307  1.00  0.00    -0.269 OA
BRANCH  27  30
ATOM     30  C   UNL A   1      39.597  22.784  26.710  1.00  0.00     0.039 A 
ATOM     31  C   UNL A   1      40.712  22.833  27.550  1.00  0.00     0.014 A 
ATOM     32  C   UNL A   1      38.904  23.959  26.409  1.00  0.00     0.014 A 
ATOM     33  C   UNL A   1      41.184  24.064  28.012  1.00  0.00     0.010 A 
ATOM     34  C   UNL A   1      39.419  25.195  26.809  1.00  0.00     0.010 A 
ATOM     35  C   UNL A   1      40.574  25.263  27.604  1.00  0.00    -0.014 A 
BRANCH  35  36
ATOM     36  C   UNL A   1      41.166  26.578  27.980  1.00  0.00     0.031 A 
ATOM     37  C   UNL A   1      42.590  26.912  27.629  1.00  0.00     0.074 A 
ATOM     38  C   UNL A   1      40.418  27.469  28.664  1.00  0.00     0.049 A 
ATOM     39  N   UNL A   1      43.264  28.010  27.863  1.00  0.00    -0.248 NA
ATOM     40  C   UNL A   1      43.367  25.867  26.946  1.00  0.00     0.031 C 
ATOM     41  C   UNL A   1      39.037  27.247  29.105  1.00  0.00     0.029 A 
ATOM     42  N   UNL A   1      40.702  28.739  29.105  1.00  0.00    -0.354 N 
ATOM     43  C   UNL A   1      44.540  27.792  27.355  1.00  0.00     0.074 A 
ATOM     44  C   UNL A   1      44.563  26.430  26.864  1.00  0.00     0.031 C 
ATOM     45  C   UNL A   1      38.584  28.355  29.711  1.00  0.00     0.029 A 
ATOM     46  C   UNL A   1      39.650  29.351  29.750  1.00  0.00     0.049 A 
ATOM     47  H   UNL A   1      41.576  29.171  28.971  1.00  0.00     0.167 HD
ATOM     48  C   UNL A   1      45.586  28.654  27.281  1.00  0.00     0.034 A 
ATOM     49  C   UNL A   1      39.552  30.573  30.313  1.00  0.00     0.034 A 
ATOM     50  C   UNL A   1      45.549  30.008  27.780  1.00  0.00     0.049 A 
ATOM     51  C   UNL A   1      40.742  31.500  30.251  1.00  0.00     0.074 A 
ATOM     52  C   UNL A   1      46.537  30.977  27.716  1.00  0.00     0.029 A 
ATOM     53  N   UNL A   1      44.476  30.586  28.447  1.00  0.00    -0.354 N 
ATOM     54  N   UNL A   1      41.921  31.295  29.710  1.00  0.00    -0.248 NA
ATOM     55  C   UNL A   1      40.580  32.825  30.861  1.00  0.00     0.031 C 
ATOM     56  C   UNL A   1      46.094  32.106  28.413  1.00  0.00     0.029 A 
ATOM     57  C   UNL A   1      44.792  31.882  28.833  1.00  0.00     0.049 A 
ATOM     58  H   UNL A   1      43.615  30.141  28.621  1.00  0.00     0.167 HD
ATOM     59  C   UNL A   1      42.629  32.483  29.887  1.00  0.00     0.074 A 
ATOM     60  C   UNL A   1      41.735  33.399  30.564  1.00  0.00     0.031 C 
ATOM     61  C   UNL A   1      43.901  32.787  29.520  1.00  0.00     0.034 A 
BRANCH  48  62
ATOM     62  C   UNL A   1      46.867  28.142  26.661  1.00  0.00     0.023 A 
ATOM     63  C   UNL A   1      47.091  28.202  25.273  1.00  0.00     0.031 A 
ATOM     64  C   UNL A   1      47.872  27.572  27.462  1.00  0.00     0.131 A 
ATOM     65  C   UNL A   1      48.249  27.631  24.724  1.00  0.00     0.055 A 
ATOM     66  C   UNL A   1      49.063  27.086  26.918  1.00  0.00     0.041 A 
ATOM     67  F   UNL A   1      47.709  27.467  28.791  1.00  0.00    -0.206 F 
ATOM     68  C   UNL A   1      49.249  27.098  25.540  1.00  0.00     0.022 A 
BRANCH  65  69
ATOM     69  S   UNL A   1      48.355  27.453  22.922  1.00  0.00     0.124 S 
ATOM     70  O   UNL A   1      47.180  28.200  22.482  1.00  0.00    -0.237 OA
ATOM     71  O   UNL A   1      49.647  28.058  22.622  1.00  0.00    -0.237 OA
ATOM     72  O   UNL A   1      48.278  26.008  22.715  1.00  0.00    -0.744 OA
ENDBRANCH  65  69
ENDBRANCH  48  62
BRANCH  49  73
ATOM     73  C   UNL A   1      38.293  30.998  30.993  1.00  0.00     0.023 A 
ATOM     74  C   UNL A   1      37.266  31.645  30.286  1.00  0.00     0.031 A 
ATOM     75  C   UNL A   1      38.120  30.812  32.377  1.00  0.00     0.131 A 
ATOM     76  C   UNL A   1      36.140  32.129  30.971  1.00  0.00     0.055 A 
ATOM     77  C   UNL A   1      36.970  31.241  33.042  1.00  0.00     0.041 A 
ATOM     78  F   UNL A   1      39.069  30.201  33.104  1.00  0.00    -0.206 F 
ATOM     79  C   UNL A   1      35.978  31.917  32.341  1.00  0.00     0.022 A 
BRANCH  76  80
ATOM     80  S   UNL A   1      34.935  33.136  30.060  1.00  0.00     0.124 S 
ATOM     81  O   UNL A   1      34.402  32.170  29.107  1.00  0.00    -0.237 OA
ATOM     82  O   UNL A   1      34.028  33.556  31.123  1.00  0.00    -0.237 OA
ATOM     83  O   UNL A   1      35.751  34.201  29.482  1.00  0.00    -0.744 OA
ENDBRANCH  76  80
ENDBRANCH  49  73
BRANCH  61  84
ATOM     84  C   UNL A   1      44.381  34.192  29.805  1.00  0.00     0.023 A 
ATOM     85  C   UNL A   1      44.194  35.242  28.888  1.00  0.00     0.031 A 
ATOM     86  C   UNL A   1      45.061  34.479  31.002  1.00  0.00     0.131 A 
ATOM     87  C   UNL A   1      44.742  36.507  29.150  1.00  0.00     0.055 A 
ATOM     88  C   UNL A   1      45.539  35.758  31.291  1.00  0.00     0.041 A 
ATOM     89  F   UNL A   1      45.275  33.516  31.914  1.00  0.00    -0.206 F 
ATOM     90  C   UNL A   1      45.396  36.776  30.354  1.00  0.00     0.022 A 
BRANCH  87  91
ATOM     91  S   UNL A   1      44.696  37.764  27.841  1.00  0.00     0.124 S 
ATOM     92  O   UNL A   1      44.508  38.991  28.607  1.00  0.00    -0.237 OA
ATOM     93  O   UNL A   1      46.001  37.601  27.209  1.00  0.00    -0.237 OA
ATOM     94  O   UNL A   1      43.555  37.362  27.021  1.00  0.00    -0.744 OA
ENDBRANCH  87  91
ENDBRANCH  61  84
ENDBRANCH  35  36
ENDBRANCH  27  30
ENDBRANCH  25  26
ENDBRANCH   1  25
TORSDOF 16
ENDMDL
