MODEL 1
REMARK VINA RESULT:     -12.3      0.000      0.000
REMARK SMILES C[NH2+][C@]1(C(=O)NCCCNC(=O)c2ccc(-c3c4nc(c(-c5cc(S(=O)(=O)[O-])ccc5F)c5ccc([nH]5)c(-c5cc(S(=O)(=O)[O-])ccc5F)c5nc(c(-c6cc(S(=O)(=O)[O-])ccc6F)c6ccc3[nH]6)C=C5)C=C4)cc2)CCC[C@H](Sc2n[nH]c(=O)n2C)C1
REMARK SMILES IDX 8 1 7 2 6 3 4 4 5 5 3 7 76 8 88 9 77 10 79 11 78 12 2 13
REMARK SMILES IDX 1 14 80 17 81 18 82 19 86 20 83 21 84 22 87 23 85 25 9 26
REMARK SMILES IDX 10 27 11 28 12 30 13 31 14 32 75 33 15 34 74 35 16 36 17 37
REMARK SMILES IDX 18 38 68 39 19 40 73 41 67 42 69 43 20 44 72 45 66 46 65 47
REMARK SMILES IDX 21 49 53 50 33 51 52 52 34 53 37 54 51 55 70 56 35 57 36 58
REMARK SMILES IDX 50 60 71 61 38 62 22 63 23 64 31 65 24 66 30 67 32 68 29 69
REMARK SMILES IDX 25 70 26 71 27 72 28 73 54 74 55 75 63 76 56 77 62 78 64 79
REMARK SMILES IDX 61 80 57 81 58 82 59 83 60 84 39 85 40 86 48 87 41 88 47 89
REMARK SMILES IDX 49 90 46 91 42 92 43 93 44 94 45 95
REMARK H PARENT 6 6 2 15 2 16 83 24 10 29 69 48 37 59
REMARK Flexibility Score: inf
ROOT
ATOM      1  C   UNL A   1      35.703  21.717  26.099  1.00  0.00     0.042 C 
ENDROOT
BRANCH   1   2
ATOM      2  C   UNL A   1      34.387  21.988  25.393  1.00  0.00     0.118 C 
BRANCH   2   3
ATOM      3  N   UNL A   1      34.577  22.351  23.999  1.00  0.00    -0.351 N 
ATOM      4  C   UNL A   1      34.157  23.406  23.247  1.00  0.00     0.281 C 
ATOM      5  O   UNL A   1      34.404  23.300  22.042  1.00  0.00    -0.268 OA
ATOM      6  H   UNL A   1      35.119  21.701  23.496  1.00  0.00     0.163 HD
BRANCH   4   7
ATOM      7  C   UNL A   1      33.412  24.634  23.881  1.00  0.00     0.176 C 
ATOM      8  C   UNL A   1      34.201  25.036  25.158  1.00  0.00     0.079 C 
ATOM      9  C   UNL A   1      33.280  25.813  22.861  1.00  0.00     0.094 C 
ATOM     10  C   UNL A   1      33.815  26.392  25.737  1.00  0.00     0.008 C 
ATOM     11  C   UNL A   1      32.968  27.199  23.464  1.00  0.00     0.061 C 
ATOM     12  C   UNL A   1      33.875  27.475  24.669  1.00  0.00     0.015 C 
BRANCH   7  13
ATOM     13  N   UNL A   1      32.054  24.252  24.394  1.00  0.00    -0.336 N 
ATOM     14  C   UNL A   1      31.260  23.386  23.530  1.00  0.00     0.331 C 
ATOM     15  H   UNL A   1      32.181  23.771  25.285  1.00  0.00     0.346 HD
ATOM     16  H   UNL A   1      31.531  25.126  24.460  1.00  0.00     0.346 HD
ENDBRANCH   7  13
BRANCH  11  17
ATOM     17  S   UNL A   1      31.176  27.249  23.793  1.00  0.00    -0.082 SA
BRANCH  17  18
ATOM     18  C   UNL A   1      30.584  28.533  22.820  1.00  0.00     0.191 A 
ATOM     19  N   UNL A   1      31.303  29.380  22.147  1.00  0.00    -0.146 NA
ATOM     20  N   UNL A   1      29.245  28.709  22.720  1.00  0.00    -0.273 N 
ATOM     21  N   UNL A   1      30.374  30.201  21.570  1.00  0.00    -0.226 N 
ATOM     22  C   UNL A   1      29.090  29.798  21.910  1.00  0.00     0.343 A 
ATOM     23  C   UNL A   1      28.141  27.963  23.282  1.00  0.00     0.157 C 
ATOM     24  H   UNL A   1      30.586  30.971  20.993  1.00  0.00     0.195 HD
ATOM     25  O   UNL A   1      28.047  30.318  21.546  1.00  0.00    -0.246 OA
ENDBRANCH  17  18
ENDBRANCH  11  17
ENDBRANCH   4   7
ENDBRANCH   2   3
ENDBRANCH   1   2
BRANCH   1  26
ATOM     26  C   UNL A   1      36.912  21.743  25.178  1.00  0.00     0.118 C 
BRANCH  26  27
ATOM     27  N   UNL A   1      37.901  20.730  25.520  1.00  0.00    -0.352 N 
ATOM     28  C   UNL A   1      39.170  20.877  26.024  1.00  0.00     0.251 C 
ATOM     29  H   UNL A   1      37.616  19.800  25.368  1.00  0.00     0.163 HD
ATOM     30  O   UNL A   1      39.927  19.910  26.051  1.00  0.00    -0.269 OA
BRANCH  28  31
ATOM     31  C   UNL A   1      39.625  22.203  26.495  1.00  0.00     0.039 A 
ATOM     32  C   UNL A   1      40.675  22.278  27.411  1.00  0.00     0.014 A 
ATOM     33  C   UNL A   1      39.031  23.372  26.013  1.00  0.00     0.014 A 
ATOM     34  C   UNL A   1      41.184  23.527  27.774  1.00  0.00     0.010 A 
ATOM     35  C   UNL A   1      39.610  24.604  26.287  1.00  0.00     0.010 A 
ATOM     36  C   UNL A   1      40.689  24.699  27.177  1.00  0.00    -0.014 A 
BRANCH  36  37
ATOM     37  C   UNL A   1      41.274  26.032  27.478  1.00  0.00     0.031 A 
ATOM     38  C   UNL A   1      42.645  26.383  26.962  1.00  0.00     0.074 A 
ATOM     39  C   UNL A   1      40.603  26.897  28.264  1.00  0.00     0.049 A 
ATOM     40  N   UNL A   1      43.362  27.454  27.181  1.00  0.00    -0.248 NA
ATOM     41  C   UNL A   1      43.310  25.381  26.114  1.00  0.00     0.031 C 
ATOM     42  C   UNL A   1      39.286  26.652  28.859  1.00  0.00     0.029 A 
ATOM     43  N   UNL A   1      40.934  28.154  28.706  1.00  0.00    -0.354 N 
ATOM     44  C   UNL A   1      44.565  27.250  26.512  1.00  0.00     0.074 A 
ATOM     45  C   UNL A   1      44.505  25.922  25.940  1.00  0.00     0.031 C 
ATOM     46  C   UNL A   1      38.908  27.736  29.556  1.00  0.00     0.029 A 
ATOM     47  C   UNL A   1      39.976  28.730  29.510  1.00  0.00     0.049 A 
ATOM     48  H   UNL A   1      41.779  28.602  28.471  1.00  0.00     0.167 HD
ATOM     49  C   UNL A   1      45.609  28.101  26.364  1.00  0.00     0.034 A 
ATOM     50  C   UNL A   1      39.965  29.918  30.148  1.00  0.00     0.034 A 
ATOM     51  C   UNL A   1      45.645  29.427  26.930  1.00  0.00     0.049 A 
ATOM     52  C   UNL A   1      41.155  30.833  29.999  1.00  0.00     0.074 A 
ATOM     53  C   UNL A   1      46.628  30.391  26.799  1.00  0.00     0.029 A 
ATOM     54  N   UNL A   1      44.659  29.973  27.741  1.00  0.00    -0.354 N 
ATOM     55  N   UNL A   1      42.263  30.643  29.318  1.00  0.00    -0.248 NA
ATOM     56  C   UNL A   1      41.089  32.125  30.692  1.00  0.00     0.031 C 
ATOM     57  C   UNL A   1      46.276  31.486  27.595  1.00  0.00     0.029 A 
ATOM     58  C   UNL A   1      45.028  31.247  28.148  1.00  0.00     0.049 A 
ATOM     59  H   UNL A   1      43.821  29.522  27.992  1.00  0.00     0.167 HD
ATOM     60  C   UNL A   1      43.007  31.810  29.473  1.00  0.00     0.074 A 
ATOM     61  C   UNL A   1      42.216  32.700  30.297  1.00  0.00     0.031 C 
ATOM     62  C   UNL A   1      44.231  32.122  28.974  1.00  0.00     0.034 A 
BRANCH  49  63
ATOM     63  C   UNL A   1      46.804  27.611  25.579  1.00  0.00     0.023 A 
ATOM     64  C   UNL A   1      47.041  28.024  24.255  1.00  0.00     0.031 A 
ATOM     65  C   UNL A   1      47.712  26.707  26.156  1.00  0.00     0.131 A 
ATOM     66  C   UNL A   1      48.111  27.478  23.531  1.00  0.00     0.055 A 
ATOM     67  C   UNL A   1      48.826  26.235  25.458  1.00  0.00     0.041 A 
ATOM     68  F   UNL A   1      47.527  26.256  27.407  1.00  0.00    -0.206 F 
ATOM     69  C   UNL A   1      49.022  26.609  24.133  1.00  0.00     0.022 A 
BRANCH  66  70
ATOM     70  S   UNL A   1      48.208  27.809  21.750  1.00  0.00     0.124 S 
ATOM     71  O   UNL A   1      48.508  26.481  21.220  1.00  0.00    -0.237 OA
ATOM     72  O   UNL A   1      46.879  28.330  21.452  1.00  0.00    -0.237 OA
ATOM     73  O   UNL A   1      49.298  28.776  21.640  1.00  0.00    -0.744 OA
ENDBRANCH  66  70
ENDBRANCH  49  63
BRANCH  50  74
ATOM     74  C   UNL A   1      38.804  30.312  31.000  1.00  0.00     0.023 A 
ATOM     75  C   UNL A   1      37.715  31.016  30.459  1.00  0.00     0.031 A 
ATOM     76  C   UNL A   1      38.790  30.042  32.381  1.00  0.00     0.131 A 
ATOM     77  C   UNL A   1      36.690  31.475  31.300  1.00  0.00     0.055 A 
ATOM     78  C   UNL A   1      37.735  30.444  33.202  1.00  0.00     0.041 A 
ATOM     79  F   UNL A   1      39.803  29.372  32.952  1.00  0.00    -0.206 F 
ATOM     80  C   UNL A   1      36.684  31.180  32.665  1.00  0.00     0.022 A 
BRANCH  77  81
ATOM     81  S   UNL A   1      35.414  32.558  30.601  1.00  0.00     0.124 S 
ATOM     82  O   UNL A   1      34.387  32.512  31.637  1.00  0.00    -0.237 OA
ATOM     83  O   UNL A   1      36.131  33.821  30.462  1.00  0.00    -0.237 OA
ATOM     84  O   UNL A   1      35.062  31.901  29.343  1.00  0.00    -0.744 OA
ENDBRANCH  77  81
ENDBRANCH  50  74
BRANCH  62  85
ATOM     85  C   UNL A   1      44.761  33.507  29.261  1.00  0.00     0.023 A 
ATOM     86  C   UNL A   1      44.362  34.626  28.511  1.00  0.00     0.031 A 
ATOM     87  C   UNL A   1      45.685  33.704  30.303  1.00  0.00     0.131 A 
ATOM     88  C   UNL A   1      44.931  35.882  28.776  1.00  0.00     0.055 A 
ATOM     89  C   UNL A   1      46.192  34.967  30.607  1.00  0.00     0.041 A 
ATOM     90  F   UNL A   1      46.104  32.670  31.050  1.00  0.00    -0.206 F 
ATOM     91  C   UNL A   1      45.826  36.064  29.832  1.00  0.00     0.022 A 
BRANCH  88  92
ATOM     92  S   UNL A   1      44.561  37.259  27.654  1.00  0.00     0.124 S 
ATOM     93  O   UNL A   1      44.019  38.258  28.569  1.00  0.00    -0.237 OA
ATOM     94  O   UNL A   1      45.872  37.560  27.086  1.00  0.00    -0.237 OA
ATOM     95  O   UNL A   1      43.596  36.688  26.717  1.00  0.00    -0.744 OA
ENDBRANCH  88  92
ENDBRANCH  62  85
ENDBRANCH  36  37
ENDBRANCH  28  31
ENDBRANCH  26  27
ENDBRANCH   1  26
TORSDOF 16
ENDMDL
MODEL 2
REMARK VINA RESULT:     -12.1      5.585      8.671
REMARK SMILES C[NH2+][C@]1(C(=O)NCCCNC(=O)c2ccc(-c3c4nc(c(-c5cc(S(=O)(=O)[O-])ccc5F)c5ccc([nH]5)c(-c5cc(S(=O)(=O)[O-])ccc5F)c5nc(c(-c6cc(S(=O)(=O)[O-])ccc6F)c6ccc3[nH]6)C=C5)C=C4)cc2)CCC[C@H](Sc2n[nH]c(=O)n2C)C1
REMARK SMILES IDX 8 1 7 2 6 3 4 4 5 5 3 7 76 8 88 9 77 10 79 11 78 12 2 13
REMARK SMILES IDX 1 14 80 17 81 18 82 19 86 20 83 21 84 22 87 23 85 25 9 26
REMARK SMILES IDX 10 27 11 28 12 30 13 31 14 32 75 33 15 34 74 35 16 36 17 37
REMARK SMILES IDX 18 38 68 39 19 40 73 41 67 42 69 43 20 44 72 45 66 46 65 47
REMARK SMILES IDX 21 49 53 50 33 51 52 52 34 53 37 54 51 55 70 56 35 57 36 58
REMARK SMILES IDX 50 60 71 61 38 62 22 63 23 64 31 65 24 66 30 67 32 68 29 69
REMARK SMILES IDX 25 70 26 71 27 72 28 73 54 74 55 75 63 76 56 77 62 78 64 79
REMARK SMILES IDX 61 80 57 81 58 82 59 83 60 84 39 85 40 86 48 87 41 88 47 89
REMARK SMILES IDX 49 90 46 91 42 92 43 93 44 94 45 95
REMARK H PARENT 6 6 2 15 2 16 83 24 10 29 69 48 37 59
REMARK Flexibility Score: inf
ROOT
ATOM      1  C   UNL A   1      31.581  31.726  26.807  1.00  0.00     0.042 C 
ENDROOT
BRANCH   1   2
ATOM      2  C   UNL A   1      31.913  30.499  25.977  1.00  0.00     0.118 C 
BRANCH   2   3
ATOM      3  N   UNL A   1      33.187  29.911  26.354  1.00  0.00    -0.351 N 
ATOM      4  C   UNL A   1      33.695  28.651  26.254  1.00  0.00     0.281 C 
ATOM      5  O   UNL A   1      34.782  28.497  26.819  1.00  0.00    -0.268 OA
ATOM      6  H   UNL A   1      33.808  30.554  26.765  1.00  0.00     0.163 HD
BRANCH   4   7
ATOM      7  C   UNL A   1      32.937  27.507  25.493  1.00  0.00     0.176 C 
ATOM      8  C   UNL A   1      33.633  26.170  25.869  1.00  0.00     0.079 C 
ATOM      9  C   UNL A   1      31.410  27.506  25.834  1.00  0.00     0.094 C 
ATOM     10  C   UNL A   1      32.852  24.921  25.478  1.00  0.00     0.008 C 
ATOM     11  C   UNL A   1      30.643  26.207  25.508  1.00  0.00     0.061 C 
ATOM     12  C   UNL A   1      31.426  24.985  26.004  1.00  0.00     0.015 C 
BRANCH   7  13
ATOM     13  N   UNL A   1      33.124  27.613  24.007  1.00  0.00    -0.336 N 
ATOM     14  C   UNL A   1      34.203  28.483  23.554  1.00  0.00     0.331 C 
ATOM     15  H   UNL A   1      33.309  26.676  23.649  1.00  0.00     0.346 HD
ATOM     16  H   UNL A   1      32.265  28.035  23.653  1.00  0.00     0.346 HD
ENDBRANCH   7  13
BRANCH  11  17
ATOM     17  S   UNL A   1      30.270  26.239  23.725  1.00  0.00    -0.082 SA
BRANCH  17  18
ATOM     18  C   UNL A   1      28.812  27.133  23.594  1.00  0.00     0.191 A 
ATOM     19  N   UNL A   1      27.622  26.711  23.904  1.00  0.00    -0.146 NA
ATOM     20  N   UNL A   1      28.867  28.403  23.129  1.00  0.00    -0.273 N 
ATOM     21  N   UNL A   1      26.816  27.774  23.601  1.00  0.00    -0.226 N 
ATOM     22  C   UNL A   1      27.571  28.836  23.122  1.00  0.00     0.343 A 
ATOM     23  C   UNL A   1      29.988  29.222  22.722  1.00  0.00     0.157 C 
ATOM     24  H   UNL A   1      25.838  27.785  23.708  1.00  0.00     0.195 HD
ATOM     25  O   UNL A   1      27.148  29.928  22.777  1.00  0.00    -0.246 OA
ENDBRANCH  17  18
ENDBRANCH  11  17
ENDBRANCH   4   7
ENDBRANCH   2   3
ENDBRANCH   1   2
BRANCH   1  26
ATOM     26  C   UNL A   1      32.799  32.425  27.386  1.00  0.00     0.118 C 
BRANCH  26  27
ATOM     27  N   UNL A   1      32.584  33.852  27.590  1.00  0.00    -0.352 N 
ATOM     28  C   UNL A   1      33.158  34.705  28.501  1.00  0.00     0.251 C 
ATOM     29  H   UNL A   1      31.929  34.267  26.984  1.00  0.00     0.163 HD
ATOM     30  O   UNL A   1      32.692  35.831  28.654  1.00  0.00    -0.269 OA
BRANCH  28  31
ATOM     31  C   UNL A   1      34.306  34.247  29.314  1.00  0.00     0.039 A 
ATOM     32  C   UNL A   1      34.068  33.613  30.533  1.00  0.00     0.014 A 
ATOM     33  C   UNL A   1      35.615  34.422  28.859  1.00  0.00     0.014 A 
ATOM     34  C   UNL A   1      35.140  33.078  31.252  1.00  0.00     0.010 A 
ATOM     35  C   UNL A   1      36.664  33.793  29.517  1.00  0.00     0.010 A 
ATOM     36  C   UNL A   1      36.441  33.120  30.726  1.00  0.00    -0.014 A 
BRANCH  36  37
ATOM     37  C   UNL A   1      37.585  32.479  31.428  1.00  0.00     0.031 A 
ATOM     38  C   UNL A   1      38.320  31.337  30.776  1.00  0.00     0.074 A 
ATOM     39  C   UNL A   1      37.920  32.881  32.670  1.00  0.00     0.049 A 
ATOM     40  N   UNL A   1      39.284  30.594  31.254  1.00  0.00    -0.248 NA
ATOM     41  C   UNL A   1      37.889  30.960  29.421  1.00  0.00     0.031 C 
ATOM     42  C   UNL A   1      37.254  33.948  33.422  1.00  0.00     0.029 A 
ATOM     43  N   UNL A   1      38.897  32.438  33.525  1.00  0.00    -0.354 N 
ATOM     44  C   UNL A   1      39.565  29.656  30.266  1.00  0.00     0.074 A 
ATOM     45  C   UNL A   1      38.620  29.880  29.193  1.00  0.00     0.031 C 
ATOM     46  C   UNL A   1      37.864  34.099  34.608  1.00  0.00     0.029 A 
ATOM     47  C   UNL A   1      38.925  33.105  34.730  1.00  0.00     0.049 A 
ATOM     48  H   UNL A   1      39.520  31.710  33.299  1.00  0.00     0.167 HD
ATOM     49  C   UNL A   1      40.539  28.713  30.243  1.00  0.00     0.034 A 
ATOM     50  C   UNL A   1      39.707  32.926  35.814  1.00  0.00     0.034 A 
ATOM     51  C   UNL A   1      41.482  28.513  31.315  1.00  0.00     0.049 A 
ATOM     52  C   UNL A   1      40.760  31.846  35.779  1.00  0.00     0.074 A 
ATOM     53  C   UNL A   1      42.541  27.625  31.375  1.00  0.00     0.029 A 
ATOM     54  N   UNL A   1      41.476  29.205  32.520  1.00  0.00    -0.354 N 
ATOM     55  N   UNL A   1      41.045  31.001  34.814  1.00  0.00    -0.248 NA
ATOM     56  C   UNL A   1      41.603  31.703  36.972  1.00  0.00     0.031 C 
ATOM     57  C   UNL A   1      43.123  27.721  32.643  1.00  0.00     0.029 A 
ATOM     58  C   UNL A   1      42.489  28.736  33.343  1.00  0.00     0.049 A 
ATOM     59  H   UNL A   1      40.844  29.921  32.756  1.00  0.00     0.167 HD
ATOM     60  C   UNL A   1      42.127  30.253  35.273  1.00  0.00     0.074 A 
ATOM     61  C   UNL A   1      42.449  30.757  36.592  1.00  0.00     0.031 C 
ATOM     62  C   UNL A   1      42.798  29.245  34.658  1.00  0.00     0.034 A 
BRANCH  49  63
ATOM     63  C   UNL A   1      40.615  27.816  29.029  1.00  0.00     0.023 A 
ATOM     64  C   UNL A   1      41.581  28.008  28.025  1.00  0.00     0.031 A 
ATOM     65  C   UNL A   1      39.699  26.762  28.866  1.00  0.00     0.131 A 
ATOM     66  C   UNL A   1      41.562  27.210  26.872  1.00  0.00     0.055 A 
ATOM     67  C   UNL A   1      39.742  25.914  27.756  1.00  0.00     0.041 A 
ATOM     68  F   UNL A   1      38.738  26.543  29.777  1.00  0.00    -0.206 F 
ATOM     69  C   UNL A   1      40.668  26.145  26.744  1.00  0.00     0.022 A 
BRANCH  66  70
ATOM     70  S   UNL A   1      42.627  27.675  25.479  1.00  0.00     0.124 S 
ATOM     71  O   UNL A   1      43.904  27.907  26.150  1.00  0.00    -0.237 OA
ATOM     72  O   UNL A   1      42.560  26.497  24.622  1.00  0.00    -0.237 OA
ATOM     73  O   UNL A   1      41.987  28.875  24.944  1.00  0.00    -0.744 OA
ENDBRANCH  66  70
ENDBRANCH  49  63
BRANCH  50  74
ATOM     74  C   UNL A   1      39.523  33.770  37.032  1.00  0.00     0.023 A 
ATOM     75  C   UNL A   1      40.366  34.863  37.289  1.00  0.00     0.031 A 
ATOM     76  C   UNL A   1      38.536  33.463  37.987  1.00  0.00     0.131 A 
ATOM     77  C   UNL A   1      40.246  35.572  38.495  1.00  0.00     0.055 A 
ATOM     78  C   UNL A   1      38.379  34.212  39.154  1.00  0.00     0.041 A 
ATOM     79  F   UNL A   1      37.701  32.430  37.793  1.00  0.00    -0.206 F 
ATOM     80  C   UNL A   1      39.248  35.264  39.421  1.00  0.00     0.022 A 
BRANCH  77  81
ATOM     81  S   UNL A   1      41.486  36.837  38.884  1.00  0.00     0.124 S 
ATOM     82  O   UNL A   1      42.267  36.176  39.924  1.00  0.00    -0.237 OA
ATOM     83  O   UNL A   1      42.151  37.016  37.597  1.00  0.00    -0.237 OA
ATOM     84  O   UNL A   1      40.684  37.973  39.332  1.00  0.00    -0.744 OA
ENDBRANCH  77  81
ENDBRANCH  50  74
BRANCH  62  85
ATOM     85  C   UNL A   1      43.985  28.661  35.386  1.00  0.00     0.023 A 
ATOM     86  C   UNL A   1      43.859  27.567  36.258  1.00  0.00     0.031 A 
ATOM     87  C   UNL A   1      45.265  29.217  35.203  1.00  0.00     0.131 A 
ATOM     88  C   UNL A   1      44.983  27.100  36.959  1.00  0.00     0.055 A 
ATOM     89  C   UNL A   1      46.389  28.704  35.848  1.00  0.00     0.041 A 
ATOM     90  F   UNL A   1      45.444  30.266  34.384  1.00  0.00    -0.206 F 
ATOM     91  C   UNL A   1      46.250  27.648  36.744  1.00  0.00     0.022 A 
BRANCH  88  92
ATOM     92  S   UNL A   1      44.747  25.833  38.236  1.00  0.00     0.124 S 
ATOM     93  O   UNL A   1      44.171  24.734  37.470  1.00  0.00    -0.237 OA
ATOM     94  O   UNL A   1      46.107  25.625  38.724  1.00  0.00    -0.237 OA
ATOM     95  O   UNL A   1      43.838  26.470  39.187  1.00  0.00    -0.744 OA
ENDBRANCH  88  92
ENDBRANCH  62  85
ENDBRANCH  36  37
ENDBRANCH  28  31
ENDBRANCH  26  27
ENDBRANCH   1  26
TORSDOF 16
ENDMDL
MODEL 3
REMARK VINA RESULT:     -12.1      5.603      8.981
REMARK SMILES C[NH2+][C@]1(C(=O)NCCCNC(=O)c2ccc(-c3c4nc(c(-c5cc(S(=O)(=O)[O-])ccc5F)c5ccc([nH]5)c(-c5cc(S(=O)(=O)[O-])ccc5F)c5nc(c(-c6cc(S(=O)(=O)[O-])ccc6F)c6ccc3[nH]6)C=C5)C=C4)cc2)CCC[C@H](Sc2n[nH]c(=O)n2C)C1
REMARK SMILES IDX 8 1 7 2 6 3 4 4 5 5 3 7 76 8 88 9 77 10 79 11 78 12 2 13
REMARK SMILES IDX 1 14 80 17 81 18 82 19 86 20 83 21 84 22 87 23 85 25 9 26
REMARK SMILES IDX 10 27 11 28 12 30 13 31 14 32 75 33 15 34 74 35 16 36 17 37
REMARK SMILES IDX 18 38 68 39 19 40 73 41 67 42 69 43 20 44 72 45 66 46 65 47
REMARK SMILES IDX 21 49 53 50 33 51 52 52 34 53 37 54 51 55 70 56 35 57 36 58
REMARK SMILES IDX 50 60 71 61 38 62 22 63 23 64 31 65 24 66 30 67 32 68 29 69
REMARK SMILES IDX 25 70 26 71 27 72 28 73 54 74 55 75 63 76 56 77 62 78 64 79
REMARK SMILES IDX 61 80 57 81 58 82 59 83 60 84 39 85 40 86 48 87 41 88 47 89
REMARK SMILES IDX 49 90 46 91 42 92 43 93 44 94 45 95
REMARK H PARENT 6 6 2 15 2 16 83 24 10 29 69 48 37 59
REMARK Flexibility Score: inf
ROOT
ATOM      1  C   UNL A   1      31.787  31.618  26.897  1.00  0.00     0.042 C 
ENDROOT
BRANCH   1   2
ATOM      2  C   UNL A   1      32.102  30.412  26.031  1.00  0.00     0.118 C 
BRANCH   2   3
ATOM      3  N   UNL A   1      31.161  30.265  24.933  1.00  0.00    -0.351 N 
ATOM      4  C   UNL A   1      30.809  29.212  24.145  1.00  0.00     0.281 C 
ATOM      5  O   UNL A   1      30.061  29.507  23.208  1.00  0.00    -0.268 OA
ATOM      6  H   UNL A   1      30.681  31.096  24.715  1.00  0.00     0.163 HD
BRANCH   4   7
ATOM      7  C   UNL A   1      31.335  27.758  24.418  1.00  0.00     0.176 C 
ATOM      8  C   UNL A   1      32.858  27.761  24.115  1.00  0.00     0.079 C 
ATOM      9  C   UNL A   1      31.013  27.297  25.878  1.00  0.00     0.094 C 
ATOM     10  C   UNL A   1      33.603  26.528  24.615  1.00  0.00     0.008 C 
ATOM     11  C   UNL A   1      31.830  26.097  26.405  1.00  0.00     0.061 C 
ATOM     12  C   UNL A   1      33.319  26.284  26.090  1.00  0.00     0.015 C 
BRANCH   7  13
ATOM     13  N   UNL A   1      30.768  26.772  23.439  1.00  0.00    -0.336 N 
ATOM     14  C   UNL A   1      31.445  26.681  22.150  1.00  0.00     0.331 C 
ATOM     15  H   UNL A   1      30.799  25.849  23.872  1.00  0.00     0.346 HD
ATOM     16  H   UNL A   1      29.826  27.105  23.229  1.00  0.00     0.346 HD
ENDBRANCH   7  13
BRANCH  11  17
ATOM     17  S   UNL A   1      31.060  24.589  25.733  1.00  0.00    -0.082 SA
BRANCH  17  18
ATOM     18  C   UNL A   1      31.982  23.295  26.380  1.00  0.00     0.191 A 
ATOM     19  N   UNL A   1      32.028  22.936  27.628  1.00  0.00    -0.146 NA
ATOM     20  N   UNL A   1      32.745  22.556  25.541  1.00  0.00    -0.273 N 
ATOM     21  N   UNL A   1      32.909  21.889  27.627  1.00  0.00    -0.226 N 
ATOM     22  C   UNL A   1      33.362  21.635  26.341  1.00  0.00     0.343 A 
ATOM     23  C   UNL A   1      32.927  22.624  24.108  1.00  0.00     0.157 C 
ATOM     24  H   UNL A   1      33.183  21.385  28.428  1.00  0.00     0.195 HD
ATOM     25  O   UNL A   1      34.146  20.760  26.007  1.00  0.00    -0.246 OA
ENDBRANCH  17  18
ENDBRANCH  11  17
ENDBRANCH   4   7
ENDBRANCH   2   3
ENDBRANCH   1   2
BRANCH   1  26
ATOM     26  C   UNL A   1      33.006  32.443  27.272  1.00  0.00     0.118 C 
BRANCH  26  27
ATOM     27  N   UNL A   1      32.674  33.828  27.583  1.00  0.00    -0.352 N 
ATOM     28  C   UNL A   1      33.143  34.638  28.588  1.00  0.00     0.251 C 
ATOM     29  H   UNL A   1      32.015  34.244  26.982  1.00  0.00     0.163 HD
ATOM     30  O   UNL A   1      32.587  35.710  28.811  1.00  0.00    -0.269 OA
BRANCH  28  31
ATOM     31  C   UNL A   1      34.288  34.197  29.414  1.00  0.00     0.039 A 
ATOM     32  C   UNL A   1      34.050  33.421  30.549  1.00  0.00     0.014 A 
ATOM     33  C   UNL A   1      35.596  34.528  29.053  1.00  0.00     0.014 A 
ATOM     34  C   UNL A   1      35.131  32.908  31.270  1.00  0.00     0.010 A 
ATOM     35  C   UNL A   1      36.665  33.924  29.702  1.00  0.00     0.010 A 
ATOM     36  C   UNL A   1      36.447  33.113  30.824  1.00  0.00    -0.014 A 
BRANCH  36  37
ATOM     37  C   UNL A   1      37.609  32.501  31.522  1.00  0.00     0.031 A 
ATOM     38  C   UNL A   1      38.347  31.353  30.884  1.00  0.00     0.074 A 
ATOM     39  C   UNL A   1      37.958  32.934  32.750  1.00  0.00     0.049 A 
ATOM     40  N   UNL A   1      39.327  30.632  31.363  1.00  0.00    -0.248 NA
ATOM     41  C   UNL A   1      37.899  30.940  29.545  1.00  0.00     0.031 C 
ATOM     42  C   UNL A   1      37.292  34.012  33.488  1.00  0.00     0.029 A 
ATOM     43  N   UNL A   1      38.954  32.522  33.599  1.00  0.00    -0.354 N 
ATOM     44  C   UNL A   1      39.603  29.675  30.392  1.00  0.00     0.074 A 
ATOM     45  C   UNL A   1      38.639  29.864  29.330  1.00  0.00     0.031 C 
ATOM     46  C   UNL A   1      37.919  34.196  34.660  1.00  0.00     0.029 A 
ATOM     47  C   UNL A   1      38.993  33.217  34.788  1.00  0.00     0.049 A 
ATOM     48  H   UNL A   1      39.583  31.796  33.379  1.00  0.00     0.167 HD
ATOM     49  C   UNL A   1      40.588  28.743  30.375  1.00  0.00     0.034 A 
ATOM     50  C   UNL A   1      39.794  33.071  35.862  1.00  0.00     0.034 A 
ATOM     51  C   UNL A   1      41.550  28.578  31.436  1.00  0.00     0.049 A 
ATOM     52  C   UNL A   1      40.859  32.003  35.835  1.00  0.00     0.074 A 
ATOM     53  C   UNL A   1      42.620  27.704  31.499  1.00  0.00     0.029 A 
ATOM     54  N   UNL A   1      41.555  29.297  32.625  1.00  0.00    -0.354 N 
ATOM     55  N   UNL A   1      41.139  31.140  34.885  1.00  0.00    -0.248 NA
ATOM     56  C   UNL A   1      41.722  31.896  37.017  1.00  0.00     0.031 C 
ATOM     57  C   UNL A   1      43.221  27.835  32.755  1.00  0.00     0.029 A 
ATOM     58  C   UNL A   1      42.586  28.858  33.442  1.00  0.00     0.049 A 
ATOM     59  H   UNL A   1      40.918  30.011  32.855  1.00  0.00     0.167 HD
ATOM     60  C   UNL A   1      42.236  30.414  35.343  1.00  0.00     0.074 A 
ATOM     61  C   UNL A   1      42.574  30.952  36.645  1.00  0.00     0.031 C 
ATOM     62  C   UNL A   1      42.909  29.400  34.740  1.00  0.00     0.034 A 
BRANCH  49  63
ATOM     63  C   UNL A   1      40.655  27.820  29.181  1.00  0.00     0.023 A 
ATOM     64  C   UNL A   1      41.561  28.036  28.126  1.00  0.00     0.031 A 
ATOM     65  C   UNL A   1      39.792  26.714  29.087  1.00  0.00     0.131 A 
ATOM     66  C   UNL A   1      41.530  27.208  26.995  1.00  0.00     0.055 A 
ATOM     67  C   UNL A   1      39.827  25.841  27.997  1.00  0.00     0.041 A 
ATOM     68  F   UNL A   1      38.888  26.468  30.049  1.00  0.00    -0.206 F 
ATOM     69  C   UNL A   1      40.691  26.094  26.936  1.00  0.00     0.022 A 
BRANCH  66  70
ATOM     70  S   UNL A   1      42.501  27.693  25.541  1.00  0.00     0.124 S 
ATOM     71  O   UNL A   1      43.844  27.800  26.107  1.00  0.00    -0.237 OA
ATOM     72  O   UNL A   1      42.280  26.579  24.627  1.00  0.00    -0.237 OA
ATOM     73  O   UNL A   1      41.902  28.963  25.137  1.00  0.00    -0.744 OA
ENDBRANCH  66  70
ENDBRANCH  49  63
BRANCH  50  74
ATOM     74  C   UNL A   1      39.619  33.941  37.064  1.00  0.00     0.023 A 
ATOM     75  C   UNL A   1      39.011  33.450  38.230  1.00  0.00     0.031 A 
ATOM     76  C   UNL A   1      40.007  35.293  37.045  1.00  0.00     0.131 A 
ATOM     77  C   UNL A   1      38.756  34.315  39.305  1.00  0.00     0.055 A 
ATOM     78  C   UNL A   1      39.810  36.134  38.142  1.00  0.00     0.041 A 
ATOM     79  F   UNL A   1      40.595  35.816  35.957  1.00  0.00    -0.206 F 
ATOM     80  C   UNL A   1      39.165  35.650  39.275  1.00  0.00     0.022 A 
BRANCH  77  81
ATOM     81  S   UNL A   1      37.781  33.697  40.704  1.00  0.00     0.124 S 
ATOM     82  O   UNL A   1      38.739  32.819  41.367  1.00  0.00    -0.237 OA
ATOM     83  O   UNL A   1      37.445  34.930  41.409  1.00  0.00    -0.237 OA
ATOM     84  O   UNL A   1      36.655  33.022  40.062  1.00  0.00    -0.744 OA
ENDBRANCH  77  81
ENDBRANCH  50  74
BRANCH  62  85
ATOM     85  C   UNL A   1      44.115  28.847  35.462  1.00  0.00     0.023 A 
ATOM     86  C   UNL A   1      44.003  27.835  36.430  1.00  0.00     0.031 A 
ATOM     87  C   UNL A   1      45.398  29.348  35.174  1.00  0.00     0.131 A 
ATOM     88  C   UNL A   1      45.146  27.398  37.118  1.00  0.00     0.055 A 
ATOM     89  C   UNL A   1      46.539  28.859  35.810  1.00  0.00     0.041 A 
ATOM     90  F   UNL A   1      45.564  30.318  34.260  1.00  0.00    -0.206 F 
ATOM     91  C   UNL A   1      46.415  27.888  36.800  1.00  0.00     0.022 A 
BRANCH  88  92
ATOM     92  S   UNL A   1      44.940  26.252  38.509  1.00  0.00     0.124 S 
ATOM     93  O   UNL A   1      45.386  24.989  37.930  1.00  0.00    -0.237 OA
ATOM     94  O   UNL A   1      45.814  26.831  39.524  1.00  0.00    -0.237 OA
ATOM     95  O   UNL A   1      43.511  26.327  38.806  1.00  0.00    -0.744 OA
ENDBRANCH  88  92
ENDBRANCH  62  85
ENDBRANCH  36  37
ENDBRANCH  28  31
ENDBRANCH  26  27
ENDBRANCH   1  26
TORSDOF 16
ENDMDL
