MODEL 1
REMARK VINA RESULT:     -13.2      0.000      0.000
REMARK SMILES O=C(NCCCNC(=O)c1cc(-c2ccccc2)nc(Nc2nc3ccccc3s2)n1)c1ccc(-c2c3nc(c(-c4cc(S(=O)(=O)[O-])ccc4F)c4ccc([nH]4)c(-c4cc(S(=O)(=O)[O-])ccc4F)c4nc(c(-c5cc(S(=O)(=O)[O-])ccc5F)c5ccc2[nH]5)C=C4)C=C3)cc1
REMARK SMILES IDX 4 1 3 2 1 3 2 4 32 6 33 7 94 8 34 9 93 10 35 11 36 12 37 13
REMARK SMILES IDX 87 14 38 15 92 16 86 17 88 18 39 19 91 20 85 21 84 22 40 24
REMARK SMILES IDX 72 25 52 26 71 27 53 28 56 29 70 30 89 31 54 32 55 33 69 35
REMARK SMILES IDX 90 36 57 37 41 38 42 39 50 40 43 41 49 42 51 43 48 44 44 45
REMARK SMILES IDX 45 46 46 47 47 48 73 49 74 50 82 51 75 52 81 53 83 54 80 55
REMARK SMILES IDX 76 56 77 57 78 58 79 59 58 60 59 61 67 62 60 63 66 64 68 65
REMARK SMILES IDX 65 66 61 67 62 68 63 69 64 70 5 71 6 72 7 73 8 74 9 76 10 77
REMARK SMILES IDX 11 78 31 79 12 80 20 81 19 82 13 83 14 84 18 85 15 86 17 87
REMARK SMILES IDX 16 88 21 89 22 91 23 92 30 93 24 94 29 95 25 96 28 97 26 98
REMARK SMILES IDX 27 99
REMARK H PARENT 3 5 88 23 56 34 7 75 21 90
REMARK Flexibility Score: inf
ROOT
ATOM      1  C   UNL A   1      33.661  29.020  25.521  1.00  0.00     0.118 C 
ENDROOT
BRANCH   1   2
ATOM      2  N   UNL A   1      33.120  30.303  25.960  1.00  0.00    -0.352 N 
ATOM      3  O   UNL A   1      32.799  32.084  27.295  1.00  0.00    -0.269 OA
ATOM      4  C   UNL A   1      33.508  31.135  26.987  1.00  0.00     0.251 C 
ATOM      5  H   UNL A   1      32.353  30.627  25.437  1.00  0.00     0.163 HD
BRANCH   4   6
ATOM      6  C   UNL A   1      34.765  30.872  27.724  1.00  0.00     0.039 A 
ATOM      7  C   UNL A   1      35.020  29.609  28.257  1.00  0.00     0.014 A 
ATOM      8  C   UNL A   1      35.710  31.892  27.870  1.00  0.00     0.014 A 
ATOM      9  C   UNL A   1      36.109  29.423  29.095  1.00  0.00     0.010 A 
ATOM     10  C   UNL A   1      36.877  31.662  28.610  1.00  0.00     0.010 A 
ATOM     11  C   UNL A   1      37.069  30.434  29.259  1.00  0.00    -0.014 A 
BRANCH  11  12
ATOM     12  C   UNL A   1      38.282  30.123  30.060  1.00  0.00     0.031 A 
ATOM     13  C   UNL A   1      38.436  30.606  31.476  1.00  0.00     0.074 A 
ATOM     14  C   UNL A   1      39.213  29.314  29.511  1.00  0.00     0.049 A 
ATOM     15  N   UNL A   1      39.394  30.350  32.331  1.00  0.00    -0.248 NA
ATOM     16  C   UNL A   1      37.393  31.500  31.997  1.00  0.00     0.031 C 
ATOM     17  C   UNL A   1      39.170  28.804  28.135  1.00  0.00     0.029 A 
ATOM     18  N   UNL A   1      40.339  28.742  30.038  1.00  0.00    -0.354 N 
ATOM     19  C   UNL A   1      39.076  31.055  33.487  1.00  0.00     0.074 A 
ATOM     20  C   UNL A   1      37.854  31.781  33.209  1.00  0.00     0.031 C 
ATOM     21  C   UNL A   1      40.172  27.935  27.956  1.00  0.00     0.029 A 
ATOM     22  C   UNL A   1      40.978  27.886  29.168  1.00  0.00     0.049 A 
ATOM     23  H   UNL A   1      40.661  28.924  30.950  1.00  0.00     0.167 HD
ATOM     24  C   UNL A   1      39.739  31.084  34.671  1.00  0.00     0.034 A 
ATOM     25  C   UNL A   1      42.096  27.152  29.321  1.00  0.00     0.034 A 
ATOM     26  C   UNL A   1      40.958  30.350  34.929  1.00  0.00     0.049 A 
ATOM     27  C   UNL A   1      42.809  27.207  30.644  1.00  0.00     0.074 A 
ATOM     28  C   UNL A   1      41.715  30.310  36.087  1.00  0.00     0.029 A 
ATOM     29  N   UNL A   1      41.599  29.523  34.012  1.00  0.00    -0.354 N 
ATOM     30  N   UNL A   1      42.493  27.884  31.723  1.00  0.00    -0.248 NA
ATOM     31  C   UNL A   1      44.024  26.396  30.770  1.00  0.00     0.031 C 
ATOM     32  C   UNL A   1      42.838  29.507  35.855  1.00  0.00     0.029 A 
ATOM     33  C   UNL A   1      42.750  28.989  34.573  1.00  0.00     0.049 A 
ATOM     34  H   UNL A   1      41.282  29.344  33.097  1.00  0.00     0.167 HD
ATOM     35  C   UNL A   1      43.476  27.582  32.658  1.00  0.00     0.074 A 
ATOM     36  C   UNL A   1      44.364  26.624  32.029  1.00  0.00     0.031 C 
ATOM     37  C   UNL A   1      43.640  28.060  33.918  1.00  0.00     0.034 A 
BRANCH  24  38
ATOM     38  C   UNL A   1      39.183  31.969  35.762  1.00  0.00     0.023 A 
ATOM     39  C   UNL A   1      38.462  31.444  36.847  1.00  0.00     0.031 A 
ATOM     40  C   UNL A   1      39.376  33.362  35.713  1.00  0.00     0.131 A 
ATOM     41  C   UNL A   1      37.914  32.308  37.810  1.00  0.00     0.055 A 
ATOM     42  C   UNL A   1      38.890  34.209  36.711  1.00  0.00     0.041 A 
ATOM     43  F   UNL A   1      40.040  33.924  34.690  1.00  0.00    -0.206 F 
ATOM     44  C   UNL A   1      38.145  33.685  37.762  1.00  0.00     0.022 A 
BRANCH  41  45
ATOM     45  S   UNL A   1      36.804  31.619  39.069  1.00  0.00     0.124 S 
ATOM     46  O   UNL A   1      37.636  31.694  40.269  1.00  0.00    -0.237 OA
ATOM     47  O   UNL A   1      35.668  32.532  39.023  1.00  0.00    -0.237 OA
ATOM     48  O   UNL A   1      36.537  30.265  38.589  1.00  0.00    -0.744 OA
ENDBRANCH  41  45
ENDBRANCH  24  38
BRANCH  25  49
ATOM     49  C   UNL A   1      42.628  26.346  28.186  1.00  0.00     0.023 A 
ATOM     50  C   UNL A   1      43.781  26.735  27.489  1.00  0.00     0.031 A 
ATOM     51  C   UNL A   1      41.964  25.179  27.764  1.00  0.00     0.131 A 
ATOM     52  C   UNL A   1      44.210  25.991  26.378  1.00  0.00     0.055 A 
ATOM     53  C   UNL A   1      42.430  24.408  26.698  1.00  0.00     0.041 A 
ATOM     54  F   UNL A   1      40.858  24.758  28.398  1.00  0.00    -0.206 F 
ATOM     55  C   UNL A   1      43.551  24.822  25.989  1.00  0.00     0.022 A 
BRANCH  52  56
ATOM     56  S   UNL A   1      45.590  26.625  25.387  1.00  0.00     0.124 S 
ATOM     57  O   UNL A   1      44.979  27.770  24.722  1.00  0.00    -0.237 OA
ATOM     58  O   UNL A   1      46.582  26.933  26.412  1.00  0.00    -0.237 OA
ATOM     59  O   UNL A   1      45.926  25.502  24.514  1.00  0.00    -0.744 OA
ENDBRANCH  52  56
ENDBRANCH  25  49
BRANCH  37  60
ATOM     60  C   UNL A   1      44.829  27.532  34.681  1.00  0.00     0.023 A 
ATOM     61  C   UNL A   1      44.755  26.330  35.409  1.00  0.00     0.031 A 
ATOM     62  C   UNL A   1      46.026  28.266  34.732  1.00  0.00     0.131 A 
ATOM     63  C   UNL A   1      45.830  25.937  36.217  1.00  0.00     0.055 A 
ATOM     64  C   UNL A   1      47.117  27.836  35.488  1.00  0.00     0.041 A 
ATOM     65  F   UNL A   1      46.149  29.421  34.058  1.00  0.00    -0.206 F 
ATOM     66  C   UNL A   1      47.016  26.674  36.250  1.00  0.00     0.022 A 
BRANCH  63  67
ATOM     67  S   UNL A   1      45.613  24.510  37.316  1.00  0.00     0.124 S 
ATOM     68  O   UNL A   1      46.985  24.235  37.731  1.00  0.00    -0.237 OA
ATOM     69  O   UNL A   1      44.730  25.043  38.347  1.00  0.00    -0.237 OA
ATOM     70  O   UNL A   1      45.013  23.497  36.449  1.00  0.00    -0.744 OA
ENDBRANCH  63  67
ENDBRANCH  37  60
ENDBRANCH  11  12
ENDBRANCH   4   6
ENDBRANCH   1   2
BRANCH   1  71
ATOM     71  C   UNL A   1      33.308  28.691  24.079  1.00  0.00     0.042 C 
BRANCH  71  72
ATOM     72  C   UNL A   1      32.739  27.296  23.896  1.00  0.00     0.118 C 
BRANCH  72  73
ATOM     73  N   UNL A   1      32.828  26.825  22.520  1.00  0.00    -0.351 N 
ATOM     74  C   UNL A   1      33.250  25.608  22.033  1.00  0.00     0.270 C 
ATOM     75  H   UNL A   1      32.543  27.474  21.837  1.00  0.00     0.163 HD
ATOM     76  O   UNL A   1      33.338  25.434  20.820  1.00  0.00    -0.268 OA
BRANCH  74  77
ATOM     77  C   UNL A   1      33.546  24.507  22.980  1.00  0.00     0.134 A 
ATOM     78  C   UNL A   1      34.743  24.485  23.635  1.00  0.00     0.063 A 
ATOM     79  N   UNL A   1      32.613  23.560  23.108  1.00  0.00    -0.207 NA
ATOM     80  C   UNL A   1      35.000  23.340  24.349  1.00  0.00     0.077 A 
ATOM     81  C   UNL A   1      32.897  22.506  23.878  1.00  0.00     0.230 A 
ATOM     82  N   UNL A   1      34.084  22.353  24.496  1.00  0.00    -0.213 NA
BRANCH  80  83
ATOM     83  C   UNL A   1      36.358  23.109  24.860  1.00  0.00     0.000 A 
ATOM     84  C   UNL A   1      36.996  24.078  25.651  1.00  0.00     0.010 A 
ATOM     85  C   UNL A   1      36.985  21.858  24.709  1.00  0.00     0.010 A 
ATOM     86  C   UNL A   1      38.198  23.792  26.304  1.00  0.00     0.001 A 
ATOM     87  C   UNL A   1      38.188  21.573  25.359  1.00  0.00     0.001 A 
ATOM     88  C   UNL A   1      38.788  22.536  26.165  1.00  0.00     0.000 A 
ENDBRANCH  80  83
BRANCH  81  89
ATOM     89  N   UNL A   1      31.911  21.558  24.139  1.00  0.00    -0.300 N 
ATOM     90  H   UNL A   1      30.993  21.873  24.308  1.00  0.00     0.172 HD
BRANCH  89  91
ATOM     91  C   UNL A   1      32.149  20.231  24.175  1.00  0.00     0.190 A 
ATOM     92  N   UNL A   1      32.137  19.487  25.257  1.00  0.00    -0.220 NA
ATOM     93  S   UNL A   1      32.540  19.363  22.733  1.00  0.00    -0.097 S 
ATOM     94  C   UNL A   1      32.645  18.235  25.006  1.00  0.00     0.084 A 
ATOM     95  C   UNL A   1      32.966  17.980  23.674  1.00  0.00     0.056 A 
ATOM     96  C   UNL A   1      32.884  17.238  25.973  1.00  0.00     0.030 A 
ATOM     97  C   UNL A   1      33.542  16.761  23.276  1.00  0.00     0.021 A 
ATOM     98  C   UNL A   1      33.465  16.028  25.592  1.00  0.00     0.002 A 
ATOM     99  C   UNL A   1      33.796  15.797  24.260  1.00  0.00     0.002 A 
ENDBRANCH  89  91
ENDBRANCH  81  89
ENDBRANCH  74  77
ENDBRANCH  72  73
ENDBRANCH  71  72
ENDBRANCH   1  71
TORSDOF 16
ENDMDL
MODEL 2
REMARK VINA RESULT:     -12.9      2.589      4.704
REMARK SMILES O=C(NCCCNC(=O)c1cc(-c2ccccc2)nc(Nc2nc3ccccc3s2)n1)c1ccc(-c2c3nc(c(-c4cc(S(=O)(=O)[O-])ccc4F)c4ccc([nH]4)c(-c4cc(S(=O)(=O)[O-])ccc4F)c4nc(c(-c5cc(S(=O)(=O)[O-])ccc5F)c5ccc2[nH]5)C=C4)C=C3)cc1
REMARK SMILES IDX 4 1 3 2 1 3 2 4 32 6 33 7 94 8 34 9 93 10 35 11 36 12 37 13
REMARK SMILES IDX 87 14 38 15 92 16 86 17 88 18 39 19 91 20 85 21 84 22 40 24
REMARK SMILES IDX 72 25 52 26 71 27 53 28 56 29 70 30 89 31 54 32 55 33 69 35
REMARK SMILES IDX 90 36 57 37 41 38 42 39 50 40 43 41 49 42 51 43 48 44 44 45
REMARK SMILES IDX 45 46 46 47 47 48 73 49 74 50 82 51 75 52 81 53 83 54 80 55
REMARK SMILES IDX 76 56 77 57 78 58 79 59 58 60 59 61 67 62 60 63 66 64 68 65
REMARK SMILES IDX 65 66 61 67 62 68 63 69 64 70 5 71 6 72 7 73 8 74 9 76 10 77
REMARK SMILES IDX 11 78 31 79 12 80 20 81 19 82 13 83 14 84 18 85 15 86 17 87
REMARK SMILES IDX 16 88 21 89 22 91 23 92 30 93 24 94 29 95 25 96 28 97 26 98
REMARK SMILES IDX 27 99
REMARK H PARENT 3 5 88 23 56 34 7 75 21 90
REMARK Flexibility Score: inf
ROOT
ATOM      1  C   UNL A   1      32.950  32.562  27.134  1.00  0.00     0.118 C 
ENDROOT
BRANCH   1   2
ATOM      2  N   UNL A   1      32.674  33.905  27.637  1.00  0.00    -0.352 N 
ATOM      3  O   UNL A   1      32.718  35.651  29.053  1.00  0.00    -0.269 OA
ATOM      4  C   UNL A   1      33.224  34.596  28.693  1.00  0.00     0.251 C 
ATOM      5  H   UNL A   1      31.980  34.396  27.141  1.00  0.00     0.163 HD
BRANCH   4   6
ATOM      6  C   UNL A   1      34.412  34.060  29.397  1.00  0.00     0.039 A 
ATOM      7  C   UNL A   1      35.695  34.431  28.998  1.00  0.00     0.014 A 
ATOM      8  C   UNL A   1      34.244  33.189  30.478  1.00  0.00     0.014 A 
ATOM      9  C   UNL A   1      36.797  33.788  29.541  1.00  0.00     0.010 A 
ATOM     10  C   UNL A   1      35.365  32.639  31.112  1.00  0.00     0.010 A 
ATOM     11  C   UNL A   1      36.652  32.907  30.625  1.00  0.00    -0.014 A 
BRANCH  11  12
ATOM     12  C   UNL A   1      37.884  32.357  31.250  1.00  0.00     0.031 A 
ATOM     13  C   UNL A   1      38.363  32.828  32.595  1.00  0.00     0.074 A 
ATOM     14  C   UNL A   1      38.520  31.351  30.613  1.00  0.00     0.049 A 
ATOM     15  N   UNL A   1      39.368  32.388  33.309  1.00  0.00    -0.248 NA
ATOM     16  C   UNL A   1      37.632  33.942  33.215  1.00  0.00     0.031 C 
ATOM     17  C   UNL A   1      38.148  30.830  29.293  1.00  0.00     0.029 A 
ATOM     18  N   UNL A   1      39.568  30.558  30.996  1.00  0.00    -0.354 N 
ATOM     19  C   UNL A   1      39.398  33.173  34.456  1.00  0.00     0.074 A 
ATOM     20  C   UNL A   1      38.331  34.143  34.325  1.00  0.00     0.031 C 
ATOM     21  C   UNL A   1      38.900  29.757  29.014  1.00  0.00     0.029 A 
ATOM     22  C   UNL A   1      39.862  29.562  30.092  1.00  0.00     0.049 A 
ATOM     23  H   UNL A   1      40.064  30.686  31.836  1.00  0.00     0.167 HD
ATOM     24  C   UNL A   1      40.234  33.085  35.522  1.00  0.00     0.034 A 
ATOM     25  C   UNL A   1      40.807  28.604  30.116  1.00  0.00     0.034 A 
ATOM     26  C   UNL A   1      41.293  32.107  35.634  1.00  0.00     0.049 A 
ATOM     27  C   UNL A   1      41.719  28.532  31.310  1.00  0.00     0.074 A 
ATOM     28  C   UNL A   1      42.200  31.929  36.665  1.00  0.00     0.029 A 
ATOM     29  N   UNL A   1      41.588  31.138  34.681  1.00  0.00    -0.354 N 
ATOM     30  N   UNL A   1      41.733  29.289  32.383  1.00  0.00    -0.248 NA
ATOM     31  C   UNL A   1      42.737  27.477  31.297  1.00  0.00     0.031 C 
ATOM     32  C   UNL A   1      43.075  30.895  36.312  1.00  0.00     0.029 A 
ATOM     33  C   UNL A   1      42.673  30.378  35.091  1.00  0.00     0.049 A 
ATOM     34  H   UNL A   1      41.097  31.011  33.837  1.00  0.00     0.167 HD
ATOM     35  C   UNL A   1      42.765  28.800  33.174  1.00  0.00     0.074 A 
ATOM     36  C   UNL A   1      43.316  27.655  32.474  1.00  0.00     0.031 C 
ATOM     37  C   UNL A   1      43.228  29.260  34.364  1.00  0.00     0.034 A 
BRANCH  24  38
ATOM     38  C   UNL A   1      40.062  34.097  36.631  1.00  0.00     0.023 A 
ATOM     39  C   UNL A   1      39.557  33.736  37.892  1.00  0.00     0.031 A 
ATOM     40  C   UNL A   1      40.408  35.444  36.422  1.00  0.00     0.131 A 
ATOM     41  C   UNL A   1      39.361  34.718  38.876  1.00  0.00     0.055 A 
ATOM     42  C   UNL A   1      40.276  36.403  37.428  1.00  0.00     0.041 A 
ATOM     43  F   UNL A   1      40.877  35.852  35.232  1.00  0.00    -0.206 F 
ATOM     44  C   UNL A   1      39.740  36.045  38.661  1.00  0.00     0.022 A 
BRANCH  41  45
ATOM     45  S   UNL A   1      38.501  34.260  40.407  1.00  0.00     0.124 S 
ATOM     46  O   UNL A   1      39.505  33.434  41.073  1.00  0.00    -0.237 OA
ATOM     47  O   UNL A   1      38.232  35.555  41.019  1.00  0.00    -0.237 OA
ATOM     48  O   UNL A   1      37.323  33.535  39.935  1.00  0.00    -0.744 OA
ENDBRANCH  41  45
ENDBRANCH  24  38
BRANCH  25  49
ATOM     49  C   UNL A   1      40.966  27.673  28.962  1.00  0.00     0.023 A 
ATOM     50  C   UNL A   1      41.950  27.881  27.984  1.00  0.00     0.031 A 
ATOM     51  C   UNL A   1      40.105  26.570  28.809  1.00  0.00     0.131 A 
ATOM     52  C   UNL A   1      42.021  27.025  26.873  1.00  0.00     0.055 A 
ATOM     53  C   UNL A   1      40.220  25.687  27.735  1.00  0.00     0.041 A 
ATOM     54  F   UNL A   1      39.149  26.322  29.717  1.00  0.00    -0.206 F 
ATOM     55  C   UNL A   1      41.173  25.921  26.751  1.00  0.00     0.022 A 
BRANCH  52  56
ATOM     56  S   UNL A   1      43.177  27.431  25.536  1.00  0.00     0.124 S 
ATOM     57  O   UNL A   1      43.549  26.106  25.051  1.00  0.00    -0.237 OA
ATOM     58  O   UNL A   1      42.342  28.229  24.646  1.00  0.00    -0.237 OA
ATOM     59  O   UNL A   1      44.240  28.166  26.218  1.00  0.00    -0.744 OA
ENDBRANCH  52  56
ENDBRANCH  25  49
BRANCH  37  60
ATOM     60  C   UNL A   1      44.384  28.503  34.968  1.00  0.00     0.023 A 
ATOM     61  C   UNL A   1      44.175  27.491  35.923  1.00  0.00     0.031 A 
ATOM     62  C   UNL A   1      45.707  28.836  34.632  1.00  0.00     0.131 A 
ATOM     63  C   UNL A   1      45.272  26.900  36.564  1.00  0.00     0.055 A 
ATOM     64  C   UNL A   1      46.796  28.200  35.229  1.00  0.00     0.041 A 
ATOM     65  F   UNL A   1      45.962  29.796  33.729  1.00  0.00    -0.206 F 
ATOM     66  C   UNL A   1      46.581  27.238  36.213  1.00  0.00     0.022 A 
BRANCH  63  67
ATOM     67  S   UNL A   1      44.962  25.770  37.949  1.00  0.00     0.124 S 
ATOM     68  O   UNL A   1      46.304  25.278  38.246  1.00  0.00    -0.237 OA
ATOM     69  O   UNL A   1      44.372  26.655  38.947  1.00  0.00    -0.237 OA
ATOM     70  O   UNL A   1      44.049  24.778  37.384  1.00  0.00    -0.744 OA
ENDBRANCH  63  67
ENDBRANCH  37  60
ENDBRANCH  11  12
ENDBRANCH   4   6
ENDBRANCH   1   2
BRANCH   1  71
ATOM     71  C   UNL A   1      31.686  31.770  26.838  1.00  0.00     0.042 C 
BRANCH  71  72
ATOM     72  C   UNL A   1      31.829  30.280  27.096  1.00  0.00     0.118 C 
BRANCH  72  73
ATOM     73  N   UNL A   1      32.987  29.700  26.428  1.00  0.00    -0.351 N 
ATOM     74  C   UNL A   1      33.043  28.851  25.345  1.00  0.00     0.270 C 
ATOM     75  H   UNL A   1      33.859  29.953  26.808  1.00  0.00     0.163 HD
ATOM     76  O   UNL A   1      34.125  28.395  24.983  1.00  0.00    -0.268 OA
BRANCH  74  77
ATOM     77  C   UNL A   1      31.801  28.537  24.601  1.00  0.00     0.134 A 
ATOM     78  C   UNL A   1      31.211  29.500  23.834  1.00  0.00     0.063 A 
ATOM     79  N   UNL A   1      31.302  27.307  24.760  1.00  0.00    -0.207 NA
ATOM     80  C   UNL A   1      29.975  29.173  23.331  1.00  0.00     0.077 A 
ATOM     81  C   UNL A   1      30.130  27.030  24.181  1.00  0.00     0.230 A 
ATOM     82  N   UNL A   1      29.432  27.941  23.477  1.00  0.00    -0.213 NA
BRANCH  80  83
ATOM     83  C   UNL A   1      29.151  30.229  22.728  1.00  0.00     0.000 A 
ATOM     84  C   UNL A   1      28.860  31.402  23.442  1.00  0.00     0.010 A 
ATOM     85  C   UNL A   1      28.770  30.166  21.374  1.00  0.00     0.010 A 
ATOM     86  C   UNL A   1      28.250  32.491  22.814  1.00  0.00     0.001 A 
ATOM     87  C   UNL A   1      28.158  31.253  20.746  1.00  0.00     0.001 A 
ATOM     88  C   UNL A   1      27.908  32.419  21.464  1.00  0.00     0.000 A 
ENDBRANCH  80  83
BRANCH  81  89
ATOM     89  N   UNL A   1      29.635  25.729  24.217  1.00  0.00    -0.300 N 
ATOM     90  H   UNL A   1      28.658  25.601  24.213  1.00  0.00     0.172 HD
BRANCH  89  91
ATOM     91  C   UNL A   1      30.425  24.636  24.258  1.00  0.00     0.190 A 
ATOM     92  N   UNL A   1      30.913  24.015  23.210  1.00  0.00    -0.220 NA
ATOM     93  S   UNL A   1      30.854  23.912  25.766  1.00  0.00    -0.097 S 
ATOM     94  C   UNL A   1      31.477  22.811  23.563  1.00  0.00     0.084 A 
ATOM     95  C   UNL A   1      31.508  22.550  24.932  1.00  0.00     0.056 A 
ATOM     96  C   UNL A   1      31.979  21.847  22.668  1.00  0.00     0.030 A 
ATOM     97  C   UNL A   1      32.008  21.337  25.438  1.00  0.00     0.021 A 
ATOM     98  C   UNL A   1      32.469  20.635  23.157  1.00  0.00     0.002 A 
ATOM     99  C   UNL A   1      32.476  20.383  24.526  1.00  0.00     0.002 A 
ENDBRANCH  89  91
ENDBRANCH  81  89
ENDBRANCH  74  77
ENDBRANCH  72  73
ENDBRANCH  71  72
ENDBRANCH   1  71
TORSDOF 16
ENDMDL
MODEL 3
REMARK VINA RESULT:     -12.9      4.689     10.836
REMARK SMILES O=C(NCCCNC(=O)c1cc(-c2ccccc2)nc(Nc2nc3ccccc3s2)n1)c1ccc(-c2c3nc(c(-c4cc(S(=O)(=O)[O-])ccc4F)c4ccc([nH]4)c(-c4cc(S(=O)(=O)[O-])ccc4F)c4nc(c(-c5cc(S(=O)(=O)[O-])ccc5F)c5ccc2[nH]5)C=C4)C=C3)cc1
REMARK SMILES IDX 4 1 3 2 1 3 2 4 32 6 33 7 94 8 34 9 93 10 35 11 36 12 37 13
REMARK SMILES IDX 87 14 38 15 92 16 86 17 88 18 39 19 91 20 85 21 84 22 40 24
REMARK SMILES IDX 72 25 52 26 71 27 53 28 56 29 70 30 89 31 54 32 55 33 69 35
REMARK SMILES IDX 90 36 57 37 41 38 42 39 50 40 43 41 49 42 51 43 48 44 44 45
REMARK SMILES IDX 45 46 46 47 47 48 73 49 74 50 82 51 75 52 81 53 83 54 80 55
REMARK SMILES IDX 76 56 77 57 78 58 79 59 58 60 59 61 67 62 60 63 66 64 68 65
REMARK SMILES IDX 65 66 61 67 62 68 63 69 64 70 5 71 6 72 7 73 8 74 9 76 10 77
REMARK SMILES IDX 11 78 31 79 12 80 20 81 19 82 13 83 14 84 18 85 15 86 17 87
REMARK SMILES IDX 16 88 21 89 22 91 23 92 30 93 24 94 29 95 25 96 28 97 26 98
REMARK SMILES IDX 27 99
REMARK H PARENT 3 5 88 23 56 34 7 75 21 90
REMARK Flexibility Score: inf
ROOT
ATOM      1  C   UNL A   1      39.207  20.449  26.099  1.00  0.00     0.118 C 
ENDROOT
BRANCH   1   2
ATOM      2  N   UNL A   1      40.298  19.481  26.040  1.00  0.00    -0.352 N 
ATOM      3  O   UNL A   1      42.403  18.722  25.829  1.00  0.00    -0.269 OA
ATOM      4  C   UNL A   1      41.662  19.665  26.073  1.00  0.00     0.251 C 
ATOM      5  H   UNL A   1      40.011  18.543  25.964  1.00  0.00     0.163 HD
BRANCH   4   6
ATOM      6  C   UNL A   1      42.226  20.998  26.385  1.00  0.00     0.039 A 
ATOM      7  C   UNL A   1      42.601  21.317  27.689  1.00  0.00     0.014 A 
ATOM      8  C   UNL A   1      42.400  21.936  25.363  1.00  0.00     0.014 A 
ATOM      9  C   UNL A   1      42.957  22.619  28.004  1.00  0.00     0.010 A 
ATOM     10  C   UNL A   1      42.885  23.215  25.664  1.00  0.00     0.010 A 
ATOM     11  C   UNL A   1      43.134  23.579  26.995  1.00  0.00    -0.014 A 
BRANCH  11  12
ATOM     12  C   UNL A   1      43.649  24.918  27.384  1.00  0.00     0.031 A 
ATOM     13  C   UNL A   1      45.071  25.325  27.113  1.00  0.00     0.074 A 
ATOM     14  C   UNL A   1      42.776  25.802  27.912  1.00  0.00     0.049 A 
ATOM     15  N   UNL A   1      45.647  26.483  27.316  1.00  0.00    -0.248 NA
ATOM     16  C   UNL A   1      45.967  24.301  26.557  1.00  0.00     0.031 C 
ATOM     17  C   UNL A   1      41.375  25.503  28.233  1.00  0.00     0.029 A 
ATOM     18  N   UNL A   1      42.909  27.128  28.226  1.00  0.00    -0.354 N 
ATOM     19  C   UNL A   1      46.971  26.329  26.922  1.00  0.00     0.074 A 
ATOM     20  C   UNL A   1      47.123  24.951  26.503  1.00  0.00     0.031 C 
ATOM     21  C   UNL A   1      40.762  26.629  28.620  1.00  0.00     0.029 A 
ATOM     22  C   UNL A   1      41.737  27.710  28.656  1.00  0.00     0.049 A 
ATOM     23  H   UNL A   1      43.759  27.618  28.153  1.00  0.00     0.167 HD
ATOM     24  C   UNL A   1      47.964  27.255  26.904  1.00  0.00     0.034 A 
ATOM     25  C   UNL A   1      41.476  28.970  29.049  1.00  0.00     0.034 A 
ATOM     26  C   UNL A   1      47.790  28.627  27.325  1.00  0.00     0.049 A 
ATOM     27  C   UNL A   1      42.596  29.974  29.019  1.00  0.00     0.074 A 
ATOM     28  C   UNL A   1      48.725  29.647  27.354  1.00  0.00     0.029 A 
ATOM     29  N   UNL A   1      46.599  29.173  27.792  1.00  0.00    -0.354 N 
ATOM     30  N   UNL A   1      43.844  29.805  28.647  1.00  0.00    -0.248 NA
ATOM     31  C   UNL A   1      42.272  31.335  29.458  1.00  0.00     0.031 C 
ATOM     32  C   UNL A   1      48.119  30.790  27.887  1.00  0.00     0.029 A 
ATOM     33  C   UNL A   1      46.784  30.506  28.129  1.00  0.00     0.049 A 
ATOM     34  H   UNL A   1      45.749  28.684  27.873  1.00  0.00     0.167 HD
ATOM     35  C   UNL A   1      44.455  31.042  28.810  1.00  0.00     0.074 A 
ATOM     36  C   UNL A   1      43.426  31.955  29.266  1.00  0.00     0.031 C 
ATOM     37  C   UNL A   1      45.752  31.392  28.614  1.00  0.00     0.034 A 
BRANCH  24  38
ATOM     38  C   UNL A   1      49.333  26.803  26.453  1.00  0.00     0.023 A 
ATOM     39  C   UNL A   1      49.888  27.227  25.233  1.00  0.00     0.031 A 
ATOM     40  C   UNL A   1      50.093  25.933  27.255  1.00  0.00     0.131 A 
ATOM     41  C   UNL A   1      51.141  26.739  24.826  1.00  0.00     0.055 A 
ATOM     42  C   UNL A   1      51.368  25.507  26.877  1.00  0.00     0.041 A 
ATOM     43  F   UNL A   1      49.607  25.479  28.421  1.00  0.00    -0.206 F 
ATOM     44  C   UNL A   1      51.895  25.901  25.651  1.00  0.00     0.022 A 
BRANCH  41  45
ATOM     45  S   UNL A   1      51.726  27.127  23.153  1.00  0.00     0.124 S 
ATOM     46  O   UNL A   1      52.043  28.549  23.274  1.00  0.00    -0.237 OA
ATOM     47  O   UNL A   1      52.865  26.230  23.000  1.00  0.00    -0.237 OA
ATOM     48  O   UNL A   1      50.574  26.823  22.307  1.00  0.00    -0.744 OA
ENDBRANCH  41  45
ENDBRANCH  24  38
BRANCH  25  49
ATOM     49  C   UNL A   1      40.118  29.340  29.542  1.00  0.00     0.023 A 
ATOM     50  C   UNL A   1      39.824  29.383  30.913  1.00  0.00     0.031 A 
ATOM     51  C   UNL A   1      39.081  29.626  28.635  1.00  0.00     0.131 A 
ATOM     52  C   UNL A   1      38.515  29.662  31.337  1.00  0.00     0.055 A 
ATOM     53  C   UNL A   1      37.796  29.963  29.063  1.00  0.00     0.041 A 
ATOM     54  F   UNL A   1      39.308  29.602  27.312  1.00  0.00    -0.206 F 
ATOM     55  C   UNL A   1      37.504  29.968  30.422  1.00  0.00     0.022 A 
BRANCH  52  56
ATOM     56  S   UNL A   1      38.126  29.527  33.104  1.00  0.00     0.124 S 
ATOM     57  O   UNL A   1      37.373  30.753  33.339  1.00  0.00    -0.237 OA
ATOM     58  O   UNL A   1      37.361  28.285  33.150  1.00  0.00    -0.237 OA
ATOM     59  O   UNL A   1      39.442  29.471  33.737  1.00  0.00    -0.744 OA
ENDBRANCH  52  56
ENDBRANCH  25  49
BRANCH  37  60
ATOM     60  C   UNL A   1      46.103  32.832  28.893  1.00  0.00     0.023 A 
ATOM     61  C   UNL A   1      46.010  33.814  27.889  1.00  0.00     0.031 A 
ATOM     62  C   UNL A   1      46.592  33.215  30.153  1.00  0.00     0.131 A 
ATOM     63  C   UNL A   1      46.471  35.113  28.140  1.00  0.00     0.055 A 
ATOM     64  C   UNL A   1      46.990  34.526  30.416  1.00  0.00     0.041 A 
ATOM     65  F   UNL A   1      46.703  32.317  31.145  1.00  0.00    -0.206 F 
ATOM     66  C   UNL A   1      46.948  35.479  29.401  1.00  0.00     0.022 A 
BRANCH  63  67
ATOM     67  S   UNL A   1      46.551  36.287  26.759  1.00  0.00     0.124 S 
ATOM     68  O   UNL A   1      47.845  36.926  26.979  1.00  0.00    -0.237 OA
ATOM     69  O   UNL A   1      46.463  35.409  25.599  1.00  0.00    -0.237 OA
ATOM     70  O   UNL A   1      45.390  37.149  26.974  1.00  0.00    -0.744 OA
ENDBRANCH  63  67
ENDBRANCH  37  60
ENDBRANCH  11  12
ENDBRANCH   4   6
ENDBRANCH   1   2
BRANCH   1  71
ATOM     71  C   UNL A   1      38.134  20.198  25.051  1.00  0.00     0.042 C 
BRANCH  71  72
ATOM     72  C   UNL A   1      37.568  21.469  24.444  1.00  0.00     0.118 C 
BRANCH  72  73
ATOM     73  N   UNL A   1      37.046  22.389  25.445  1.00  0.00    -0.351 N 
ATOM     74  C   UNL A   1      35.741  22.695  25.764  1.00  0.00     0.270 C 
ATOM     75  H   UNL A   1      37.728  22.863  25.974  1.00  0.00     0.163 HD
ATOM     76  O   UNL A   1      35.505  23.575  26.587  1.00  0.00    -0.268 OA
BRANCH  74  77
ATOM     77  C   UNL A   1      34.640  21.923  25.142  1.00  0.00     0.134 A 
ATOM     78  C   UNL A   1      34.474  20.606  25.462  1.00  0.00     0.063 A 
ATOM     79  N   UNL A   1      33.879  22.572  24.255  1.00  0.00    -0.207 NA
ATOM     80  C   UNL A   1      33.547  19.931  24.705  1.00  0.00     0.077 A 
ATOM     81  C   UNL A   1      32.944  21.872  23.607  1.00  0.00     0.230 A 
ATOM     82  N   UNL A   1      32.763  20.551  23.791  1.00  0.00    -0.213 NA
BRANCH  80  83
ATOM     83  C   UNL A   1      33.492  18.466  24.789  1.00  0.00     0.000 A 
ATOM     84  C   UNL A   1      32.646  17.835  25.716  1.00  0.00     0.010 A 
ATOM     85  C   UNL A   1      34.155  17.661  23.843  1.00  0.00     0.010 A 
ATOM     86  C   UNL A   1      32.437  16.454  25.671  1.00  0.00     0.001 A 
ATOM     87  C   UNL A   1      33.948  16.281  23.799  1.00  0.00     0.001 A 
ATOM     88  C   UNL A   1      33.080  15.680  24.707  1.00  0.00     0.000 A 
ENDBRANCH  80  83
BRANCH  81  89
ATOM     89  N   UNL A   1      32.050  22.532  22.767  1.00  0.00    -0.300 N 
ATOM     90  H   UNL A   1      31.676  22.037  22.002  1.00  0.00     0.172 HD
BRANCH  89  91
ATOM     91  C   UNL A   1      31.672  23.814  22.948  1.00  0.00     0.190 A 
ATOM     92  N   UNL A   1      30.615  24.204  23.622  1.00  0.00    -0.220 NA
ATOM     93  S   UNL A   1      32.574  25.110  22.248  1.00  0.00    -0.097 S 
ATOM     94  C   UNL A   1      30.367  25.542  23.428  1.00  0.00     0.084 A 
ATOM     95  C   UNL A   1      31.317  26.217  22.663  1.00  0.00     0.056 A 
ATOM     96  C   UNL A   1      29.245  26.246  23.908  1.00  0.00     0.030 A 
ATOM     97  C   UNL A   1      31.169  27.577  22.340  1.00  0.00     0.021 A 
ATOM     98  C   UNL A   1      29.081  27.594  23.585  1.00  0.00     0.002 A 
ATOM     99  C   UNL A   1      30.031  28.248  22.804  1.00  0.00     0.002 A 
ENDBRANCH  89  91
ENDBRANCH  81  89
ENDBRANCH  74  77
ENDBRANCH  72  73
ENDBRANCH  71  72
ENDBRANCH   1  71
TORSDOF 16
ENDMDL
