MODEL 1
REMARK VINA RESULT:     -10.4      0.000      0.000
REMARK SMILES O=C(CCNC(=O)C1CCCCC1)NCCCNC(=O)c1ccc(-c2c3nc(c(-c4cc(S(=O)(=O)[O-])ccc4F)c4ccc([nH]4)c(-c4cc(S(=O)(=O)[O-])ccc4F)c4nc(c(-c5cc(S(=O)(=O)[O-])ccc5F)c5ccc2[nH]5)C=C4)C=C3)cc1
REMARK SMILES IDX 16 1 15 2 14 3 1 4 2 5 3 7 4 8 5 9 6 10 7 12 8 13 9 14 13 15
REMARK SMILES IDX 10 16 12 17 11 18 17 19 18 20 19 21 20 23 21 24 22 25 83 26
REMARK SMILES IDX 23 27 82 28 24 29 25 30 26 31 76 32 27 33 81 34 75 35 77 36
REMARK SMILES IDX 28 37 80 38 74 39 73 40 29 42 61 43 41 44 60 45 42 46 45 47
REMARK SMILES IDX 59 48 78 49 43 50 44 51 58 53 79 54 46 55 30 56 31 57 39 58
REMARK SMILES IDX 32 59 38 60 40 61 37 62 33 63 34 64 35 65 36 66 62 67 63 68
REMARK SMILES IDX 71 69 64 70 70 71 72 72 69 73 65 74 66 75 67 76 68 77 47 78
REMARK SMILES IDX 48 79 56 80 49 81 55 82 57 83 54 84 50 85 51 86 52 87 53 88
REMARK H PARENT 14 6 5 11 18 22 77 41 45 52
REMARK Flexibility Score: inf
ROOT
ATOM      1  C   UNL A   1      35.022  34.042  29.497  1.00  0.00     0.042 C 
ENDROOT
BRANCH   1   2
ATOM      2  C   UNL A   1      33.884  35.051  29.445  1.00  0.00     0.117 C 
BRANCH   2   3
ATOM      3  N   UNL A   1      33.987  36.069  30.474  1.00  0.00    -0.356 N 
ATOM      4  O   UNL A   1      31.905  35.731  31.394  1.00  0.00    -0.275 OA
ATOM      5  C   UNL A   1      32.996  36.289  31.401  1.00  0.00     0.221 C 
ATOM      6  H   UNL A   1      34.799  36.625  30.508  1.00  0.00     0.163 HD
BRANCH   5   7
ATOM      7  C   UNL A   1      33.398  37.237  32.510  1.00  0.00     0.121 C 
BRANCH   7   8
ATOM      8  C   UNL A   1      34.052  36.439  33.635  1.00  0.00     0.125 C 
BRANCH   8   9
ATOM      9  N   UNL A   1      33.741  35.020  33.538  1.00  0.00    -0.355 N 
ATOM     10  C   UNL A   1      34.459  33.908  33.269  1.00  0.00     0.223 C 
ATOM     11  H   UNL A   1      32.790  34.827  33.707  1.00  0.00     0.163 HD
ATOM     12  O   UNL A   1      33.785  32.914  32.968  1.00  0.00    -0.275 OA
BRANCH  10  13
ATOM     13  C   UNL A   1      35.974  33.756  33.413  1.00  0.00     0.078 C 
ATOM     14  C   UNL A   1      36.915  34.645  32.604  1.00  0.00     0.013 C 
ATOM     15  C   UNL A   1      36.315  33.853  34.912  1.00  0.00     0.013 C 
ATOM     16  C   UNL A   1      38.380  34.290  32.857  1.00  0.00     0.001 C 
ATOM     17  C   UNL A   1      37.788  33.562  35.194  1.00  0.00     0.001 C 
ATOM     18  C   UNL A   1      38.715  34.420  34.341  1.00  0.00     0.000 C 
ENDBRANCH  10  13
ENDBRANCH   8   9
ENDBRANCH   7   8
ENDBRANCH   5   7
ENDBRANCH   2   3
ENDBRANCH   1   2
BRANCH   1  19
ATOM     19  C   UNL A   1      35.350  33.381  28.161  1.00  0.00     0.118 C 
BRANCH  19  20
ATOM     20  N   UNL A   1      34.310  32.473  27.696  1.00  0.00    -0.352 N 
ATOM     21  C   UNL A   1      34.341  31.104  27.558  1.00  0.00     0.251 C 
ATOM     22  H   UNL A   1      33.460  32.900  27.444  1.00  0.00     0.163 HD
ATOM     23  O   UNL A   1      33.403  30.528  27.012  1.00  0.00    -0.269 OA
BRANCH  21  24
ATOM     24  C   UNL A   1      35.517  30.337  28.024  1.00  0.00     0.039 A 
ATOM     25  C   UNL A   1      36.658  30.298  27.219  1.00  0.00     0.014 A 
ATOM     26  C   UNL A   1      35.507  29.683  29.259  1.00  0.00     0.014 A 
ATOM     27  C   UNL A   1      37.821  29.686  27.695  1.00  0.00     0.010 A 
ATOM     28  C   UNL A   1      36.686  29.135  29.760  1.00  0.00     0.010 A 
ATOM     29  C   UNL A   1      37.860  29.147  28.990  1.00  0.00    -0.014 A 
BRANCH  29  30
ATOM     30  C   UNL A   1      39.124  28.623  29.575  1.00  0.00     0.031 A 
ATOM     31  C   UNL A   1      39.730  29.281  30.783  1.00  0.00     0.074 A 
ATOM     32  C   UNL A   1      39.769  27.609  28.963  1.00  0.00     0.049 A 
ATOM     33  N   UNL A   1      40.879  29.049  31.363  1.00  0.00    -0.248 NA
ATOM     34  C   UNL A   1      38.950  30.362  31.401  1.00  0.00     0.031 C 
ATOM     35  C   UNL A   1      39.301  26.911  27.762  1.00  0.00     0.029 A 
ATOM     36  N   UNL A   1      40.964  27.000  29.252  1.00  0.00    -0.354 N 
ATOM     37  C   UNL A   1      40.970  29.963  32.407  1.00  0.00     0.074 A 
ATOM     38  C   UNL A   1      39.779  30.787  32.343  1.00  0.00     0.031 C 
ATOM     39  C   UNL A   1      40.191  25.963  27.429  1.00  0.00     0.029 A 
ATOM     40  C   UNL A   1      41.316  26.016  28.357  1.00  0.00     0.049 A 
ATOM     41  H   UNL A   1      41.518  27.243  30.029  1.00  0.00     0.167 HD
ATOM     42  C   UNL A   1      41.945  30.092  33.341  1.00  0.00     0.034 A 
ATOM     43  C   UNL A   1      42.428  25.258  28.275  1.00  0.00     0.034 A 
ATOM     44  C   UNL A   1      43.120  29.256  33.398  1.00  0.00     0.049 A 
ATOM     45  C   UNL A   1      43.515  25.444  29.302  1.00  0.00     0.074 A 
ATOM     46  C   UNL A   1      44.136  29.259  34.338  1.00  0.00     0.029 A 
ATOM     47  N   UNL A   1      43.444  28.274  32.469  1.00  0.00    -0.354 N 
ATOM     48  N   UNL A   1      43.563  26.283  30.311  1.00  0.00    -0.248 NA
ATOM     49  C   UNL A   1      44.695  24.578  29.182  1.00  0.00     0.031 C 
ATOM     50  C   UNL A   1      45.103  28.327  33.944  1.00  0.00     0.029 A 
ATOM     51  C   UNL A   1      44.660  27.691  32.796  1.00  0.00     0.049 A 
ATOM     52  H   UNL A   1      42.892  28.028  31.693  1.00  0.00     0.167 HD
ATOM     53  C   UNL A   1      44.768  26.028  30.957  1.00  0.00     0.074 A 
ATOM     54  C   UNL A   1      45.409  24.948  30.235  1.00  0.00     0.031 C 
ATOM     55  C   UNL A   1      45.296  26.628  32.054  1.00  0.00     0.034 A 
BRANCH  42  56
ATOM     56  C   UNL A   1      41.789  31.197  34.358  1.00  0.00     0.023 A 
ATOM     57  C   UNL A   1      42.261  32.498  34.112  1.00  0.00     0.031 A 
ATOM     58  C   UNL A   1      41.184  30.941  35.601  1.00  0.00     0.131 A 
ATOM     59  C   UNL A   1      42.190  33.472  35.120  1.00  0.00     0.055 A 
ATOM     60  C   UNL A   1      41.044  31.936  36.570  1.00  0.00     0.041 A 
ATOM     61  F   UNL A   1      40.731  29.713  35.900  1.00  0.00    -0.206 F 
ATOM     62  C   UNL A   1      41.562  33.207  36.338  1.00  0.00     0.022 A 
BRANCH  59  63
ATOM     63  S   UNL A   1      43.054  35.045  34.865  1.00  0.00     0.124 S 
ATOM     64  O   UNL A   1      44.445  34.659  35.090  1.00  0.00    -0.237 OA
ATOM     65  O   UNL A   1      42.698  35.382  33.492  1.00  0.00    -0.237 OA
ATOM     66  O   UNL A   1      42.486  35.919  35.889  1.00  0.00    -0.744 OA
ENDBRANCH  59  63
ENDBRANCH  42  56
BRANCH  43  67
ATOM     67  C   UNL A   1      42.589  24.272  27.169  1.00  0.00     0.023 A 
ATOM     68  C   UNL A   1      42.005  22.998  27.248  1.00  0.00     0.031 A 
ATOM     69  C   UNL A   1      43.366  24.575  26.037  1.00  0.00     0.131 A 
ATOM     70  C   UNL A   1      42.241  22.058  26.232  1.00  0.00     0.055 A 
ATOM     71  C   UNL A   1      43.556  23.652  25.006  1.00  0.00     0.041 A 
ATOM     72  F   UNL A   1      43.943  25.780  25.911  1.00  0.00    -0.206 F 
ATOM     73  C   UNL A   1      43.002  22.380  25.107  1.00  0.00     0.022 A 
BRANCH  70  74
ATOM     74  S   UNL A   1      41.600  20.374  26.444  1.00  0.00     0.124 S 
ATOM     75  O   UNL A   1      42.065  20.045  27.786  1.00  0.00    -0.237 OA
ATOM     76  O   UNL A   1      40.163  20.577  26.293  1.00  0.00    -0.237 OA
ATOM     77  O   UNL A   1      42.238  19.629  25.361  1.00  0.00    -0.744 OA
ENDBRANCH  70  74
ENDBRANCH  43  67
BRANCH  55  78
ATOM     78  C   UNL A   1      46.618  26.098  32.553  1.00  0.00     0.023 A 
ATOM     79  C   UNL A   1      46.687  25.073  33.512  1.00  0.00     0.031 A 
ATOM     80  C   UNL A   1      47.823  26.638  32.069  1.00  0.00     0.131 A 
ATOM     81  C   UNL A   1      47.936  24.652  33.993  1.00  0.00     0.055 A 
ATOM     82  C   UNL A   1      49.064  26.175  32.512  1.00  0.00     0.041 A 
ATOM     83  F   UNL A   1      47.814  27.620  31.154  1.00  0.00    -0.206 F 
ATOM     84  C   UNL A   1      49.125  25.185  33.488  1.00  0.00     0.022 A 
BRANCH  81  85
ATOM     85  S   UNL A   1      47.989  23.447  35.349  1.00  0.00     0.124 S 
ATOM     86  O   UNL A   1      49.276  23.745  35.969  1.00  0.00    -0.237 OA
ATOM     87  O   UNL A   1      46.808  23.802  36.129  1.00  0.00    -0.237 OA
ATOM     88  O   UNL A   1      47.913  22.157  34.666  1.00  0.00    -0.744 OA
ENDBRANCH  81  85
ENDBRANCH  55  78
ENDBRANCH  29  30
ENDBRANCH  21  24
ENDBRANCH  19  20
ENDBRANCH   1  19
TORSDOF 16
ENDMDL
MODEL 2
REMARK VINA RESULT:     -10.4      1.912      2.242
REMARK SMILES O=C(CCNC(=O)C1CCCCC1)NCCCNC(=O)c1ccc(-c2c3nc(c(-c4cc(S(=O)(=O)[O-])ccc4F)c4ccc([nH]4)c(-c4cc(S(=O)(=O)[O-])ccc4F)c4nc(c(-c5cc(S(=O)(=O)[O-])ccc5F)c5ccc2[nH]5)C=C4)C=C3)cc1
REMARK SMILES IDX 16 1 15 2 14 3 1 4 2 5 3 7 4 8 5 9 6 10 7 12 8 13 9 14 13 15
REMARK SMILES IDX 10 16 12 17 11 18 17 19 18 20 19 21 20 23 21 24 22 25 83 26
REMARK SMILES IDX 23 27 82 28 24 29 25 30 26 31 76 32 27 33 81 34 75 35 77 36
REMARK SMILES IDX 28 37 80 38 74 39 73 40 29 42 61 43 41 44 60 45 42 46 45 47
REMARK SMILES IDX 59 48 78 49 43 50 44 51 58 53 79 54 46 55 30 56 31 57 39 58
REMARK SMILES IDX 32 59 38 60 40 61 37 62 33 63 34 64 35 65 36 66 62 67 63 68
REMARK SMILES IDX 71 69 64 70 70 71 72 72 69 73 65 74 66 75 67 76 68 77 47 78
REMARK SMILES IDX 48 79 56 80 49 81 55 82 57 83 54 84 50 85 51 86 52 87 53 88
REMARK H PARENT 14 6 5 11 18 22 77 41 45 52
REMARK Flexibility Score: inf
ROOT
ATOM      1  C   UNL A   1      34.350  33.943  29.890  1.00  0.00     0.042 C 
ENDROOT
BRANCH   1   2
ATOM      2  C   UNL A   1      33.640  35.201  29.408  1.00  0.00     0.117 C 
BRANCH   2   3
ATOM      3  N   UNL A   1      33.887  36.348  30.261  1.00  0.00    -0.356 N 
ATOM      4  O   UNL A   1      31.859  36.312  31.349  1.00  0.00    -0.275 OA
ATOM      5  C   UNL A   1      32.983  36.779  31.204  1.00  0.00     0.221 C 
ATOM      6  H   UNL A   1      34.735  36.837  30.160  1.00  0.00     0.163 HD
BRANCH   5   7
ATOM      7  C   UNL A   1      33.528  37.845  32.128  1.00  0.00     0.121 C 
BRANCH   7   8
ATOM      8  C   UNL A   1      33.832  37.219  33.487  1.00  0.00     0.125 C 
BRANCH   8   9
ATOM      9  N   UNL A   1      33.613  35.780  33.475  1.00  0.00    -0.355 N 
ATOM     10  C   UNL A   1      34.422  34.698  33.454  1.00  0.00     0.223 C 
ATOM     11  H   UNL A   1      32.658  35.539  33.487  1.00  0.00     0.163 HD
ATOM     12  O   UNL A   1      33.866  33.639  33.134  1.00  0.00    -0.275 OA
BRANCH  10  13
ATOM     13  C   UNL A   1      35.889  34.660  33.887  1.00  0.00     0.078 C 
ATOM     14  C   UNL A   1      36.319  33.787  35.063  1.00  0.00     0.013 C 
ATOM     15  C   UNL A   1      36.736  34.326  32.644  1.00  0.00     0.013 C 
ATOM     16  C   UNL A   1      37.811  33.939  35.360  1.00  0.00     0.001 C 
ATOM     17  C   UNL A   1      38.236  34.411  32.923  1.00  0.00     0.001 C 
ATOM     18  C   UNL A   1      38.642  33.576  34.132  1.00  0.00     0.000 C 
ENDBRANCH  10  13
ENDBRANCH   8   9
ENDBRANCH   7   8
ENDBRANCH   5   7
ENDBRANCH   2   3
ENDBRANCH   1   2
BRANCH   1  19
ATOM     19  C   UNL A   1      35.098  33.178  28.802  1.00  0.00     0.118 C 
BRANCH  19  20
ATOM     20  N   UNL A   1      34.235  32.320  28.001  1.00  0.00    -0.352 N 
ATOM     21  C   UNL A   1      34.441  31.030  27.567  1.00  0.00     0.251 C 
ATOM     22  H   UNL A   1      33.377  32.720  27.732  1.00  0.00     0.163 HD
ATOM     23  O   UNL A   1      33.649  30.522  26.778  1.00  0.00    -0.269 OA
BRANCH  21  24
ATOM     24  C   UNL A   1      35.634  30.278  28.015  1.00  0.00     0.039 A 
ATOM     25  C   UNL A   1      36.745  30.213  27.170  1.00  0.00     0.014 A 
ATOM     26  C   UNL A   1      35.670  29.664  29.269  1.00  0.00     0.014 A 
ATOM     27  C   UNL A   1      37.925  29.616  27.622  1.00  0.00     0.010 A 
ATOM     28  C   UNL A   1      36.867  29.132  29.744  1.00  0.00     0.010 A 
ATOM     29  C   UNL A   1      38.012  29.118  28.932  1.00  0.00    -0.014 A 
BRANCH  29  30
ATOM     30  C   UNL A   1      39.297  28.613  29.486  1.00  0.00     0.031 A 
ATOM     31  C   UNL A   1      39.993  29.362  30.587  1.00  0.00     0.074 A 
ATOM     32  C   UNL A   1      39.876  27.527  28.936  1.00  0.00     0.049 A 
ATOM     33  N   UNL A   1      41.171  29.150  31.117  1.00  0.00    -0.248 NA
ATOM     34  C   UNL A   1      39.282  30.520  31.146  1.00  0.00     0.031 C 
ATOM     35  C   UNL A   1      39.317  26.735  27.837  1.00  0.00     0.029 A 
ATOM     36  N   UNL A   1      41.072  26.911  29.209  1.00  0.00    -0.354 N 
ATOM     37  C   UNL A   1      41.350  30.155  32.061  1.00  0.00     0.074 A 
ATOM     38  C   UNL A   1      40.178  31.006  31.992  1.00  0.00     0.031 C 
ATOM     39  C   UNL A   1      40.161  25.733  27.543  1.00  0.00     0.029 A 
ATOM     40  C   UNL A   1      41.343  25.838  28.392  1.00  0.00     0.049 A 
ATOM     41  H   UNL A   1      41.680  27.209  29.925  1.00  0.00     0.167 HD
ATOM     42  C   UNL A   1      42.385  30.341  32.919  1.00  0.00     0.034 A 
ATOM     43  C   UNL A   1      42.428  25.042  28.316  1.00  0.00     0.034 A 
ATOM     44  C   UNL A   1      43.540  29.478  32.983  1.00  0.00     0.049 A 
ATOM     45  C   UNL A   1      43.582  25.290  29.253  1.00  0.00     0.074 A 
ATOM     46  C   UNL A   1      44.613  29.538  33.856  1.00  0.00     0.029 A 
ATOM     47  N   UNL A   1      43.781  28.405  32.135  1.00  0.00    -0.354 N 
ATOM     48  N   UNL A   1      43.714  26.218  30.172  1.00  0.00    -0.248 NA
ATOM     49  C   UNL A   1      44.731  24.380  29.144  1.00  0.00     0.031 C 
ATOM     50  C   UNL A   1      45.530  28.545  33.495  1.00  0.00     0.029 A 
ATOM     51  C   UNL A   1      45.000  27.818  32.442  1.00  0.00     0.049 A 
ATOM     52  H   UNL A   1      43.175  28.103  31.420  1.00  0.00     0.167 HD
ATOM     53  C   UNL A   1      44.951  25.987  30.766  1.00  0.00     0.074 A 
ATOM     54  C   UNL A   1      45.518  24.825  30.113  1.00  0.00     0.031 C 
ATOM     55  C   UNL A   1      45.562  26.671  31.767  1.00  0.00     0.034 A 
BRANCH  42  56
ATOM     56  C   UNL A   1      42.321  31.540  33.833  1.00  0.00     0.023 A 
ATOM     57  C   UNL A   1      41.832  31.440  35.147  1.00  0.00     0.031 A 
ATOM     58  C   UNL A   1      42.729  32.806  33.378  1.00  0.00     0.131 A 
ATOM     59  C   UNL A   1      41.692  32.595  35.933  1.00  0.00     0.055 A 
ATOM     60  C   UNL A   1      42.662  33.938  34.192  1.00  0.00     0.041 A 
ATOM     61  F   UNL A   1      43.186  32.967  32.126  1.00  0.00    -0.206 F 
ATOM     62  C   UNL A   1      42.127  33.839  35.473  1.00  0.00     0.022 A 
BRANCH  59  63
ATOM     63  S   UNL A   1      40.805  32.466  37.509  1.00  0.00     0.124 S 
ATOM     64  O   UNL A   1      40.531  33.870  37.809  1.00  0.00    -0.237 OA
ATOM     65  O   UNL A   1      39.650  31.650  37.155  1.00  0.00    -0.237 OA
ATOM     66  O   UNL A   1      41.773  31.826  38.397  1.00  0.00    -0.744 OA
ENDBRANCH  59  63
ENDBRANCH  42  56
BRANCH  43  67
ATOM     67  C   UNL A   1      42.495  23.952  27.301  1.00  0.00     0.023 A 
ATOM     68  C   UNL A   1      41.885  22.710  27.536  1.00  0.00     0.031 A 
ATOM     69  C   UNL A   1      43.206  24.124  26.100  1.00  0.00     0.131 A 
ATOM     70  C   UNL A   1      42.033  21.672  26.602  1.00  0.00     0.055 A 
ATOM     71  C   UNL A   1      43.308  23.104  25.153  1.00  0.00     0.041 A 
ATOM     72  F   UNL A   1      43.804  25.294  25.826  1.00  0.00    -0.206 F 
ATOM     73  C   UNL A   1      42.730  21.864  25.407  1.00  0.00     0.022 A 
BRANCH  70  74
ATOM     74  S   UNL A   1      41.365  20.035  27.011  1.00  0.00     0.124 S 
ATOM     75  O   UNL A   1      40.857  20.251  28.361  1.00  0.00    -0.237 OA
ATOM     76  O   UNL A   1      40.361  19.850  25.968  1.00  0.00    -0.237 OA
ATOM     77  O   UNL A   1      42.530  19.159  26.914  1.00  0.00    -0.744 OA
ENDBRANCH  70  74
ENDBRANCH  43  67
BRANCH  55  78
ATOM     78  C   UNL A   1      46.899  26.150  32.234  1.00  0.00     0.023 A 
ATOM     79  C   UNL A   1      48.092  26.482  31.569  1.00  0.00     0.031 A 
ATOM     80  C   UNL A   1      46.975  25.301  33.352  1.00  0.00     0.131 A 
ATOM     81  C   UNL A   1      49.307  25.928  31.999  1.00  0.00     0.055 A 
ATOM     82  C   UNL A   1      48.195  24.798  33.808  1.00  0.00     0.041 A 
ATOM     83  F   UNL A   1      45.866  24.952  34.022  1.00  0.00    -0.206 F 
ATOM     84  C   UNL A   1      49.368  25.100  33.124  1.00  0.00     0.022 A 
BRANCH  81  85
ATOM     85  S   UNL A   1      50.804  26.240  31.022  1.00  0.00     0.124 S 
ATOM     86  O   UNL A   1      50.878  27.698  31.039  1.00  0.00    -0.237 OA
ATOM     87  O   UNL A   1      51.830  25.542  31.790  1.00  0.00    -0.237 OA
ATOM     88  O   UNL A   1      50.496  25.649  29.722  1.00  0.00    -0.744 OA
ENDBRANCH  81  85
ENDBRANCH  55  78
ENDBRANCH  29  30
ENDBRANCH  21  24
ENDBRANCH  19  20
ENDBRANCH   1  19
TORSDOF 16
ENDMDL
MODEL 3
REMARK VINA RESULT:     -10.3      4.190     12.162
REMARK SMILES O=C(CCNC(=O)C1CCCCC1)NCCCNC(=O)c1ccc(-c2c3nc(c(-c4cc(S(=O)(=O)[O-])ccc4F)c4ccc([nH]4)c(-c4cc(S(=O)(=O)[O-])ccc4F)c4nc(c(-c5cc(S(=O)(=O)[O-])ccc5F)c5ccc2[nH]5)C=C4)C=C3)cc1
REMARK SMILES IDX 16 1 15 2 14 3 1 4 2 5 3 7 4 8 5 9 6 10 7 12 8 13 9 14 13 15
REMARK SMILES IDX 10 16 12 17 11 18 17 19 18 20 19 21 20 23 21 24 22 25 83 26
REMARK SMILES IDX 23 27 82 28 24 29 25 30 26 31 76 32 27 33 81 34 75 35 77 36
REMARK SMILES IDX 28 37 80 38 74 39 73 40 29 42 61 43 41 44 60 45 42 46 45 47
REMARK SMILES IDX 59 48 78 49 43 50 44 51 58 53 79 54 46 55 30 56 31 57 39 58
REMARK SMILES IDX 32 59 38 60 40 61 37 62 33 63 34 64 35 65 36 66 62 67 63 68
REMARK SMILES IDX 71 69 64 70 70 71 72 72 69 73 65 74 66 75 67 76 68 77 47 78
REMARK SMILES IDX 48 79 56 80 49 81 55 82 57 83 54 84 50 85 51 86 52 87 53 88
REMARK H PARENT 14 6 5 11 18 22 77 41 45 52
REMARK Flexibility Score: inf
ROOT
ATOM      1  C   UNL A   1      41.778  20.828  26.113  1.00  0.00     0.042 C 
ENDROOT
BRANCH   1   2
ATOM      2  C   UNL A   1      42.150  19.353  26.043  1.00  0.00     0.117 C 
BRANCH   2   3
ATOM      3  N   UNL A   1      43.583  19.131  26.094  1.00  0.00    -0.356 N 
ATOM      4  O   UNL A   1      43.873  18.744  23.844  1.00  0.00    -0.275 OA
ATOM      5  C   UNL A   1      44.336  18.891  24.969  1.00  0.00     0.221 C 
ATOM      6  H   UNL A   1      44.033  19.152  26.969  1.00  0.00     0.163 HD
BRANCH   5   7
ATOM      7  C   UNL A   1      45.828  18.909  25.220  1.00  0.00     0.121 C 
BRANCH   7   8
ATOM      8  C   UNL A   1      46.377  20.290  24.871  1.00  0.00     0.125 C 
BRANCH   8   9
ATOM      9  N   UNL A   1      45.381  21.106  24.191  1.00  0.00    -0.355 N 
ATOM     10  C   UNL A   1      44.807  22.304  24.440  1.00  0.00     0.223 C 
ATOM     11  H   UNL A   1      45.051  20.692  23.361  1.00  0.00     0.163 HD
ATOM     12  O   UNL A   1      43.773  22.528  23.798  1.00  0.00    -0.275 OA
BRANCH  10  13
ATOM     13  C   UNL A   1      45.375  23.408  25.334  1.00  0.00     0.078 C 
ATOM     14  C   UNL A   1      45.674  23.127  26.804  1.00  0.00     0.013 C 
ATOM     15  C   UNL A   1      46.626  23.977  24.639  1.00  0.00     0.013 C 
ATOM     16  C   UNL A   1      46.180  24.378  27.523  1.00  0.00     0.001 C 
ATOM     17  C   UNL A   1      47.193  25.194  25.367  1.00  0.00     0.001 C 
ATOM     18  C   UNL A   1      47.438  24.915  26.846  1.00  0.00     0.000 C 
ENDBRANCH  10  13
ENDBRANCH   8   9
ENDBRANCH   7   8
ENDBRANCH   5   7
ENDBRANCH   2   3
ENDBRANCH   1   2
BRANCH   1  19
ATOM     19  C   UNL A   1      40.615  21.148  27.047  1.00  0.00     0.118 C 
BRANCH  19  20
ATOM     20  N   UNL A   1      39.389  21.501  26.344  1.00  0.00    -0.352 N 
ATOM     21  C   UNL A   1      38.779  22.727  26.210  1.00  0.00     0.251 C 
ATOM     22  H   UNL A   1      38.931  20.753  25.898  1.00  0.00     0.163 HD
ATOM     23  O   UNL A   1      37.667  22.797  25.692  1.00  0.00    -0.269 OA
BRANCH  21  24
ATOM     24  C   UNL A   1      39.439  23.946  26.727  1.00  0.00     0.039 A 
ATOM     25  C   UNL A   1      40.183  24.734  25.845  1.00  0.00     0.014 A 
ATOM     26  C   UNL A   1      39.304  24.325  28.065  1.00  0.00     0.014 A 
ATOM     27  C   UNL A   1      40.709  25.953  26.282  1.00  0.00     0.010 A 
ATOM     28  C   UNL A   1      39.770  25.572  28.479  1.00  0.00     0.010 A 
ATOM     29  C   UNL A   1      40.462  26.406  27.587  1.00  0.00    -0.014 A 
BRANCH  29  30
ATOM     30  C   UNL A   1      40.884  27.762  28.031  1.00  0.00     0.031 A 
ATOM     31  C   UNL A   1      42.339  28.137  28.040  1.00  0.00     0.074 A 
ATOM     32  C   UNL A   1      39.961  28.622  28.508  1.00  0.00     0.049 A 
ATOM     33  N   UNL A   1      42.913  29.219  28.501  1.00  0.00    -0.248 NA
ATOM     34  C   UNL A   1      43.275  27.151  27.482  1.00  0.00     0.031 C 
ATOM     35  C   UNL A   1      38.521  28.361  28.585  1.00  0.00     0.029 A 
ATOM     36  N   UNL A   1      40.095  29.882  29.035  1.00  0.00    -0.354 N 
ATOM     37  C   UNL A   1      44.277  29.040  28.303  1.00  0.00     0.074 A 
ATOM     38  C   UNL A   1      44.445  27.721  27.727  1.00  0.00     0.031 C 
ATOM     39  C   UNL A   1      37.908  29.432  29.113  1.00  0.00     0.029 A 
ATOM     40  C   UNL A   1      38.909  30.435  29.460  1.00  0.00     0.049 A 
ATOM     41  H   UNL A   1      40.960  30.349  29.102  1.00  0.00     0.167 HD
ATOM     42  C   UNL A   1      45.293  29.902  28.560  1.00  0.00     0.034 A 
ATOM     43  C   UNL A   1      38.656  31.605  30.080  1.00  0.00     0.034 A 
ATOM     44  C   UNL A   1      45.109  31.218  29.124  1.00  0.00     0.049 A 
ATOM     45  C   UNL A   1      39.805  32.530  30.390  1.00  0.00     0.074 A 
ATOM     46  C   UNL A   1      46.060  32.193  29.364  1.00  0.00     0.029 A 
ATOM     47  N   UNL A   1      43.892  31.739  29.547  1.00  0.00    -0.354 N 
ATOM     48  N   UNL A   1      41.085  32.364  30.153  1.00  0.00    -0.248 NA
ATOM     49  C   UNL A   1      39.472  33.802  31.046  1.00  0.00     0.031 C 
ATOM     50  C   UNL A   1      45.432  33.276  29.990  1.00  0.00     0.029 A 
ATOM     51  C   UNL A   1      44.076  33.007  30.078  1.00  0.00     0.049 A 
ATOM     52  H   UNL A   1      43.026  31.276  29.479  1.00  0.00     0.167 HD
ATOM     53  C   UNL A   1      41.707  33.522  30.611  1.00  0.00     0.074 A 
ATOM     54  C   UNL A   1      40.661  34.383  31.122  1.00  0.00     0.031 C 
ATOM     55  C   UNL A   1      43.025  33.847  30.603  1.00  0.00     0.034 A 
BRANCH  42  56
ATOM     56  C   UNL A   1      46.695  29.431  28.257  1.00  0.00     0.023 A 
ATOM     57  C   UNL A   1      47.468  28.752  29.215  1.00  0.00     0.031 A 
ATOM     58  C   UNL A   1      47.277  29.686  27.003  1.00  0.00     0.131 A 
ATOM     59  C   UNL A   1      48.802  28.420  28.932  1.00  0.00     0.055 A 
ATOM     60  C   UNL A   1      48.579  29.281  26.700  1.00  0.00     0.041 A 
ATOM     61  F   UNL A   1      46.594  30.347  26.055  1.00  0.00    -0.206 F 
ATOM     62  C   UNL A   1      49.355  28.657  27.672  1.00  0.00     0.022 A 
BRANCH  59  63
ATOM     63  S   UNL A   1      49.844  27.800  30.280  1.00  0.00     0.124 S 
ATOM     64  O   UNL A   1      49.065  26.659  30.756  1.00  0.00    -0.237 OA
ATOM     65  O   UNL A   1      51.091  27.482  29.595  1.00  0.00    -0.237 OA
ATOM     66  O   UNL A   1      49.912  28.928  31.208  1.00  0.00    -0.744 OA
ENDBRANCH  59  63
ENDBRANCH  42  56
BRANCH  43  67
ATOM     67  C   UNL A   1      37.265  31.962  30.478  1.00  0.00     0.023 A 
ATOM     68  C   UNL A   1      36.402  32.612  29.581  1.00  0.00     0.031 A 
ATOM     69  C   UNL A   1      36.792  31.697  31.776  1.00  0.00     0.131 A 
ATOM     70  C   UNL A   1      35.126  33.013  30.006  1.00  0.00     0.055 A 
ATOM     71  C   UNL A   1      35.504  32.054  32.177  1.00  0.00     0.041 A 
ATOM     72  F   UNL A   1      37.575  31.074  32.670  1.00  0.00    -0.206 F 
ATOM     73  C   UNL A   1      34.667  32.728  31.294  1.00  0.00     0.022 A 
BRANCH  70  74
ATOM     74  S   UNL A   1      34.100  33.988  28.870  1.00  0.00     0.124 S 
ATOM     75  O   UNL A   1      35.072  34.930  28.326  1.00  0.00    -0.237 OA
ATOM     76  O   UNL A   1      33.612  32.965  27.951  1.00  0.00    -0.237 OA
ATOM     77  O   UNL A   1      33.086  34.572  29.745  1.00  0.00    -0.744 OA
ENDBRANCH  70  74
ENDBRANCH  43  67
BRANCH  55  78
ATOM     78  C   UNL A   1      43.395  35.209  31.137  1.00  0.00     0.023 A 
ATOM     79  C   UNL A   1      43.539  35.447  32.514  1.00  0.00     0.031 A 
ATOM     80  C   UNL A   1      43.594  36.283  30.252  1.00  0.00     0.131 A 
ATOM     81  C   UNL A   1      43.826  36.742  32.972  1.00  0.00     0.055 A 
ATOM     82  C   UNL A   1      43.933  37.558  30.711  1.00  0.00     0.041 A 
ATOM     83  F   UNL A   1      43.467  36.111  28.927  1.00  0.00    -0.206 F 
ATOM     84  C   UNL A   1      44.039  37.796  32.078  1.00  0.00     0.022 A 
BRANCH  81  85
ATOM     85  S   UNL A   1      43.841  37.054  34.759  1.00  0.00     0.124 S 
ATOM     86  O   UNL A   1      44.337  35.785  35.283  1.00  0.00    -0.237 OA
ATOM     87  O   UNL A   1      44.752  38.188  34.871  1.00  0.00    -0.237 OA
ATOM     88  O   UNL A   1      42.444  37.350  35.069  1.00  0.00    -0.744 OA
ENDBRANCH  81  85
ENDBRANCH  55  78
ENDBRANCH  29  30
ENDBRANCH  21  24
ENDBRANCH  19  20
ENDBRANCH   1  19
TORSDOF 16
ENDMDL
