MODEL 1
REMARK VINA RESULT:     -14.3      0.000      0.000
REMARK SMILES Cc1ccccc1[C@@H]1[NH2+][C@@H](C(=O)NCCCNC(=O)c2ccc(-c3c4nc(c(-c5cc(S(=O)(=O)[O-])ccc5F)c5ccc([nH]5)c(-c5cc(S(=O)(=O)[O-])ccc5F)c5nc(c(-c6cc(S(=O)(=O)[O-])ccc6F)c6ccc3[nH]6)C=C5)C=C4)cc2)CC2=c3ccccc3=N[C@@H]21
REMARK SMILES IDX 16 1 15 2 14 3 13 4 11 5 12 6 10 8 8 9 9 10 92 11 84 14
REMARK SMILES IDX 91 15 83 16 85 17 90 18 86 19 89 20 87 21 88 22 7 23 1 24
REMARK SMILES IDX 2 25 3 26 4 27 6 28 5 29 17 30 18 31 19 33 20 34 21 35 82 36
REMARK SMILES IDX 22 37 81 38 23 39 24 40 25 41 75 42 26 43 80 44 74 45 76 46
REMARK SMILES IDX 27 47 79 48 73 49 72 50 28 52 60 53 40 54 59 55 41 56 44 57
REMARK SMILES IDX 58 58 77 59 42 60 43 61 57 63 78 64 45 65 29 66 30 67 38 68
REMARK SMILES IDX 31 69 37 70 39 71 36 72 32 73 33 74 34 75 35 76 61 77 62 78
REMARK SMILES IDX 70 79 63 80 69 81 71 82 68 83 64 84 65 85 66 86 67 87 46 88
REMARK SMILES IDX 47 89 55 90 48 91 54 92 56 93 53 94 49 95 50 96 51 97 52 98
REMARK H PARENT 13 7 9 12 9 13 17 32 76 51 44 62
REMARK Flexibility Score: inf
ROOT
ATOM      1  C   UNL A   1      40.037  22.345  27.271  1.00  0.00     0.118 C 
ENDROOT
BRANCH   1   2
ATOM      2  C   UNL A   1      39.301  21.695  26.092  1.00  0.00     0.042 C 
BRANCH   2   3
ATOM      3  C   UNL A   1      37.959  22.214  25.531  1.00  0.00     0.118 C 
BRANCH   3   4
ATOM      4  N   UNL A   1      37.445  21.906  24.185  1.00  0.00    -0.351 N 
ATOM      5  C   UNL A   1      36.255  22.419  23.646  1.00  0.00     0.278 C 
ATOM      6  O   UNL A   1      36.211  22.983  22.557  1.00  0.00    -0.268 OA
ATOM      7  H   UNL A   1      37.975  21.294  23.624  1.00  0.00     0.163 HD
BRANCH   5   8
ATOM      8  C   UNL A   1      35.030  21.956  24.424  1.00  0.00     0.277 C 
ATOM      9  C   UNL A   1      32.766  22.766  24.995  1.00  0.00     0.243 C 
ATOM     10  N   UNL A   1      34.137  23.106  24.523  1.00  0.00    -0.327 N 
ATOM     11  C   UNL A   1      32.455  21.242  25.348  1.00  0.00     0.196 C 
ATOM     12  H   UNL A   1      34.545  23.775  25.176  1.00  0.00     0.347 HD
ATOM     13  H   UNL A   1      34.041  23.487  23.582  1.00  0.00     0.347 HD
ATOM     14  C   UNL A   1      33.739  20.447  25.644  1.00  0.00    -0.024 C 
ATOM     15  N   UNL A   1      31.781  20.445  24.279  1.00  0.00    -0.270 NA
ATOM     16  C   UNL A   1      35.037  21.239  25.769  1.00  0.00     0.109 C 
ATOM     17  C   UNL A   1      33.714  19.252  25.039  1.00  0.00     0.002 A 
ATOM     18  C   UNL A   1      32.500  19.362  24.193  1.00  0.00     0.066 A 
ATOM     19  C   UNL A   1      34.784  18.362  24.675  1.00  0.00     0.010 A 
ATOM     20  C   UNL A   1      32.321  18.282  23.187  1.00  0.00     0.028 A 
ATOM     21  C   UNL A   1      34.608  17.514  23.650  1.00  0.00     0.001 A 
ATOM     22  C   UNL A   1      33.344  17.443  22.941  1.00  0.00     0.002 A 
BRANCH   9  23
ATOM     23  C   UNL A   1      31.791  23.697  24.254  1.00  0.00     0.015 A 
ATOM     24  C   UNL A   1      30.366  24.157  26.321  1.00  0.00     0.045 C 
ATOM     25  C   UNL A   1      30.839  24.485  24.937  1.00  0.00    -0.042 A 
ATOM     26  C   UNL A   1      30.420  25.713  24.381  1.00  0.00     0.004 A 
ATOM     27  C   UNL A   1      30.927  26.160  23.167  1.00  0.00     0.000 A 
ATOM     28  C   UNL A   1      32.144  24.091  22.953  1.00  0.00     0.010 A 
ATOM     29  C   UNL A   1      31.788  25.340  22.461  1.00  0.00     0.001 A 
ENDBRANCH   9  23
ENDBRANCH   5   8
ENDBRANCH   3   4
ENDBRANCH   2   3
ENDBRANCH   1   2
BRANCH   1  30
ATOM     30  N   UNL A   1      41.341  22.876  26.826  1.00  0.00    -0.352 N 
ATOM     31  C   UNL A   1      41.780  24.153  26.531  1.00  0.00     0.251 C 
ATOM     32  H   UNL A   1      42.034  22.185  26.718  1.00  0.00     0.163 HD
ATOM     33  O   UNL A   1      42.909  24.376  26.153  1.00  0.00    -0.269 OA
BRANCH  31  34
ATOM     34  C   UNL A   1      40.888  25.290  26.841  1.00  0.00     0.039 A 
ATOM     35  C   UNL A   1      41.033  26.434  26.044  1.00  0.00     0.014 A 
ATOM     36  C   UNL A   1      40.087  25.306  27.974  1.00  0.00     0.014 A 
ATOM     37  C   UNL A   1      40.600  27.665  26.529  1.00  0.00     0.010 A 
ATOM     38  C   UNL A   1      39.652  26.531  28.455  1.00  0.00     0.010 A 
ATOM     39  C   UNL A   1      40.018  27.714  27.796  1.00  0.00    -0.014 A 
BRANCH  39  40
ATOM     40  C   UNL A   1      40.072  28.929  28.609  1.00  0.00     0.031 A 
ATOM     41  C   UNL A   1      38.989  29.927  28.651  1.00  0.00     0.074 A 
ATOM     42  C   UNL A   1      41.105  29.078  29.472  1.00  0.00     0.049 A 
ATOM     43  N   UNL A   1      39.170  31.167  28.975  1.00  0.00    -0.248 NA
ATOM     44  C   UNL A   1      37.603  29.606  28.346  1.00  0.00     0.031 C 
ATOM     45  C   UNL A   1      41.188  30.026  30.585  1.00  0.00     0.029 A 
ATOM     46  N   UNL A   1      42.344  28.442  29.511  1.00  0.00    -0.354 N 
ATOM     47  C   UNL A   1      37.936  31.699  29.256  1.00  0.00     0.074 A 
ATOM     48  C   UNL A   1      36.989  30.726  28.747  1.00  0.00     0.031 C 
ATOM     49  C   UNL A   1      42.463  30.098  30.996  1.00  0.00     0.029 A 
ATOM     50  C   UNL A   1      43.257  29.373  30.025  1.00  0.00     0.049 A 
ATOM     51  H   UNL A   1      42.542  27.519  29.233  1.00  0.00     0.167 HD
ATOM     52  C   UNL A   1      37.825  32.818  30.031  1.00  0.00     0.034 A 
ATOM     53  C   UNL A   1      44.280  29.905  29.292  1.00  0.00     0.034 A 
ATOM     54  C   UNL A   1      39.118  33.289  30.543  1.00  0.00     0.049 A 
ATOM     55  C   UNL A   1      44.209  31.419  29.156  1.00  0.00     0.074 A 
ATOM     56  C   UNL A   1      39.723  33.278  31.792  1.00  0.00     0.029 A 
ATOM     57  N   UNL A   1      40.109  33.679  29.655  1.00  0.00    -0.354 N 
ATOM     58  N   UNL A   1      43.293  32.168  29.705  1.00  0.00    -0.248 NA
ATOM     59  C   UNL A   1      45.102  32.194  28.296  1.00  0.00     0.031 C 
ATOM     60  C   UNL A   1      41.082  33.681  31.640  1.00  0.00     0.029 A 
ATOM     61  C   UNL A   1      41.302  33.956  30.303  1.00  0.00     0.049 A 
ATOM     62  H   UNL A   1      39.981  33.750  28.682  1.00  0.00     0.167 HD
ATOM     63  C   UNL A   1      43.377  33.445  29.218  1.00  0.00     0.074 A 
ATOM     64  C   UNL A   1      44.544  33.415  28.352  1.00  0.00     0.031 C 
ATOM     65  C   UNL A   1      42.444  34.402  29.513  1.00  0.00     0.034 A 
BRANCH  52  66
ATOM     66  C   UNL A   1      36.497  33.327  30.554  1.00  0.00     0.023 A 
ATOM     67  C   UNL A   1      35.645  34.081  29.721  1.00  0.00     0.031 A 
ATOM     68  C   UNL A   1      36.017  33.102  31.860  1.00  0.00     0.131 A 
ATOM     69  C   UNL A   1      34.466  34.670  30.216  1.00  0.00     0.055 A 
ATOM     70  C   UNL A   1      34.882  33.745  32.375  1.00  0.00     0.041 A 
ATOM     71  F   UNL A   1      36.600  32.210  32.674  1.00  0.00    -0.206 F 
ATOM     72  C   UNL A   1      34.109  34.552  31.554  1.00  0.00     0.022 A 
BRANCH  69  73
ATOM     73  S   UNL A   1      33.386  35.577  29.073  1.00  0.00     0.124 S 
ATOM     74  O   UNL A   1      32.652  36.460  29.972  1.00  0.00    -0.237 OA
ATOM     75  O   UNL A   1      34.350  36.218  28.183  1.00  0.00    -0.237 OA
ATOM     76  O   UNL A   1      32.586  34.522  28.453  1.00  0.00    -0.744 OA
ENDBRANCH  69  73
ENDBRANCH  52  66
BRANCH  53  77
ATOM     77  C   UNL A   1      44.822  28.973  28.266  1.00  0.00     0.023 A 
ATOM     78  C   UNL A   1      45.694  27.969  28.726  1.00  0.00     0.031 A 
ATOM     79  C   UNL A   1      44.200  28.785  27.024  1.00  0.00     0.131 A 
ATOM     80  C   UNL A   1      45.784  26.745  28.047  1.00  0.00     0.055 A 
ATOM     81  C   UNL A   1      44.338  27.583  26.319  1.00  0.00     0.041 A 
ATOM     82  F   UNL A   1      43.340  29.696  26.547  1.00  0.00    -0.206 F 
ATOM     83  C   UNL A   1      45.088  26.535  26.857  1.00  0.00     0.022 A 
BRANCH  80  84
ATOM     84  S   UNL A   1      46.574  25.363  28.915  1.00  0.00     0.124 S 
ATOM     85  O   UNL A   1      46.832  24.414  27.842  1.00  0.00    -0.237 OA
ATOM     86  O   UNL A   1      47.754  26.005  29.489  1.00  0.00    -0.237 OA
ATOM     87  O   UNL A   1      45.579  24.943  29.899  1.00  0.00    -0.744 OA
ENDBRANCH  80  84
ENDBRANCH  53  77
BRANCH  65  88
ATOM     88  C   UNL A   1      42.501  35.831  29.015  1.00  0.00     0.023 A 
ATOM     89  C   UNL A   1      43.049  36.873  29.779  1.00  0.00     0.031 A 
ATOM     90  C   UNL A   1      41.954  36.212  27.766  1.00  0.00     0.131 A 
ATOM     91  C   UNL A   1      43.167  38.174  29.256  1.00  0.00     0.055 A 
ATOM     92  C   UNL A   1      42.000  37.521  27.281  1.00  0.00     0.041 A 
ATOM     93  F   UNL A   1      41.366  35.329  26.947  1.00  0.00    -0.206 F 
ATOM     94  C   UNL A   1      42.634  38.508  28.014  1.00  0.00     0.022 A 
BRANCH  91  95
ATOM     95  S   UNL A   1      44.097  39.403  30.206  1.00  0.00     0.124 S 
ATOM     96  O   UNL A   1      43.266  40.596  30.079  1.00  0.00    -0.237 OA
ATOM     97  O   UNL A   1      44.126  38.791  31.532  1.00  0.00    -0.237 OA
ATOM     98  O   UNL A   1      45.386  39.464  29.522  1.00  0.00    -0.744 OA
ENDBRANCH  91  95
ENDBRANCH  65  88
ENDBRANCH  39  40
ENDBRANCH  31  34
ENDBRANCH   1  30
TORSDOF 14
ENDMDL
MODEL 2
REMARK VINA RESULT:     -14.2      4.306     10.858
REMARK SMILES Cc1ccccc1[C@@H]1[NH2+][C@@H](C(=O)NCCCNC(=O)c2ccc(-c3c4nc(c(-c5cc(S(=O)(=O)[O-])ccc5F)c5ccc([nH]5)c(-c5cc(S(=O)(=O)[O-])ccc5F)c5nc(c(-c6cc(S(=O)(=O)[O-])ccc6F)c6ccc3[nH]6)C=C5)C=C4)cc2)CC2=c3ccccc3=N[C@@H]21
REMARK SMILES IDX 16 1 15 2 14 3 13 4 11 5 12 6 10 8 8 9 9 10 92 11 84 14
REMARK SMILES IDX 91 15 83 16 85 17 90 18 86 19 89 20 87 21 88 22 7 23 1 24
REMARK SMILES IDX 2 25 3 26 4 27 6 28 5 29 17 30 18 31 19 33 20 34 21 35 82 36
REMARK SMILES IDX 22 37 81 38 23 39 24 40 25 41 75 42 26 43 80 44 74 45 76 46
REMARK SMILES IDX 27 47 79 48 73 49 72 50 28 52 60 53 40 54 59 55 41 56 44 57
REMARK SMILES IDX 58 58 77 59 42 60 43 61 57 63 78 64 45 65 29 66 30 67 38 68
REMARK SMILES IDX 31 69 37 70 39 71 36 72 32 73 33 74 34 75 35 76 61 77 62 78
REMARK SMILES IDX 70 79 63 80 69 81 71 82 68 83 64 84 65 85 66 86 67 87 46 88
REMARK SMILES IDX 47 89 55 90 48 91 54 92 56 93 53 94 49 95 50 96 51 97 52 98
REMARK H PARENT 13 7 9 12 9 13 17 32 76 51 44 62
REMARK Flexibility Score: inf
ROOT
ATOM      1  C   UNL A   1      35.430  32.120  27.727  1.00  0.00     0.118 C 
ENDROOT
BRANCH   1   2
ATOM      2  C   UNL A   1      33.943  31.744  27.701  1.00  0.00     0.042 C 
BRANCH   2   3
ATOM      3  C   UNL A   1      33.420  30.355  27.275  1.00  0.00     0.118 C 
BRANCH   3   4
ATOM      4  N   UNL A   1      32.051  29.870  27.520  1.00  0.00    -0.351 N 
ATOM      5  C   UNL A   1      31.589  28.582  27.205  1.00  0.00     0.278 C 
ATOM      6  O   UNL A   1      31.033  27.859  28.024  1.00  0.00    -0.268 OA
ATOM      7  H   UNL A   1      31.414  30.495  27.936  1.00  0.00     0.163 HD
BRANCH   5   8
ATOM      8  C   UNL A   1      31.614  28.320  25.704  1.00  0.00     0.277 C 
ATOM      9  C   UNL A   1      31.822  26.413  24.146  1.00  0.00     0.243 C 
ATOM     10  N   UNL A   1      32.023  26.930  25.528  1.00  0.00    -0.327 N 
ATOM     11  C   UNL A   1      31.227  27.412  23.055  1.00  0.00     0.196 C 
ATOM     12  H   UNL A   1      33.014  26.856  25.759  1.00  0.00     0.347 HD
ATOM     13  H   UNL A   1      31.435  26.369  26.144  1.00  0.00     0.347 HD
ATOM     14  C   UNL A   1      31.434  28.884  23.450  1.00  0.00    -0.024 C 
ATOM     15  N   UNL A   1      29.757  27.313  22.806  1.00  0.00    -0.270 NA
ATOM     16  C   UNL A   1      32.327  29.165  24.655  1.00  0.00     0.109 C 
ATOM     17  C   UNL A   1      30.324  29.601  23.231  1.00  0.00     0.002 A 
ATOM     18  C   UNL A   1      29.341  28.545  22.881  1.00  0.00     0.066 A 
ATOM     19  C   UNL A   1      29.888  30.852  23.793  1.00  0.00     0.010 A 
ATOM     20  C   UNL A   1      27.922  28.984  22.824  1.00  0.00     0.028 A 
ATOM     21  C   UNL A   1      28.574  31.120  23.851  1.00  0.00     0.001 A 
ATOM     22  C   UNL A   1      27.593  30.196  23.310  1.00  0.00     0.002 A 
BRANCH   9  23
ATOM     23  C   UNL A   1      31.418  24.934  24.274  1.00  0.00     0.015 A 
ATOM     24  C   UNL A   1      32.833  24.184  22.286  1.00  0.00     0.045 C 
ATOM     25  C   UNL A   1      32.068  23.912  23.547  1.00  0.00    -0.042 A 
ATOM     26  C   UNL A   1      32.144  22.611  24.085  1.00  0.00     0.004 A 
ATOM     27  C   UNL A   1      31.587  22.314  25.323  1.00  0.00     0.000 A 
ATOM     28  C   UNL A   1      30.716  24.558  25.430  1.00  0.00     0.010 A 
ATOM     29  C   UNL A   1      30.874  23.295  25.986  1.00  0.00     0.001 A 
ENDBRANCH   9  23
ENDBRANCH   5   8
ENDBRANCH   3   4
ENDBRANCH   2   3
ENDBRANCH   1   2
BRANCH   1  30
ATOM     30  N   UNL A   1      35.866  32.376  29.114  1.00  0.00    -0.352 N 
ATOM     31  C   UNL A   1      36.572  31.616  30.028  1.00  0.00     0.251 C 
ATOM     32  H   UNL A   1      35.602  33.261  29.456  1.00  0.00     0.163 HD
ATOM     33  O   UNL A   1      36.811  32.011  31.148  1.00  0.00    -0.269 OA
BRANCH  31  34
ATOM     34  C   UNL A   1      37.186  30.354  29.565  1.00  0.00     0.039 A 
ATOM     35  C   UNL A   1      37.222  29.300  30.489  1.00  0.00     0.014 A 
ATOM     36  C   UNL A   1      37.863  30.268  28.357  1.00  0.00     0.014 A 
ATOM     37  C   UNL A   1      38.154  28.279  30.326  1.00  0.00     0.010 A 
ATOM     38  C   UNL A   1      38.788  29.248  28.193  1.00  0.00     0.010 A 
ATOM     39  C   UNL A   1      39.017  28.334  29.232  1.00  0.00    -0.014 A 
BRANCH  39  40
ATOM     40  C   UNL A   1      40.337  27.704  29.273  1.00  0.00     0.031 A 
ATOM     41  C   UNL A   1      40.603  26.342  28.777  1.00  0.00     0.074 A 
ATOM     42  C   UNL A   1      41.394  28.457  29.658  1.00  0.00     0.049 A 
ATOM     43  N   UNL A   1      41.590  25.612  29.187  1.00  0.00    -0.248 NA
ATOM     44  C   UNL A   1      39.786  25.694  27.762  1.00  0.00     0.031 C 
ATOM     45  C   UNL A   1      42.812  28.141  29.467  1.00  0.00     0.029 A 
ATOM     46  N   UNL A   1      41.436  29.660  30.360  1.00  0.00    -0.354 N 
ATOM     47  C   UNL A   1      41.744  24.591  28.281  1.00  0.00     0.074 A 
ATOM     48  C   UNL A   1      40.537  24.624  27.479  1.00  0.00     0.031 C 
ATOM     49  C   UNL A   1      43.543  28.947  30.251  1.00  0.00     0.029 A 
ATOM     50  C   UNL A   1      42.614  29.643  31.118  1.00  0.00     0.049 A 
ATOM     51  H   UNL A   1      40.769  30.383  30.329  1.00  0.00     0.167 HD
ATOM     52  C   UNL A   1      42.934  23.928  28.182  1.00  0.00     0.034 A 
ATOM     53  C   UNL A   1      42.628  29.594  32.484  1.00  0.00     0.034 A 
ATOM     54  C   UNL A   1      43.969  24.475  29.069  1.00  0.00     0.049 A 
ATOM     55  C   UNL A   1      43.331  28.366  33.043  1.00  0.00     0.074 A 
ATOM     56  C   UNL A   1      45.118  25.226  28.862  1.00  0.00     0.029 A 
ATOM     57  N   UNL A   1      43.774  24.467  30.442  1.00  0.00    -0.354 N 
ATOM     58  N   UNL A   1      43.907  27.450  32.315  1.00  0.00    -0.248 NA
ATOM     59  C   UNL A   1      43.340  28.020  34.463  1.00  0.00     0.031 C 
ATOM     60  C   UNL A   1      45.614  25.652  30.130  1.00  0.00     0.029 A 
ATOM     61  C   UNL A   1      44.779  25.147  31.109  1.00  0.00     0.049 A 
ATOM     62  H   UNL A   1      43.013  24.031  30.888  1.00  0.00     0.167 HD
ATOM     63  C   UNL A   1      44.250  26.378  33.096  1.00  0.00     0.074 A 
ATOM     64  C   UNL A   1      43.892  26.795  34.442  1.00  0.00     0.031 C 
ATOM     65  C   UNL A   1      44.736  25.214  32.566  1.00  0.00     0.034 A 
BRANCH  52  66
ATOM     66  C   UNL A   1      43.239  22.948  27.068  1.00  0.00     0.023 A 
ATOM     67  C   UNL A   1      42.729  21.634  27.115  1.00  0.00     0.031 A 
ATOM     68  C   UNL A   1      44.021  23.249  25.934  1.00  0.00     0.131 A 
ATOM     69  C   UNL A   1      43.098  20.668  26.160  1.00  0.00     0.055 A 
ATOM     70  C   UNL A   1      44.446  22.273  25.022  1.00  0.00     0.041 A 
ATOM     71  F   UNL A   1      44.363  24.512  25.638  1.00  0.00    -0.206 F 
ATOM     72  C   UNL A   1      43.998  20.967  25.143  1.00  0.00     0.022 A 
BRANCH  69  73
ATOM     73  S   UNL A   1      42.358  19.013  26.248  1.00  0.00     0.124 S 
ATOM     74  O   UNL A   1      43.228  18.235  25.373  1.00  0.00    -0.237 OA
ATOM     75  O   UNL A   1      42.444  18.714  27.675  1.00  0.00    -0.237 OA
ATOM     76  O   UNL A   1      41.001  19.220  25.745  1.00  0.00    -0.744 OA
ENDBRANCH  69  73
ENDBRANCH  52  66
BRANCH  53  77
ATOM     77  C   UNL A   1      41.468  30.284  33.113  1.00  0.00     0.023 A 
ATOM     78  C   UNL A   1      41.516  31.690  33.146  1.00  0.00     0.031 A 
ATOM     79  C   UNL A   1      40.221  29.664  33.260  1.00  0.00     0.131 A 
ATOM     80  C   UNL A   1      40.330  32.437  33.139  1.00  0.00     0.055 A 
ATOM     81  C   UNL A   1      39.040  30.416  33.312  1.00  0.00     0.041 A 
ATOM     82  F   UNL A   1      40.111  28.329  33.212  1.00  0.00    -0.206 F 
ATOM     83  C   UNL A   1      39.087  31.807  33.194  1.00  0.00     0.022 A 
BRANCH  80  84
ATOM     84  S   UNL A   1      40.456  34.203  32.747  1.00  0.00     0.124 S 
ATOM     85  O   UNL A   1      41.459  34.228  31.692  1.00  0.00    -0.237 OA
ATOM     86  O   UNL A   1      39.092  34.516  32.330  1.00  0.00    -0.237 OA
ATOM     87  O   UNL A   1      40.856  34.822  34.009  1.00  0.00    -0.744 OA
ENDBRANCH  80  84
ENDBRANCH  53  77
BRANCH  65  88
ATOM     88  C   UNL A   1      45.146  24.009  33.386  1.00  0.00     0.023 A 
ATOM     89  C   UNL A   1      46.460  23.820  33.842  1.00  0.00     0.031 A 
ATOM     90  C   UNL A   1      44.236  22.969  33.697  1.00  0.00     0.131 A 
ATOM     91  C   UNL A   1      46.792  22.735  34.674  1.00  0.00     0.055 A 
ATOM     92  C   UNL A   1      44.587  21.851  34.458  1.00  0.00     0.041 A 
ATOM     93  F   UNL A   1      42.958  22.998  33.296  1.00  0.00    -0.206 F 
ATOM     94  C   UNL A   1      45.865  21.741  34.977  1.00  0.00     0.022 A 
BRANCH  91  95
ATOM     95  S   UNL A   1      48.444  22.691  35.413  1.00  0.00     0.124 S 
ATOM     96  O   UNL A   1      48.881  24.079  35.296  1.00  0.00    -0.237 OA
ATOM     97  O   UNL A   1      48.150  22.232  36.768  1.00  0.00    -0.237 OA
ATOM     98  O   UNL A   1      49.170  21.737  34.579  1.00  0.00    -0.744 OA
ENDBRANCH  91  95
ENDBRANCH  65  88
ENDBRANCH  39  40
ENDBRANCH  31  34
ENDBRANCH   1  30
TORSDOF 14
ENDMDL
MODEL 3
REMARK VINA RESULT:     -14.2      4.269     10.353
REMARK SMILES Cc1ccccc1[C@@H]1[NH2+][C@@H](C(=O)NCCCNC(=O)c2ccc(-c3c4nc(c(-c5cc(S(=O)(=O)[O-])ccc5F)c5ccc([nH]5)c(-c5cc(S(=O)(=O)[O-])ccc5F)c5nc(c(-c6cc(S(=O)(=O)[O-])ccc6F)c6ccc3[nH]6)C=C5)C=C4)cc2)CC2=c3ccccc3=N[C@@H]21
REMARK SMILES IDX 16 1 15 2 14 3 13 4 11 5 12 6 10 8 8 9 9 10 92 11 84 14
REMARK SMILES IDX 91 15 83 16 85 17 90 18 86 19 89 20 87 21 88 22 7 23 1 24
REMARK SMILES IDX 2 25 3 26 4 27 6 28 5 29 17 30 18 31 19 33 20 34 21 35 82 36
REMARK SMILES IDX 22 37 81 38 23 39 24 40 25 41 75 42 26 43 80 44 74 45 76 46
REMARK SMILES IDX 27 47 79 48 73 49 72 50 28 52 60 53 40 54 59 55 41 56 44 57
REMARK SMILES IDX 58 58 77 59 42 60 43 61 57 63 78 64 45 65 29 66 30 67 38 68
REMARK SMILES IDX 31 69 37 70 39 71 36 72 32 73 33 74 34 75 35 76 61 77 62 78
REMARK SMILES IDX 70 79 63 80 69 81 71 82 68 83 64 84 65 85 66 86 67 87 46 88
REMARK SMILES IDX 47 89 55 90 48 91 54 92 56 93 53 94 49 95 50 96 51 97 52 98
REMARK H PARENT 13 7 9 12 9 13 17 32 76 51 44 62
REMARK Flexibility Score: inf
ROOT
ATOM      1  C   UNL A   1      35.157  31.806  27.614  1.00  0.00     0.118 C 
ENDROOT
BRANCH   1   2
ATOM      2  C   UNL A   1      33.804  31.094  27.731  1.00  0.00     0.042 C 
BRANCH   2   3
ATOM      3  C   UNL A   1      33.525  29.687  27.159  1.00  0.00     0.118 C 
BRANCH   3   4
ATOM      4  N   UNL A   1      34.364  29.018  26.150  1.00  0.00    -0.351 N 
ATOM      5  C   UNL A   1      33.920  28.606  24.884  1.00  0.00     0.278 C 
ATOM      6  O   UNL A   1      34.491  28.923  23.846  1.00  0.00    -0.268 OA
ATOM      7  H   UNL A   1      35.306  28.846  26.382  1.00  0.00     0.163 HD
BRANCH   5   8
ATOM      8  C   UNL A   1      32.847  27.529  24.979  1.00  0.00     0.277 C 
ATOM      9  C   UNL A   1      30.455  27.224  24.436  1.00  0.00     0.243 C 
ATOM     10  N   UNL A   1      31.574  28.176  24.676  1.00  0.00    -0.327 N 
ATOM     11  C   UNL A   1      30.764  25.664  24.558  1.00  0.00     0.196 C 
ATOM     12  H   UNL A   1      31.324  28.775  25.463  1.00  0.00     0.347 HD
ATOM     13  H   UNL A   1      31.708  28.701  23.812  1.00  0.00     0.347 HD
ATOM     14  C   UNL A   1      32.020  25.391  25.403  1.00  0.00    -0.024 C 
ATOM     15  N   UNL A   1      31.034  24.945  23.276  1.00  0.00    -0.270 NA
ATOM     16  C   UNL A   1      32.631  26.574  26.148  1.00  0.00     0.109 C 
ATOM     17  C   UNL A   1      32.796  24.463  24.826  1.00  0.00     0.002 A 
ATOM     18  C   UNL A   1      32.133  24.286  23.510  1.00  0.00     0.066 A 
ATOM     19  C   UNL A   1      34.197  24.179  24.985  1.00  0.00     0.010 A 
ATOM     20  C   UNL A   1      32.897  23.496  22.509  1.00  0.00     0.028 A 
ATOM     21  C   UNL A   1      34.866  23.600  23.976  1.00  0.00     0.001 A 
ATOM     22  C   UNL A   1      34.189  23.210  22.752  1.00  0.00     0.002 A 
BRANCH   9  23
ATOM     23  C   UNL A   1      29.562  27.844  23.348  1.00  0.00     0.015 A 
ATOM     24  C   UNL A   1      27.438  26.693  24.173  1.00  0.00     0.045 C 
ATOM     25  C   UNL A   1      28.154  27.753  23.390  1.00  0.00    -0.042 A 
ATOM     26  C   UNL A   1      27.369  28.773  22.812  1.00  0.00     0.004 A 
ATOM     27  C   UNL A   1      27.960  29.870  22.196  1.00  0.00     0.000 A 
ATOM     28  C   UNL A   1      30.121  28.868  22.566  1.00  0.00     0.010 A 
ATOM     29  C   UNL A   1      29.337  29.906  22.078  1.00  0.00     0.001 A 
ENDBRANCH   9  23
ENDBRANCH   5   8
ENDBRANCH   3   4
ENDBRANCH   2   3
ENDBRANCH   1   2
BRANCH   1  30
ATOM     30  N   UNL A   1      35.660  32.167  28.955  1.00  0.00    -0.352 N 
ATOM     31  C   UNL A   1      36.440  31.491  29.875  1.00  0.00     0.251 C 
ATOM     32  H   UNL A   1      35.387  33.065  29.252  1.00  0.00     0.163 HD
ATOM     33  O   UNL A   1      36.727  31.968  30.951  1.00  0.00    -0.269 OA
BRANCH  31  34
ATOM     34  C   UNL A   1      37.067  30.219  29.462  1.00  0.00     0.039 A 
ATOM     35  C   UNL A   1      37.147  29.215  30.437  1.00  0.00     0.014 A 
ATOM     36  C   UNL A   1      37.717  30.083  28.243  1.00  0.00     0.014 A 
ATOM     37  C   UNL A   1      38.096  28.205  30.304  1.00  0.00     0.010 A 
ATOM     38  C   UNL A   1      38.659  29.075  28.108  1.00  0.00     0.010 A 
ATOM     39  C   UNL A   1      38.931  28.220  29.186  1.00  0.00    -0.014 A 
BRANCH  39  40
ATOM     40  C   UNL A   1      40.264  27.618  29.227  1.00  0.00     0.031 A 
ATOM     41  C   UNL A   1      40.557  26.258  28.743  1.00  0.00     0.074 A 
ATOM     42  C   UNL A   1      41.307  28.397  29.599  1.00  0.00     0.049 A 
ATOM     43  N   UNL A   1      41.560  25.552  29.154  1.00  0.00    -0.248 NA
ATOM     44  C   UNL A   1      39.748  25.583  27.738  1.00  0.00     0.031 C 
ATOM     45  C   UNL A   1      42.730  28.109  29.404  1.00  0.00     0.029 A 
ATOM     46  N   UNL A   1      41.327  29.607  30.290  1.00  0.00    -0.354 N 
ATOM     47  C   UNL A   1      41.732  24.526  28.257  1.00  0.00     0.074 A 
ATOM     48  C   UNL A   1      40.520  24.526  27.461  1.00  0.00     0.031 C 
ATOM     49  C   UNL A   1      43.448  28.937  30.177  1.00  0.00     0.029 A 
ATOM     50  C   UNL A   1      42.509  29.621  31.042  1.00  0.00     0.049 A 
ATOM     51  H   UNL A   1      40.645  30.316  30.255  1.00  0.00     0.167 HD
ATOM     52  C   UNL A   1      42.935  23.887  28.158  1.00  0.00     0.034 A 
ATOM     53  C   UNL A   1      42.531  29.586  32.408  1.00  0.00     0.034 A 
ATOM     54  C   UNL A   1      43.962  24.464  29.035  1.00  0.00     0.049 A 
ATOM     55  C   UNL A   1      43.262  28.379  32.975  1.00  0.00     0.074 A 
ATOM     56  C   UNL A   1      45.094  25.237  28.815  1.00  0.00     0.029 A 
ATOM     57  N   UNL A   1      43.774  24.465  30.408  1.00  0.00    -0.354 N 
ATOM     58  N   UNL A   1      43.854  27.468  32.253  1.00  0.00    -0.248 NA
ATOM     59  C   UNL A   1      43.286  28.046  34.398  1.00  0.00     0.031 C 
ATOM     60  C   UNL A   1      45.587  25.685  30.076  1.00  0.00     0.029 A 
ATOM     61  C   UNL A   1      44.768  25.172  31.065  1.00  0.00     0.049 A 
ATOM     62  H   UNL A   1      43.025  24.018  30.863  1.00  0.00     0.167 HD
ATOM     63  C   UNL A   1      44.223  26.411  33.042  1.00  0.00     0.074 A 
ATOM     64  C   UNL A   1      43.863  26.833  34.386  1.00  0.00     0.031 C 
ATOM     65  C   UNL A   1      44.731  25.252  32.521  1.00  0.00     0.034 A 
BRANCH  52  66
ATOM     66  C   UNL A   1      43.254  22.903  27.052  1.00  0.00     0.023 A 
ATOM     67  C   UNL A   1      42.755  21.585  27.103  1.00  0.00     0.031 A 
ATOM     68  C   UNL A   1      44.042  23.204  25.922  1.00  0.00     0.131 A 
ATOM     69  C   UNL A   1      43.136  20.617  26.156  1.00  0.00     0.055 A 
ATOM     70  C   UNL A   1      44.480  22.226  25.018  1.00  0.00     0.041 A 
ATOM     71  F   UNL A   1      44.377  24.467  25.621  1.00  0.00    -0.206 F 
ATOM     72  C   UNL A   1      44.042  20.918  25.144  1.00  0.00     0.022 A 
BRANCH  69  73
ATOM     73  S   UNL A   1      42.409  18.957  26.249  1.00  0.00     0.124 S 
ATOM     74  O   UNL A   1      41.055  19.182  25.756  1.00  0.00    -0.237 OA
ATOM     75  O   UNL A   1      43.292  18.185  25.380  1.00  0.00    -0.237 OA
ATOM     76  O   UNL A   1      42.501  18.625  27.670  1.00  0.00    -0.744 OA
ENDBRANCH  69  73
ENDBRANCH  52  66
BRANCH  53  77
ATOM     77  C   UNL A   1      41.360  30.258  33.036  1.00  0.00     0.023 A 
ATOM     78  C   UNL A   1      41.386  31.664  33.072  1.00  0.00     0.031 A 
ATOM     79  C   UNL A   1      40.122  29.619  33.182  1.00  0.00     0.131 A 
ATOM     80  C   UNL A   1      40.189  32.393  33.064  1.00  0.00     0.055 A 
ATOM     81  C   UNL A   1      38.930  30.352  33.232  1.00  0.00     0.041 A 
ATOM     82  F   UNL A   1      40.032  28.282  33.131  1.00  0.00    -0.206 F 
ATOM     83  C   UNL A   1      38.956  31.744  33.117  1.00  0.00     0.022 A 
BRANCH  80  84
ATOM     84  S   UNL A   1      40.289  34.162  32.675  1.00  0.00     0.124 S 
ATOM     85  O   UNL A   1      41.379  34.218  31.711  1.00  0.00    -0.237 OA
ATOM     86  O   UNL A   1      38.956  34.426  32.138  1.00  0.00    -0.237 OA
ATOM     87  O   UNL A   1      40.556  34.797  33.964  1.00  0.00    -0.744 OA
ENDBRANCH  80  84
ENDBRANCH  53  77
BRANCH  65  88
ATOM     88  C   UNL A   1      45.170  24.064  33.350  1.00  0.00     0.023 A 
ATOM     89  C   UNL A   1      46.484  23.920  33.823  1.00  0.00     0.031 A 
ATOM     90  C   UNL A   1      44.292  22.996  33.653  1.00  0.00     0.131 A 
ATOM     91  C   UNL A   1      46.841  22.849  34.662  1.00  0.00     0.055 A 
ATOM     92  C   UNL A   1      44.670  21.892  34.423  1.00  0.00     0.041 A 
ATOM     93  F   UNL A   1      43.018  22.980  33.236  1.00  0.00    -0.206 F 
ATOM     94  C   UNL A   1      45.944  21.826  34.957  1.00  0.00     0.022 A 
BRANCH  91  95
ATOM     95  S   UNL A   1      48.485  22.862  35.422  1.00  0.00     0.124 S 
ATOM     96  O   UNL A   1      48.296  23.742  36.571  1.00  0.00    -0.237 OA
ATOM     97  O   UNL A   1      48.678  21.448  35.733  1.00  0.00    -0.237 OA
ATOM     98  O   UNL A   1      49.348  23.389  34.368  1.00  0.00    -0.744 OA
ENDBRANCH  91  95
ENDBRANCH  65  88
ENDBRANCH  39  40
ENDBRANCH  31  34
ENDBRANCH   1  30
TORSDOF 14
ENDMDL
