MODEL 1
REMARK VINA RESULT:     -12.2      0.000      0.000
REMARK SMILES Cc1nc(NC(=O)[C@@H]2CCC[C@@H](C(=O)NCCCNC(=O)c3ccc(-c4c5nc(c(-c6cc(S(=O)(=O)[O-])ccc6F)c6ccc([nH]6)c(-c6cc(S(=O)(=O)[O-])ccc6F)c6nc(c(-c7cc(S(=O)(=O)[O-])ccc7F)c7ccc4[nH]7)C=C6)C=C5)cc3)C2)ccc1Br
REMARK SMILES IDX 17 1 16 2 15 3 13 4 14 5 12 7 8 8 9 9 85 10 10 11 11 12 6 13
REMARK SMILES IDX 5 14 7 16 4 17 1 18 2 19 3 20 88 21 87 22 89 23 86 24 18 25
REMARK SMILES IDX 19 26 20 27 21 29 22 30 23 31 84 32 24 33 83 34 25 35 26 36
REMARK SMILES IDX 27 37 77 38 28 39 82 40 76 41 78 42 29 43 81 44 75 45 74 46
REMARK SMILES IDX 30 48 62 49 42 50 61 51 43 52 46 53 60 54 79 55 44 56 45 57
REMARK SMILES IDX 59 59 80 60 47 61 31 62 32 63 40 64 33 65 39 66 41 67 38 68
REMARK SMILES IDX 34 69 35 70 36 71 37 72 63 73 64 74 72 75 65 76 71 77 73 78
REMARK SMILES IDX 70 79 66 80 67 81 68 82 69 83 48 84 49 85 57 86 50 87 56 88
REMARK SMILES IDX 58 89 55 90 51 91 52 92 53 93 54 94
REMARK H PARENT 15 6 5 15 19 28 78 47 46 58
REMARK Flexibility Score: inf
ROOT
ATOM      1  C   UNL A   1      34.012  28.672  24.412  1.00  0.00     0.042 C 
ENDROOT
BRANCH   1   2
ATOM      2  C   UNL A   1      33.335  27.882  23.292  1.00  0.00     0.117 C 
BRANCH   2   3
ATOM      3  N   UNL A   1      33.655  26.463  23.347  1.00  0.00    -0.356 N 
ATOM      4  C   UNL A   1      32.978  25.298  23.282  1.00  0.00     0.223 C 
ATOM      5  O   UNL A   1      33.709  24.295  23.327  1.00  0.00    -0.275 OA
ATOM      6  H   UNL A   1      34.621  26.314  23.462  1.00  0.00     0.163 HD
BRANCH   4   7
ATOM      7  C   UNL A   1      31.455  25.086  23.153  1.00  0.00     0.079 C 
ATOM      8  C   UNL A   1      31.085  24.406  25.541  1.00  0.00     0.079 C 
ATOM      9  C   UNL A   1      30.038  25.508  25.735  1.00  0.00     0.013 C 
ATOM     10  C   UNL A   1      31.034  23.916  24.088  1.00  0.00     0.027 C 
ATOM     11  C   UNL A   1      30.259  26.672  24.779  1.00  0.00     0.002 C 
ATOM     12  C   UNL A   1      30.457  26.229  23.331  1.00  0.00     0.013 C 
BRANCH   8  13
ATOM     13  C   UNL A   1      30.887  23.336  26.596  1.00  0.00     0.228 C 
ATOM     14  N   UNL A   1      31.840  22.381  26.809  1.00  0.00    -0.310 N 
ATOM     15  H   UNL A   1      31.617  21.807  27.577  1.00  0.00     0.171 HD
ATOM     16  O   UNL A   1      29.873  23.335  27.301  1.00  0.00    -0.274 OA
BRANCH  14  17
ATOM     17  C   UNL A   1      33.053  22.010  26.215  1.00  0.00     0.132 A 
ATOM     18  C   UNL A   1      36.298  23.759  26.126  1.00  0.00     0.068 C 
ATOM     19  C   UNL A   1      35.281  22.677  25.915  1.00  0.00     0.054 A 
ATOM     20  N   UNL A   1      34.032  22.916  26.419  1.00  0.00    -0.235 NA
ATOM     21  C   UNL A   1      35.602  21.497  25.252  1.00  0.00     0.039 A 
ATOM     22  C   UNL A   1      34.592  20.576  25.043  1.00  0.00     0.021 A 
ATOM     23  Br  UNL A   1      37.338  21.087  24.626  1.00  0.00    -0.049 Br
ATOM     24  C   UNL A   1      33.305  20.846  25.506  1.00  0.00     0.048 A 
ENDBRANCH  14  17
ENDBRANCH   8  13
ENDBRANCH   4   7
ENDBRANCH   2   3
ENDBRANCH   1   2
BRANCH   1  25
ATOM     25  C   UNL A   1      33.165  28.806  25.673  1.00  0.00     0.118 C 
BRANCH  25  26
ATOM     26  N   UNL A   1      32.791  30.188  25.929  1.00  0.00    -0.352 N 
ATOM     27  C   UNL A   1      33.276  31.051  26.880  1.00  0.00     0.251 C 
ATOM     28  H   UNL A   1      32.094  30.555  25.339  1.00  0.00     0.163 HD
ATOM     29  O   UNL A   1      32.663  32.092  27.126  1.00  0.00    -0.269 OA
BRANCH  27  30
ATOM     30  C   UNL A   1      34.521  30.736  27.614  1.00  0.00     0.039 A 
ATOM     31  C   UNL A   1      35.563  31.668  27.635  1.00  0.00     0.014 A 
ATOM     32  C   UNL A   1      34.684  29.495  28.236  1.00  0.00     0.014 A 
ATOM     33  C   UNL A   1      36.750  31.371  28.315  1.00  0.00     0.010 A 
ATOM     34  C   UNL A   1      35.841  29.228  28.966  1.00  0.00     0.010 A 
ATOM     35  C   UNL A   1      36.895  30.152  28.998  1.00  0.00    -0.014 A 
BRANCH  35  36
ATOM     36  C   UNL A   1      38.165  29.802  29.689  1.00  0.00     0.031 A 
ATOM     37  C   UNL A   1      38.480  30.407  31.031  1.00  0.00     0.074 A 
ATOM     38  C   UNL A   1      39.050  28.968  29.108  1.00  0.00     0.049 A 
ATOM     39  N   UNL A   1      39.528  30.226  31.791  1.00  0.00    -0.248 NA
ATOM     40  C   UNL A   1      37.499  31.357  31.583  1.00  0.00     0.031 C 
ATOM     41  C   UNL A   1      38.888  28.352  27.792  1.00  0.00     0.029 A 
ATOM     42  N   UNL A   1      40.263  28.496  29.549  1.00  0.00    -0.354 N 
ATOM     43  C   UNL A   1      39.334  31.036  32.904  1.00  0.00     0.074 A 
ATOM     44  C   UNL A   1      38.105  31.765  32.687  1.00  0.00     0.031 C 
ATOM     45  C   UNL A   1      39.945  27.561  27.545  1.00  0.00     0.029 A 
ATOM     46  C   UNL A   1      40.875  27.633  28.670  1.00  0.00     0.049 A 
ATOM     47  H   UNL A   1      40.657  28.752  30.414  1.00  0.00     0.167 HD
ATOM     48  C   UNL A   1      40.087  31.138  34.023  1.00  0.00     0.034 A 
ATOM     49  C   UNL A   1      42.045  26.965  28.763  1.00  0.00     0.034 A 
ATOM     50  C   UNL A   1      41.298  30.393  34.248  1.00  0.00     0.049 A 
ATOM     51  C   UNL A   1      42.871  27.090  30.018  1.00  0.00     0.074 A 
ATOM     52  C   UNL A   1      42.104  30.394  35.371  1.00  0.00     0.029 A 
ATOM     53  N   UNL A   1      41.870  29.511  33.343  1.00  0.00    -0.354 N 
ATOM     54  N   UNL A   1      42.628  27.797  31.096  1.00  0.00    -0.248 NA
ATOM     55  C   UNL A   1      44.119  26.315  30.082  1.00  0.00     0.031 C 
ATOM     56  C   UNL A   1      43.190  29.552  35.129  1.00  0.00     0.029 A 
ATOM     57  C   UNL A   1      43.026  28.974  33.881  1.00  0.00     0.049 A 
ATOM     58  H   UNL A   1      41.508  29.301  32.453  1.00  0.00     0.167 HD
ATOM     59  C   UNL A   1      43.669  27.520  31.980  1.00  0.00     0.074 A 
ATOM     60  C   UNL A   1      44.540  26.577  31.314  1.00  0.00     0.031 C 
ATOM     61  C   UNL A   1      43.875  28.004  33.230  1.00  0.00     0.034 A 
BRANCH  48  62
ATOM     62  C   UNL A   1      39.616  32.054  35.122  1.00  0.00     0.023 A 
ATOM     63  C   UNL A   1      38.890  31.538  36.210  1.00  0.00     0.031 A 
ATOM     64  C   UNL A   1      39.788  33.448  35.033  1.00  0.00     0.131 A 
ATOM     65  C   UNL A   1      38.333  32.415  37.149  1.00  0.00     0.055 A 
ATOM     66  C   UNL A   1      39.267  34.313  35.994  1.00  0.00     0.041 A 
ATOM     67  F   UNL A   1      40.478  33.985  34.013  1.00  0.00    -0.206 F 
ATOM     68  C   UNL A   1      38.524  33.797  37.051  1.00  0.00     0.022 A 
BRANCH  65  69
ATOM     69  S   UNL A   1      37.304  31.799  38.508  1.00  0.00     0.124 S 
ATOM     70  O   UNL A   1      36.158  32.706  38.455  1.00  0.00    -0.237 OA
ATOM     71  O   UNL A   1      37.034  30.428  38.087  1.00  0.00    -0.237 OA
ATOM     72  O   UNL A   1      38.153  31.946  39.685  1.00  0.00    -0.744 OA
ENDBRANCH  65  69
ENDBRANCH  48  62
BRANCH  49  73
ATOM     73  C   UNL A   1      42.448  26.051  27.656  1.00  0.00     0.023 A 
ATOM     74  C   UNL A   1      41.913  24.755  27.555  1.00  0.00     0.031 A 
ATOM     75  C   UNL A   1      43.443  26.432  26.739  1.00  0.00     0.131 A 
ATOM     76  C   UNL A   1      42.419  23.867  26.595  1.00  0.00     0.055 A 
ATOM     77  C   UNL A   1      43.899  25.565  25.744  1.00  0.00     0.041 A 
ATOM     78  F   UNL A   1      43.989  27.655  26.804  1.00  0.00    -0.206 F 
ATOM     79  C   UNL A   1      43.395  24.269  25.677  1.00  0.00     0.022 A 
BRANCH  76  80
ATOM     80  S   UNL A   1      41.891  22.133  26.568  1.00  0.00     0.124 S 
ATOM     81  O   UNL A   1      42.645  21.598  25.437  1.00  0.00    -0.237 OA
ATOM     82  O   UNL A   1      42.321  21.676  27.887  1.00  0.00    -0.237 OA
ATOM     83  O   UNL A   1      40.447  22.217  26.377  1.00  0.00    -0.744 OA
ENDBRANCH  76  80
ENDBRANCH  49  73
BRANCH  61  84
ATOM     84  C   UNL A   1      45.065  27.516  34.018  1.00  0.00     0.023 A 
ATOM     85  C   UNL A   1      44.910  26.434  34.908  1.00  0.00     0.031 A 
ATOM     86  C   UNL A   1      46.281  28.217  34.026  1.00  0.00     0.131 A 
ATOM     87  C   UNL A   1      45.938  26.114  35.803  1.00  0.00     0.055 A 
ATOM     88  C   UNL A   1      47.322  27.864  34.889  1.00  0.00     0.041 A 
ATOM     89  F   UNL A   1      46.471  29.262  33.206  1.00  0.00    -0.206 F 
ATOM     90  C   UNL A   1      47.147  26.819  35.792  1.00  0.00     0.022 A 
BRANCH  87  91
ATOM     91  S   UNL A   1      45.715  24.831  37.064  1.00  0.00     0.124 S 
ATOM     92  O   UNL A   1      47.075  24.664  37.571  1.00  0.00    -0.237 OA
ATOM     93  O   UNL A   1      44.779  25.467  37.985  1.00  0.00    -0.237 OA
ATOM     94  O   UNL A   1      45.188  23.692  36.319  1.00  0.00    -0.744 OA
ENDBRANCH  87  91
ENDBRANCH  61  84
ENDBRANCH  35  36
ENDBRANCH  27  30
ENDBRANCH  25  26
ENDBRANCH   1  25
TORSDOF 15
ENDMDL
MODEL 2
REMARK VINA RESULT:     -12.1      0.701      7.526
REMARK SMILES Cc1nc(NC(=O)[C@@H]2CCC[C@@H](C(=O)NCCCNC(=O)c3ccc(-c4c5nc(c(-c6cc(S(=O)(=O)[O-])ccc6F)c6ccc([nH]6)c(-c6cc(S(=O)(=O)[O-])ccc6F)c6nc(c(-c7cc(S(=O)(=O)[O-])ccc7F)c7ccc4[nH]7)C=C6)C=C5)cc3)C2)ccc1Br
REMARK SMILES IDX 17 1 16 2 15 3 13 4 14 5 12 7 8 8 9 9 85 10 10 11 11 12 6 13
REMARK SMILES IDX 5 14 7 16 4 17 1 18 2 19 3 20 88 21 87 22 89 23 86 24 18 25
REMARK SMILES IDX 19 26 20 27 21 29 22 30 23 31 84 32 24 33 83 34 25 35 26 36
REMARK SMILES IDX 27 37 77 38 28 39 82 40 76 41 78 42 29 43 81 44 75 45 74 46
REMARK SMILES IDX 30 48 62 49 42 50 61 51 43 52 46 53 60 54 79 55 44 56 45 57
REMARK SMILES IDX 59 59 80 60 47 61 31 62 32 63 40 64 33 65 39 66 41 67 38 68
REMARK SMILES IDX 34 69 35 70 36 71 37 72 63 73 64 74 72 75 65 76 71 77 73 78
REMARK SMILES IDX 70 79 66 80 67 81 68 82 69 83 48 84 49 85 57 86 50 87 56 88
REMARK SMILES IDX 58 89 55 90 51 91 52 92 53 93 54 94
REMARK H PARENT 15 6 5 15 19 28 78 47 46 58
REMARK Flexibility Score: inf
ROOT
ATOM      1  C   UNL A   1      33.910  28.802  23.619  1.00  0.00     0.042 C 
ENDROOT
BRANCH   1   2
ATOM      2  C   UNL A   1      33.224  27.766  22.729  1.00  0.00     0.117 C 
BRANCH   2   3
ATOM      3  N   UNL A   1      33.548  26.402  23.119  1.00  0.00    -0.356 N 
ATOM      4  C   UNL A   1      32.880  25.244  23.299  1.00  0.00     0.223 C 
ATOM      5  O   UNL A   1      33.615  24.288  23.599  1.00  0.00    -0.275 OA
ATOM      6  H   UNL A   1      34.510  26.297  23.300  1.00  0.00     0.163 HD
BRANCH   4   7
ATOM      7  C   UNL A   1      31.365  24.987  23.167  1.00  0.00     0.079 C 
ATOM      8  C   UNL A   1      30.980  24.462  25.592  1.00  0.00     0.079 C 
ATOM      9  C   UNL A   1      29.905  25.550  25.699  1.00  0.00     0.013 C 
ATOM     10  C   UNL A   1      30.958  23.873  24.175  1.00  0.00     0.027 C 
ATOM     11  C   UNL A   1      30.111  26.651  24.668  1.00  0.00     0.002 C 
ATOM     12  C   UNL A   1      30.338  26.115  23.256  1.00  0.00     0.013 C 
BRANCH   8  13
ATOM     13  C   UNL A   1      30.793  23.462  26.715  1.00  0.00     0.228 C 
ATOM     14  N   UNL A   1      31.817  22.644  27.099  1.00  0.00    -0.310 N 
ATOM     15  H   UNL A   1      31.582  22.109  27.891  1.00  0.00     0.171 HD
ATOM     16  O   UNL A   1      29.719  23.398  27.322  1.00  0.00    -0.274 OA
BRANCH  14  17
ATOM     17  C   UNL A   1      33.117  22.370  26.654  1.00  0.00     0.132 A 
ATOM     18  C   UNL A   1      34.404  19.572  24.625  1.00  0.00     0.068 C 
ATOM     19  C   UNL A   1      34.392  20.865  25.387  1.00  0.00     0.054 A 
ATOM     20  N   UNL A   1      33.188  21.247  25.909  1.00  0.00    -0.235 NA
ATOM     21  C   UNL A   1      35.545  21.629  25.538  1.00  0.00     0.039 A 
ATOM     22  C   UNL A   1      35.465  22.776  26.307  1.00  0.00     0.021 A 
ATOM     23  Br  UNL A   1      37.206  21.186  24.751  1.00  0.00    -0.049 Br
ATOM     24  C   UNL A   1      34.249  23.134  26.887  1.00  0.00     0.048 A 
ENDBRANCH  14  17
ENDBRANCH   8  13
ENDBRANCH   4   7
ENDBRANCH   2   3
ENDBRANCH   1   2
BRANCH   1  25
ATOM     25  C   UNL A   1      33.425  28.794  25.064  1.00  0.00     0.118 C 
BRANCH  25  26
ATOM     26  N   UNL A   1      32.843  30.071  25.446  1.00  0.00    -0.352 N 
ATOM     27  C   UNL A   1      33.091  30.833  26.562  1.00  0.00     0.251 C 
ATOM     28  H   UNL A   1      32.180  30.441  24.819  1.00  0.00     0.163 HD
ATOM     29  O   UNL A   1      32.321  31.749  26.856  1.00  0.00    -0.269 OA
BRANCH  27  30
ATOM     30  C   UNL A   1      34.269  30.556  27.412  1.00  0.00     0.039 A 
ATOM     31  C   UNL A   1      35.218  31.561  27.623  1.00  0.00     0.014 A 
ATOM     32  C   UNL A   1      34.466  29.286  27.959  1.00  0.00     0.014 A 
ATOM     33  C   UNL A   1      36.342  31.302  28.415  1.00  0.00     0.010 A 
ATOM     34  C   UNL A   1      35.554  29.050  28.799  1.00  0.00     0.010 A 
ATOM     35  C   UNL A   1      36.514  30.047  29.021  1.00  0.00    -0.014 A 
BRANCH  35  36
ATOM     36  C   UNL A   1      37.724  29.740  29.831  1.00  0.00     0.031 A 
ATOM     37  C   UNL A   1      38.789  28.833  29.275  1.00  0.00     0.074 A 
ATOM     38  C   UNL A   1      37.858  30.244  31.074  1.00  0.00     0.049 A 
ATOM     39  N   UNL A   1      39.912  28.448  29.822  1.00  0.00    -0.248 NA
ATOM     40  C   UNL A   1      38.552  28.267  27.936  1.00  0.00     0.031 C 
ATOM     41  C   UNL A   1      36.879  31.096  31.748  1.00  0.00     0.029 A 
ATOM     42  N   UNL A   1      38.872  30.113  31.992  1.00  0.00    -0.354 N 
ATOM     43  C   UNL A   1      40.511  27.598  28.901  1.00  0.00     0.074 A 
ATOM     44  C   UNL A   1      39.595  27.465  27.790  1.00  0.00     0.031 C 
ATOM     45  C   UNL A   1      37.352  31.435  32.958  1.00  0.00     0.029 A 
ATOM     46  C   UNL A   1      38.655  30.805  33.161  1.00  0.00     0.049 A 
ATOM     47  H   UNL A   1      39.679  29.574  31.828  1.00  0.00     0.167 HD
ATOM     48  C   UNL A   1      41.730  27.012  28.951  1.00  0.00     0.034 A 
ATOM     49  C   UNL A   1      39.421  30.928  34.266  1.00  0.00     0.034 A 
ATOM     50  C   UNL A   1      42.651  27.166  30.046  1.00  0.00     0.049 A 
ATOM     51  C   UNL A   1      40.776  30.269  34.305  1.00  0.00     0.074 A 
ATOM     52  C   UNL A   1      43.927  26.649  30.166  1.00  0.00     0.029 A 
ATOM     53  N   UNL A   1      42.402  27.895  31.200  1.00  0.00    -0.354 N 
ATOM     54  N   UNL A   1      41.362  29.537  33.387  1.00  0.00    -0.248 NA
ATOM     55  C   UNL A   1      41.585  30.463  35.518  1.00  0.00     0.031 C 
ATOM     56  C   UNL A   1      44.433  27.022  31.412  1.00  0.00     0.029 A 
ATOM     57  C   UNL A   1      43.498  27.828  32.041  1.00  0.00     0.049 A 
ATOM     58  H   UNL A   1      41.570  28.384  31.391  1.00  0.00     0.167 HD
ATOM     59  C   UNL A   1      42.621  29.220  33.893  1.00  0.00     0.074 A 
ATOM     60  C   UNL A   1      42.715  29.844  35.195  1.00  0.00     0.031 C 
ATOM     61  C   UNL A   1      43.605  28.482  33.323  1.00  0.00     0.034 A 
BRANCH  48  62
ATOM     62  C   UNL A   1      42.172  26.178  27.777  1.00  0.00     0.023 A 
ATOM     63  C   UNL A   1      41.890  24.801  27.741  1.00  0.00     0.031 A 
ATOM     64  C   UNL A   1      42.970  26.725  26.756  1.00  0.00     0.131 A 
ATOM     65  C   UNL A   1      42.430  24.011  26.720  1.00  0.00     0.055 A 
ATOM     66  C   UNL A   1      43.471  25.940  25.718  1.00  0.00     0.041 A 
ATOM     67  F   UNL A   1      43.263  28.036  26.747  1.00  0.00    -0.206 F 
ATOM     68  C   UNL A   1      43.211  24.573  25.704  1.00  0.00     0.022 A 
BRANCH  65  69
ATOM     69  S   UNL A   1      42.176  22.216  26.693  1.00  0.00     0.124 S 
ATOM     70  O   UNL A   1      40.828  22.110  26.135  1.00  0.00    -0.237 OA
ATOM     71  O   UNL A   1      43.252  21.770  25.813  1.00  0.00    -0.237 OA
ATOM     72  O   UNL A   1      42.297  21.823  28.093  1.00  0.00    -0.744 OA
ENDBRANCH  65  69
ENDBRANCH  48  62
BRANCH  49  73
ATOM     73  C   UNL A   1      38.943  31.789  35.386  1.00  0.00     0.023 A 
ATOM     74  C   UNL A   1      38.369  31.226  36.539  1.00  0.00     0.031 A 
ATOM     75  C   UNL A   1      38.971  33.190  35.275  1.00  0.00     0.131 A 
ATOM     76  C   UNL A   1      37.794  32.061  37.508  1.00  0.00     0.055 A 
ATOM     77  C   UNL A   1      38.454  34.019  36.273  1.00  0.00     0.041 A 
ATOM     78  F   UNL A   1      39.500  33.771  34.188  1.00  0.00    -0.206 F 
ATOM     79  C   UNL A   1      37.849  33.453  37.391  1.00  0.00     0.022 A 
BRANCH  76  80
ATOM     80  S   UNL A   1      36.875  31.361  38.906  1.00  0.00     0.124 S 
ATOM     81  O   UNL A   1      37.810  31.546  40.013  1.00  0.00    -0.237 OA
ATOM     82  O   UNL A   1      35.690  32.214  38.931  1.00  0.00    -0.237 OA
ATOM     83  O   UNL A   1      36.641  29.979  38.505  1.00  0.00    -0.744 OA
ENDBRANCH  76  80
ENDBRANCH  49  73
BRANCH  61  84
ATOM     84  C   UNL A   1      44.913  28.313  34.057  1.00  0.00     0.023 A 
ATOM     85  C   UNL A   1      45.120  27.166  34.849  1.00  0.00     0.031 A 
ATOM     86  C   UNL A   1      45.862  29.346  34.119  1.00  0.00     0.131 A 
ATOM     87  C   UNL A   1      46.226  27.099  35.704  1.00  0.00     0.055 A 
ATOM     88  C   UNL A   1      46.989  29.254  34.939  1.00  0.00     0.041 A 
ATOM     89  F   UNL A   1      45.702  30.463  33.393  1.00  0.00    -0.206 F 
ATOM     90  C   UNL A   1      47.166  28.135  35.747  1.00  0.00     0.022 A 
BRANCH  87  91
ATOM     91  S   UNL A   1      46.441  25.709  36.848  1.00  0.00     0.124 S 
ATOM     92  O   UNL A   1      47.090  24.714  35.998  1.00  0.00    -0.237 OA
ATOM     93  O   UNL A   1      47.289  26.293  37.883  1.00  0.00    -0.237 OA
ATOM     94  O   UNL A   1      45.082  25.379  37.262  1.00  0.00    -0.744 OA
ENDBRANCH  87  91
ENDBRANCH  61  84
ENDBRANCH  35  36
ENDBRANCH  27  30
ENDBRANCH  25  26
ENDBRANCH   1  25
TORSDOF 15
ENDMDL
MODEL 3
REMARK VINA RESULT:     -12.0      4.993      9.609
REMARK SMILES Cc1nc(NC(=O)[C@@H]2CCC[C@@H](C(=O)NCCCNC(=O)c3ccc(-c4c5nc(c(-c6cc(S(=O)(=O)[O-])ccc6F)c6ccc([nH]6)c(-c6cc(S(=O)(=O)[O-])ccc6F)c6nc(c(-c7cc(S(=O)(=O)[O-])ccc7F)c7ccc4[nH]7)C=C6)C=C5)cc3)C2)ccc1Br
REMARK SMILES IDX 17 1 16 2 15 3 13 4 14 5 12 7 8 8 9 9 85 10 10 11 11 12 6 13
REMARK SMILES IDX 5 14 7 16 4 17 1 18 2 19 3 20 88 21 87 22 89 23 86 24 18 25
REMARK SMILES IDX 19 26 20 27 21 29 22 30 23 31 84 32 24 33 83 34 25 35 26 36
REMARK SMILES IDX 27 37 77 38 28 39 82 40 76 41 78 42 29 43 81 44 75 45 74 46
REMARK SMILES IDX 30 48 62 49 42 50 61 51 43 52 46 53 60 54 79 55 44 56 45 57
REMARK SMILES IDX 59 59 80 60 47 61 31 62 32 63 40 64 33 65 39 66 41 67 38 68
REMARK SMILES IDX 34 69 35 70 36 71 37 72 63 73 64 74 72 75 65 76 71 77 73 78
REMARK SMILES IDX 70 79 66 80 67 81 68 82 69 83 48 84 49 85 57 86 50 87 56 88
REMARK SMILES IDX 58 89 55 90 51 91 52 92 53 93 54 94
REMARK H PARENT 15 6 5 15 19 28 78 47 46 58
REMARK Flexibility Score: inf
ROOT
ATOM      1  C   UNL A   1      36.010  23.435  24.355  1.00  0.00     0.042 C 
ENDROOT
BRANCH   1   2
ATOM      2  C   UNL A   1      34.767  24.274  24.060  1.00  0.00     0.117 C 
BRANCH   2   3
ATOM      3  N   UNL A   1      34.543  25.301  25.066  1.00  0.00    -0.356 N 
ATOM      4  C   UNL A   1      34.080  26.568  25.094  1.00  0.00     0.223 C 
ATOM      5  O   UNL A   1      34.022  27.050  26.237  1.00  0.00    -0.275 OA
ATOM      6  H   UNL A   1      34.799  24.989  25.964  1.00  0.00     0.163 HD
BRANCH   4   7
ATOM      7  C   UNL A   1      33.622  27.442  23.908  1.00  0.00     0.079 C 
ATOM      8  C   UNL A   1      31.161  27.123  24.288  1.00  0.00     0.079 C 
ATOM      9  C   UNL A   1      30.936  28.637  24.365  1.00  0.00     0.013 C 
ATOM     10  C   UNL A   1      32.315  26.837  23.318  1.00  0.00     0.027 C 
ATOM     11  C   UNL A   1      32.191  29.374  24.810  1.00  0.00     0.002 C 
ATOM     12  C   UNL A   1      33.438  28.954  24.035  1.00  0.00     0.013 C 
BRANCH   8  13
ATOM     13  C   UNL A   1      29.850  26.438  23.959  1.00  0.00     0.228 C 
ATOM     14  N   UNL A   1      29.701  25.093  24.141  1.00  0.00    -0.310 N 
ATOM     15  H   UNL A   1      28.777  24.801  23.968  1.00  0.00     0.171 HD
ATOM     16  O   UNL A   1      28.887  27.096  23.552  1.00  0.00    -0.274 OA
BRANCH  14  17
ATOM     17  C   UNL A   1      30.525  24.023  24.511  1.00  0.00     0.132 A 
ATOM     18  C   UNL A   1      32.220  21.490  22.436  1.00  0.00     0.068 C 
ATOM     19  C   UNL A   1      31.812  22.259  23.658  1.00  0.00     0.054 A 
ATOM     20  N   UNL A   1      30.977  23.321  23.450  1.00  0.00    -0.235 NA
ATOM     21  C   UNL A   1      32.271  21.908  24.923  1.00  0.00     0.039 A 
ATOM     22  C   UNL A   1      31.798  22.628  26.005  1.00  0.00     0.021 A 
ATOM     23  Br  UNL A   1      33.500  20.508  25.240  1.00  0.00    -0.049 Br
ATOM     24  C   UNL A   1      30.901  23.676  25.799  1.00  0.00     0.048 A 
ENDBRANCH  14  17
ENDBRANCH   8  13
ENDBRANCH   4   7
ENDBRANCH   2   3
ENDBRANCH   1   2
BRANCH   1  25
ATOM     25  C   UNL A   1      36.423  23.437  25.822  1.00  0.00     0.118 C 
BRANCH  25  26
ATOM     26  N   UNL A   1      37.439  22.433  26.099  1.00  0.00    -0.352 N 
ATOM     27  C   UNL A   1      38.752  22.610  26.460  1.00  0.00     0.251 C 
ATOM     28  H   UNL A   1      37.144  21.497  26.016  1.00  0.00     0.163 HD
ATOM     29  O   UNL A   1      39.534  21.660  26.396  1.00  0.00    -0.269 OA
BRANCH  27  30
ATOM     30  C   UNL A   1      39.232  23.933  26.917  1.00  0.00     0.039 A 
ATOM     31  C   UNL A   1      39.024  24.321  28.244  1.00  0.00     0.014 A 
ATOM     32  C   UNL A   1      39.839  24.815  26.020  1.00  0.00     0.014 A 
ATOM     33  C   UNL A   1      39.462  25.576  28.680  1.00  0.00     0.010 A 
ATOM     34  C   UNL A   1      40.332  26.039  26.473  1.00  0.00     0.010 A 
ATOM     35  C   UNL A   1      40.132  26.442  27.801  1.00  0.00    -0.014 A 
BRANCH  35  36
ATOM     36  C   UNL A   1      40.568  27.797  28.234  1.00  0.00     0.031 A 
ATOM     37  C   UNL A   1      42.019  28.185  28.140  1.00  0.00     0.074 A 
ATOM     38  C   UNL A   1      39.675  28.670  28.741  1.00  0.00     0.049 A 
ATOM     39  N   UNL A   1      42.593  29.313  28.464  1.00  0.00    -0.248 NA
ATOM     40  C   UNL A   1      42.952  27.163  27.635  1.00  0.00     0.031 C 
ATOM     41  C   UNL A   1      38.249  28.403  28.930  1.00  0.00     0.029 A 
ATOM     42  N   UNL A   1      39.834  29.960  29.189  1.00  0.00    -0.354 N 
ATOM     43  C   UNL A   1      43.948  29.138  28.205  1.00  0.00     0.074 A 
ATOM     44  C   UNL A   1      44.121  27.772  27.767  1.00  0.00     0.031 C 
ATOM     45  C   UNL A   1      37.660  29.503  29.427  1.00  0.00     0.029 A 
ATOM     46  C   UNL A   1      38.666  30.545  29.620  1.00  0.00     0.049 A 
ATOM     47  H   UNL A   1      40.703  30.421  29.202  1.00  0.00     0.167 HD
ATOM     48  C   UNL A   1      44.953  30.040  28.285  1.00  0.00     0.034 A 
ATOM     49  C   UNL A   1      38.428  31.784  30.102  1.00  0.00     0.034 A 
ATOM     50  C   UNL A   1      44.774  31.408  28.697  1.00  0.00     0.049 A 
ATOM     51  C   UNL A   1      39.559  32.776  30.184  1.00  0.00     0.074 A 
ATOM     52  C   UNL A   1      45.725  32.409  28.765  1.00  0.00     0.029 A 
ATOM     53  N   UNL A   1      43.571  31.967  29.101  1.00  0.00    -0.354 N 
ATOM     54  N   UNL A   1      40.819  32.617  29.854  1.00  0.00    -0.248 NA
ATOM     55  C   UNL A   1      39.240  34.122  30.684  1.00  0.00     0.031 C 
ATOM     56  C   UNL A   1      45.110  33.561  29.256  1.00  0.00     0.029 A 
ATOM     57  C   UNL A   1      43.761  33.298  29.431  1.00  0.00     0.049 A 
ATOM     58  H   UNL A   1      42.712  31.489  29.147  1.00  0.00     0.167 HD
ATOM     59  C   UNL A   1      41.432  33.851  30.067  1.00  0.00     0.074 A 
ATOM     60  C   UNL A   1      40.404  34.747  30.548  1.00  0.00     0.031 C 
ATOM     61  C   UNL A   1      42.727  34.201  29.875  1.00  0.00     0.034 A 
BRANCH  48  62
ATOM     62  C   UNL A   1      46.338  29.607  27.882  1.00  0.00     0.023 A 
ATOM     63  C   UNL A   1      46.575  29.115  26.586  1.00  0.00     0.031 A 
ATOM     64  C   UNL A   1      47.391  29.575  28.814  1.00  0.00     0.131 A 
ATOM     65  C   UNL A   1      47.830  28.581  26.268  1.00  0.00     0.055 A 
ATOM     66  C   UNL A   1      48.651  29.080  28.478  1.00  0.00     0.041 A 
ATOM     67  F   UNL A   1      47.212  30.038  30.062  1.00  0.00    -0.206 F 
ATOM     68  C   UNL A   1      48.870  28.568  27.203  1.00  0.00     0.022 A 
BRANCH  65  69
ATOM     69  S   UNL A   1      48.147  27.843  24.643  1.00  0.00     0.124 S 
ATOM     70  O   UNL A   1      47.915  26.423  24.905  1.00  0.00    -0.237 OA
ATOM     71  O   UNL A   1      47.143  28.497  23.811  1.00  0.00    -0.237 OA
ATOM     72  O   UNL A   1      49.534  28.199  24.361  1.00  0.00    -0.744 OA
ENDBRANCH  65  69
ENDBRANCH  48  62
BRANCH  49  73
ATOM     73  C   UNL A   1      37.032  32.166  30.460  1.00  0.00     0.023 A 
ATOM     74  C   UNL A   1      36.172  32.744  29.510  1.00  0.00     0.031 A 
ATOM     75  C   UNL A   1      36.573  32.044  31.783  1.00  0.00     0.131 A 
ATOM     76  C   UNL A   1      34.919  33.230  29.910  1.00  0.00     0.055 A 
ATOM     77  C   UNL A   1      35.299  32.472  32.164  1.00  0.00     0.041 A 
ATOM     78  F   UNL A   1      37.362  31.508  32.725  1.00  0.00    -0.206 F 
ATOM     79  C   UNL A   1      34.470  33.081  31.226  1.00  0.00     0.022 A 
BRANCH  76  80
ATOM     80  S   UNL A   1      33.872  34.154  28.754  1.00  0.00     0.124 S 
ATOM     81  O   UNL A   1      34.805  35.136  28.210  1.00  0.00    -0.237 OA
ATOM     82  O   UNL A   1      33.454  33.100  27.833  1.00  0.00    -0.237 OA
ATOM     83  O   UNL A   1      32.816  34.693  29.604  1.00  0.00    -0.744 OA
ENDBRANCH  76  80
ENDBRANCH  49  73
BRANCH  61  84
ATOM     84  C   UNL A   1      43.147  35.627  30.137  1.00  0.00     0.023 A 
ATOM     85  C   UNL A   1      43.123  36.561  29.083  1.00  0.00     0.031 A 
ATOM     86  C   UNL A   1      43.730  36.011  31.356  1.00  0.00     0.131 A 
ATOM     87  C   UNL A   1      43.714  37.819  29.252  1.00  0.00     0.055 A 
ATOM     88  C   UNL A   1      44.276  37.284  31.534  1.00  0.00     0.041 A 
ATOM     89  F   UNL A   1      43.788  35.151  32.385  1.00  0.00    -0.206 F 
ATOM     90  C   UNL A   1      44.284  38.187  30.476  1.00  0.00     0.022 A 
BRANCH  87  91
ATOM     91  S   UNL A   1      43.838  38.987  27.872  1.00  0.00     0.124 S 
ATOM     92  O   UNL A   1      44.737  38.285  26.959  1.00  0.00    -0.237 OA
ATOM     93  O   UNL A   1      42.450  39.086  27.429  1.00  0.00    -0.237 OA
ATOM     94  O   UNL A   1      44.391  40.194  28.479  1.00  0.00    -0.744 OA
ENDBRANCH  87  91
ENDBRANCH  61  84
ENDBRANCH  35  36
ENDBRANCH  27  30
ENDBRANCH  25  26
ENDBRANCH   1  25
TORSDOF 15
ENDMDL
