MODEL 1
REMARK VINA RESULT:     -10.7      0.000      0.000
REMARK SMILES N#Cc1ccn2cc(C(=O)NCCCNC(=O)c3ccc(-c4c5nc(c(-c6cc(S(=O)(=O)[O-])ccc6F)c6ccc([nH]6)c(-c6cc(S(=O)(=O)[O-])ccc6F)c6nc(c(-c7cc(S(=O)(=O)[O-])ccc7F)c7ccc4[nH]7)C=C6)C=C5)cc3)nc2c1
REMARK SMILES IDX 14 1 13 2 12 3 11 4 9 5 10 6 8 8 3 9 4 10 83 11 5 12 82 13
REMARK SMILES IDX 6 14 81 15 7 16 2 17 1 18 15 19 16 20 17 22 18 23 19 24
REMARK SMILES IDX 80 25 20 26 79 27 21 28 22 29 23 30 73 31 24 32 78 33 72 34
REMARK SMILES IDX 74 35 25 36 77 37 71 38 70 39 26 41 58 42 38 43 57 44 39 45
REMARK SMILES IDX 42 46 56 47 75 48 40 49 41 50 55 52 76 53 43 54 27 55 28 56
REMARK SMILES IDX 36 57 29 58 35 59 37 60 34 61 30 62 31 63 32 64 33 65 59 66
REMARK SMILES IDX 60 67 68 68 61 69 67 70 69 71 66 72 62 73 63 74 64 75 65 76
REMARK SMILES IDX 44 77 45 78 53 79 46 80 52 81 54 82 51 83 47 84 48 85 49 86
REMARK SMILES IDX 50 87
REMARK H PARENT 11 7 15 21 74 40 42 51
REMARK Flexibility Score: inf
ROOT
ATOM      1  C   UNL A   1      35.307  32.389  31.614  1.00  0.00     0.118 C 
ENDROOT
BRANCH   1   2
ATOM      2  C   UNL A   1      34.202  32.822  32.580  1.00  0.00     0.042 C 
BRANCH   2   3
ATOM      3  C   UNL A   1      34.458  34.180  33.235  1.00  0.00     0.118 C 
BRANCH   3   4
ATOM      4  N   UNL A   1      34.863  34.051  34.627  1.00  0.00    -0.351 N 
ATOM      5  C   UNL A   1      36.080  33.801  35.217  1.00  0.00     0.271 C 
ATOM      6  O   UNL A   1      36.117  33.754  36.441  1.00  0.00    -0.267 OA
ATOM      7  H   UNL A   1      34.125  34.162  35.270  1.00  0.00     0.163 HD
BRANCH   5   8
ATOM      8  C   UNL A   1      37.292  33.622  34.410  1.00  0.00     0.147 A 
ATOM      9  C   UNL A   1      40.993  33.760  31.877  1.00  0.00     0.057 A 
ATOM     10  C   UNL A   1      41.117  32.384  32.353  1.00  0.00     0.038 A 
ATOM     11  C   UNL A   1      39.952  34.539  32.233  1.00  0.00     0.067 A 
ATOM     12  C   UNL A   1      40.171  31.894  33.175  1.00  0.00     0.094 A 
ATOM     13  C   UNL A   1      38.956  34.020  33.102  1.00  0.00     0.138 A 
ATOM     14  N   UNL A   1      39.105  32.713  33.543  1.00  0.00    -0.306 N 
ATOM     15  N   UNL A   1      37.874  34.571  33.595  1.00  0.00    -0.223 NA
ATOM     16  C   UNL A   1      38.044  32.456  34.368  1.00  0.00     0.127 A 
BRANCH   9  17
ATOM     17  C   UNL A   1      42.051  34.323  30.942  1.00  0.00     0.099 C 
ATOM     18  N   UNL A   1      42.928  34.790  30.167  1.00  0.00    -0.192 NA
ENDBRANCH   9  17
ENDBRANCH   5   8
ENDBRANCH   3   4
ENDBRANCH   2   3
ENDBRANCH   1   2
BRANCH   1  19
ATOM     19  N   UNL A   1      35.064  32.741  30.229  1.00  0.00    -0.352 N 
ATOM     20  C   UNL A   1      35.605  32.377  29.027  1.00  0.00     0.251 C 
ATOM     21  H   UNL A   1      34.338  33.398  30.130  1.00  0.00     0.163 HD
ATOM     22  O   UNL A   1      35.016  32.802  28.030  1.00  0.00    -0.269 OA
BRANCH  20  23
ATOM     23  C   UNL A   1      36.862  31.601  28.850  1.00  0.00     0.039 A 
ATOM     24  C   UNL A   1      36.966  30.355  28.230  1.00  0.00     0.014 A 
ATOM     25  C   UNL A   1      38.011  32.151  29.450  1.00  0.00     0.014 A 
ATOM     26  C   UNL A   1      38.138  29.613  28.336  1.00  0.00     0.010 A 
ATOM     27  C   UNL A   1      39.192  31.427  29.539  1.00  0.00     0.010 A 
ATOM     28  C   UNL A   1      39.224  30.127  29.045  1.00  0.00    -0.014 A 
BRANCH  28  29
ATOM     29  C   UNL A   1      40.370  29.253  29.262  1.00  0.00     0.031 A 
ATOM     30  C   UNL A   1      40.643  28.863  30.676  1.00  0.00     0.074 A 
ATOM     31  C   UNL A   1      41.086  28.761  28.231  1.00  0.00     0.049 A 
ATOM     32  N   UNL A   1      41.702  29.088  31.386  1.00  0.00    -0.248 NA
ATOM     33  C   UNL A   1      39.551  28.228  31.425  1.00  0.00     0.031 C 
ATOM     34  C   UNL A   1      40.762  28.794  26.801  1.00  0.00     0.029 A 
ATOM     35  N   UNL A   1      42.217  28.010  28.267  1.00  0.00    -0.354 N 
ATOM     36  C   UNL A   1      41.477  28.494  32.633  1.00  0.00     0.074 A 
ATOM     37  C   UNL A   1      40.096  28.083  32.634  1.00  0.00     0.031 C 
ATOM     38  C   UNL A   1      41.522  27.881  26.154  1.00  0.00     0.029 A 
ATOM     39  C   UNL A   1      42.477  27.317  27.094  1.00  0.00     0.049 A 
ATOM     40  H   UNL A   1      42.802  27.961  29.057  1.00  0.00     0.167 HD
ATOM     41  C   UNL A   1      42.484  28.261  33.527  1.00  0.00     0.034 A 
ATOM     42  C   UNL A   1      43.327  26.269  26.951  1.00  0.00     0.034 A 
ATOM     43  C   UNL A   1      43.674  28.981  33.169  1.00  0.00     0.049 A 
ATOM     44  C   UNL A   1      44.266  26.284  28.102  1.00  0.00     0.074 A 
ATOM     45  C   UNL A   1      44.020  30.315  33.110  1.00  0.00     0.029 A 
ATOM     46  N   UNL A   1      44.653  28.306  32.480  1.00  0.00    -0.354 N 
ATOM     47  N   UNL A   1      45.184  27.193  28.284  1.00  0.00    -0.248 NA
ATOM     48  C   UNL A   1      43.877  25.539  29.291  1.00  0.00     0.031 C 
ATOM     49  C   UNL A   1      44.890  30.415  31.991  1.00  0.00     0.029 A 
ATOM     50  C   UNL A   1      45.068  29.132  31.468  1.00  0.00     0.049 A 
ATOM     51  H   UNL A   1      44.991  27.403  32.675  1.00  0.00     0.167 HD
ATOM     52  C   UNL A   1      45.155  27.446  29.648  1.00  0.00     0.074 A 
ATOM     53  C   UNL A   1      44.398  26.336  30.227  1.00  0.00     0.031 C 
ATOM     54  C   UNL A   1      45.485  28.668  30.160  1.00  0.00     0.034 A 
BRANCH  41  55
ATOM     55  C   UNL A   1      42.496  27.181  34.585  1.00  0.00     0.023 A 
ATOM     56  C   UNL A   1      43.274  26.015  34.486  1.00  0.00     0.031 A 
ATOM     57  C   UNL A   1      41.890  27.409  35.842  1.00  0.00     0.131 A 
ATOM     58  C   UNL A   1      43.438  25.147  35.576  1.00  0.00     0.055 A 
ATOM     59  C   UNL A   1      42.103  26.576  36.948  1.00  0.00     0.041 A 
ATOM     60  F   UNL A   1      41.113  28.482  36.056  1.00  0.00    -0.206 F 
ATOM     61  C   UNL A   1      42.886  25.438  36.819  1.00  0.00     0.022 A 
BRANCH  58  62
ATOM     62  S   UNL A   1      44.396  23.618  35.398  1.00  0.00     0.124 S 
ATOM     63  O   UNL A   1      44.808  23.359  36.772  1.00  0.00    -0.237 OA
ATOM     64  O   UNL A   1      43.396  22.701  34.854  1.00  0.00    -0.237 OA
ATOM     65  O   UNL A   1      45.460  23.988  34.471  1.00  0.00    -0.744 OA
ENDBRANCH  58  62
ENDBRANCH  41  55
BRANCH  42  66
ATOM     66  C   UNL A   1      42.993  25.012  26.235  1.00  0.00     0.023 A 
ATOM     67  C   UNL A   1      41.865  24.264  26.624  1.00  0.00     0.031 A 
ATOM     68  C   UNL A   1      43.924  24.377  25.397  1.00  0.00     0.131 A 
ATOM     69  C   UNL A   1      41.717  22.929  26.232  1.00  0.00     0.055 A 
ATOM     70  C   UNL A   1      43.767  23.046  24.989  1.00  0.00     0.041 A 
ATOM     71  F   UNL A   1      45.043  25.015  25.018  1.00  0.00    -0.206 F 
ATOM     72  C   UNL A   1      42.665  22.311  25.418  1.00  0.00     0.022 A 
BRANCH  69  73
ATOM     73  S   UNL A   1      40.321  21.953  26.857  1.00  0.00     0.124 S 
ATOM     74  O   UNL A   1      39.237  22.933  26.873  1.00  0.00    -0.237 OA
ATOM     75  O   UNL A   1      40.214  20.910  25.844  1.00  0.00    -0.237 OA
ATOM     76  O   UNL A   1      40.774  21.516  28.175  1.00  0.00    -0.744 OA
ENDBRANCH  69  73
ENDBRANCH  42  66
BRANCH  54  77
ATOM     77  C   UNL A   1      46.072  29.726  29.249  1.00  0.00     0.023 A 
ATOM     78  C   UNL A   1      45.167  30.545  28.552  1.00  0.00     0.031 A 
ATOM     79  C   UNL A   1      47.421  29.762  28.846  1.00  0.00     0.131 A 
ATOM     80  C   UNL A   1      45.599  31.309  27.462  1.00  0.00     0.055 A 
ATOM     81  C   UNL A   1      47.862  30.586  27.807  1.00  0.00     0.041 A 
ATOM     82  F   UNL A   1      48.332  28.934  29.371  1.00  0.00    -0.206 F 
ATOM     83  C   UNL A   1      46.946  31.350  27.094  1.00  0.00     0.022 A 
BRANCH  80  84
ATOM     84  S   UNL A   1      44.393  32.120  26.382  1.00  0.00     0.124 S 
ATOM     85  O   UNL A   1      45.212  32.501  25.235  1.00  0.00    -0.237 OA
ATOM     86  O   UNL A   1      43.429  31.050  26.137  1.00  0.00    -0.237 OA
ATOM     87  O   UNL A   1      43.887  33.230  27.186  1.00  0.00    -0.744 OA
ENDBRANCH  80  84
ENDBRANCH  54  77
ENDBRANCH  28  29
ENDBRANCH  20  23
ENDBRANCH   1  19
TORSDOF 14
ENDMDL
MODEL 2
REMARK VINA RESULT:     -10.5      1.794      2.235
REMARK SMILES N#Cc1ccn2cc(C(=O)NCCCNC(=O)c3ccc(-c4c5nc(c(-c6cc(S(=O)(=O)[O-])ccc6F)c6ccc([nH]6)c(-c6cc(S(=O)(=O)[O-])ccc6F)c6nc(c(-c7cc(S(=O)(=O)[O-])ccc7F)c7ccc4[nH]7)C=C6)C=C5)cc3)nc2c1
REMARK SMILES IDX 14 1 13 2 12 3 11 4 9 5 10 6 8 8 3 9 4 10 83 11 5 12 82 13
REMARK SMILES IDX 6 14 81 15 7 16 2 17 1 18 15 19 16 20 17 22 18 23 19 24
REMARK SMILES IDX 80 25 20 26 79 27 21 28 22 29 23 30 73 31 24 32 78 33 72 34
REMARK SMILES IDX 74 35 25 36 77 37 71 38 70 39 26 41 58 42 38 43 57 44 39 45
REMARK SMILES IDX 42 46 56 47 75 48 40 49 41 50 55 52 76 53 43 54 27 55 28 56
REMARK SMILES IDX 36 57 29 58 35 59 37 60 34 61 30 62 31 63 32 64 33 65 59 66
REMARK SMILES IDX 60 67 68 68 61 69 67 70 69 71 66 72 62 73 63 74 64 75 65 76
REMARK SMILES IDX 44 77 45 78 53 79 46 80 52 81 54 82 51 83 47 84 48 85 49 86
REMARK SMILES IDX 50 87
REMARK H PARENT 11 7 15 21 74 40 42 51
REMARK Flexibility Score: inf
ROOT
ATOM      1  C   UNL A   1      34.753  34.141  28.822  1.00  0.00     0.118 C 
ENDROOT
BRANCH   1   2
ATOM      2  C   UNL A   1      33.622  35.064  29.281  1.00  0.00     0.042 C 
BRANCH   2   3
ATOM      3  C   UNL A   1      33.804  35.597  30.703  1.00  0.00     0.118 C 
BRANCH   3   4
ATOM      4  N   UNL A   1      33.312  34.664  31.706  1.00  0.00    -0.351 N 
ATOM      5  C   UNL A   1      33.943  33.710  32.470  1.00  0.00     0.271 C 
ATOM      6  O   UNL A   1      33.254  33.066  33.253  1.00  0.00    -0.267 OA
ATOM      7  H   UNL A   1      32.343  34.728  31.869  1.00  0.00     0.163 HD
BRANCH   5   8
ATOM      8  C   UNL A   1      35.389  33.488  32.365  1.00  0.00     0.147 A 
ATOM      9  C   UNL A   1      39.862  33.499  32.013  1.00  0.00     0.057 A 
ATOM     10  C   UNL A   1      39.688  32.109  32.434  1.00  0.00     0.038 A 
ATOM     11  C   UNL A   1      38.807  34.319  31.836  1.00  0.00     0.067 A 
ATOM     12  C   UNL A   1      38.444  31.650  32.656  1.00  0.00     0.094 A 
ATOM     13  C   UNL A   1      37.495  33.831  32.073  1.00  0.00     0.138 A 
ATOM     14  N   UNL A   1      37.363  32.511  32.479  1.00  0.00    -0.306 N 
ATOM     15  N   UNL A   1      36.329  34.424  31.985  1.00  0.00    -0.223 NA
ATOM     16  C   UNL A   1      36.024  32.289  32.656  1.00  0.00     0.127 A 
BRANCH   9  17
ATOM     17  C   UNL A   1      41.262  34.028  31.750  1.00  0.00     0.099 C 
ATOM     18  N   UNL A   1      42.423  34.468  31.533  1.00  0.00    -0.192 NA
ENDBRANCH   9  17
ENDBRANCH   5   8
ENDBRANCH   3   4
ENDBRANCH   2   3
ENDBRANCH   1   2
BRANCH   1  19
ATOM     19  N   UNL A   1      34.314  32.993  28.054  1.00  0.00    -0.352 N 
ATOM     20  C   UNL A   1      34.698  31.684  27.960  1.00  0.00     0.251 C 
ATOM     21  H   UNL A   1      33.561  33.206  27.457  1.00  0.00     0.163 HD
ATOM     22  O   UNL A   1      33.966  30.963  27.277  1.00  0.00    -0.269 OA
BRANCH  20  23
ATOM     23  C   UNL A   1      35.943  31.110  28.539  1.00  0.00     0.039 A 
ATOM     24  C   UNL A   1      37.121  31.814  28.791  1.00  0.00     0.014 A 
ATOM     25  C   UNL A   1      35.932  29.718  28.754  1.00  0.00     0.014 A 
ATOM     26  C   UNL A   1      38.294  31.133  29.101  1.00  0.00     0.010 A 
ATOM     27  C   UNL A   1      37.093  29.034  29.087  1.00  0.00     0.010 A 
ATOM     28  C   UNL A   1      38.287  29.740  29.186  1.00  0.00    -0.014 A 
BRANCH  28  29
ATOM     29  C   UNL A   1      39.566  29.063  29.357  1.00  0.00     0.031 A 
ATOM     30  C   UNL A   1      39.943  28.710  30.757  1.00  0.00     0.074 A 
ATOM     31  C   UNL A   1      40.321  28.705  28.299  1.00  0.00     0.049 A 
ATOM     32  N   UNL A   1      40.972  29.099  31.439  1.00  0.00    -0.248 NA
ATOM     33  C   UNL A   1      38.993  27.898  31.528  1.00  0.00     0.031 C 
ATOM     34  C   UNL A   1      39.953  28.699  26.879  1.00  0.00     0.029 A 
ATOM     35  N   UNL A   1      41.561  28.150  28.291  1.00  0.00    -0.354 N 
ATOM     36  C   UNL A   1      40.887  28.465  32.683  1.00  0.00     0.074 A 
ATOM     37  C   UNL A   1      39.591  27.832  32.718  1.00  0.00     0.031 C 
ATOM     38  C   UNL A   1      40.831  27.929  26.198  1.00  0.00     0.029 A 
ATOM     39  C   UNL A   1      41.894  27.521  27.101  1.00  0.00     0.049 A 
ATOM     40  H   UNL A   1      42.170  28.190  29.063  1.00  0.00     0.167 HD
ATOM     41  C   UNL A   1      41.945  28.392  33.544  1.00  0.00     0.034 A 
ATOM     42  C   UNL A   1      42.900  26.627  26.919  1.00  0.00     0.034 A 
ATOM     43  C   UNL A   1      42.989  29.300  33.163  1.00  0.00     0.049 A 
ATOM     44  C   UNL A   1      43.859  26.786  28.042  1.00  0.00     0.074 A 
ATOM     45  C   UNL A   1      43.110  30.673  33.113  1.00  0.00     0.029 A 
ATOM     46  N   UNL A   1      44.043  28.802  32.436  1.00  0.00    -0.354 N 
ATOM     47  N   UNL A   1      44.621  27.831  28.211  1.00  0.00    -0.248 NA
ATOM     48  C   UNL A   1      43.634  25.975  29.232  1.00  0.00     0.031 C 
ATOM     49  C   UNL A   1      43.918  30.926  31.971  1.00  0.00     0.029 A 
ATOM     50  C   UNL A   1      44.287  29.694  31.425  1.00  0.00     0.049 A 
ATOM     51  H   UNL A   1      44.531  27.964  32.608  1.00  0.00     0.167 HD
ATOM     52  C   UNL A   1      44.592  28.063  29.579  1.00  0.00     0.074 A 
ATOM     53  C   UNL A   1      44.046  26.838  30.163  1.00  0.00     0.031 C 
ATOM     54  C   UNL A   1      44.734  29.318  30.099  1.00  0.00     0.034 A 
BRANCH  41  55
ATOM     55  C   UNL A   1      42.166  27.318  34.586  1.00  0.00     0.023 A 
ATOM     56  C   UNL A   1      42.931  26.162  34.350  1.00  0.00     0.031 A 
ATOM     57  C   UNL A   1      41.795  27.544  35.932  1.00  0.00     0.131 A 
ATOM     58  C   UNL A   1      43.304  25.303  35.395  1.00  0.00     0.055 A 
ATOM     59  C   UNL A   1      42.219  26.720  36.983  1.00  0.00     0.041 A 
ATOM     60  F   UNL A   1      41.054  28.607  36.280  1.00  0.00    -0.206 F 
ATOM     61  C   UNL A   1      42.984  25.593  36.717  1.00  0.00     0.022 A 
BRANCH  58  62
ATOM     62  S   UNL A   1      44.237  23.787  35.050  1.00  0.00     0.124 S 
ATOM     63  O   UNL A   1      45.378  24.300  34.301  1.00  0.00    -0.237 OA
ATOM     64  O   UNL A   1      44.529  23.304  36.397  1.00  0.00    -0.237 OA
ATOM     65  O   UNL A   1      43.292  22.971  34.293  1.00  0.00    -0.744 OA
ENDBRANCH  58  62
ENDBRANCH  41  55
BRANCH  42  66
ATOM     66  C   UNL A   1      42.754  25.339  26.195  1.00  0.00     0.023 A 
ATOM     67  C   UNL A   1      41.760  24.424  26.590  1.00  0.00     0.031 A 
ATOM     68  C   UNL A   1      43.761  24.863  25.340  1.00  0.00     0.131 A 
ATOM     69  C   UNL A   1      41.814  23.085  26.186  1.00  0.00     0.055 A 
ATOM     70  C   UNL A   1      43.806  23.526  24.921  1.00  0.00     0.041 A 
ATOM     71  F   UNL A   1      44.763  25.669  24.954  1.00  0.00    -0.206 F 
ATOM     72  C   UNL A   1      42.836  22.627  25.355  1.00  0.00     0.022 A 
BRANCH  69  73
ATOM     73  S   UNL A   1      40.594  21.900  26.818  1.00  0.00     0.124 S 
ATOM     74  O   UNL A   1      40.948  20.677  26.101  1.00  0.00    -0.237 OA
ATOM     75  O   UNL A   1      40.892  21.904  28.245  1.00  0.00    -0.237 OA
ATOM     76  O   UNL A   1      39.316  22.491  26.433  1.00  0.00    -0.744 OA
ENDBRANCH  69  73
ENDBRANCH  42  66
BRANCH  54  77
ATOM     77  C   UNL A   1      45.111  30.466  29.187  1.00  0.00     0.023 A 
ATOM     78  C   UNL A   1      46.436  30.930  29.255  1.00  0.00     0.031 A 
ATOM     79  C   UNL A   1      44.180  31.264  28.494  1.00  0.00     0.131 A 
ATOM     80  C   UNL A   1      46.781  32.171  28.706  1.00  0.00     0.055 A 
ATOM     81  C   UNL A   1      44.546  32.465  27.879  1.00  0.00     0.041 A 
ATOM     82  F   UNL A   1      42.877  30.963  28.474  1.00  0.00    -0.206 F 
ATOM     83  C   UNL A   1      45.848  32.935  28.001  1.00  0.00     0.022 A 
BRANCH  80  84
ATOM     84  S   UNL A   1      48.399  32.904  29.055  1.00  0.00     0.124 S 
ATOM     85  O   UNL A   1      48.224  33.405  30.415  1.00  0.00    -0.237 OA
ATOM     86  O   UNL A   1      49.295  31.757  28.919  1.00  0.00    -0.237 OA
ATOM     87  O   UNL A   1      48.553  33.930  28.027  1.00  0.00    -0.744 OA
ENDBRANCH  80  84
ENDBRANCH  54  77
ENDBRANCH  28  29
ENDBRANCH  20  23
ENDBRANCH   1  19
TORSDOF 14
ENDMDL
MODEL 3
REMARK VINA RESULT:     -10.5      4.069      6.476
REMARK SMILES N#Cc1ccn2cc(C(=O)NCCCNC(=O)c3ccc(-c4c5nc(c(-c6cc(S(=O)(=O)[O-])ccc6F)c6ccc([nH]6)c(-c6cc(S(=O)(=O)[O-])ccc6F)c6nc(c(-c7cc(S(=O)(=O)[O-])ccc7F)c7ccc4[nH]7)C=C6)C=C5)cc3)nc2c1
REMARK SMILES IDX 14 1 13 2 12 3 11 4 9 5 10 6 8 8 3 9 4 10 83 11 5 12 82 13
REMARK SMILES IDX 6 14 81 15 7 16 2 17 1 18 15 19 16 20 17 22 18 23 19 24
REMARK SMILES IDX 80 25 20 26 79 27 21 28 22 29 23 30 73 31 24 32 78 33 72 34
REMARK SMILES IDX 74 35 25 36 77 37 71 38 70 39 26 41 58 42 38 43 57 44 39 45
REMARK SMILES IDX 42 46 56 47 75 48 40 49 41 50 55 52 76 53 43 54 27 55 28 56
REMARK SMILES IDX 36 57 29 58 35 59 37 60 34 61 30 62 31 63 32 64 33 65 59 66
REMARK SMILES IDX 60 67 68 68 61 69 67 70 69 71 66 72 62 73 63 74 64 75 65 76
REMARK SMILES IDX 44 77 45 78 53 79 46 80 52 81 54 82 51 83 47 84 48 85 49 86
REMARK SMILES IDX 50 87
REMARK H PARENT 11 7 15 21 74 40 42 51
REMARK Flexibility Score: inf
ROOT
ATOM      1  C   UNL A   1      33.635  29.920  26.854  1.00  0.00     0.118 C 
ENDROOT
BRANCH   1   2
ATOM      2  C   UNL A   1      33.526  28.472  27.335  1.00  0.00     0.042 C 
BRANCH   2   3
ATOM      3  C   UNL A   1      32.350  27.708  26.723  1.00  0.00     0.118 C 
BRANCH   3   4
ATOM      4  N   UNL A   1      32.755  26.893  25.588  1.00  0.00    -0.351 N 
ATOM      5  C   UNL A   1      32.315  26.835  24.286  1.00  0.00     0.271 C 
ATOM      6  O   UNL A   1      32.864  26.034  23.538  1.00  0.00    -0.267 OA
ATOM      7  H   UNL A   1      33.484  26.261  25.790  1.00  0.00     0.163 HD
BRANCH   5   8
ATOM      8  C   UNL A   1      31.244  27.715  23.808  1.00  0.00     0.147 A 
ATOM      9  C   UNL A   1      28.472  30.781  22.060  1.00  0.00     0.057 A 
ATOM     10  C   UNL A   1      27.477  29.760  22.385  1.00  0.00     0.038 A 
ATOM     11  C   UNL A   1      29.780  30.604  22.336  1.00  0.00     0.067 A 
ATOM     12  C   UNL A   1      27.887  28.616  22.962  1.00  0.00     0.094 A 
ATOM     13  C   UNL A   1      30.209  29.394  22.944  1.00  0.00     0.138 A 
ATOM     14  N   UNL A   1      29.242  28.441  23.232  1.00  0.00    -0.306 N 
ATOM     15  N   UNL A   1      31.404  28.985  23.294  1.00  0.00    -0.223 NA
ATOM     16  C   UNL A   1      29.897  27.377  23.789  1.00  0.00     0.127 A 
BRANCH   9  17
ATOM     17  C   UNL A   1      28.023  32.081  21.415  1.00  0.00     0.099 C 
ATOM     18  N   UNL A   1      27.650  33.159  20.880  1.00  0.00    -0.192 NA
ENDBRANCH   9  17
ENDBRANCH   5   8
ENDBRANCH   3   4
ENDBRANCH   2   3
ENDBRANCH   1   2
BRANCH   1  19
ATOM     19  N   UNL A   1      33.837  30.889  27.912  1.00  0.00    -0.352 N 
ATOM     20  C   UNL A   1      34.924  31.405  28.560  1.00  0.00     0.251 C 
ATOM     21  H   UNL A   1      32.990  31.265  28.244  1.00  0.00     0.163 HD
ATOM     22  O   UNL A   1      34.689  32.342  29.329  1.00  0.00    -0.269 OA
BRANCH  20  23
ATOM     23  C   UNL A   1      36.312  30.876  28.466  1.00  0.00     0.039 A 
ATOM     24  C   UNL A   1      36.673  29.632  27.949  1.00  0.00     0.014 A 
ATOM     25  C   UNL A   1      37.314  31.683  29.041  1.00  0.00     0.014 A 
ATOM     26  C   UNL A   1      37.962  29.142  28.134  1.00  0.00     0.010 A 
ATOM     27  C   UNL A   1      38.608  31.210  29.207  1.00  0.00     0.010 A 
ATOM     28  C   UNL A   1      38.906  29.908  28.818  1.00  0.00    -0.014 A 
BRANCH  28  29
ATOM     29  C   UNL A   1      40.190  29.291  29.123  1.00  0.00     0.031 A 
ATOM     30  C   UNL A   1      40.403  28.877  30.541  1.00  0.00     0.074 A 
ATOM     31  C   UNL A   1      41.097  29.036  28.158  1.00  0.00     0.049 A 
ATOM     32  N   UNL A   1      41.309  29.279  31.373  1.00  0.00    -0.248 NA
ATOM     33  C   UNL A   1      39.411  27.972  31.136  1.00  0.00     0.031 C 
ATOM     34  C   UNL A   1      40.917  29.093  26.703  1.00  0.00     0.029 A 
ATOM     35  N   UNL A   1      42.358  28.548  28.286  1.00  0.00    -0.354 N 
ATOM     36  C   UNL A   1      41.101  28.570  32.561  1.00  0.00     0.074 A 
ATOM     37  C   UNL A   1      39.853  27.869  32.390  1.00  0.00     0.031 C 
ATOM     38  C   UNL A   1      41.921  28.411  26.106  1.00  0.00     0.029 A 
ATOM     39  C   UNL A   1      42.880  28.008  27.121  1.00  0.00     0.049 A 
ATOM     40  H   UNL A   1      42.858  28.575  29.134  1.00  0.00     0.167 HD
ATOM     41  C   UNL A   1      42.041  28.503  33.550  1.00  0.00     0.034 A 
ATOM     42  C   UNL A   1      43.953  27.181  27.029  1.00  0.00     0.034 A 
ATOM     43  C   UNL A   1      43.070  29.485  33.358  1.00  0.00     0.049 A 
ATOM     44  C   UNL A   1      44.746  27.324  28.276  1.00  0.00     0.074 A 
ATOM     45  C   UNL A   1      43.113  30.863  33.394  1.00  0.00     0.029 A 
ATOM     46  N   UNL A   1      44.237  29.087  32.753  1.00  0.00    -0.354 N 
ATOM     47  N   UNL A   1      45.416  28.397  28.598  1.00  0.00    -0.248 NA
ATOM     48  C   UNL A   1      44.418  26.435  29.382  1.00  0.00     0.031 C 
ATOM     49  C   UNL A   1      44.046  31.225  32.384  1.00  0.00     0.029 A 
ATOM     50  C   UNL A   1      44.556  30.049  31.829  1.00  0.00     0.049 A 
ATOM     51  H   UNL A   1      44.748  28.268  32.945  1.00  0.00     0.167 HD
ATOM     52  C   UNL A   1      45.196  28.546  29.960  1.00  0.00     0.074 A 
ATOM     53  C   UNL A   1      44.653  27.262  30.403  1.00  0.00     0.031 C 
ATOM     54  C   UNL A   1      45.193  29.775  30.558  1.00  0.00     0.034 A 
BRANCH  41  55
ATOM     55  C   UNL A   1      42.189  27.383  34.556  1.00  0.00     0.023 A 
ATOM     56  C   UNL A   1      42.929  26.215  34.304  1.00  0.00     0.031 A 
ATOM     57  C   UNL A   1      41.771  27.568  35.894  1.00  0.00     0.131 A 
ATOM     58  C   UNL A   1      43.235  25.305  35.327  1.00  0.00     0.055 A 
ATOM     59  C   UNL A   1      42.128  26.692  36.926  1.00  0.00     0.041 A 
ATOM     60  F   UNL A   1      41.046  28.638  36.255  1.00  0.00    -0.206 F 
ATOM     61  C   UNL A   1      42.870  25.553  36.646  1.00  0.00     0.022 A 
BRANCH  58  62
ATOM     62  S   UNL A   1      44.138  23.776  34.959  1.00  0.00     0.124 S 
ATOM     63  O   UNL A   1      44.555  23.346  36.288  1.00  0.00    -0.237 OA
ATOM     64  O   UNL A   1      43.101  22.963  34.327  1.00  0.00    -0.237 OA
ATOM     65  O   UNL A   1      45.205  24.217  34.066  1.00  0.00    -0.744 OA
ENDBRANCH  58  62
ENDBRANCH  41  55
BRANCH  42  66
ATOM     66  C   UNL A   1      43.980  25.932  26.228  1.00  0.00     0.023 A 
ATOM     67  C   UNL A   1      43.065  24.899  26.511  1.00  0.00     0.031 A 
ATOM     68  C   UNL A   1      45.075  25.611  25.409  1.00  0.00     0.131 A 
ATOM     69  C   UNL A   1      43.280  23.600  26.038  1.00  0.00     0.055 A 
ATOM     70  C   UNL A   1      45.280  24.314  24.920  1.00  0.00     0.041 A 
ATOM     71  F   UNL A   1      46.008  26.535  25.129  1.00  0.00    -0.206 F 
ATOM     72  C   UNL A   1      44.386  23.297  25.245  1.00  0.00     0.022 A 
BRANCH  69  73
ATOM     73  S   UNL A   1      42.156  22.262  26.529  1.00  0.00     0.124 S 
ATOM     74  O   UNL A   1      40.850  22.915  26.471  1.00  0.00    -0.237 OA
ATOM     75  O   UNL A   1      42.411  21.268  25.494  1.00  0.00    -0.237 OA
ATOM     76  O   UNL A   1      42.610  21.913  27.872  1.00  0.00    -0.744 OA
ENDBRANCH  69  73
ENDBRANCH  42  66
BRANCH  54  77
ATOM     77  C   UNL A   1      45.616  30.992  29.763  1.00  0.00     0.023 A 
ATOM     78  C   UNL A   1      44.778  31.391  28.707  1.00  0.00     0.031 A 
ATOM     79  C   UNL A   1      46.898  31.571  29.827  1.00  0.00     0.131 A 
ATOM     80  C   UNL A   1      45.243  32.281  27.732  1.00  0.00     0.055 A 
ATOM     81  C   UNL A   1      47.330  32.519  28.895  1.00  0.00     0.041 A 
ATOM     82  F   UNL A   1      47.805  31.169  30.724  1.00  0.00    -0.206 F 
ATOM     83  C   UNL A   1      46.510  32.863  27.827  1.00  0.00     0.022 A 
BRANCH  80  84
ATOM     84  S   UNL A   1      44.286  32.558  26.220  1.00  0.00     0.124 S 
ATOM     85  O   UNL A   1      43.500  31.332  26.124  1.00  0.00    -0.237 OA
ATOM     86  O   UNL A   1      43.530  33.765  26.549  1.00  0.00    -0.237 OA
ATOM     87  O   UNL A   1      45.302  32.733  25.185  1.00  0.00    -0.744 OA
ENDBRANCH  80  84
ENDBRANCH  54  77
ENDBRANCH  28  29
ENDBRANCH  20  23
ENDBRANCH   1  19
TORSDOF 14
ENDMDL
