MODEL 1
REMARK VINA RESULT:     -11.6      0.000      0.000
REMARK SMILES CC(=O)Oc1ccccc1C(=O)NCCCNC(=O)c1ccc(-c2c3nc(c(-c4cc(S(=O)(=O)[O-])ccc4F)c4ccc([nH]4)c(-c4cc(S(=O)(=O)[O-])ccc4F)c4nc(c(-c5cc(S(=O)(=O)[O-])ccc5F)c5ccc2[nH]5)C=C4)C=C3)cc1
REMARK SMILES IDX 15 1 14 2 13 3 11 4 12 5 10 7 5 8 6 9 7 10 9 11 8 12 4 13
REMARK SMILES IDX 2 14 1 15 3 16 16 17 17 18 18 19 19 21 20 22 21 23 82 24
REMARK SMILES IDX 22 25 81 26 23 27 24 28 25 29 75 30 26 31 80 32 74 33 76 34
REMARK SMILES IDX 27 35 79 36 73 37 72 38 28 40 60 41 40 42 59 43 41 44 44 45
REMARK SMILES IDX 58 46 77 47 42 48 43 49 57 51 78 52 45 53 29 54 30 55 38 56
REMARK SMILES IDX 31 57 37 58 39 59 36 60 32 61 33 62 34 63 35 64 61 65 62 66
REMARK SMILES IDX 70 67 63 68 69 69 71 70 68 71 64 72 65 73 66 74 67 75 46 76
REMARK SMILES IDX 47 77 55 78 48 79 54 80 56 81 53 82 49 83 50 84 51 85 52 86
REMARK H PARENT 13 6 17 20 76 39 44 50
REMARK Flexibility Score: inf
ROOT
ATOM      1  C   UNL A   1      31.714  31.715  26.547  1.00  0.00     0.042 C 
ENDROOT
BRANCH   1   2
ATOM      2  C   UNL A   1      31.914  30.244  26.253  1.00  0.00     0.118 C 
BRANCH   2   3
ATOM      3  N   UNL A   1      32.719  29.925  25.100  1.00  0.00    -0.352 N 
ATOM      4  C   UNL A   1      32.453  29.057  24.070  1.00  0.00     0.255 C 
ATOM      5  O   UNL A   1      33.264  29.013  23.142  1.00  0.00    -0.269 OA
ATOM      6  H   UNL A   1      33.580  30.398  25.043  1.00  0.00     0.163 HD
BRANCH   4   7
ATOM      7  C   UNL A   1      31.315  28.091  24.073  1.00  0.00     0.082 A 
ATOM      8  C   UNL A   1      30.268  27.973  23.147  1.00  0.00     0.143 A 
ATOM      9  C   UNL A   1      29.228  27.053  23.350  1.00  0.00     0.048 A 
ATOM     10  C   UNL A   1      29.240  26.205  24.455  1.00  0.00     0.004 A 
ATOM     11  C   UNL A   1      31.319  27.198  25.165  1.00  0.00     0.018 A 
ATOM     12  C   UNL A   1      30.293  26.269  25.358  1.00  0.00     0.001 A 
BRANCH   8  13
ATOM     13  O   UNL A   1      30.064  28.819  22.046  1.00  0.00    -0.426 OA
BRANCH  13  14
ATOM     14  C   UNL A   1      29.055  29.771  22.103  1.00  0.00     0.308 C 
ATOM     15  C   UNL A   1      29.198  30.552  23.382  1.00  0.00     0.139 C 
ATOM     16  O   UNL A   1      28.169  29.939  21.267  1.00  0.00    -0.252 OA
ENDBRANCH  13  14
ENDBRANCH   8  13
ENDBRANCH   4   7
ENDBRANCH   2   3
ENDBRANCH   1   2
BRANCH   1  17
ATOM     17  C   UNL A   1      32.852  32.376  27.314  1.00  0.00     0.118 C 
BRANCH  17  18
ATOM     18  N   UNL A   1      32.620  33.775  27.666  1.00  0.00    -0.352 N 
ATOM     19  C   UNL A   1      33.198  34.627  28.583  1.00  0.00     0.251 C 
ATOM     20  H   UNL A   1      31.903  34.198  27.139  1.00  0.00     0.163 HD
ATOM     21  O   UNL A   1      32.698  35.741  28.735  1.00  0.00    -0.269 OA
BRANCH  19  22
ATOM     22  C   UNL A   1      34.354  34.218  29.418  1.00  0.00     0.039 A 
ATOM     23  C   UNL A   1      34.130  33.468  30.580  1.00  0.00     0.014 A 
ATOM     24  C   UNL A   1      35.658  34.568  29.088  1.00  0.00     0.014 A 
ATOM     25  C   UNL A   1      35.213  32.984  31.324  1.00  0.00     0.010 A 
ATOM     26  C   UNL A   1      36.730  33.964  29.733  1.00  0.00     0.010 A 
ATOM     27  C   UNL A   1      36.527  33.169  30.868  1.00  0.00    -0.014 A 
BRANCH  27  28
ATOM     28  C   UNL A   1      37.707  32.573  31.556  1.00  0.00     0.031 A 
ATOM     29  C   UNL A   1      38.466  31.441  30.905  1.00  0.00     0.074 A 
ATOM     30  C   UNL A   1      38.034  32.973  32.803  1.00  0.00     0.049 A 
ATOM     31  N   UNL A   1      39.408  30.680  31.399  1.00  0.00    -0.248 NA
ATOM     32  C   UNL A   1      38.070  31.083  29.532  1.00  0.00     0.031 C 
ATOM     33  C   UNL A   1      37.342  34.014  33.569  1.00  0.00     0.029 A 
ATOM     34  N   UNL A   1      39.021  32.543  33.656  1.00  0.00    -0.354 N 
ATOM     35  C   UNL A   1      39.685  29.733  30.417  1.00  0.00     0.074 A 
ATOM     36  C   UNL A   1      38.759  29.971  29.333  1.00  0.00     0.031 C 
ATOM     37  C   UNL A   1      37.947  34.164  34.758  1.00  0.00     0.029 A 
ATOM     38  C   UNL A   1      39.031  33.196  34.869  1.00  0.00     0.049 A 
ATOM     39  H   UNL A   1      39.662  31.833  33.422  1.00  0.00     0.167 HD
ATOM     40  C   UNL A   1      40.643  28.773  30.404  1.00  0.00     0.034 A 
ATOM     41  C   UNL A   1      39.816  33.025  35.952  1.00  0.00     0.034 A 
ATOM     42  C   UNL A   1      41.593  28.584  31.472  1.00  0.00     0.049 A 
ATOM     43  C   UNL A   1      40.891  31.967  35.906  1.00  0.00     0.074 A 
ATOM     44  C   UNL A   1      42.659  27.703  31.533  1.00  0.00     0.029 A 
ATOM     45  N   UNL A   1      41.597  29.294  32.667  1.00  0.00    -0.354 N 
ATOM     46  N   UNL A   1      41.175  31.119  34.945  1.00  0.00    -0.248 NA
ATOM     47  C   UNL A   1      41.759  31.854  37.086  1.00  0.00     0.031 C 
ATOM     48  C   UNL A   1      43.266  27.834  32.787  1.00  0.00     0.029 A 
ATOM     49  C   UNL A   1      42.628  28.851  33.479  1.00  0.00     0.049 A 
ATOM     50  H   UNL A   1      40.959  30.006  32.901  1.00  0.00     0.167 HD
ATOM     51  C   UNL A   1      42.274  30.392  35.394  1.00  0.00     0.074 A 
ATOM     52  C   UNL A   1      42.612  30.917  36.701  1.00  0.00     0.031 C 
ATOM     53  C   UNL A   1      42.947  29.384  34.782  1.00  0.00     0.034 A 
BRANCH  40  54
ATOM     54  C   UNL A   1      40.702  27.855  29.204  1.00  0.00     0.023 A 
ATOM     55  C   UNL A   1      41.649  28.035  28.181  1.00  0.00     0.031 A 
ATOM     56  C   UNL A   1      39.783  26.799  29.069  1.00  0.00     0.131 A 
ATOM     57  C   UNL A   1      41.603  27.229  27.032  1.00  0.00     0.055 A 
ATOM     58  C   UNL A   1      39.800  25.944  27.965  1.00  0.00     0.041 A 
ATOM     59  F   UNL A   1      38.842  26.587  30.003  1.00  0.00    -0.206 F 
ATOM     60  C   UNL A   1      40.703  26.167  26.929  1.00  0.00     0.022 A 
BRANCH  57  61
ATOM     61  S   UNL A   1      42.638  27.685  25.615  1.00  0.00     0.124 S 
ATOM     62  O   UNL A   1      42.564  26.476  24.797  1.00  0.00    -0.237 OA
ATOM     63  O   UNL A   1      41.951  28.857  25.085  1.00  0.00    -0.237 OA
ATOM     64  O   UNL A   1      43.945  27.944  26.215  1.00  0.00    -0.744 OA
ENDBRANCH  57  61
ENDBRANCH  40  54
BRANCH  41  65
ATOM     65  C   UNL A   1      39.623  33.863  37.172  1.00  0.00     0.023 A 
ATOM     66  C   UNL A   1      38.953  33.355  38.297  1.00  0.00     0.031 A 
ATOM     67  C   UNL A   1      40.064  35.198  37.218  1.00  0.00     0.131 A 
ATOM     68  C   UNL A   1      38.693  34.189  39.396  1.00  0.00     0.055 A 
ATOM     69  C   UNL A   1      39.855  36.006  38.336  1.00  0.00     0.041 A 
ATOM     70  F   UNL A   1      40.716  35.733  36.175  1.00  0.00    -0.206 F 
ATOM     71  C   UNL A   1      39.152  35.507  39.429  1.00  0.00     0.022 A 
BRANCH  68  72
ATOM     72  S   UNL A   1      37.661  33.553  40.745  1.00  0.00     0.124 S 
ATOM     73  O   UNL A   1      37.277  34.782  41.430  1.00  0.00    -0.237 OA
ATOM     74  O   UNL A   1      36.600  32.867  40.015  1.00  0.00    -0.237 OA
ATOM     75  O   UNL A   1      38.571  32.682  41.486  1.00  0.00    -0.744 OA
ENDBRANCH  68  72
ENDBRANCH  41  65
BRANCH  53  76
ATOM     76  C   UNL A   1      44.144  28.821  35.507  1.00  0.00     0.023 A 
ATOM     77  C   UNL A   1      44.030  27.738  36.394  1.00  0.00     0.031 A 
ATOM     78  C   UNL A   1      45.417  29.386  35.310  1.00  0.00     0.131 A 
ATOM     79  C   UNL A   1      45.158  27.290  37.097  1.00  0.00     0.055 A 
ATOM     80  C   UNL A   1      46.548  28.893  35.963  1.00  0.00     0.041 A 
ATOM     81  F   UNL A   1      45.584  30.423  34.474  1.00  0.00    -0.206 F 
ATOM     82  C   UNL A   1      46.419  27.848  36.872  1.00  0.00     0.022 A 
BRANCH  79  83
ATOM     83  S   UNL A   1      44.938  26.027  38.379  1.00  0.00     0.124 S 
ATOM     84  O   UNL A   1      43.971  26.664  39.269  1.00  0.00    -0.237 OA
ATOM     85  O   UNL A   1      44.446  24.886  37.615  1.00  0.00    -0.237 OA
ATOM     86  O   UNL A   1      46.280  25.866  38.937  1.00  0.00    -0.744 OA
ENDBRANCH  79  83
ENDBRANCH  53  76
ENDBRANCH  27  28
ENDBRANCH  19  22
ENDBRANCH  17  18
ENDBRANCH   1  17
TORSDOF 15
ENDMDL
MODEL 2
REMARK VINA RESULT:     -11.5      2.590      3.494
REMARK SMILES CC(=O)Oc1ccccc1C(=O)NCCCNC(=O)c1ccc(-c2c3nc(c(-c4cc(S(=O)(=O)[O-])ccc4F)c4ccc([nH]4)c(-c4cc(S(=O)(=O)[O-])ccc4F)c4nc(c(-c5cc(S(=O)(=O)[O-])ccc5F)c5ccc2[nH]5)C=C4)C=C3)cc1
REMARK SMILES IDX 15 1 14 2 13 3 11 4 12 5 10 7 5 8 6 9 7 10 9 11 8 12 4 13
REMARK SMILES IDX 2 14 1 15 3 16 16 17 17 18 18 19 19 21 20 22 21 23 82 24
REMARK SMILES IDX 22 25 81 26 23 27 24 28 25 29 75 30 26 31 80 32 74 33 76 34
REMARK SMILES IDX 27 35 79 36 73 37 72 38 28 40 60 41 40 42 59 43 41 44 44 45
REMARK SMILES IDX 58 46 77 47 42 48 43 49 57 51 78 52 45 53 29 54 30 55 38 56
REMARK SMILES IDX 31 57 37 58 39 59 36 60 32 61 33 62 34 63 35 64 61 65 62 66
REMARK SMILES IDX 70 67 63 68 69 69 71 70 68 71 64 72 65 73 66 74 67 75 46 76
REMARK SMILES IDX 47 77 55 78 48 79 54 80 56 81 53 82 49 83 50 84 51 85 52 86
REMARK H PARENT 13 6 17 20 76 39 44 50
REMARK Flexibility Score: inf
ROOT
ATOM      1  C   UNL A   1      33.018  29.305  25.076  1.00  0.00     0.042 C 
ENDROOT
BRANCH   1   2
ATOM      2  C   UNL A   1      33.578  27.901  25.125  1.00  0.00     0.118 C 
BRANCH   2   3
ATOM      3  N   UNL A   1      32.751  26.903  25.756  1.00  0.00    -0.352 N 
ATOM      4  C   UNL A   1      32.930  25.543  25.823  1.00  0.00     0.255 C 
ATOM      5  O   UNL A   1      32.124  24.898  26.496  1.00  0.00    -0.269 OA
ATOM      6  H   UNL A   1      31.944  27.245  26.203  1.00  0.00     0.163 HD
BRANCH   4   7
ATOM      7  C   UNL A   1      33.962  24.803  25.037  1.00  0.00     0.082 A 
ATOM      8  C   UNL A   1      33.942  24.457  23.678  1.00  0.00     0.143 A 
ATOM      9  C   UNL A   1      34.968  23.682  23.117  1.00  0.00     0.048 A 
ATOM     10  C   UNL A   1      36.054  23.279  23.892  1.00  0.00     0.004 A 
ATOM     11  C   UNL A   1      35.088  24.410  25.791  1.00  0.00     0.018 A 
ATOM     12  C   UNL A   1      36.120  23.654  25.228  1.00  0.00     0.001 A 
BRANCH   8  13
ATOM     13  O   UNL A   1      32.875  24.700  22.798  1.00  0.00    -0.426 OA
BRANCH  13  14
ATOM     14  C   UNL A   1      32.841  25.893  22.091  1.00  0.00     0.308 C 
ATOM     15  C   UNL A   1      31.409  26.330  21.946  1.00  0.00     0.139 C 
ATOM     16  O   UNL A   1      33.813  26.490  21.630  1.00  0.00    -0.252 OA
ENDBRANCH  13  14
ENDBRANCH   8  13
ENDBRANCH   4   7
ENDBRANCH   2   3
ENDBRANCH   1   2
BRANCH   1  17
ATOM     17  C   UNL A   1      32.104  29.673  26.237  1.00  0.00     0.118 C 
BRANCH  17  18
ATOM     18  N   UNL A   1      32.010  31.105  26.512  1.00  0.00    -0.352 N 
ATOM     19  C   UNL A   1      32.818  31.991  27.191  1.00  0.00     0.251 C 
ATOM     20  H   UNL A   1      31.203  31.524  26.133  1.00  0.00     0.163 HD
ATOM     21  O   UNL A   1      32.406  33.139  27.359  1.00  0.00    -0.269 OA
BRANCH  19  22
ATOM     22  C   UNL A   1      34.125  31.587  27.764  1.00  0.00     0.039 A 
ATOM     23  C   UNL A   1      35.099  32.564  28.008  1.00  0.00     0.014 A 
ATOM     24  C   UNL A   1      34.419  30.260  28.058  1.00  0.00     0.014 A 
ATOM     25  C   UNL A   1      36.297  32.219  28.644  1.00  0.00     0.010 A 
ATOM     26  C   UNL A   1      35.534  29.943  28.823  1.00  0.00     0.010 A 
ATOM     27  C   UNL A   1      36.498  30.914  29.122  1.00  0.00    -0.014 A 
BRANCH  27  28
ATOM     28  C   UNL A   1      37.701  30.524  29.910  1.00  0.00     0.031 A 
ATOM     29  C   UNL A   1      38.724  29.590  29.309  1.00  0.00     0.074 A 
ATOM     30  C   UNL A   1      37.823  30.919  31.195  1.00  0.00     0.049 A 
ATOM     31  N   UNL A   1      39.745  29.000  29.874  1.00  0.00    -0.248 NA
ATOM     32  C   UNL A   1      38.538  29.228  27.893  1.00  0.00     0.031 C 
ATOM     33  C   UNL A   1      36.872  31.771  31.915  1.00  0.00     0.029 A 
ATOM     34  N   UNL A   1      38.790  30.646  32.132  1.00  0.00    -0.354 N 
ATOM     35  C   UNL A   1      40.293  28.171  28.900  1.00  0.00     0.074 A 
ATOM     36  C   UNL A   1      39.445  28.279  27.734  1.00  0.00     0.031 C 
ATOM     37  C   UNL A   1      37.320  31.977  33.164  1.00  0.00     0.029 A 
ATOM     38  C   UNL A   1      38.557  31.230  33.357  1.00  0.00     0.049 A 
ATOM     39  H   UNL A   1      39.576  30.084  31.945  1.00  0.00     0.167 HD
ATOM     40  C   UNL A   1      41.417  27.414  28.958  1.00  0.00     0.034 A 
ATOM     41  C   UNL A   1      39.254  31.162  34.510  1.00  0.00     0.034 A 
ATOM     42  C   UNL A   1      42.280  27.360  30.112  1.00  0.00     0.049 A 
ATOM     43  C   UNL A   1      40.514  30.332  34.544  1.00  0.00     0.074 A 
ATOM     44  C   UNL A   1      43.487  26.697  30.256  1.00  0.00     0.029 A 
ATOM     45  N   UNL A   1      42.032  28.000  31.320  1.00  0.00    -0.354 N 
ATOM     46  N   UNL A   1      41.048  29.600  33.594  1.00  0.00    -0.248 NA
ATOM     47  C   UNL A   1      41.271  30.331  35.803  1.00  0.00     0.031 C 
ATOM     48  C   UNL A   1      43.935  26.883  31.569  1.00  0.00     0.029 A 
ATOM     49  C   UNL A   1      43.048  27.724  32.221  1.00  0.00     0.049 A 
ATOM     50  H   UNL A   1      41.248  28.565  31.508  1.00  0.00     0.167 HD
ATOM     51  C   UNL A   1      42.220  29.077  34.132  1.00  0.00     0.074 A 
ATOM     52  C   UNL A   1      42.324  29.594  35.481  1.00  0.00     0.031 C 
ATOM     53  C   UNL A   1      43.131  28.246  33.564  1.00  0.00     0.034 A 
BRANCH  40  54
ATOM     54  C   UNL A   1      41.767  26.583  27.745  1.00  0.00     0.023 A 
ATOM     55  C   UNL A   1      41.344  25.249  27.614  1.00  0.00     0.031 A 
ATOM     56  C   UNL A   1      42.557  27.123  26.715  1.00  0.00     0.131 A 
ATOM     57  C   UNL A   1      41.779  24.477  26.526  1.00  0.00     0.055 A 
ATOM     58  C   UNL A   1      42.912  26.377  25.588  1.00  0.00     0.041 A 
ATOM     59  F   UNL A   1      43.009  28.386  26.789  1.00  0.00    -0.206 F 
ATOM     60  C   UNL A   1      42.537  25.039  25.498  1.00  0.00     0.022 A 
BRANCH  57  61
ATOM     61  S   UNL A   1      41.461  22.692  26.551  1.00  0.00     0.124 S 
ATOM     62  O   UNL A   1      40.013  22.649  26.356  1.00  0.00    -0.237 OA
ATOM     63  O   UNL A   1      42.270  22.211  25.436  1.00  0.00    -0.237 OA
ATOM     64  O   UNL A   1      41.916  22.281  27.877  1.00  0.00    -0.744 OA
ENDBRANCH  57  61
ENDBRANCH  40  54
BRANCH  41  65
ATOM     65  C   UNL A   1      38.786  31.888  35.727  1.00  0.00     0.023 A 
ATOM     66  C   UNL A   1      38.149  31.204  36.775  1.00  0.00     0.031 A 
ATOM     67  C   UNL A   1      38.927  33.283  35.843  1.00  0.00     0.131 A 
ATOM     68  C   UNL A   1      37.628  31.918  37.866  1.00  0.00     0.055 A 
ATOM     69  C   UNL A   1      38.458  33.982  36.956  1.00  0.00     0.041 A 
ATOM     70  F   UNL A   1      39.534  33.986  34.875  1.00  0.00    -0.206 F 
ATOM     71  C   UNL A   1      37.790  33.300  37.970  1.00  0.00     0.022 A 
BRANCH  68  72
ATOM     72  S   UNL A   1      36.648  31.023  39.101  1.00  0.00     0.124 S 
ATOM     73  O   UNL A   1      37.528  31.064  40.265  1.00  0.00    -0.237 OA
ATOM     74  O   UNL A   1      35.442  31.840  39.180  1.00  0.00    -0.237 OA
ATOM     75  O   UNL A   1      36.467  29.703  38.501  1.00  0.00    -0.744 OA
ENDBRANCH  68  72
ENDBRANCH  41  65
BRANCH  53  76
ATOM     76  C   UNL A   1      44.341  27.889  34.391  1.00  0.00     0.023 A 
ATOM     77  C   UNL A   1      44.359  26.761  35.228  1.00  0.00     0.031 A 
ATOM     78  C   UNL A   1      45.491  28.699  34.345  1.00  0.00     0.131 A 
ATOM     79  C   UNL A   1      45.481  26.504  36.029  1.00  0.00     0.055 A 
ATOM     80  C   UNL A   1      46.629  28.401  35.096  1.00  0.00     0.041 A 
ATOM     81  F   UNL A   1      45.529  29.790  33.564  1.00  0.00    -0.206 F 
ATOM     82  C   UNL A   1      46.623  27.306  35.954  1.00  0.00     0.022 A 
BRANCH  79  83
ATOM     83  S   UNL A   1      45.393  25.159  37.242  1.00  0.00     0.124 S 
ATOM     84  O   UNL A   1      46.805  24.899  37.510  1.00  0.00    -0.237 OA
ATOM     85  O   UNL A   1      44.639  25.768  38.332  1.00  0.00    -0.237 OA
ATOM     86  O   UNL A   1      44.693  24.094  36.524  1.00  0.00    -0.744 OA
ENDBRANCH  79  83
ENDBRANCH  53  76
ENDBRANCH  27  28
ENDBRANCH  19  22
ENDBRANCH  17  18
ENDBRANCH   1  17
TORSDOF 15
ENDMDL
MODEL 3
REMARK VINA RESULT:     -11.4      6.319      9.384
REMARK SMILES CC(=O)Oc1ccccc1C(=O)NCCCNC(=O)c1ccc(-c2c3nc(c(-c4cc(S(=O)(=O)[O-])ccc4F)c4ccc([nH]4)c(-c4cc(S(=O)(=O)[O-])ccc4F)c4nc(c(-c5cc(S(=O)(=O)[O-])ccc5F)c5ccc2[nH]5)C=C4)C=C3)cc1
REMARK SMILES IDX 15 1 14 2 13 3 11 4 12 5 10 7 5 8 6 9 7 10 9 11 8 12 4 13
REMARK SMILES IDX 2 14 1 15 3 16 16 17 17 18 18 19 19 21 20 22 21 23 82 24
REMARK SMILES IDX 22 25 81 26 23 27 24 28 25 29 75 30 26 31 80 32 74 33 76 34
REMARK SMILES IDX 27 35 79 36 73 37 72 38 28 40 60 41 40 42 59 43 41 44 44 45
REMARK SMILES IDX 58 46 77 47 42 48 43 49 57 51 78 52 45 53 29 54 30 55 38 56
REMARK SMILES IDX 31 57 37 58 39 59 36 60 32 61 33 62 34 63 35 64 61 65 62 66
REMARK SMILES IDX 70 67 63 68 69 69 71 70 68 71 64 72 65 73 66 74 67 75 46 76
REMARK SMILES IDX 47 77 55 78 48 79 54 80 56 81 53 82 49 83 50 84 51 85 52 86
REMARK H PARENT 13 6 17 20 76 39 44 50
REMARK Flexibility Score: inf
ROOT
ATOM      1  C   UNL A   1      35.748  21.708  25.912  1.00  0.00     0.042 C 
ENDROOT
BRANCH   1   2
ATOM      2  C   UNL A   1      35.243  23.090  26.263  1.00  0.00     0.118 C 
BRANCH   2   3
ATOM      3  N   UNL A   1      33.965  23.156  26.926  1.00  0.00    -0.352 N 
ATOM      4  C   UNL A   1      32.741  22.701  26.499  1.00  0.00     0.255 C 
ATOM      5  O   UNL A   1      31.796  22.797  27.284  1.00  0.00    -0.269 OA
ATOM      6  H   UNL A   1      33.970  23.588  27.810  1.00  0.00     0.163 HD
BRANCH   4   7
ATOM      7  C   UNL A   1      32.475  22.216  25.112  1.00  0.00     0.082 A 
ATOM      8  C   UNL A   1      32.296  20.899  24.667  1.00  0.00     0.143 A 
ATOM      9  C   UNL A   1      32.134  20.614  23.303  1.00  0.00     0.048 A 
ATOM     10  C   UNL A   1      32.102  21.645  22.366  1.00  0.00     0.004 A 
ATOM     11  C   UNL A   1      32.406  23.243  24.146  1.00  0.00     0.018 A 
ATOM     12  C   UNL A   1      32.226  22.962  22.789  1.00  0.00     0.001 A 
BRANCH   8  13
ATOM     13  O   UNL A   1      32.405  19.753  25.471  1.00  0.00    -0.426 OA
BRANCH  13  14
ATOM     14  C   UNL A   1      33.200  18.700  25.043  1.00  0.00     0.308 C 
ATOM     15  C   UNL A   1      32.426  17.417  25.189  1.00  0.00     0.139 C 
ATOM     16  O   UNL A   1      34.357  18.785  24.634  1.00  0.00    -0.252 OA
ENDBRANCH  13  14
ENDBRANCH   8  13
ENDBRANCH   4   7
ENDBRANCH   2   3
ENDBRANCH   1   2
BRANCH   1  17
ATOM     17  C   UNL A   1      36.975  21.683  25.011  1.00  0.00     0.118 C 
BRANCH  17  18
ATOM     18  N   UNL A   1      38.035  20.775  25.445  1.00  0.00    -0.352 N 
ATOM     19  C   UNL A   1      39.245  20.969  26.075  1.00  0.00     0.251 C 
ATOM     20  H   UNL A   1      37.845  19.829  25.247  1.00  0.00     0.163 HD
ATOM     21  O   UNL A   1      39.993  20.000  26.206  1.00  0.00    -0.269 OA
BRANCH  19  22
ATOM     22  C   UNL A   1      39.686  22.307  26.539  1.00  0.00     0.039 A 
ATOM     23  C   UNL A   1      40.750  22.402  27.446  1.00  0.00     0.014 A 
ATOM     24  C   UNL A   1      39.067  23.475  26.109  1.00  0.00     0.014 A 
ATOM     25  C   UNL A   1      41.250  23.657  27.815  1.00  0.00     0.010 A 
ATOM     26  C   UNL A   1      39.655  24.710  26.352  1.00  0.00     0.010 A 
ATOM     27  C   UNL A   1      40.751  24.824  27.216  1.00  0.00    -0.014 A 
BRANCH  27  28
ATOM     28  C   UNL A   1      41.327  26.173  27.483  1.00  0.00     0.031 A 
ATOM     29  C   UNL A   1      42.699  26.522  26.960  1.00  0.00     0.074 A 
ATOM     30  C   UNL A   1      40.668  27.042  28.278  1.00  0.00     0.049 A 
ATOM     31  N   UNL A   1      43.445  27.565  27.215  1.00  0.00    -0.248 NA
ATOM     32  C   UNL A   1      43.341  25.535  26.075  1.00  0.00     0.031 C 
ATOM     33  C   UNL A   1      39.362  26.802  28.899  1.00  0.00     0.029 A 
ATOM     34  N   UNL A   1      41.011  28.298  28.715  1.00  0.00    -0.354 N 
ATOM     35  C   UNL A   1      44.652  27.340  26.559  1.00  0.00     0.074 A 
ATOM     36  C   UNL A   1      44.563  26.028  25.959  1.00  0.00     0.031 C 
ATOM     37  C   UNL A   1      39.001  27.886  29.604  1.00  0.00     0.029 A 
ATOM     38  C   UNL A   1      40.069  28.877  29.537  1.00  0.00     0.049 A 
ATOM     39  H   UNL A   1      41.852  28.744  28.465  1.00  0.00     0.167 HD
ATOM     40  C   UNL A   1      45.724  28.162  26.438  1.00  0.00     0.034 A 
ATOM     41  C   UNL A   1      40.071  30.065  30.176  1.00  0.00     0.034 A 
ATOM     42  C   UNL A   1      45.775  29.490  26.999  1.00  0.00     0.049 A 
ATOM     43  C   UNL A   1      41.264  30.973  30.008  1.00  0.00     0.074 A 
ATOM     44  C   UNL A   1      46.770  30.443  26.871  1.00  0.00     0.029 A 
ATOM     45  N   UNL A   1      44.782  30.056  27.790  1.00  0.00    -0.354 N 
ATOM     46  N   UNL A   1      42.373  30.766  29.336  1.00  0.00    -0.248 NA
ATOM     47  C   UNL A   1      41.200  32.280  30.675  1.00  0.00     0.031 C 
ATOM     48  C   UNL A   1      46.410  31.558  27.635  1.00  0.00     0.029 A 
ATOM     49  C   UNL A   1      45.156  31.333  28.178  1.00  0.00     0.049 A 
ATOM     50  H   UNL A   1      43.939  29.614  28.039  1.00  0.00     0.167 HD
ATOM     51  C   UNL A   1      43.123  31.930  29.475  1.00  0.00     0.074 A 
ATOM     52  C   UNL A   1      42.332  32.840  30.276  1.00  0.00     0.031 C 
ATOM     53  C   UNL A   1      44.354  32.224  28.983  1.00  0.00     0.034 A 
BRANCH  40  54
ATOM     54  C   UNL A   1      46.925  27.644  25.680  1.00  0.00     0.023 A 
ATOM     55  C   UNL A   1      47.177  28.016  24.348  1.00  0.00     0.031 A 
ATOM     56  C   UNL A   1      47.819  26.746  26.290  1.00  0.00     0.131 A 
ATOM     57  C   UNL A   1      48.241  27.430  23.645  1.00  0.00     0.055 A 
ATOM     58  C   UNL A   1      48.929  26.236  25.612  1.00  0.00     0.041 A 
ATOM     59  F   UNL A   1      47.624  26.338  27.554  1.00  0.00    -0.206 F 
ATOM     60  C   UNL A   1      49.135  26.564  24.275  1.00  0.00     0.022 A 
BRANCH  57  61
ATOM     61  S   UNL A   1      48.348  27.705  21.855  1.00  0.00     0.124 S 
ATOM     62  O   UNL A   1      47.024  28.252  21.563  1.00  0.00    -0.237 OA
ATOM     63  O   UNL A   1      49.463  28.639  21.745  1.00  0.00    -0.237 OA
ATOM     64  O   UNL A   1      48.595  26.369  21.318  1.00  0.00    -0.744 OA
ENDBRANCH  57  61
ENDBRANCH  40  54
BRANCH  41  65
ATOM     65  C   UNL A   1      38.919  30.471  31.033  1.00  0.00     0.023 A 
ATOM     66  C   UNL A   1      37.930  31.341  30.547  1.00  0.00     0.031 A 
ATOM     67  C   UNL A   1      38.810  30.033  32.365  1.00  0.00     0.131 A 
ATOM     68  C   UNL A   1      36.909  31.790  31.400  1.00  0.00     0.055 A 
ATOM     69  C   UNL A   1      37.761  30.436  33.192  1.00  0.00     0.041 A 
ATOM     70  F   UNL A   1      39.723  29.194  32.880  1.00  0.00    -0.206 F 
ATOM     71  C   UNL A   1      36.810  31.333  32.715  1.00  0.00     0.022 A 
BRANCH  68  72
ATOM     72  S   UNL A   1      35.764  33.059  30.791  1.00  0.00     0.124 S 
ATOM     73  O   UNL A   1      36.136  33.143  29.383  1.00  0.00    -0.237 OA
ATOM     74  O   UNL A   1      34.466  32.456  31.077  1.00  0.00    -0.237 OA
ATOM     75  O   UNL A   1      36.097  34.231  31.597  1.00  0.00    -0.744 OA
ENDBRANCH  68  72
ENDBRANCH  41  65
BRANCH  53  76
ATOM     76  C   UNL A   1      44.891  33.605  29.263  1.00  0.00     0.023 A 
ATOM     77  C   UNL A   1      44.712  34.666  28.360  1.00  0.00     0.031 A 
ATOM     78  C   UNL A   1      45.600  33.858  30.452  1.00  0.00     0.131 A 
ATOM     79  C   UNL A   1      45.286  35.917  28.630  1.00  0.00     0.055 A 
ATOM     80  C   UNL A   1      46.113  35.122  30.745  1.00  0.00     0.041 A 
ATOM     81  F   UNL A   1      45.802  32.881  31.349  1.00  0.00    -0.206 F 
ATOM     82  C   UNL A   1      45.968  36.157  29.826  1.00  0.00     0.022 A 
BRANCH  79  83
ATOM     83  S   UNL A   1      45.208  37.203  27.355  1.00  0.00     0.124 S 
ATOM     84  O   UNL A   1      46.058  36.644  26.308  1.00  0.00    -0.237 OA
ATOM     85  O   UNL A   1      43.782  37.260  27.054  1.00  0.00    -0.237 OA
ATOM     86  O   UNL A   1      45.747  38.386  28.025  1.00  0.00    -0.744 OA
ENDBRANCH  79  83
ENDBRANCH  53  76
ENDBRANCH  27  28
ENDBRANCH  19  22
ENDBRANCH  17  18
ENDBRANCH   1  17
TORSDOF 15
ENDMDL
