MODEL 1
REMARK VINA RESULT:     -13.5      0.000      0.000
REMARK SMILES O=C(NCCCNC(=O)c1ccc(-n2cc(CSc3nc4ccccc4c(=O)n3-c3ccccc3)nn2)cc1)c1ccc(-c2c3nc(c(-c4cc(S(=O)(=O)[O-])ccc4F)c4ccc([nH]4)c(-c4cc(S(=O)(=O)[O-])ccc4F)c4nc(c(-c5cc(S(=O)(=O)[O-])ccc5F)c5ccc2[nH]5)C=C4)C=C3)cc1
REMARK SMILES IDX 6 1 5 2 4 3 3 4 1 5 2 6 40 8 41 9 102 10 42 11 101 12 43 13
REMARK SMILES IDX 44 14 45 15 95 16 46 17 100 18 94 19 96 20 47 21 99 22 93 23
REMARK SMILES IDX 92 24 48 26 80 27 60 28 79 29 61 30 64 31 78 32 97 33 62 34
REMARK SMILES IDX 63 35 77 37 98 38 65 39 49 40 50 41 58 42 51 43 57 44 59 45
REMARK SMILES IDX 56 46 52 47 53 48 54 49 55 50 81 51 82 52 90 53 83 54 89 55
REMARK SMILES IDX 91 56 88 57 84 58 85 59 86 60 87 61 66 62 67 63 75 64 68 65
REMARK SMILES IDX 74 66 76 67 73 68 69 69 70 70 71 71 72 72 7 73 8 74 9 76
REMARK SMILES IDX 10 77 11 78 39 79 12 80 38 81 13 82 14 83 15 84 37 85 16 86
REMARK SMILES IDX 36 87 17 88 18 89 19 90 20 91 29 92 21 93 27 94 22 95 26 96
REMARK SMILES IDX 28 97 23 98 25 99 24 100 30 101 31 102 35 103 32 104 34 105
REMARK SMILES IDX 33 106
REMARK H PARENT 3 7 96 25 64 36 7 75
REMARK Flexibility Score: inf
ROOT
ATOM      1  C   UNL A   1      33.792  23.339  22.661  1.00  0.00     0.118 C 
ENDROOT
BRANCH   1   2
ATOM      2  C   UNL A   1      34.319  22.455  23.787  1.00  0.00     0.042 C 
BRANCH   2   3
ATOM      3  C   UNL A   1      35.764  22.729  24.205  1.00  0.00     0.118 C 
BRANCH   3   4
ATOM      4  N   UNL A   1      36.605  21.555  24.341  1.00  0.00    -0.352 N 
ATOM      5  O   UNL A   1      38.027  20.030  25.039  1.00  0.00    -0.269 OA
ATOM      6  C   UNL A   1      37.702  21.221  25.088  1.00  0.00     0.251 C 
ATOM      7  H   UNL A   1      36.316  20.820  23.753  1.00  0.00     0.163 HD
BRANCH   6   8
ATOM      8  C   UNL A   1      38.531  22.160  25.896  1.00  0.00     0.039 A 
ATOM      9  C   UNL A   1      38.280  23.517  26.087  1.00  0.00     0.014 A 
ATOM     10  C   UNL A   1      39.686  21.609  26.487  1.00  0.00     0.014 A 
ATOM     11  C   UNL A   1      39.186  24.316  26.791  1.00  0.00     0.010 A 
ATOM     12  C   UNL A   1      40.584  22.396  27.208  1.00  0.00     0.010 A 
ATOM     13  C   UNL A   1      40.346  23.762  27.340  1.00  0.00    -0.014 A 
BRANCH  13  14
ATOM     14  C   UNL A   1      41.201  24.615  28.172  1.00  0.00     0.031 A 
ATOM     15  C   UNL A   1      40.675  25.984  28.448  1.00  0.00     0.074 A 
ATOM     16  C   UNL A   1      42.306  24.196  28.826  1.00  0.00     0.049 A 
ATOM     17  N   UNL A   1      41.224  27.128  28.193  1.00  0.00    -0.248 NA
ATOM     18  C   UNL A   1      39.326  26.088  29.021  1.00  0.00     0.031 C 
ATOM     19  C   UNL A   1      42.804  22.825  28.942  1.00  0.00     0.029 A 
ATOM     20  N   UNL A   1      43.156  24.909  29.627  1.00  0.00    -0.354 N 
ATOM     21  C   UNL A   1      40.389  28.096  28.751  1.00  0.00     0.074 A 
ATOM     22  C   UNL A   1      39.179  27.410  29.115  1.00  0.00     0.031 C 
ATOM     23  C   UNL A   1      43.728  22.773  29.928  1.00  0.00     0.029 A 
ATOM     24  C   UNL A   1      43.975  24.118  30.423  1.00  0.00     0.049 A 
ATOM     25  H   UNL A   1      43.185  25.893  29.637  1.00  0.00     0.167 HD
ATOM     26  C   UNL A   1      40.833  29.355  29.035  1.00  0.00     0.034 A 
ATOM     27  C   UNL A   1      44.756  24.516  31.462  1.00  0.00     0.034 A 
ATOM     28  C   UNL A   1      42.030  29.668  28.288  1.00  0.00     0.049 A 
ATOM     29  C   UNL A   1      45.026  25.962  31.298  1.00  0.00     0.074 A 
ATOM     30  C   UNL A   1      42.357  29.696  26.944  1.00  0.00     0.029 A 
ATOM     31  N   UNL A   1      43.236  29.721  28.949  1.00  0.00    -0.354 N 
ATOM     32  N   UNL A   1      45.739  26.461  30.326  1.00  0.00    -0.248 NA
ATOM     33  C   UNL A   1      44.171  26.916  31.989  1.00  0.00     0.031 C 
ATOM     34  C   UNL A   1      43.707  29.243  26.881  1.00  0.00     0.029 A 
ATOM     35  C   UNL A   1      44.137  29.017  28.190  1.00  0.00     0.049 A 
ATOM     36  H   UNL A   1      43.418  30.175  29.804  1.00  0.00     0.167 HD
ATOM     37  C   UNL A   1      45.124  27.660  30.008  1.00  0.00     0.074 A 
ATOM     38  C   UNL A   1      44.247  27.944  31.140  1.00  0.00     0.031 C 
ATOM     39  C   UNL A   1      45.172  28.167  28.741  1.00  0.00     0.034 A 
BRANCH  26  40
ATOM     40  C   UNL A   1      40.390  30.185  30.230  1.00  0.00     0.023 A 
ATOM     41  C   UNL A   1      39.938  31.495  29.966  1.00  0.00     0.031 A 
ATOM     42  C   UNL A   1      40.662  29.902  31.586  1.00  0.00     0.131 A 
ATOM     43  C   UNL A   1      39.929  32.479  30.969  1.00  0.00     0.055 A 
ATOM     44  C   UNL A   1      40.571  30.866  32.599  1.00  0.00     0.041 A 
ATOM     45  F   UNL A   1      41.108  28.714  32.007  1.00  0.00    -0.206 F 
ATOM     46  C   UNL A   1      40.248  32.175  32.287  1.00  0.00     0.022 A 
BRANCH  43  47
ATOM     47  S   UNL A   1      39.721  34.208  30.466  1.00  0.00     0.124 S 
ATOM     48  O   UNL A   1      40.969  34.452  29.749  1.00  0.00    -0.237 OA
ATOM     49  O   UNL A   1      38.513  34.138  29.652  1.00  0.00    -0.237 OA
ATOM     50  O   UNL A   1      39.581  34.916  31.735  1.00  0.00    -0.744 OA
ENDBRANCH  43  47
ENDBRANCH  26  40
BRANCH  27  51
ATOM     51  C   UNL A   1      45.041  23.761  32.712  1.00  0.00     0.023 A 
ATOM     52  C   UNL A   1      46.216  23.947  33.469  1.00  0.00     0.031 A 
ATOM     53  C   UNL A   1      44.019  22.986  33.307  1.00  0.00     0.131 A 
ATOM     54  C   UNL A   1      46.336  23.357  34.750  1.00  0.00     0.055 A 
ATOM     55  C   UNL A   1      44.149  22.395  34.565  1.00  0.00     0.041 A 
ATOM     56  F   UNL A   1      42.821  22.844  32.718  1.00  0.00    -0.206 F 
ATOM     57  C   UNL A   1      45.308  22.584  35.296  1.00  0.00     0.022 A 
BRANCH  54  58
ATOM     58  S   UNL A   1      47.807  23.674  35.777  1.00  0.00     0.124 S 
ATOM     59  O   UNL A   1      47.250  24.431  36.893  1.00  0.00    -0.237 OA
ATOM     60  O   UNL A   1      48.278  22.327  36.077  1.00  0.00    -0.237 OA
ATOM     61  O   UNL A   1      48.682  24.443  34.890  1.00  0.00    -0.744 OA
ENDBRANCH  54  58
ENDBRANCH  27  51
BRANCH  39  62
ATOM     62  C   UNL A   1      46.195  27.616  27.772  1.00  0.00     0.023 A 
ATOM     63  C   UNL A   1      45.993  26.486  26.950  1.00  0.00     0.031 A 
ATOM     64  C   UNL A   1      47.378  28.354  27.588  1.00  0.00     0.131 A 
ATOM     65  C   UNL A   1      46.965  26.124  25.998  1.00  0.00     0.055 A 
ATOM     66  C   UNL A   1      48.331  28.005  26.631  1.00  0.00     0.041 A 
ATOM     67  F   UNL A   1      47.613  29.460  28.316  1.00  0.00    -0.206 F 
ATOM     68  C   UNL A   1      48.130  26.882  25.836  1.00  0.00     0.022 A 
BRANCH  65  69
ATOM     69  S   UNL A   1      46.731  24.653  24.950  1.00  0.00     0.124 S 
ATOM     70  O   UNL A   1      47.671  24.857  23.855  1.00  0.00    -0.237 OA
ATOM     71  O   UNL A   1      47.044  23.557  25.866  1.00  0.00    -0.237 OA
ATOM     72  O   UNL A   1      45.322  24.730  24.563  1.00  0.00    -0.744 OA
ENDBRANCH  65  69
ENDBRANCH  39  62
ENDBRANCH  13  14
ENDBRANCH   6   8
ENDBRANCH   3   4
ENDBRANCH   2   3
ENDBRANCH   1   2
BRANCH   1  73
ATOM     73  N   UNL A   1      32.338  23.435  22.631  1.00  0.00    -0.352 N 
ATOM     74  C   UNL A   1      31.499  24.323  23.251  1.00  0.00     0.251 C 
ATOM     75  H   UNL A   1      31.889  22.754  22.079  1.00  0.00     0.163 HD
ATOM     76  O   UNL A   1      30.280  24.192  23.162  1.00  0.00    -0.269 OA
BRANCH  74  77
ATOM     77  C   UNL A   1      32.049  25.430  24.057  1.00  0.00     0.039 A 
ATOM     78  C   UNL A   1      32.528  26.568  23.398  1.00  0.00     0.016 A 
ATOM     79  C   UNL A   1      32.128  25.334  25.448  1.00  0.00     0.016 A 
ATOM     80  C   UNL A   1      33.011  27.654  24.133  1.00  0.00     0.029 A 
ATOM     81  C   UNL A   1      32.637  26.404  26.185  1.00  0.00     0.029 A 
ATOM     82  C   UNL A   1      33.073  27.568  25.528  1.00  0.00     0.066 A 
BRANCH  82  83
ATOM     83  N   UNL A   1      33.612  28.638  26.278  1.00  0.00    -0.220 N 
ATOM     84  C   UNL A   1      32.958  29.781  26.654  1.00  0.00     0.141 A 
ATOM     85  N   UNL A   1      34.883  28.680  26.743  1.00  0.00    -0.062 NA
ATOM     86  C   UNL A   1      33.885  30.545  27.320  1.00  0.00     0.093 A 
ATOM     87  N   UNL A   1      35.074  29.864  27.324  1.00  0.00    -0.134 NA
BRANCH  86  88
ATOM     88  C   UNL A   1      33.762  31.952  27.759  1.00  0.00     0.138 C 
BRANCH  88  89
ATOM     89  S   UNL A   1      35.177  32.934  28.273  1.00  0.00    -0.081 SA
BRANCH  89  90
ATOM     90  C   UNL A   1      34.979  33.549  29.892  1.00  0.00     0.176 A 
ATOM     91  N   UNL A   1      34.118  34.524  29.928  1.00  0.00    -0.223 NA
ATOM     92  N   UNL A   1      35.599  33.063  31.041  1.00  0.00    -0.255 N 
ATOM     93  C   UNL A   1      33.871  35.162  31.144  1.00  0.00     0.079 A 
ATOM     94  C   UNL A   1      35.829  34.041  32.023  1.00  0.00     0.266 A 
ATOM     95  C   UNL A   1      32.756  35.986  31.308  1.00  0.00     0.029 A 
ATOM     96  C   UNL A   1      34.778  35.054  32.185  1.00  0.00     0.066 A 
ATOM     97  O   UNL A   1      36.821  34.140  32.744  1.00  0.00    -0.268 OA
ATOM     98  C   UNL A   1      32.590  36.726  32.485  1.00  0.00     0.002 A 
ATOM     99  C   UNL A   1      34.653  35.821  33.348  1.00  0.00     0.016 A 
ATOM    100  C   UNL A   1      33.554  36.665  33.493  1.00  0.00     0.001 A 
BRANCH  92 101
ATOM    101  C   UNL A   1      36.062  31.706  31.300  1.00  0.00     0.051 A 
ATOM    102  C   UNL A   1      36.444  31.320  32.603  1.00  0.00     0.027 A 
ATOM    103  C   UNL A   1      36.139  30.690  30.336  1.00  0.00     0.027 A 
ATOM    104  C   UNL A   1      37.066  30.097  32.878  1.00  0.00     0.002 A 
ATOM    105  C   UNL A   1      36.803  29.479  30.589  1.00  0.00     0.002 A 
ATOM    106  C   UNL A   1      37.299  29.197  31.853  1.00  0.00     0.000 A 
ENDBRANCH  92 101
ENDBRANCH  89  90
ENDBRANCH  88  89
ENDBRANCH  86  88
ENDBRANCH  82  83
ENDBRANCH  74  77
ENDBRANCH   1  73
TORSDOF 18
ENDMDL
MODEL 2
REMARK VINA RESULT:     -12.9      4.272     12.375
REMARK SMILES O=C(NCCCNC(=O)c1ccc(-n2cc(CSc3nc4ccccc4c(=O)n3-c3ccccc3)nn2)cc1)c1ccc(-c2c3nc(c(-c4cc(S(=O)(=O)[O-])ccc4F)c4ccc([nH]4)c(-c4cc(S(=O)(=O)[O-])ccc4F)c4nc(c(-c5cc(S(=O)(=O)[O-])ccc5F)c5ccc2[nH]5)C=C4)C=C3)cc1
REMARK SMILES IDX 6 1 5 2 4 3 3 4 1 5 2 6 40 8 41 9 102 10 42 11 101 12 43 13
REMARK SMILES IDX 44 14 45 15 95 16 46 17 100 18 94 19 96 20 47 21 99 22 93 23
REMARK SMILES IDX 92 24 48 26 80 27 60 28 79 29 61 30 64 31 78 32 97 33 62 34
REMARK SMILES IDX 63 35 77 37 98 38 65 39 49 40 50 41 58 42 51 43 57 44 59 45
REMARK SMILES IDX 56 46 52 47 53 48 54 49 55 50 81 51 82 52 90 53 83 54 89 55
REMARK SMILES IDX 91 56 88 57 84 58 85 59 86 60 87 61 66 62 67 63 75 64 68 65
REMARK SMILES IDX 74 66 76 67 73 68 69 69 70 70 71 71 72 72 7 73 8 74 9 76
REMARK SMILES IDX 10 77 11 78 39 79 12 80 38 81 13 82 14 83 15 84 37 85 16 86
REMARK SMILES IDX 36 87 17 88 18 89 19 90 20 91 29 92 21 93 27 94 22 95 26 96
REMARK SMILES IDX 28 97 23 98 25 99 24 100 30 101 31 102 35 103 32 104 34 105
REMARK SMILES IDX 33 106
REMARK H PARENT 3 7 96 25 64 36 7 75
REMARK Flexibility Score: inf
ROOT
ATOM      1  C   UNL A   1      43.534  25.355  25.270  1.00  0.00     0.118 C 
ENDROOT
BRANCH   1   2
ATOM      2  C   UNL A   1      43.832  23.869  25.447  1.00  0.00     0.042 C 
BRANCH   2   3
ATOM      3  C   UNL A   1      42.756  22.924  24.913  1.00  0.00     0.118 C 
BRANCH   3   4
ATOM      4  N   UNL A   1      41.882  22.345  25.915  1.00  0.00    -0.352 N 
ATOM      5  O   UNL A   1      40.369  22.008  27.475  1.00  0.00    -0.269 OA
ATOM      6  C   UNL A   1      41.128  22.829  26.949  1.00  0.00     0.251 C 
ATOM      7  H   UNL A   1      41.818  21.367  25.832  1.00  0.00     0.163 HD
BRANCH   6   8
ATOM      8  C   UNL A   1      41.178  24.214  27.499  1.00  0.00     0.039 A 
ATOM      9  C   UNL A   1      42.082  24.685  28.450  1.00  0.00     0.014 A 
ATOM     10  C   UNL A   1      40.195  25.104  27.020  1.00  0.00     0.014 A 
ATOM     11  C   UNL A   1      41.969  25.983  28.957  1.00  0.00     0.010 A 
ATOM     12  C   UNL A   1      40.090  26.406  27.508  1.00  0.00     0.010 A 
ATOM     13  C   UNL A   1      40.965  26.841  28.499  1.00  0.00    -0.014 A 
BRANCH  13  14
ATOM     14  C   UNL A   1      40.964  28.229  28.973  1.00  0.00     0.031 A 
ATOM     15  C   UNL A   1      42.049  29.098  28.430  1.00  0.00     0.074 A 
ATOM     16  C   UNL A   1      39.977  28.796  29.699  1.00  0.00     0.049 A 
ATOM     17  N   UNL A   1      42.949  29.766  29.077  1.00  0.00    -0.248 NA
ATOM     18  C   UNL A   1      42.191  29.172  26.969  1.00  0.00     0.031 C 
ATOM     19  C   UNL A   1      38.686  28.207  30.056  1.00  0.00     0.029 A 
ATOM     20  N   UNL A   1      39.882  30.075  30.174  1.00  0.00    -0.354 N 
ATOM     21  C   UNL A   1      43.648  30.507  28.123  1.00  0.00     0.074 A 
ATOM     22  C   UNL A   1      43.234  29.993  26.845  1.00  0.00     0.031 C 
ATOM     23  C   UNL A   1      37.861  29.183  30.496  1.00  0.00     0.029 A 
ATOM     24  C   UNL A   1      38.599  30.435  30.569  1.00  0.00     0.049 A 
ATOM     25  H   UNL A   1      40.652  30.685  30.233  1.00  0.00     0.167 HD
ATOM     26  C   UNL A   1      44.377  31.610  28.458  1.00  0.00     0.034 A 
ATOM     27  C   UNL A   1      38.143  31.679  30.873  1.00  0.00     0.034 A 
ATOM     28  C   UNL A   1      44.703  31.613  29.867  1.00  0.00     0.049 A 
ATOM     29  C   UNL A   1      39.311  32.512  31.240  1.00  0.00     0.074 A 
ATOM     30  C   UNL A   1      45.360  30.739  30.713  1.00  0.00     0.029 A 
ATOM     31  N   UNL A   1      44.060  32.500  30.700  1.00  0.00    -0.354 N 
ATOM     32  N   UNL A   1      40.038  32.313  32.305  1.00  0.00    -0.248 NA
ATOM     33  C   UNL A   1      39.931  33.336  30.214  1.00  0.00     0.031 C 
ATOM     34  C   UNL A   1      44.665  30.831  31.954  1.00  0.00     0.029 A 
ATOM     35  C   UNL A   1      43.663  31.791  31.805  1.00  0.00     0.049 A 
ATOM     36  H   UNL A   1      43.911  33.460  30.535  1.00  0.00     0.167 HD
ATOM     37  C   UNL A   1      41.333  32.614  31.917  1.00  0.00     0.074 A 
ATOM     38  C   UNL A   1      41.187  33.353  30.665  1.00  0.00     0.031 C 
ATOM     39  C   UNL A   1      42.407  32.000  32.495  1.00  0.00     0.034 A 
BRANCH  26  40
ATOM     40  C   UNL A   1      44.515  32.857  27.599  1.00  0.00     0.023 A 
ATOM     41  C   UNL A   1      43.843  34.017  28.040  1.00  0.00     0.031 A 
ATOM     42  C   UNL A   1      44.985  32.903  26.268  1.00  0.00     0.131 A 
ATOM     43  C   UNL A   1      43.528  35.059  27.153  1.00  0.00     0.055 A 
ATOM     44  C   UNL A   1      44.740  33.983  25.410  1.00  0.00     0.041 A 
ATOM     45  F   UNL A   1      45.632  31.886  25.690  1.00  0.00    -0.206 F 
ATOM     46  C   UNL A   1      43.968  35.049  25.835  1.00  0.00     0.022 A 
BRANCH  43  47
ATOM     47  S   UNL A   1      42.333  36.309  27.696  1.00  0.00     0.124 S 
ATOM     48  O   UNL A   1      42.635  37.411  26.788  1.00  0.00    -0.237 OA
ATOM     49  O   UNL A   1      41.064  35.623  27.479  1.00  0.00    -0.237 OA
ATOM     50  O   UNL A   1      42.691  36.535  29.094  1.00  0.00    -0.744 OA
ENDBRANCH  43  47
ENDBRANCH  26  40
BRANCH  27  51
ATOM     51  C   UNL A   1      36.790  32.233  30.597  1.00  0.00     0.023 A 
ATOM     52  C   UNL A   1      36.007  32.872  31.580  1.00  0.00     0.031 A 
ATOM     53  C   UNL A   1      36.338  32.334  29.261  1.00  0.00     0.131 A 
ATOM     54  C   UNL A   1      34.825  33.558  31.212  1.00  0.00     0.055 A 
ATOM     55  C   UNL A   1      35.164  33.000  28.906  1.00  0.00     0.041 A 
ATOM     56  F   UNL A   1      37.069  31.858  28.241  1.00  0.00    -0.206 F 
ATOM     57  C   UNL A   1      34.405  33.622  29.881  1.00  0.00     0.022 A 
BRANCH  54  58
ATOM     58  S   UNL A   1      33.863  34.472  32.459  1.00  0.00     0.124 S 
ATOM     59  O   UNL A   1      33.419  33.407  33.351  1.00  0.00    -0.237 OA
ATOM     60  O   UNL A   1      34.848  35.402  32.998  1.00  0.00    -0.237 OA
ATOM     61  O   UNL A   1      32.797  35.099  31.674  1.00  0.00    -0.744 OA
ENDBRANCH  54  58
ENDBRANCH  27  51
BRANCH  39  62
ATOM     62  C   UNL A   1      42.211  31.265  33.803  1.00  0.00     0.023 A 
ATOM     63  C   UNL A   1      42.135  29.860  33.930  1.00  0.00     0.031 A 
ATOM     64  C   UNL A   1      42.231  32.027  34.985  1.00  0.00     0.131 A 
ATOM     65  C   UNL A   1      42.069  29.271  35.207  1.00  0.00     0.055 A 
ATOM     66  C   UNL A   1      42.184  31.440  36.249  1.00  0.00     0.041 A 
ATOM     67  F   UNL A   1      42.336  33.366  34.932  1.00  0.00    -0.206 F 
ATOM     68  C   UNL A   1      42.096  30.056  36.364  1.00  0.00     0.022 A 
BRANCH  65  69
ATOM     69  S   UNL A   1      41.943  27.463  35.384  1.00  0.00     0.124 S 
ATOM     70  O   UNL A   1      41.733  27.271  36.815  1.00  0.00    -0.237 OA
ATOM     71  O   UNL A   1      40.809  27.136  34.522  1.00  0.00    -0.237 OA
ATOM     72  O   UNL A   1      43.233  26.980  34.890  1.00  0.00    -0.744 OA
ENDBRANCH  65  69
ENDBRANCH  39  62
ENDBRANCH  13  14
ENDBRANCH   6   8
ENDBRANCH   3   4
ENDBRANCH   2   3
ENDBRANCH   1   2
BRANCH   1  73
ATOM     73  N   UNL A   1      44.689  26.131  24.837  1.00  0.00    -0.352 N 
ATOM     74  C   UNL A   1      45.740  26.629  25.562  1.00  0.00     0.251 C 
ATOM     75  H   UNL A   1      44.719  26.327  23.873  1.00  0.00     0.163 HD
ATOM     76  O   UNL A   1      46.590  27.333  25.020  1.00  0.00    -0.269 OA
BRANCH  74  77
ATOM     77  C   UNL A   1      45.847  26.351  27.008  1.00  0.00     0.039 A 
ATOM     78  C   UNL A   1      45.436  27.335  27.913  1.00  0.00     0.016 A 
ATOM     79  C   UNL A   1      46.382  25.146  27.469  1.00  0.00     0.016 A 
ATOM     80  C   UNL A   1      45.479  27.087  29.287  1.00  0.00     0.029 A 
ATOM     81  C   UNL A   1      46.454  24.905  28.841  1.00  0.00     0.029 A 
ATOM     82  C   UNL A   1      45.996  25.873  29.752  1.00  0.00     0.066 A 
BRANCH  82  83
ATOM     83  N   UNL A   1      46.095  25.633  31.142  1.00  0.00    -0.220 N 
ATOM     84  C   UNL A   1      47.163  25.928  31.946  1.00  0.00     0.141 A 
ATOM     85  N   UNL A   1      45.119  25.066  31.889  1.00  0.00    -0.062 NA
ATOM     86  C   UNL A   1      46.828  25.476  33.199  1.00  0.00     0.093 A 
ATOM     87  N   UNL A   1      45.582  24.911  33.129  1.00  0.00    -0.134 NA
BRANCH  86  88
ATOM     88  C   UNL A   1      47.697  25.363  34.390  1.00  0.00     0.138 C 
BRANCH  88  89
ATOM     89  S   UNL A   1      47.634  23.956  35.507  1.00  0.00    -0.081 SA
BRANCH  89  90
ATOM     90  C   UNL A   1      48.757  22.709  35.036  1.00  0.00     0.176 A 
ATOM     91  N   UNL A   1      49.966  23.178  34.923  1.00  0.00    -0.223 NA
ATOM     92  N   UNL A   1      48.463  21.362  34.842  1.00  0.00    -0.255 N 
ATOM     93  C   UNL A   1      50.987  22.321  34.510  1.00  0.00     0.079 A 
ATOM     94  C   UNL A   1      49.271  20.732  33.881  1.00  0.00     0.266 A 
ATOM     95  C   UNL A   1      52.328  22.675  34.667  1.00  0.00     0.029 A 
ATOM     96  C   UNL A   1      50.682  21.137  33.859  1.00  0.00     0.066 A 
ATOM     97  O   UNL A   1      48.914  19.893  33.055  1.00  0.00    -0.268 OA
ATOM     98  C   UNL A   1      53.340  21.870  34.129  1.00  0.00     0.002 A 
ATOM     99  C   UNL A   1      51.677  20.346  33.275  1.00  0.00     0.016 A 
ATOM    100  C   UNL A   1      53.013  20.721  33.408  1.00  0.00     0.001 A 
BRANCH  92 101
ATOM    101  C   UNL A   1      47.408  20.579  35.474  1.00  0.00     0.051 A 
ATOM    102  C   UNL A   1      47.478  20.270  36.850  1.00  0.00     0.027 A 
ATOM    103  C   UNL A   1      46.263  20.105  34.819  1.00  0.00     0.027 A 
ATOM    104  C   UNL A   1      46.599  19.374  37.470  1.00  0.00     0.002 A 
ATOM    105  C   UNL A   1      45.403  19.170  35.416  1.00  0.00     0.002 A 
ATOM    106  C   UNL A   1      45.592  18.777  36.732  1.00  0.00     0.000 A 
ENDBRANCH  92 101
ENDBRANCH  89  90
ENDBRANCH  88  89
ENDBRANCH  86  88
ENDBRANCH  82  83
ENDBRANCH  74  77
ENDBRANCH   1  73
TORSDOF 18
ENDMDL
MODEL 3
REMARK VINA RESULT:     -12.7      3.547      9.903
REMARK SMILES O=C(NCCCNC(=O)c1ccc(-n2cc(CSc3nc4ccccc4c(=O)n3-c3ccccc3)nn2)cc1)c1ccc(-c2c3nc(c(-c4cc(S(=O)(=O)[O-])ccc4F)c4ccc([nH]4)c(-c4cc(S(=O)(=O)[O-])ccc4F)c4nc(c(-c5cc(S(=O)(=O)[O-])ccc5F)c5ccc2[nH]5)C=C4)C=C3)cc1
REMARK SMILES IDX 6 1 5 2 4 3 3 4 1 5 2 6 40 8 41 9 102 10 42 11 101 12 43 13
REMARK SMILES IDX 44 14 45 15 95 16 46 17 100 18 94 19 96 20 47 21 99 22 93 23
REMARK SMILES IDX 92 24 48 26 80 27 60 28 79 29 61 30 64 31 78 32 97 33 62 34
REMARK SMILES IDX 63 35 77 37 98 38 65 39 49 40 50 41 58 42 51 43 57 44 59 45
REMARK SMILES IDX 56 46 52 47 53 48 54 49 55 50 81 51 82 52 90 53 83 54 89 55
REMARK SMILES IDX 91 56 88 57 84 58 85 59 86 60 87 61 66 62 67 63 75 64 68 65
REMARK SMILES IDX 74 66 76 67 73 68 69 69 70 70 71 71 72 72 7 73 8 74 9 76
REMARK SMILES IDX 10 77 11 78 39 79 12 80 38 81 13 82 14 83 15 84 37 85 16 86
REMARK SMILES IDX 36 87 17 88 18 89 19 90 20 91 29 92 21 93 27 94 22 95 26 96
REMARK SMILES IDX 28 97 23 98 25 99 24 100 30 101 31 102 35 103 32 104 34 105
REMARK SMILES IDX 33 106
REMARK H PARENT 3 7 96 25 64 36 7 75
REMARK Flexibility Score: inf
ROOT
ATOM      1  C   UNL A   1      33.126  32.734  27.622  1.00  0.00     0.118 C 
ENDROOT
BRANCH   1   2
ATOM      2  C   UNL A   1      32.924  34.189  28.035  1.00  0.00     0.042 C 
BRANCH   2   3
ATOM      3  C   UNL A   1      33.964  34.738  29.011  1.00  0.00     0.118 C 
BRANCH   3   4
ATOM      4  N   UNL A   1      33.653  34.560  30.416  1.00  0.00    -0.352 N 
ATOM      5  O   UNL A   1      33.746  34.209  32.585  1.00  0.00    -0.269 OA
ATOM      6  C   UNL A   1      34.282  33.998  31.493  1.00  0.00     0.251 C 
ATOM      7  H   UNL A   1      32.774  34.935  30.652  1.00  0.00     0.163 HD
BRANCH   6   8
ATOM      8  C   UNL A   1      35.503  33.142  31.446  1.00  0.00     0.039 A 
ATOM      9  C   UNL A   1      35.530  31.750  31.507  1.00  0.00     0.014 A 
ATOM     10  C   UNL A   1      36.732  33.827  31.362  1.00  0.00     0.014 A 
ATOM     11  C   UNL A   1      36.747  31.064  31.548  1.00  0.00     0.010 A 
ATOM     12  C   UNL A   1      37.949  33.147  31.383  1.00  0.00     0.010 A 
ATOM     13  C   UNL A   1      37.959  31.759  31.501  1.00  0.00    -0.014 A 
BRANCH  13  14
ATOM     14  C   UNL A   1      39.204  30.989  31.425  1.00  0.00     0.031 A 
ATOM     15  C   UNL A   1      39.909  30.771  32.722  1.00  0.00     0.074 A 
ATOM     16  C   UNL A   1      39.642  30.337  30.327  1.00  0.00     0.049 A 
ATOM     17  N   UNL A   1      41.119  31.093  33.049  1.00  0.00    -0.248 NA
ATOM     18  C   UNL A   1      39.137  30.176  33.822  1.00  0.00     0.031 C 
ATOM     19  C   UNL A   1      38.937  30.163  29.056  1.00  0.00     0.029 A 
ATOM     20  N   UNL A   1      40.777  29.590  30.163  1.00  0.00    -0.354 N 
ATOM     21  C   UNL A   1      41.334  30.568  34.323  1.00  0.00     0.074 A 
ATOM     22  C   UNL A   1      40.044  30.145  34.798  1.00  0.00     0.031 C 
ATOM     23  C   UNL A   1      39.551  29.195  28.339  1.00  0.00     0.029 A 
ATOM     24  C   UNL A   1      40.754  28.772  29.039  1.00  0.00     0.049 A 
ATOM     25  H   UNL A   1      41.540  29.629  30.783  1.00  0.00     0.167 HD
ATOM     26  C   UNL A   1      42.589  30.356  34.814  1.00  0.00     0.034 A 
ATOM     27  C   UNL A   1      41.618  27.770  28.726  1.00  0.00     0.034 A 
ATOM     28  C   UNL A   1      43.570  31.142  34.099  1.00  0.00     0.049 A 
ATOM     29  C   UNL A   1      42.878  28.012  29.463  1.00  0.00     0.074 A 
ATOM     30  C   UNL A   1      43.736  32.491  33.846  1.00  0.00     0.029 A 
ATOM     31  N   UNL A   1      44.431  30.508  33.232  1.00  0.00    -0.354 N 
ATOM     32  N   UNL A   1      43.671  29.021  29.232  1.00  0.00    -0.248 NA
ATOM     33  C   UNL A   1      43.077  27.352  30.745  1.00  0.00     0.031 C 
ATOM     34  C   UNL A   1      44.272  32.559  32.527  1.00  0.00     0.029 A 
ATOM     35  C   UNL A   1      44.449  31.250  32.078  1.00  0.00     0.049 A 
ATOM     36  H   UNL A   1      44.936  29.681  33.405  1.00  0.00     0.167 HD
ATOM     37  C   UNL A   1      44.160  29.386  30.475  1.00  0.00     0.074 A 
ATOM     38  C   UNL A   1      43.859  28.252  31.344  1.00  0.00     0.031 C 
ATOM     39  C   UNL A   1      44.510  30.678  30.748  1.00  0.00     0.034 A 
BRANCH  26  40
ATOM     40  C   UNL A   1      42.989  29.195  35.712  1.00  0.00     0.023 A 
ATOM     41  C   UNL A   1      43.739  29.507  36.865  1.00  0.00     0.031 A 
ATOM     42  C   UNL A   1      42.954  27.826  35.368  1.00  0.00     0.131 A 
ATOM     43  C   UNL A   1      44.524  28.536  37.509  1.00  0.00     0.055 A 
ATOM     44  C   UNL A   1      43.672  26.846  36.065  1.00  0.00     0.041 A 
ATOM     45  F   UNL A   1      42.298  27.361  34.300  1.00  0.00    -0.206 F 
ATOM     46  C   UNL A   1      44.500  27.204  37.114  1.00  0.00     0.022 A 
BRANCH  43  47
ATOM     47  S   UNL A   1      45.750  29.097  38.720  1.00  0.00     0.124 S 
ATOM     48  O   UNL A   1      46.285  27.826  39.200  1.00  0.00    -0.237 OA
ATOM     49  O   UNL A   1      46.642  29.899  37.891  1.00  0.00    -0.237 OA
ATOM     50  O   UNL A   1      44.953  29.845  39.689  1.00  0.00    -0.744 OA
ENDBRANCH  43  47
ENDBRANCH  26  40
BRANCH  27  51
ATOM     51  C   UNL A   1      41.297  26.490  28.039  1.00  0.00     0.023 A 
ATOM     52  C   UNL A   1      42.203  25.831  27.183  1.00  0.00     0.031 A 
ATOM     53  C   UNL A   1      40.137  25.772  28.409  1.00  0.00     0.131 A 
ATOM     54  C   UNL A   1      41.924  24.520  26.726  1.00  0.00     0.055 A 
ATOM     55  C   UNL A   1      39.860  24.485  27.944  1.00  0.00     0.041 A 
ATOM     56  F   UNL A   1      39.270  26.265  29.307  1.00  0.00    -0.206 F 
ATOM     57  C   UNL A   1      40.757  23.850  27.103  1.00  0.00     0.022 A 
BRANCH  54  58
ATOM     58  S   UNL A   1      43.135  23.622  25.703  1.00  0.00     0.124 S 
ATOM     59  O   UNL A   1      42.337  22.525  25.168  1.00  0.00    -0.237 OA
ATOM     60  O   UNL A   1      43.560  24.641  24.751  1.00  0.00    -0.237 OA
ATOM     61  O   UNL A   1      44.162  23.221  26.667  1.00  0.00    -0.744 OA
ENDBRANCH  54  58
ENDBRANCH  27  51
BRANCH  39  62
ATOM     62  C   UNL A   1      44.712  31.639  29.597  1.00  0.00     0.023 A 
ATOM     63  C   UNL A   1      45.927  31.808  28.897  1.00  0.00     0.031 A 
ATOM     64  C   UNL A   1      43.579  32.318  29.113  1.00  0.00     0.131 A 
ATOM     65  C   UNL A   1      45.977  32.643  27.765  1.00  0.00     0.055 A 
ATOM     66  C   UNL A   1      43.628  33.130  27.980  1.00  0.00     0.041 A 
ATOM     67  F   UNL A   1      42.386  32.172  29.714  1.00  0.00    -0.206 F 
ATOM     68  C   UNL A   1      44.832  33.301  27.304  1.00  0.00     0.022 A 
BRANCH  65  69
ATOM     69  S   UNL A   1      47.543  32.892  26.869  1.00  0.00     0.124 S 
ATOM     70  O   UNL A   1      48.406  33.534  27.854  1.00  0.00    -0.237 OA
ATOM     71  O   UNL A   1      47.912  31.530  26.487  1.00  0.00    -0.237 OA
ATOM     72  O   UNL A   1      47.162  33.749  25.745  1.00  0.00    -0.744 OA
ENDBRANCH  65  69
ENDBRANCH  39  62
ENDBRANCH  13  14
ENDBRANCH   6   8
ENDBRANCH   3   4
ENDBRANCH   2   3
ENDBRANCH   1   2
BRANCH   1  73
ATOM     73  N   UNL A   1      34.461  32.228  27.913  1.00  0.00    -0.352 N 
ATOM     74  C   UNL A   1      34.975  30.965  27.780  1.00  0.00     0.251 C 
ATOM     75  H   UNL A   1      35.093  32.900  28.259  1.00  0.00     0.163 HD
ATOM     76  O   UNL A   1      36.120  30.717  28.155  1.00  0.00    -0.269 OA
BRANCH  74  77
ATOM     77  C   UNL A   1      34.150  29.880  27.213  1.00  0.00     0.039 A 
ATOM     78  C   UNL A   1      32.757  30.011  27.242  1.00  0.00     0.016 A 
ATOM     79  C   UNL A   1      34.741  28.728  26.690  1.00  0.00     0.016 A 
ATOM     80  C   UNL A   1      31.947  29.026  26.671  1.00  0.00     0.029 A 
ATOM     81  C   UNL A   1      33.935  27.728  26.146  1.00  0.00     0.029 A 
ATOM     82  C   UNL A   1      32.537  27.879  26.130  1.00  0.00     0.066 A 
BRANCH  82  83
ATOM     83  N   UNL A   1      31.725  26.850  25.600  1.00  0.00    -0.220 N 
ATOM     84  C   UNL A   1      31.682  25.547  26.018  1.00  0.00     0.141 A 
ATOM     85  N   UNL A   1      30.852  27.019  24.578  1.00  0.00    -0.062 NA
ATOM     86  C   UNL A   1      30.792  24.913  25.186  1.00  0.00     0.093 A 
ATOM     87  N   UNL A   1      30.326  25.830  24.281  1.00  0.00    -0.134 NA
BRANCH  86  88
ATOM     88  C   UNL A   1      30.525  23.463  25.072  1.00  0.00     0.138 C 
BRANCH  88  89
ATOM     89  S   UNL A   1      31.218  22.257  26.211  1.00  0.00    -0.081 SA
BRANCH  89  90
ATOM     90  C   UNL A   1      32.323  21.174  25.407  1.00  0.00     0.176 A 
ATOM     91  N   UNL A   1      31.972  19.932  25.568  1.00  0.00    -0.223 NA
ATOM     92  N   UNL A   1      33.425  21.540  24.638  1.00  0.00    -0.255 N 
ATOM     93  C   UNL A   1      32.773  18.927  25.025  1.00  0.00     0.079 A 
ATOM     94  C   UNL A   1      34.478  20.610  24.668  1.00  0.00     0.266 A 
ATOM     95  C   UNL A   1      32.297  17.621  24.895  1.00  0.00     0.029 A 
ATOM     96  C   UNL A   1      34.088  19.194  24.681  1.00  0.00     0.066 A 
ATOM     97  O   UNL A   1      35.681  20.862  24.699  1.00  0.00    -0.268 OA
ATOM     98  C   UNL A   1      33.152  16.595  24.475  1.00  0.00     0.002 A 
ATOM     99  C   UNL A   1      34.968  18.174  24.304  1.00  0.00     0.016 A 
ATOM    100  C   UNL A   1      34.494  16.867  24.207  1.00  0.00     0.001 A 
BRANCH  92 101
ATOM    101  C   UNL A   1      33.613  22.767  23.873  1.00  0.00     0.051 A 
ATOM    102  C   UNL A   1      34.353  23.839  24.417  1.00  0.00     0.027 A 
ATOM    103  C   UNL A   1      33.129  22.980  22.575  1.00  0.00     0.027 A 
ATOM    104  C   UNL A   1      34.412  25.100  23.813  1.00  0.00     0.002 A 
ATOM    105  C   UNL A   1      33.142  24.252  21.980  1.00  0.00     0.002 A 
ATOM    106  C   UNL A   1      33.753  25.322  22.617  1.00  0.00     0.000 A 
ENDBRANCH  92 101
ENDBRANCH  89  90
ENDBRANCH  88  89
ENDBRANCH  86  88
ENDBRANCH  82  83
ENDBRANCH  74  77
ENDBRANCH   1  73
TORSDOF 18
ENDMDL
