MODEL 1
REMARK VINA RESULT:     -12.7      0.000      0.000
REMARK SMILES O=C(Cn1c(=O)n(Cc2cccnc2)c(=O)c2sccc21)NCCCNC(=O)c1ccc(-c2c3nc(c(-c4cc(S(=O)(=O)[O-])ccc4F)c4ccc([nH]4)c(-c4cc(S(=O)(=O)[O-])ccc4F)c4nc(c(-c5cc(S(=O)(=O)[O-])ccc5F)c5ccc2[nH]5)C=C4)C=C3)cc1
REMARK SMILES IDX 24 1 23 2 22 3 1 4 2 5 3 7 4 8 5 9 21 10 6 11 7 12 17 13
REMARK SMILES IDX 20 14 15 15 18 16 19 17 16 18 8 19 9 20 10 21 14 22 11 23
REMARK SMILES IDX 13 24 12 25 25 26 26 27 27 28 28 30 29 31 30 32 91 33 31 34
REMARK SMILES IDX 90 35 32 36 33 37 34 38 84 39 35 40 89 41 83 42 85 43 36 44
REMARK SMILES IDX 88 45 82 46 81 47 37 49 69 50 49 51 68 52 50 53 53 54 67 55
REMARK SMILES IDX 86 56 51 57 52 58 66 60 87 61 54 62 38 63 39 64 47 65 40 66
REMARK SMILES IDX 46 67 48 68 45 69 41 70 42 71 43 72 44 73 70 74 71 75 79 76
REMARK SMILES IDX 72 77 78 78 80 79 77 80 73 81 74 82 75 83 76 84 55 85 56 86
REMARK SMILES IDX 64 87 57 88 63 89 65 90 62 91 58 92 59 93 60 94 61 95
REMARK H PARENT 22 6 26 29 85 48 53 59
REMARK Flexibility Score: inf
ROOT
ATOM      1  C   UNL A   1      33.576  29.228  26.542  1.00  0.00     0.042 C 
ENDROOT
BRANCH   1   2
ATOM      2  C   UNL A   1      32.371  28.842  27.403  1.00  0.00     0.117 C 
BRANCH   2   3
ATOM      3  N   UNL A   1      31.758  27.591  26.994  1.00  0.00    -0.354 N 
ATOM      4  O   UNL A   1      30.835  28.336  25.023  1.00  0.00    -0.273 OA
ATOM      5  C   UNL A   1      31.052  27.425  25.821  1.00  0.00     0.240 C 
ATOM      6  H   UNL A   1      31.854  26.813  27.591  1.00  0.00     0.163 HD
BRANCH   5   7
ATOM      7  C   UNL A   1      30.553  25.994  25.578  1.00  0.00     0.227 C 
BRANCH   7   8
ATOM      8  N   UNL A   1      31.559  25.220  24.843  1.00  0.00    -0.283 N 
ATOM      9  C   UNL A   1      32.358  24.324  25.574  1.00  0.00     0.332 A 
ATOM     10  C   UNL A   1      31.767  25.386  23.472  1.00  0.00     0.070 A 
ATOM     11  O   UNL A   1      32.222  24.235  26.799  1.00  0.00    -0.247 OA
ATOM     12  N   UNL A   1      33.348  23.622  24.882  1.00  0.00    -0.254 N 
ATOM     13  C   UNL A   1      32.821  24.758  22.872  1.00  0.00     0.116 A 
ATOM     14  C   UNL A   1      31.033  26.171  22.534  1.00  0.00     0.039 A 
ATOM     15  C   UNL A   1      33.757  23.930  23.579  1.00  0.00     0.274 A 
ATOM     16  S   UNL A   1      32.931  25.060  21.206  1.00  0.00    -0.136 S 
ATOM     17  C   UNL A   1      31.544  26.062  21.256  1.00  0.00     0.068 A 
ATOM     18  O   UNL A   1      34.830  23.570  23.112  1.00  0.00    -0.268 OA
BRANCH  12  19
ATOM     19  C   UNL A   1      34.165  22.658  25.623  1.00  0.00     0.168 C 
BRANCH  19  20
ATOM     20  C   UNL A   1      33.835  21.216  25.314  1.00  0.00    -0.010 A 
ATOM     21  C   UNL A   1      34.830  20.294  24.968  1.00  0.00     0.009 A 
ATOM     22  C   UNL A   1      32.520  20.750  25.299  1.00  0.00     0.116 A 
ATOM     23  C   UNL A   1      34.482  18.989  24.626  1.00  0.00     0.020 A 
ATOM     24  N   UNL A   1      32.152  19.482  24.996  1.00  0.00    -0.264 NA
ATOM     25  C   UNL A   1      33.144  18.632  24.658  1.00  0.00     0.111 A 
ENDBRANCH  19  20
ENDBRANCH  12  19
ENDBRANCH   7   8
ENDBRANCH   5   7
ENDBRANCH   2   3
ENDBRANCH   1   2
BRANCH   1  26
ATOM     26  C   UNL A   1      34.909  29.088  27.268  1.00  0.00     0.118 C 
BRANCH  26  27
ATOM     27  N   UNL A   1      35.111  30.090  28.313  1.00  0.00    -0.352 N 
ATOM     28  C   UNL A   1      36.168  30.185  29.199  1.00  0.00     0.251 C 
ATOM     29  H   UNL A   1      34.412  30.779  28.395  1.00  0.00     0.163 HD
ATOM     30  O   UNL A   1      36.058  30.858  30.217  1.00  0.00    -0.269 OA
BRANCH  28  31
ATOM     31  C   UNL A   1      37.415  29.445  28.913  1.00  0.00     0.039 A 
ATOM     32  C   UNL A   1      38.159  29.715  27.761  1.00  0.00     0.014 A 
ATOM     33  C   UNL A   1      37.860  28.498  29.834  1.00  0.00     0.014 A 
ATOM     34  C   UNL A   1      39.401  29.100  27.595  1.00  0.00     0.010 A 
ATOM     35  C   UNL A   1      39.134  27.982  29.726  1.00  0.00     0.010 A 
ATOM     36  C   UNL A   1      39.905  28.258  28.599  1.00  0.00    -0.014 A 
BRANCH  36  37
ATOM     37  C   UNL A   1      41.300  27.799  28.553  1.00  0.00     0.031 A 
ATOM     38  C   UNL A   1      41.511  26.530  27.799  1.00  0.00     0.074 A 
ATOM     39  C   UNL A   1      42.354  28.555  28.937  1.00  0.00     0.049 A 
ATOM     40  N   UNL A   1      41.934  25.397  28.254  1.00  0.00    -0.248 NA
ATOM     41  C   UNL A   1      41.093  26.475  26.386  1.00  0.00     0.031 C 
ATOM     42  C   UNL A   1      42.320  29.937  29.431  1.00  0.00     0.029 A 
ATOM     43  N   UNL A   1      43.696  28.301  28.858  1.00  0.00    -0.354 N 
ATOM     44  C   UNL A   1      42.071  24.562  27.147  1.00  0.00     0.074 A 
ATOM     45  C   UNL A   1      41.366  25.207  26.071  1.00  0.00     0.031 C 
ATOM     46  C   UNL A   1      43.557  30.475  29.371  1.00  0.00     0.029 A 
ATOM     47  C   UNL A   1      44.500  29.428  29.021  1.00  0.00     0.049 A 
ATOM     48  H   UNL A   1      44.061  27.400  28.698  1.00  0.00     0.167 HD
ATOM     49  C   UNL A   1      42.981  23.547  27.142  1.00  0.00     0.034 A 
ATOM     50  C   UNL A   1      45.849  29.509  28.904  1.00  0.00     0.034 A 
ATOM     51  C   UNL A   1      43.487  23.305  28.469  1.00  0.00     0.049 A 
ATOM     52  C   UNL A   1      46.383  28.161  29.190  1.00  0.00     0.074 A 
ATOM     53  C   UNL A   1      43.043  22.694  29.620  1.00  0.00     0.029 A 
ATOM     54  N   UNL A   1      44.545  24.104  28.813  1.00  0.00    -0.354 N 
ATOM     55  N   UNL A   1      46.238  27.572  30.345  1.00  0.00    -0.248 NA
ATOM     56  C   UNL A   1      46.805  27.297  28.095  1.00  0.00     0.031 C 
ATOM     57  C   UNL A   1      43.734  23.330  30.696  1.00  0.00     0.029 A 
ATOM     58  C   UNL A   1      44.607  24.280  30.171  1.00  0.00     0.049 A 
ATOM     59  H   UNL A   1      45.176  24.502  28.171  1.00  0.00     0.167 HD
ATOM     60  C   UNL A   1      46.115  26.237  30.029  1.00  0.00     0.074 A 
ATOM     61  C   UNL A   1      46.656  26.107  28.683  1.00  0.00     0.031 C 
ATOM     62  C   UNL A   1      45.290  25.422  30.745  1.00  0.00     0.034 A 
BRANCH  49  63
ATOM     63  C   UNL A   1      43.755  23.069  25.929  1.00  0.00     0.023 A 
ATOM     64  C   UNL A   1      43.796  21.682  25.665  1.00  0.00     0.031 A 
ATOM     65  C   UNL A   1      44.684  23.857  25.213  1.00  0.00     0.131 A 
ATOM     66  C   UNL A   1      44.742  21.142  24.770  1.00  0.00     0.055 A 
ATOM     67  C   UNL A   1      45.584  23.324  24.287  1.00  0.00     0.041 A 
ATOM     68  F   UNL A   1      44.843  25.167  25.447  1.00  0.00    -0.206 F 
ATOM     69  C   UNL A   1      45.633  21.957  24.075  1.00  0.00     0.022 A 
BRANCH  66  70
ATOM     70  S   UNL A   1      44.883  19.339  24.613  1.00  0.00     0.124 S 
ATOM     71  O   UNL A   1      46.287  19.114  24.931  1.00  0.00    -0.237 OA
ATOM     72  O   UNL A   1      43.915  18.873  25.599  1.00  0.00    -0.237 OA
ATOM     73  O   UNL A   1      44.515  19.091  23.220  1.00  0.00    -0.744 OA
ENDBRANCH  66  70
ENDBRANCH  49  63
BRANCH  50  74
ATOM     74  C   UNL A   1      46.699  30.617  28.396  1.00  0.00     0.023 A 
ATOM     75  C   UNL A   1      46.211  31.544  27.450  1.00  0.00     0.031 A 
ATOM     76  C   UNL A   1      47.899  30.953  29.055  1.00  0.00     0.131 A 
ATOM     77  C   UNL A   1      46.888  32.763  27.229  1.00  0.00     0.055 A 
ATOM     78  C   UNL A   1      48.570  32.159  28.829  1.00  0.00     0.041 A 
ATOM     79  F   UNL A   1      48.412  30.163  30.013  1.00  0.00    -0.206 F 
ATOM     80  C   UNL A   1      48.053  33.079  27.928  1.00  0.00     0.022 A 
BRANCH  77  81
ATOM     81  S   UNL A   1      46.168  34.027  26.132  1.00  0.00     0.124 S 
ATOM     82  O   UNL A   1      45.198  33.250  25.370  1.00  0.00    -0.237 OA
ATOM     83  O   UNL A   1      45.626  34.998  27.077  1.00  0.00    -0.237 OA
ATOM     84  O   UNL A   1      47.322  34.499  25.366  1.00  0.00    -0.744 OA
ENDBRANCH  77  81
ENDBRANCH  50  74
BRANCH  62  85
ATOM     85  C   UNL A   1      44.981  25.814  32.165  1.00  0.00     0.023 A 
ATOM     86  C   UNL A   1      43.800  26.454  32.600  1.00  0.00     0.031 A 
ATOM     87  C   UNL A   1      45.936  25.461  33.133  1.00  0.00     0.131 A 
ATOM     88  C   UNL A   1      43.617  26.721  33.972  1.00  0.00     0.055 A 
ATOM     89  C   UNL A   1      45.744  25.711  34.489  1.00  0.00     0.041 A 
ATOM     90  F   UNL A   1      47.071  24.841  32.771  1.00  0.00    -0.206 F 
ATOM     91  C   UNL A   1      44.583  26.345  34.915  1.00  0.00     0.022 A 
BRANCH  88  92
ATOM     92  S   UNL A   1      42.108  27.559  34.559  1.00  0.00     0.124 S 
ATOM     93  O   UNL A   1      41.165  26.462  34.750  1.00  0.00    -0.237 OA
ATOM     94  O   UNL A   1      42.564  28.227  35.775  1.00  0.00    -0.237 OA
ATOM     95  O   UNL A   1      41.771  28.467  33.461  1.00  0.00    -0.744 OA
ENDBRANCH  88  92
ENDBRANCH  62  85
ENDBRANCH  36  37
ENDBRANCH  28  31
ENDBRANCH  26  27
ENDBRANCH   1  26
TORSDOF 16
ENDMDL
MODEL 2
REMARK VINA RESULT:     -12.6      3.962     10.001
REMARK SMILES O=C(Cn1c(=O)n(Cc2cccnc2)c(=O)c2sccc21)NCCCNC(=O)c1ccc(-c2c3nc(c(-c4cc(S(=O)(=O)[O-])ccc4F)c4ccc([nH]4)c(-c4cc(S(=O)(=O)[O-])ccc4F)c4nc(c(-c5cc(S(=O)(=O)[O-])ccc5F)c5ccc2[nH]5)C=C4)C=C3)cc1
REMARK SMILES IDX 24 1 23 2 22 3 1 4 2 5 3 7 4 8 5 9 21 10 6 11 7 12 17 13
REMARK SMILES IDX 20 14 15 15 18 16 19 17 16 18 8 19 9 20 10 21 14 22 11 23
REMARK SMILES IDX 13 24 12 25 25 26 26 27 27 28 28 30 29 31 30 32 91 33 31 34
REMARK SMILES IDX 90 35 32 36 33 37 34 38 84 39 35 40 89 41 83 42 85 43 36 44
REMARK SMILES IDX 88 45 82 46 81 47 37 49 69 50 49 51 68 52 50 53 53 54 67 55
REMARK SMILES IDX 86 56 51 57 52 58 66 60 87 61 54 62 38 63 39 64 47 65 40 66
REMARK SMILES IDX 46 67 48 68 45 69 41 70 42 71 43 72 44 73 70 74 71 75 79 76
REMARK SMILES IDX 72 77 78 78 80 79 77 80 73 81 74 82 75 83 76 84 55 85 56 86
REMARK SMILES IDX 64 87 57 88 63 89 65 90 62 91 58 92 59 93 60 94 61 95
REMARK H PARENT 22 6 26 29 85 48 53 59
REMARK Flexibility Score: inf
ROOT
ATOM      1  C   UNL A   1      37.081  23.155  25.140  1.00  0.00     0.042 C 
ENDROOT
BRANCH   1   2
ATOM      2  C   UNL A   1      36.320  21.979  25.757  1.00  0.00     0.117 C 
BRANCH   2   3
ATOM      3  N   UNL A   1      34.893  22.025  25.493  1.00  0.00    -0.354 N 
ATOM      4  O   UNL A   1      34.210  22.572  27.620  1.00  0.00    -0.273 OA
ATOM      5  C   UNL A   1      33.943  22.340  26.443  1.00  0.00     0.240 C 
ATOM      6  H   UNL A   1      34.585  21.820  24.580  1.00  0.00     0.163 HD
BRANCH   5   7
ATOM      7  C   UNL A   1      32.505  22.385  25.909  1.00  0.00     0.227 C 
BRANCH   7   8
ATOM      8  N   UNL A   1      32.235  23.681  25.277  1.00  0.00    -0.283 N 
ATOM      9  C   UNL A   1      31.723  24.709  26.088  1.00  0.00     0.332 A 
ATOM     10  C   UNL A   1      32.425  23.895  23.911  1.00  0.00     0.070 A 
ATOM     11  O   UNL A   1      31.484  24.494  27.281  1.00  0.00    -0.247 OA
ATOM     12  N   UNL A   1      31.420  25.929  25.477  1.00  0.00    -0.254 N 
ATOM     13  C   UNL A   1      32.007  25.069  23.350  1.00  0.00     0.116 A 
ATOM     14  C   UNL A   1      32.997  23.031  22.931  1.00  0.00     0.039 A 
ATOM     15  C   UNL A   1      31.357  26.114  24.091  1.00  0.00     0.274 A 
ATOM     16  S   UNL A   1      32.314  25.172  21.684  1.00  0.00    -0.136 S 
ATOM     17  C   UNL A   1      33.024  23.614  21.679  1.00  0.00     0.068 A 
ATOM     18  O   UNL A   1      30.764  27.046  23.566  1.00  0.00    -0.268 OA
BRANCH  12  19
ATOM     19  C   UNL A   1      30.921  27.022  26.314  1.00  0.00     0.168 C 
BRANCH  19  20
ATOM     20  C   UNL A   1      31.915  28.144  26.510  1.00  0.00    -0.010 A 
ATOM     21  C   UNL A   1      33.029  27.998  27.343  1.00  0.00     0.009 A 
ATOM     22  C   UNL A   1      31.736  29.395  25.918  1.00  0.00     0.116 A 
ATOM     23  C   UNL A   1      33.889  29.076  27.550  1.00  0.00     0.020 A 
ATOM     24  N   UNL A   1      32.566  30.452  26.080  1.00  0.00    -0.264 NA
ATOM     25  C   UNL A   1      33.621  30.269  26.901  1.00  0.00     0.111 A 
ENDBRANCH  19  20
ENDBRANCH  12  19
ENDBRANCH   7   8
ENDBRANCH   5   7
ENDBRANCH   2   3
ENDBRANCH   1   2
BRANCH   1  26
ATOM     26  C   UNL A   1      37.901  23.945  26.154  1.00  0.00     0.118 C 
BRANCH  26  27
ATOM     27  N   UNL A   1      39.336  23.681  26.074  1.00  0.00    -0.352 N 
ATOM     28  C   UNL A   1      40.371  24.532  26.415  1.00  0.00     0.251 C 
ATOM     29  H   UNL A   1      39.596  22.792  25.740  1.00  0.00     0.163 HD
ATOM     30  O   UNL A   1      41.505  24.318  26.000  1.00  0.00    -0.269 OA
BRANCH  28  31
ATOM     31  C   UNL A   1      40.086  25.711  27.259  1.00  0.00     0.039 A 
ATOM     32  C   UNL A   1      39.477  25.566  28.508  1.00  0.00     0.014 A 
ATOM     33  C   UNL A   1      40.470  26.972  26.804  1.00  0.00     0.014 A 
ATOM     34  C   UNL A   1      39.352  26.682  29.337  1.00  0.00     0.010 A 
ATOM     35  C   UNL A   1      40.451  28.047  27.666  1.00  0.00     0.010 A 
ATOM     36  C   UNL A   1      39.874  27.920  28.928  1.00  0.00    -0.014 A 
BRANCH  36  37
ATOM     37  C   UNL A   1      39.967  29.037  29.877  1.00  0.00     0.031 A 
ATOM     38  C   UNL A   1      38.719  29.843  30.012  1.00  0.00     0.074 A 
ATOM     39  C   UNL A   1      40.991  29.203  30.746  1.00  0.00     0.049 A 
ATOM     40  N   UNL A   1      38.542  31.086  29.712  1.00  0.00    -0.248 NA
ATOM     41  C   UNL A   1      37.481  29.156  30.422  1.00  0.00     0.031 C 
ATOM     42  C   UNL A   1      42.152  28.324  30.926  1.00  0.00     0.029 A 
ATOM     43  N   UNL A   1      41.161  30.126  31.741  1.00  0.00    -0.354 N 
ATOM     44  C   UNL A   1      37.249  31.403  30.124  1.00  0.00     0.074 A 
ATOM     45  C   UNL A   1      36.590  30.148  30.371  1.00  0.00     0.031 C 
ATOM     46  C   UNL A   1      42.760  28.602  32.099  1.00  0.00     0.029 A 
ATOM     47  C   UNL A   1      42.156  29.797  32.660  1.00  0.00     0.049 A 
ATOM     48  H   UNL A   1      40.626  30.951  31.803  1.00  0.00     0.167 HD
ATOM     49  C   UNL A   1      36.921  32.676  30.486  1.00  0.00     0.034 A 
ATOM     50  C   UNL A   1      42.491  30.461  33.794  1.00  0.00     0.034 A 
ATOM     51  C   UNL A   1      37.947  33.605  30.089  1.00  0.00     0.049 A 
ATOM     52  C   UNL A   1      42.090  31.870  33.597  1.00  0.00     0.074 A 
ATOM     53  C   UNL A   1      38.361  34.209  28.924  1.00  0.00     0.029 A 
ATOM     54  N   UNL A   1      38.966  33.726  30.997  1.00  0.00    -0.354 N 
ATOM     55  N   UNL A   1      42.604  32.628  32.669  1.00  0.00    -0.248 NA
ATOM     56  C   UNL A   1      40.870  32.373  34.215  1.00  0.00     0.031 C 
ATOM     57  C   UNL A   1      39.748  34.500  29.100  1.00  0.00     0.029 A 
ATOM     58  C   UNL A   1      40.131  34.102  30.379  1.00  0.00     0.049 A 
ATOM     59  H   UNL A   1      38.874  33.565  31.963  1.00  0.00     0.167 HD
ATOM     60  C   UNL A   1      41.562  33.446  32.289  1.00  0.00     0.074 A 
ATOM     61  C   UNL A   1      40.602  33.383  33.381  1.00  0.00     0.031 C 
ATOM     62  C   UNL A   1      41.418  33.836  30.991  1.00  0.00     0.034 A 
BRANCH  49  63
ATOM     63  C   UNL A   1      35.928  33.050  31.571  1.00  0.00     0.023 A 
ATOM     64  C   UNL A   1      34.822  33.854  31.218  1.00  0.00     0.031 A 
ATOM     65  C   UNL A   1      36.172  32.917  32.956  1.00  0.00     0.131 A 
ATOM     66  C   UNL A   1      34.054  34.504  32.205  1.00  0.00     0.055 A 
ATOM     67  C   UNL A   1      35.375  33.519  33.933  1.00  0.00     0.041 A 
ATOM     68  F   UNL A   1      37.252  32.286  33.437  1.00  0.00    -0.206 F 
ATOM     69  C   UNL A   1      34.321  34.335  33.562  1.00  0.00     0.022 A 
BRANCH  66  70
ATOM     70  S   UNL A   1      32.767  35.678  31.694  1.00  0.00     0.124 S 
ATOM     71  O   UNL A   1      31.658  35.313  32.567  1.00  0.00    -0.237 OA
ATOM     72  O   UNL A   1      33.405  36.962  31.964  1.00  0.00    -0.237 OA
ATOM     73  O   UNL A   1      32.570  35.371  30.279  1.00  0.00    -0.744 OA
ENDBRANCH  66  70
ENDBRANCH  49  63
BRANCH  50  74
ATOM     74  C   UNL A   1      42.970  29.939  35.100  1.00  0.00     0.023 A 
ATOM     75  C   UNL A   1      42.442  28.754  35.658  1.00  0.00     0.031 A 
ATOM     76  C   UNL A   1      44.160  30.435  35.671  1.00  0.00     0.131 A 
ATOM     77  C   UNL A   1      43.119  28.094  36.706  1.00  0.00     0.055 A 
ATOM     78  C   UNL A   1      44.824  29.780  36.714  1.00  0.00     0.041 A 
ATOM     79  F   UNL A   1      44.771  31.522  35.173  1.00  0.00    -0.206 F 
ATOM     80  C   UNL A   1      44.315  28.594  37.221  1.00  0.00     0.022 A 
BRANCH  77  81
ATOM     81  S   UNL A   1      42.525  26.482  37.310  1.00  0.00     0.124 S 
ATOM     82  O   UNL A   1      42.909  25.590  36.222  1.00  0.00    -0.237 OA
ATOM     83  O   UNL A   1      43.249  26.324  38.566  1.00  0.00    -0.237 OA
ATOM     84  O   UNL A   1      41.084  26.692  37.458  1.00  0.00    -0.744 OA
ENDBRANCH  77  81
ENDBRANCH  50  74
BRANCH  62  85
ATOM     85  C   UNL A   1      42.650  33.862  30.127  1.00  0.00     0.023 A 
ATOM     86  C   UNL A   1      43.104  32.800  29.314  1.00  0.00     0.031 A 
ATOM     87  C   UNL A   1      43.371  35.068  30.101  1.00  0.00     0.131 A 
ATOM     88  C   UNL A   1      44.251  32.975  28.514  1.00  0.00     0.055 A 
ATOM     89  C   UNL A   1      44.493  35.243  29.296  1.00  0.00     0.041 A 
ATOM     90  F   UNL A   1      42.974  36.111  30.848  1.00  0.00    -0.206 F 
ATOM     91  C   UNL A   1      44.940  34.194  28.500  1.00  0.00     0.022 A 
BRANCH  88  92
ATOM     92  S   UNL A   1      44.866  31.616  27.466  1.00  0.00     0.124 S 
ATOM     93  O   UNL A   1      45.462  32.309  26.329  1.00  0.00    -0.237 OA
ATOM     94  O   UNL A   1      45.798  30.924  28.352  1.00  0.00    -0.237 OA
ATOM     95  O   UNL A   1      43.656  30.854  27.148  1.00  0.00    -0.744 OA
ENDBRANCH  88  92
ENDBRANCH  62  85
ENDBRANCH  36  37
ENDBRANCH  28  31
ENDBRANCH  26  27
ENDBRANCH   1  26
TORSDOF 16
ENDMDL
MODEL 3
REMARK VINA RESULT:     -12.4      2.691      7.083
REMARK SMILES O=C(Cn1c(=O)n(Cc2cccnc2)c(=O)c2sccc21)NCCCNC(=O)c1ccc(-c2c3nc(c(-c4cc(S(=O)(=O)[O-])ccc4F)c4ccc([nH]4)c(-c4cc(S(=O)(=O)[O-])ccc4F)c4nc(c(-c5cc(S(=O)(=O)[O-])ccc5F)c5ccc2[nH]5)C=C4)C=C3)cc1
REMARK SMILES IDX 24 1 23 2 22 3 1 4 2 5 3 7 4 8 5 9 21 10 6 11 7 12 17 13
REMARK SMILES IDX 20 14 15 15 18 16 19 17 16 18 8 19 9 20 10 21 14 22 11 23
REMARK SMILES IDX 13 24 12 25 25 26 26 27 27 28 28 30 29 31 30 32 91 33 31 34
REMARK SMILES IDX 90 35 32 36 33 37 34 38 84 39 35 40 89 41 83 42 85 43 36 44
REMARK SMILES IDX 88 45 82 46 81 47 37 49 69 50 49 51 68 52 50 53 53 54 67 55
REMARK SMILES IDX 86 56 51 57 52 58 66 60 87 61 54 62 38 63 39 64 47 65 40 66
REMARK SMILES IDX 46 67 48 68 45 69 41 70 42 71 43 72 44 73 70 74 71 75 79 76
REMARK SMILES IDX 72 77 78 78 80 79 77 80 73 81 74 82 75 83 76 84 55 85 56 86
REMARK SMILES IDX 64 87 57 88 63 89 65 90 62 91 58 92 59 93 60 94 61 95
REMARK H PARENT 22 6 26 29 85 48 53 59
REMARK Flexibility Score: inf
ROOT
ATOM      1  C   UNL A   1      33.332  29.172  26.756  1.00  0.00     0.042 C 
ENDROOT
BRANCH   1   2
ATOM      2  C   UNL A   1      32.531  29.715  25.570  1.00  0.00     0.117 C 
BRANCH   2   3
ATOM      3  N   UNL A   1      32.032  28.668  24.696  1.00  0.00    -0.354 N 
ATOM      4  O   UNL A   1      33.879  28.503  23.335  1.00  0.00    -0.273 OA
ATOM      5  C   UNL A   1      32.754  28.123  23.654  1.00  0.00     0.240 C 
ATOM      6  H   UNL A   1      31.122  28.325  24.858  1.00  0.00     0.163 HD
BRANCH   5   7
ATOM      7  C   UNL A   1      32.037  26.987  22.913  1.00  0.00     0.227 C 
BRANCH   7   8
ATOM      8  N   UNL A   1      32.360  25.694  23.525  1.00  0.00    -0.283 N 
ATOM      9  C   UNL A   1      33.474  24.995  23.028  1.00  0.00     0.332 A 
ATOM     10  C   UNL A   1      31.576  25.133  24.535  1.00  0.00     0.070 A 
ATOM     11  O   UNL A   1      34.122  25.459  22.083  1.00  0.00    -0.247 OA
ATOM     12  N   UNL A   1      33.755  23.742  23.578  1.00  0.00    -0.254 N 
ATOM     13  C   UNL A   1      31.832  23.858  24.955  1.00  0.00     0.116 A 
ATOM     14  C   UNL A   1      30.464  25.692  25.232  1.00  0.00     0.039 A 
ATOM     15  C   UNL A   1      32.871  23.036  24.402  1.00  0.00     0.274 A 
ATOM     16  S   UNL A   1      30.792  23.329  26.187  1.00  0.00    -0.136 S 
ATOM     17  C   UNL A   1      29.959  24.824  26.181  1.00  0.00     0.068 A 
ATOM     18  O   UNL A   1      32.950  21.829  24.590  1.00  0.00    -0.268 OA
BRANCH  12  19
ATOM     19  C   UNL A   1      34.933  23.017  23.096  1.00  0.00     0.168 C 
BRANCH  19  20
ATOM     20  C   UNL A   1      36.025  22.873  24.131  1.00  0.00    -0.010 A 
ATOM     21  C   UNL A   1      36.365  23.924  24.990  1.00  0.00     0.009 A 
ATOM     22  C   UNL A   1      36.786  21.708  24.237  1.00  0.00     0.116 A 
ATOM     23  C   UNL A   1      37.421  23.776  25.887  1.00  0.00     0.020 A 
ATOM     24  N   UNL A   1      37.800  21.525  25.115  1.00  0.00    -0.264 NA
ATOM     25  C   UNL A   1      38.099  22.569  25.916  1.00  0.00     0.111 A 
ENDBRANCH  19  20
ENDBRANCH  12  19
ENDBRANCH   7   8
ENDBRANCH   5   7
ENDBRANCH   2   3
ENDBRANCH   1   2
BRANCH   1  26
ATOM     26  C   UNL A   1      34.610  29.955  27.032  1.00  0.00     0.118 C 
BRANCH  26  27
ATOM     27  N   UNL A   1      34.378  31.232  27.705  1.00  0.00    -0.352 N 
ATOM     28  C   UNL A   1      34.974  31.697  28.862  1.00  0.00     0.251 C 
ATOM     29  H   UNL A   1      33.720  31.831  27.283  1.00  0.00     0.163 HD
ATOM     30  O   UNL A   1      34.463  32.618  29.489  1.00  0.00    -0.269 OA
BRANCH  28  31
ATOM     31  C   UNL A   1      36.213  31.053  29.342  1.00  0.00     0.039 A 
ATOM     32  C   UNL A   1      36.181  29.781  29.921  1.00  0.00     0.014 A 
ATOM     33  C   UNL A   1      37.426  31.719  29.173  1.00  0.00     0.014 A 
ATOM     34  C   UNL A   1      37.383  29.145  30.233  1.00  0.00     0.010 A 
ATOM     35  C   UNL A   1      38.612  31.046  29.373  1.00  0.00     0.010 A 
ATOM     36  C   UNL A   1      38.605  29.767  29.924  1.00  0.00    -0.014 A 
BRANCH  36  37
ATOM     37  C   UNL A   1      39.864  29.018  30.021  1.00  0.00     0.031 A 
ATOM     38  C   UNL A   1      40.291  28.699  31.415  1.00  0.00     0.074 A 
ATOM     39  C   UNL A   1      40.482  28.443  28.964  1.00  0.00     0.049 A 
ATOM     40  N   UNL A   1      41.349  29.106  32.034  1.00  0.00    -0.248 NA
ATOM     41  C   UNL A   1      39.373  27.923  32.269  1.00  0.00     0.031 C 
ATOM     42  C   UNL A   1      40.023  28.429  27.570  1.00  0.00     0.029 A 
ATOM     43  N   UNL A   1      41.591  27.643  28.919  1.00  0.00    -0.354 N 
ATOM     44  C   UNL A   1      41.358  28.445  33.261  1.00  0.00     0.074 A 
ATOM     45  C   UNL A   1      40.040  27.891  33.425  1.00  0.00     0.031 C 
ATOM     46  C   UNL A   1      40.686  27.478  26.878  1.00  0.00     0.029 A 
ATOM     47  C   UNL A   1      41.745  26.949  27.720  1.00  0.00     0.049 A 
ATOM     48  H   UNL A   1      42.224  27.564  29.670  1.00  0.00     0.167 HD
ATOM     49  C   UNL A   1      42.529  28.183  33.907  1.00  0.00     0.034 A 
ATOM     50  C   UNL A   1      42.684  26.020  27.413  1.00  0.00     0.034 A 
ATOM     51  C   UNL A   1      43.616  28.927  33.325  1.00  0.00     0.049 A 
ATOM     52  C   UNL A   1      43.854  26.297  28.273  1.00  0.00     0.074 A 
ATOM     53  C   UNL A   1      44.074  30.224  33.348  1.00  0.00     0.029 A 
ATOM     54  N   UNL A   1      44.198  28.307  32.250  1.00  0.00    -0.354 N 
ATOM     55  N   UNL A   1      44.531  27.410  28.210  1.00  0.00    -0.248 NA
ATOM     56  C   UNL A   1      44.099  25.480  29.455  1.00  0.00     0.031 C 
ATOM     57  C   UNL A   1      44.777  30.418  32.119  1.00  0.00     0.029 A 
ATOM     58  C   UNL A   1      44.763  29.224  31.401  1.00  0.00     0.049 A 
ATOM     59  H   UNL A   1      44.208  27.334  32.105  1.00  0.00     0.167 HD
ATOM     60  C   UNL A   1      44.927  27.637  29.510  1.00  0.00     0.074 A 
ATOM     61  C   UNL A   1      44.807  26.350  30.181  1.00  0.00     0.031 C 
ATOM     62  C   UNL A   1      44.999  28.904  30.008  1.00  0.00     0.034 A 
BRANCH  49  63
ATOM     63  C   UNL A   1      42.809  26.953  34.750  1.00  0.00     0.023 A 
ATOM     64  C   UNL A   1      43.604  25.927  34.193  1.00  0.00     0.031 A 
ATOM     65  C   UNL A   1      42.101  26.611  35.924  1.00  0.00     0.131 A 
ATOM     66  C   UNL A   1      43.636  24.641  34.770  1.00  0.00     0.055 A 
ATOM     67  C   UNL A   1      42.178  25.351  36.523  1.00  0.00     0.041 A 
ATOM     68  F   UNL A   1      41.217  27.441  36.494  1.00  0.00    -0.206 F 
ATOM     69  C   UNL A   1      42.932  24.350  35.936  1.00  0.00     0.022 A 
BRANCH  66  70
ATOM     70  S   UNL A   1      44.516  23.307  33.909  1.00  0.00     0.124 S 
ATOM     71  O   UNL A   1      45.902  23.751  33.995  1.00  0.00    -0.237 OA
ATOM     72  O   UNL A   1      44.161  22.143  34.713  1.00  0.00    -0.237 OA
ATOM     73  O   UNL A   1      43.939  23.330  32.567  1.00  0.00    -0.744 OA
ENDBRANCH  66  70
ENDBRANCH  49  63
BRANCH  50  74
ATOM     74  C   UNL A   1      42.586  24.808  26.560  1.00  0.00     0.023 A 
ATOM     75  C   UNL A   1      43.648  24.412  25.719  1.00  0.00     0.031 A 
ATOM     76  C   UNL A   1      41.566  23.861  26.783  1.00  0.00     0.131 A 
ATOM     77  C   UNL A   1      43.685  23.108  25.178  1.00  0.00     0.055 A 
ATOM     78  C   UNL A   1      41.603  22.572  26.242  1.00  0.00     0.041 A 
ATOM     79  F   UNL A   1      40.544  24.123  27.614  1.00  0.00    -0.206 F 
ATOM     80  C   UNL A   1      42.676  22.184  25.452  1.00  0.00     0.022 A 
BRANCH  77  81
ATOM     81  S   UNL A   1      45.136  22.548  24.231  1.00  0.00     0.124 S 
ATOM     82  O   UNL A   1      44.516  21.861  23.105  1.00  0.00    -0.237 OA
ATOM     83  O   UNL A   1      45.824  23.799  23.930  1.00  0.00    -0.237 OA
ATOM     84  O   UNL A   1      45.836  21.678  25.177  1.00  0.00    -0.744 OA
ENDBRANCH  77  81
ENDBRANCH  50  74
BRANCH  62  85
ATOM     85  C   UNL A   1      45.206  30.029  29.030  1.00  0.00     0.023 A 
ATOM     86  C   UNL A   1      46.456  30.471  28.543  1.00  0.00     0.031 A 
ATOM     87  C   UNL A   1      44.047  30.648  28.532  1.00  0.00     0.131 A 
ATOM     88  C   UNL A   1      46.505  31.507  27.588  1.00  0.00     0.055 A 
ATOM     89  C   UNL A   1      44.099  31.658  27.577  1.00  0.00     0.041 A 
ATOM     90  F   UNL A   1      42.835  30.255  28.956  1.00  0.00    -0.206 F 
ATOM     91  C   UNL A   1      45.330  32.095  27.102  1.00  0.00     0.022 A 
BRANCH  88  92
ATOM     92  S   UNL A   1      48.105  32.107  26.954  1.00  0.00     0.124 S 
ATOM     93  O   UNL A   1      48.750  30.893  26.461  1.00  0.00    -0.237 OA
ATOM     94  O   UNL A   1      47.706  33.074  25.936  1.00  0.00    -0.237 OA
ATOM     95  O   UNL A   1      48.742  32.697  28.133  1.00  0.00    -0.744 OA
ENDBRANCH  88  92
ENDBRANCH  62  85
ENDBRANCH  36  37
ENDBRANCH  28  31
ENDBRANCH  26  27
ENDBRANCH   1  26
TORSDOF 16
ENDMDL
