MODEL 1
REMARK VINA RESULT:     -11.0      0.000      0.000
REMARK SMILES Cc1cccc(C[NH+]2CCC(OCC(=O)NCCCNC(=O)c3ccc(-c4c5nc(c(-c6cc(S(=O)(=O)[O-])ccc6F)c6ccc([nH]6)c(-c6cc(S(=O)(=O)[O-])ccc6F)c6nc(c(-c7cc(S(=O)(=O)[O-])ccc7F)c7ccc4[nH]7)C=C6)C=C5)cc3)CC2)n1
REMARK SMILES IDX 17 1 16 2 14 3 15 4 13 6 12 7 11 8 8 9 9 10 87 11 10 13
REMARK SMILES IDX 86 14 7 15 6 16 1 17 2 18 3 19 88 20 4 21 5 22 18 23 19 24
REMARK SMILES IDX 20 25 21 26 22 28 23 29 24 30 85 31 25 32 84 33 26 34 27 35
REMARK SMILES IDX 28 36 78 37 29 38 83 39 77 40 79 41 30 42 82 43 76 44 75 45
REMARK SMILES IDX 31 47 63 48 43 49 62 50 44 51 47 52 61 53 80 54 45 55 46 56
REMARK SMILES IDX 60 58 81 59 48 60 32 61 33 62 41 63 34 64 40 65 42 66 39 67
REMARK SMILES IDX 35 68 36 69 37 70 38 71 64 72 65 73 73 74 66 75 72 76 74 77
REMARK SMILES IDX 71 78 67 79 68 80 69 81 70 82 49 83 50 84 58 85 51 86 57 87
REMARK SMILES IDX 59 88 56 89 52 90 53 91 54 92 55 93
REMARK H PARENT 16 5 8 12 20 27 79 46 47 57
REMARK Flexibility Score: inf
ROOT
ATOM      1  C   UNL A   1      31.486  29.340  24.804  1.00  0.00     0.117 C 
ENDROOT
BRANCH   1   2
ATOM      2  N   UNL A   1      30.982  29.745  23.505  1.00  0.00    -0.354 N 
ATOM      3  C   UNL A   1      30.349  28.986  22.562  1.00  0.00     0.246 C 
ATOM      4  O   UNL A   1      29.809  29.553  21.610  1.00  0.00    -0.272 OA
ATOM      5  H   UNL A   1      31.114  30.692  23.272  1.00  0.00     0.163 HD
BRANCH   3   6
ATOM      6  C   UNL A   1      30.308  27.458  22.709  1.00  0.00     0.260 C 
BRANCH   6   7
ATOM      7  O   UNL A   1      31.326  26.697  22.084  1.00  0.00    -0.368 OA
BRANCH   7   8
ATOM      8  C   UNL A   1      31.750  25.488  22.726  1.00  0.00     0.130 C 
ATOM      9  N   UNL A   1      33.384  23.842  24.464  1.00  0.00    -0.330 N 
ATOM     10  C   UNL A   1      33.508  23.690  23.011  1.00  0.00     0.265 C 
ATOM     11  C   UNL A   1      32.005  24.183  24.843  1.00  0.00     0.265 C 
ATOM     12  H   UNL A   1      33.992  24.620  24.722  1.00  0.00     0.348 HD
ATOM     13  C   UNL A   1      33.142  25.003  22.304  1.00  0.00     0.093 C 
ATOM     14  C   UNL A   1      31.626  25.526  24.247  1.00  0.00     0.093 C 
BRANCH   9  15
ATOM     15  C   UNL A   1      33.881  22.672  25.224  1.00  0.00     0.319 C 
BRANCH  15  16
ATOM     16  C   UNL A   1      35.385  22.570  25.419  1.00  0.00     0.095 A 
ATOM     17  C   UNL A   1      37.869  19.923  24.853  1.00  0.00     0.067 C 
ATOM     18  C   UNL A   1      37.300  21.250  25.255  1.00  0.00     0.038 A 
ATOM     19  C   UNL A   1      38.114  22.327  25.572  1.00  0.00     0.023 A 
ATOM     20  N   UNL A   1      35.955  21.357  25.208  1.00  0.00    -0.252 NA
ATOM     21  C   UNL A   1      37.521  23.556  25.847  1.00  0.00     0.004 A 
ATOM     22  C   UNL A   1      36.137  23.688  25.760  1.00  0.00     0.030 A 
ENDBRANCH  15  16
ENDBRANCH   9  15
ENDBRANCH   7   8
ENDBRANCH   6   7
ENDBRANCH   3   6
ENDBRANCH   1   2
BRANCH   1  23
ATOM     23  C   UNL A   1      32.969  28.976  24.826  1.00  0.00     0.042 C 
BRANCH  23  24
ATOM     24  C   UNL A   1      33.658  29.101  26.186  1.00  0.00     0.118 C 
BRANCH  24  25
ATOM     25  N   UNL A   1      33.730  30.476  26.660  1.00  0.00    -0.352 N 
ATOM     26  C   UNL A   1      34.578  31.079  27.554  1.00  0.00     0.251 C 
ATOM     27  H   UNL A   1      33.054  31.077  26.272  1.00  0.00     0.163 HD
ATOM     28  O   UNL A   1      34.315  32.224  27.933  1.00  0.00    -0.269 OA
BRANCH  26  29
ATOM     29  C   UNL A   1      35.775  30.389  28.088  1.00  0.00     0.039 A 
ATOM     30  C   UNL A   1      36.934  30.361  27.304  1.00  0.00     0.014 A 
ATOM     31  C   UNL A   1      35.760  29.723  29.317  1.00  0.00     0.014 A 
ATOM     32  C   UNL A   1      38.091  29.735  27.781  1.00  0.00     0.010 A 
ATOM     33  C   UNL A   1      36.933  29.150  29.817  1.00  0.00     0.010 A 
ATOM     34  C   UNL A   1      38.115  29.161  29.061  1.00  0.00    -0.014 A 
BRANCH  34  35
ATOM     35  C   UNL A   1      39.376  28.607  29.631  1.00  0.00     0.031 A 
ATOM     36  C   UNL A   1      40.036  29.255  30.819  1.00  0.00     0.074 A 
ATOM     37  C   UNL A   1      39.961  27.548  29.033  1.00  0.00     0.049 A 
ATOM     38  N   UNL A   1      41.171  28.956  31.400  1.00  0.00    -0.248 NA
ATOM     39  C   UNL A   1      39.337  30.399  31.422  1.00  0.00     0.031 C 
ATOM     40  C   UNL A   1      39.437  26.847  27.858  1.00  0.00     0.029 A 
ATOM     41  N   UNL A   1      41.127  26.880  29.320  1.00  0.00    -0.354 N 
ATOM     42  C   UNL A   1      41.331  29.881  32.427  1.00  0.00     0.074 A 
ATOM     43  C   UNL A   1      40.194  30.776  32.361  1.00  0.00     0.031 C 
ATOM     44  C   UNL A   1      40.266  25.841  27.538  1.00  0.00     0.029 A 
ATOM     45  C   UNL A   1      41.407  25.852  28.447  1.00  0.00     0.049 A 
ATOM     46  H   UNL A   1      41.708  27.114  30.079  1.00  0.00     0.167 HD
ATOM     47  C   UNL A   1      42.327  29.967  33.344  1.00  0.00     0.034 A 
ATOM     48  C   UNL A   1      42.470  25.025  28.372  1.00  0.00     0.034 A 
ATOM     49  C   UNL A   1      43.449  29.059  33.408  1.00  0.00     0.049 A 
ATOM     50  C   UNL A   1      43.579  25.167  29.385  1.00  0.00     0.074 A 
ATOM     51  C   UNL A   1      44.471  29.020  34.342  1.00  0.00     0.029 A 
ATOM     52  N   UNL A   1      43.704  28.039  32.501  1.00  0.00    -0.354 N 
ATOM     53  N   UNL A   1      43.684  26.015  30.383  1.00  0.00    -0.248 NA
ATOM     54  C   UNL A   1      44.709  24.237  29.265  1.00  0.00     0.031 C 
ATOM     55  C   UNL A   1      45.380  28.028  33.959  1.00  0.00     0.029 A 
ATOM     56  C   UNL A   1      44.887  27.394  32.830  1.00  0.00     0.049 A 
ATOM     57  H   UNL A   1      43.130  27.808  31.735  1.00  0.00     0.167 HD
ATOM     58  C   UNL A   1      44.876  25.694  31.026  1.00  0.00     0.074 A 
ATOM     59  C   UNL A   1      45.443  24.567  30.316  1.00  0.00     0.031 C 
ATOM     60  C   UNL A   1      45.450  26.277  32.109  1.00  0.00     0.034 A 
BRANCH  47  61
ATOM     61  C   UNL A   1      42.270  31.100  34.339  1.00  0.00     0.023 A 
ATOM     62  C   UNL A   1      42.836  32.357  34.067  1.00  0.00     0.031 A 
ATOM     63  C   UNL A   1      41.620  30.925  35.574  1.00  0.00     0.131 A 
ATOM     64  C   UNL A   1      42.789  33.372  35.036  1.00  0.00     0.055 A 
ATOM     65  C   UNL A   1      41.514  31.959  36.506  1.00  0.00     0.041 A 
ATOM     66  F   UNL A   1      41.074  29.741  35.897  1.00  0.00    -0.206 F 
ATOM     67  C   UNL A   1      42.110  33.189  36.243  1.00  0.00     0.022 A 
BRANCH  64  68
ATOM     68  S   UNL A   1      43.720  34.900  34.740  1.00  0.00     0.124 S 
ATOM     69  O   UNL A   1      43.912  34.854  33.293  1.00  0.00    -0.237 OA
ATOM     70  O   UNL A   1      42.807  35.925  35.232  1.00  0.00    -0.237 OA
ATOM     71  O   UNL A   1      44.937  34.718  35.530  1.00  0.00    -0.744 OA
ENDBRANCH  64  68
ENDBRANCH  47  61
BRANCH  48  72
ATOM     72  C   UNL A   1      42.564  24.002  27.290  1.00  0.00     0.023 A 
ATOM     73  C   UNL A   1      41.981  22.734  27.444  1.00  0.00     0.031 A 
ATOM     74  C   UNL A   1      43.299  24.251  26.116  1.00  0.00     0.131 A 
ATOM     75  C   UNL A   1      42.192  21.744  26.471  1.00  0.00     0.055 A 
ATOM     76  C   UNL A   1      43.454  23.283  25.124  1.00  0.00     0.041 A 
ATOM     77  F   UNL A   1      43.877  25.446  25.918  1.00  0.00    -0.206 F 
ATOM     78  C   UNL A   1      42.913  22.014  25.307  1.00  0.00     0.022 A 
BRANCH  75  79
ATOM     79  S   UNL A   1      41.607  20.061  26.807  1.00  0.00     0.124 S 
ATOM     80  O   UNL A   1      41.609  19.473  25.473  1.00  0.00    -0.237 OA
ATOM     81  O   UNL A   1      42.624  19.566  27.729  1.00  0.00    -0.237 OA
ATOM     82  O   UNL A   1      40.285  20.273  27.395  1.00  0.00    -0.744 OA
ENDBRANCH  75  79
ENDBRANCH  48  72
BRANCH  60  83
ATOM     83  C   UNL A   1      46.738  25.671  32.611  1.00  0.00     0.023 A 
ATOM     84  C   UNL A   1      47.972  25.933  31.989  1.00  0.00     0.031 A 
ATOM     85  C   UNL A   1      46.727  24.800  33.716  1.00  0.00     0.131 A 
ATOM     86  C   UNL A   1      49.134  25.287  32.439  1.00  0.00     0.055 A 
ATOM     87  C   UNL A   1      47.896  24.208  34.197  1.00  0.00     0.041 A 
ATOM     88  F   UNL A   1      45.578  24.511  34.346  1.00  0.00    -0.206 F 
ATOM     89  C   UNL A   1      49.106  24.439  33.549  1.00  0.00     0.022 A 
BRANCH  86  90
ATOM     90  S   UNL A   1      50.668  25.497  31.495  1.00  0.00     0.124 S 
ATOM     91  O   UNL A   1      50.208  25.315  30.122  1.00  0.00    -0.237 OA
ATOM     92  O   UNL A   1      51.075  26.850  31.857  1.00  0.00    -0.237 OA
ATOM     93  O   UNL A   1      51.533  24.435  32.005  1.00  0.00    -0.744 OA
ENDBRANCH  86  90
ENDBRANCH  60  83
ENDBRANCH  34  35
ENDBRANCH  26  29
ENDBRANCH  24  25
ENDBRANCH  23  24
ENDBRANCH   1  23
TORSDOF 17
ENDMDL
MODEL 2
REMARK VINA RESULT:     -10.9      3.673      7.051
REMARK SMILES Cc1cccc(C[NH+]2CCC(OCC(=O)NCCCNC(=O)c3ccc(-c4c5nc(c(-c6cc(S(=O)(=O)[O-])ccc6F)c6ccc([nH]6)c(-c6cc(S(=O)(=O)[O-])ccc6F)c6nc(c(-c7cc(S(=O)(=O)[O-])ccc7F)c7ccc4[nH]7)C=C6)C=C5)cc3)CC2)n1
REMARK SMILES IDX 17 1 16 2 14 3 15 4 13 6 12 7 11 8 8 9 9 10 87 11 10 13
REMARK SMILES IDX 86 14 7 15 6 16 1 17 2 18 3 19 88 20 4 21 5 22 18 23 19 24
REMARK SMILES IDX 20 25 21 26 22 28 23 29 24 30 85 31 25 32 84 33 26 34 27 35
REMARK SMILES IDX 28 36 78 37 29 38 83 39 77 40 79 41 30 42 82 43 76 44 75 45
REMARK SMILES IDX 31 47 63 48 43 49 62 50 44 51 47 52 61 53 80 54 45 55 46 56
REMARK SMILES IDX 60 58 81 59 48 60 32 61 33 62 41 63 34 64 40 65 42 66 39 67
REMARK SMILES IDX 35 68 36 69 37 70 38 71 64 72 65 73 73 74 66 75 72 76 74 77
REMARK SMILES IDX 71 78 67 79 68 80 69 81 70 82 49 83 50 84 58 85 51 86 57 87
REMARK SMILES IDX 59 88 56 89 52 90 53 91 54 92 55 93
REMARK H PARENT 16 5 8 12 20 27 79 46 47 57
REMARK Flexibility Score: inf
ROOT
ATOM      1  C   UNL A   1      33.384  35.548  28.983  1.00  0.00     0.117 C 
ENDROOT
BRANCH   1   2
ATOM      2  N   UNL A   1      33.290  36.772  29.757  1.00  0.00    -0.354 N 
ATOM      3  C   UNL A   1      33.087  36.917  31.100  1.00  0.00     0.246 C 
ATOM      4  O   UNL A   1      33.246  38.029  31.606  1.00  0.00    -0.272 OA
ATOM      5  H   UNL A   1      33.385  37.608  29.247  1.00  0.00     0.163 HD
BRANCH   3   6
ATOM      6  C   UNL A   1      32.683  35.702  31.949  1.00  0.00     0.260 C 
BRANCH   6   7
ATOM      7  O   UNL A   1      33.235  34.441  31.618  1.00  0.00    -0.368 OA
BRANCH   7   8
ATOM      8  C   UNL A   1      34.493  34.086  32.205  1.00  0.00     0.130 C 
ATOM      9  N   UNL A   1      36.272  32.705  34.029  1.00  0.00    -0.330 N 
ATOM     10  C   UNL A   1      36.043  34.142  34.205  1.00  0.00     0.265 C 
ATOM     11  C   UNL A   1      36.232  32.334  32.607  1.00  0.00     0.265 C 
ATOM     12  H   UNL A   1      35.505  32.233  34.509  1.00  0.00     0.348 HD
ATOM     13  C   UNL A   1      34.661  34.532  33.662  1.00  0.00     0.093 C 
ATOM     14  C   UNL A   1      34.849  32.610  32.045  1.00  0.00     0.093 C 
BRANCH   9  15
ATOM     15  C   UNL A   1      37.512  32.221  34.679  1.00  0.00     0.319 C 
BRANCH  15  16
ATOM     16  C   UNL A   1      38.064  33.066  35.815  1.00  0.00     0.095 A 
ATOM     17  C   UNL A   1      40.027  36.168  35.984  1.00  0.00     0.067 C 
ATOM     18  C   UNL A   1      39.282  34.953  36.446  1.00  0.00     0.038 A 
ATOM     19  C   UNL A   1      38.965  34.755  37.782  1.00  0.00     0.023 A 
ATOM     20  N   UNL A   1      38.866  34.107  35.479  1.00  0.00    -0.252 NA
ATOM     21  C   UNL A   1      38.192  33.651  38.130  1.00  0.00     0.004 A 
ATOM     22  C   UNL A   1      37.723  32.797  37.136  1.00  0.00     0.030 A 
ENDBRANCH  15  16
ENDBRANCH   9  15
ENDBRANCH   7   8
ENDBRANCH   6   7
ENDBRANCH   3   6
ENDBRANCH   1   2
BRANCH   1  23
ATOM     23  C   UNL A   1      34.775  35.252  28.427  1.00  0.00     0.042 C 
BRANCH  23  24
ATOM     24  C   UNL A   1      35.277  33.822  28.633  1.00  0.00     0.118 C 
BRANCH  24  25
ATOM     25  N   UNL A   1      34.364  32.819  28.104  1.00  0.00    -0.352 N 
ATOM     26  C   UNL A   1      34.527  31.474  27.890  1.00  0.00     0.251 C 
ATOM     27  H   UNL A   1      33.476  33.166  27.858  1.00  0.00     0.163 HD
ATOM     28  O   UNL A   1      33.659  30.871  27.253  1.00  0.00    -0.269 OA
BRANCH  26  29
ATOM     29  C   UNL A   1      35.718  30.740  28.379  1.00  0.00     0.039 A 
ATOM     30  C   UNL A   1      36.898  30.811  27.630  1.00  0.00     0.014 A 
ATOM     31  C   UNL A   1      35.677  29.941  29.525  1.00  0.00     0.014 A 
ATOM     32  C   UNL A   1      38.050  30.148  28.068  1.00  0.00     0.010 A 
ATOM     33  C   UNL A   1      36.843  29.327  29.992  1.00  0.00     0.010 A 
ATOM     34  C   UNL A   1      38.045  29.434  29.276  1.00  0.00    -0.014 A 
BRANCH  34  35
ATOM     35  C   UNL A   1      39.297  28.833  29.817  1.00  0.00     0.031 A 
ATOM     36  C   UNL A   1      39.987  29.432  31.014  1.00  0.00     0.074 A 
ATOM     37  C   UNL A   1      39.847  27.774  29.186  1.00  0.00     0.049 A 
ATOM     38  N   UNL A   1      41.119  29.088  31.574  1.00  0.00    -0.248 NA
ATOM     39  C   UNL A   1      39.325  30.578  31.654  1.00  0.00     0.031 C 
ATOM     40  C   UNL A   1      39.292  27.118  27.999  1.00  0.00     0.029 A 
ATOM     41  N   UNL A   1      40.998  27.068  29.442  1.00  0.00    -0.354 N 
ATOM     42  C   UNL A   1      41.316  29.981  32.622  1.00  0.00     0.074 A 
ATOM     43  C   UNL A   1      40.202  30.907  32.593  1.00  0.00     0.031 C 
ATOM     44  C   UNL A   1      40.090  26.099  27.643  1.00  0.00     0.029 A 
ATOM     45  C   UNL A   1      41.241  26.057  28.540  1.00  0.00     0.049 A 
ATOM     46  H   UNL A   1      41.593  27.267  30.200  1.00  0.00     0.167 HD
ATOM     47  C   UNL A   1      42.323  30.017  33.530  1.00  0.00     0.034 A 
ATOM     48  C   UNL A   1      42.280  25.204  28.432  1.00  0.00     0.034 A 
ATOM     49  C   UNL A   1      43.421  29.078  33.558  1.00  0.00     0.049 A 
ATOM     50  C   UNL A   1      43.403  25.290  29.435  1.00  0.00     0.074 A 
ATOM     51  C   UNL A   1      44.452  28.988  34.478  1.00  0.00     0.029 A 
ATOM     52  N   UNL A   1      43.639  28.076  32.622  1.00  0.00    -0.354 N 
ATOM     53  N   UNL A   1      43.542  26.108  30.453  1.00  0.00    -0.248 NA
ATOM     54  C   UNL A   1      44.507  24.334  29.278  1.00  0.00     0.031 C 
ATOM     55  C   UNL A   1      45.330  27.982  34.060  1.00  0.00     0.029 A 
ATOM     56  C   UNL A   1      44.808  27.391  32.921  1.00  0.00     0.049 A 
ATOM     57  H   UNL A   1      43.050  27.880  31.857  1.00  0.00     0.167 HD
ATOM     58  C   UNL A   1      44.732  25.740  31.074  1.00  0.00     0.074 A 
ATOM     59  C   UNL A   1      45.261  24.617  30.329  1.00  0.00     0.031 C 
ATOM     60  C   UNL A   1      45.333  26.279  32.165  1.00  0.00     0.034 A 
BRANCH  47  61
ATOM     61  C   UNL A   1      42.307  31.125  34.555  1.00  0.00     0.023 A 
ATOM     62  C   UNL A   1      43.006  32.328  34.359  1.00  0.00     0.031 A 
ATOM     63  C   UNL A   1      41.562  30.982  35.739  1.00  0.00     0.131 A 
ATOM     64  C   UNL A   1      42.990  33.318  35.354  1.00  0.00     0.055 A 
ATOM     65  C   UNL A   1      41.493  31.998  36.694  1.00  0.00     0.041 A 
ATOM     66  F   UNL A   1      40.887  29.848  35.989  1.00  0.00    -0.206 F 
ATOM     67  C   UNL A   1      42.218  33.171  36.509  1.00  0.00     0.022 A 
BRANCH  64  68
ATOM     68  S   UNL A   1      44.079  34.756  35.167  1.00  0.00     0.124 S 
ATOM     69  O   UNL A   1      45.320  34.267  35.762  1.00  0.00    -0.237 OA
ATOM     70  O   UNL A   1      44.096  34.952  33.723  1.00  0.00    -0.237 OA
ATOM     71  O   UNL A   1      43.399  35.802  35.930  1.00  0.00    -0.744 OA
ENDBRANCH  64  68
ENDBRANCH  47  61
BRANCH  48  72
ATOM     72  C   UNL A   1      42.336  24.207  27.322  1.00  0.00     0.023 A 
ATOM     73  C   UNL A   1      41.685  22.968  27.433  1.00  0.00     0.031 A 
ATOM     74  C   UNL A   1      43.098  24.449  26.165  1.00  0.00     0.131 A 
ATOM     75  C   UNL A   1      41.857  21.996  26.435  1.00  0.00     0.055 A 
ATOM     76  C   UNL A   1      43.216  23.501  25.148  1.00  0.00     0.041 A 
ATOM     77  F   UNL A   1      43.742  25.617  26.008  1.00  0.00    -0.206 F 
ATOM     78  C   UNL A   1      42.607  22.258  25.288  1.00  0.00     0.022 A 
BRANCH  75  79
ATOM     79  S   UNL A   1      41.179  20.337  26.718  1.00  0.00     0.124 S 
ATOM     80  O   UNL A   1      40.082  20.297  25.757  1.00  0.00    -0.237 OA
ATOM     81  O   UNL A   1      42.326  19.487  26.418  1.00  0.00    -0.237 OA
ATOM     82  O   UNL A   1      40.778  20.369  28.123  1.00  0.00    -0.744 OA
ENDBRANCH  75  79
ENDBRANCH  48  72
BRANCH  60  83
ATOM     83  C   UNL A   1      46.609  25.626  32.636  1.00  0.00     0.023 A 
ATOM     84  C   UNL A   1      46.608  24.630  33.630  1.00  0.00     0.031 A 
ATOM     85  C   UNL A   1      47.848  26.020  32.098  1.00  0.00     0.131 A 
ATOM     86  C   UNL A   1      47.822  24.104  34.096  1.00  0.00     0.055 A 
ATOM     87  C   UNL A   1      49.049  25.449  32.522  1.00  0.00     0.041 A 
ATOM     88  F   UNL A   1      47.910  26.967  31.149  1.00  0.00    -0.206 F 
ATOM     89  C   UNL A   1      49.042  24.496  33.536  1.00  0.00     0.022 A 
BRANCH  86  90
ATOM     90  S   UNL A   1      47.795  22.968  35.509  1.00  0.00     0.124 S 
ATOM     91  O   UNL A   1      48.621  23.675  36.483  1.00  0.00    -0.237 OA
ATOM     92  O   UNL A   1      46.372  22.889  35.819  1.00  0.00    -0.237 OA
ATOM     93  O   UNL A   1      48.381  21.741  34.974  1.00  0.00    -0.744 OA
ENDBRANCH  86  90
ENDBRANCH  60  83
ENDBRANCH  34  35
ENDBRANCH  26  29
ENDBRANCH  24  25
ENDBRANCH  23  24
ENDBRANCH   1  23
TORSDOF 17
ENDMDL
MODEL 3
REMARK VINA RESULT:     -10.8      3.988      9.447
REMARK SMILES Cc1cccc(C[NH+]2CCC(OCC(=O)NCCCNC(=O)c3ccc(-c4c5nc(c(-c6cc(S(=O)(=O)[O-])ccc6F)c6ccc([nH]6)c(-c6cc(S(=O)(=O)[O-])ccc6F)c6nc(c(-c7cc(S(=O)(=O)[O-])ccc7F)c7ccc4[nH]7)C=C6)C=C5)cc3)CC2)n1
REMARK SMILES IDX 17 1 16 2 14 3 15 4 13 6 12 7 11 8 8 9 9 10 87 11 10 13
REMARK SMILES IDX 86 14 7 15 6 16 1 17 2 18 3 19 88 20 4 21 5 22 18 23 19 24
REMARK SMILES IDX 20 25 21 26 22 28 23 29 24 30 85 31 25 32 84 33 26 34 27 35
REMARK SMILES IDX 28 36 78 37 29 38 83 39 77 40 79 41 30 42 82 43 76 44 75 45
REMARK SMILES IDX 31 47 63 48 43 49 62 50 44 51 47 52 61 53 80 54 45 55 46 56
REMARK SMILES IDX 60 58 81 59 48 60 32 61 33 62 41 63 34 64 40 65 42 66 39 67
REMARK SMILES IDX 35 68 36 69 37 70 38 71 64 72 65 73 73 74 66 75 72 76 74 77
REMARK SMILES IDX 71 78 67 79 68 80 69 81 70 82 49 83 50 84 58 85 51 86 57 87
REMARK SMILES IDX 59 88 56 89 52 90 53 91 54 92 55 93
REMARK H PARENT 16 5 8 12 20 27 79 46 47 57
REMARK Flexibility Score: inf
ROOT
ATOM      1  C   UNL A   1      35.460  21.335  24.658  1.00  0.00     0.117 C 
ENDROOT
BRANCH   1   2
ATOM      2  N   UNL A   1      35.071  19.980  25.000  1.00  0.00    -0.354 N 
ATOM      3  C   UNL A   1      33.895  19.338  24.732  1.00  0.00     0.246 C 
ATOM      4  O   UNL A   1      33.830  18.121  24.917  1.00  0.00    -0.272 OA
ATOM      5  H   UNL A   1      35.744  19.453  25.488  1.00  0.00     0.163 HD
BRANCH   3   6
ATOM      6  C   UNL A   1      32.694  20.131  24.197  1.00  0.00     0.260 C 
BRANCH   6   7
ATOM      7  O   UNL A   1      31.750  20.626  25.130  1.00  0.00    -0.368 OA
BRANCH   7   8
ATOM      8  C   UNL A   1      31.657  22.046  25.300  1.00  0.00     0.130 C 
ATOM      9  N   UNL A   1      30.423  24.662  25.117  1.00  0.00    -0.330 N 
ATOM     10  C   UNL A   1      31.569  24.351  24.257  1.00  0.00     0.265 C 
ATOM     11  C   UNL A   1      30.539  23.984  26.416  1.00  0.00     0.265 C 
ATOM     12  H   UNL A   1      29.599  24.303  24.636  1.00  0.00     0.348 HD
ATOM     13  C   UNL A   1      31.638  22.840  23.988  1.00  0.00     0.093 C 
ATOM     14  C   UNL A   1      30.514  22.480  26.213  1.00  0.00     0.093 C 
BRANCH   9  15
ATOM     15  C   UNL A   1      30.190  26.115  25.284  1.00  0.00     0.319 C 
BRANCH  15  16
ATOM     16  C   UNL A   1      31.416  26.987  25.497  1.00  0.00     0.095 A 
ATOM     17  C   UNL A   1      33.566  28.975  23.276  1.00  0.00     0.067 C 
ATOM     18  C   UNL A   1      33.047  28.350  24.535  1.00  0.00     0.038 A 
ATOM     19  C   UNL A   1      33.531  28.713  25.784  1.00  0.00     0.023 A 
ATOM     20  N   UNL A   1      32.027  27.477  24.389  1.00  0.00    -0.252 NA
ATOM     21  C   UNL A   1      32.941  28.160  26.917  1.00  0.00     0.004 A 
ATOM     22  C   UNL A   1      31.861  27.293  26.778  1.00  0.00     0.030 A 
ENDBRANCH  15  16
ENDBRANCH   9  15
ENDBRANCH   7   8
ENDBRANCH   6   7
ENDBRANCH   3   6
ENDBRANCH   1   2
BRANCH   1  23
ATOM     23  C   UNL A   1      35.479  22.307  25.836  1.00  0.00     0.042 C 
BRANCH  23  24
ATOM     24  C   UNL A   1      36.821  22.989  26.108  1.00  0.00     0.118 C 
BRANCH  24  25
ATOM     25  N   UNL A   1      37.936  22.054  26.136  1.00  0.00    -0.352 N 
ATOM     26  C   UNL A   1      39.277  22.255  26.342  1.00  0.00     0.251 C 
ATOM     27  H   UNL A   1      37.685  21.115  25.980  1.00  0.00     0.163 HD
ATOM     28  O   UNL A   1      40.052  21.317  26.130  1.00  0.00    -0.269 OA
BRANCH  26  29
ATOM     29  C   UNL A   1      39.816  23.562  26.785  1.00  0.00     0.039 A 
ATOM     30  C   UNL A   1      39.920  24.593  25.844  1.00  0.00     0.014 A 
ATOM     31  C   UNL A   1      40.272  23.773  28.089  1.00  0.00     0.014 A 
ATOM     32  C   UNL A   1      40.406  25.849  26.227  1.00  0.00     0.010 A 
ATOM     33  C   UNL A   1      40.701  25.044  28.484  1.00  0.00     0.010 A 
ATOM     34  C   UNL A   1      40.761  26.099  27.561  1.00  0.00    -0.014 A 
BRANCH  34  35
ATOM     35  C   UNL A   1      41.157  27.465  28.007  1.00  0.00     0.031 A 
ATOM     36  C   UNL A   1      42.604  27.879  28.035  1.00  0.00     0.074 A 
ATOM     37  C   UNL A   1      40.206  28.316  28.448  1.00  0.00     0.049 A 
ATOM     38  N   UNL A   1      43.136  28.996  28.463  1.00  0.00    -0.248 NA
ATOM     39  C   UNL A   1      43.582  26.903  27.533  1.00  0.00     0.031 C 
ATOM     40  C   UNL A   1      38.771  28.025  28.498  1.00  0.00     0.029 A 
ATOM     41  N   UNL A   1      40.299  29.593  28.947  1.00  0.00    -0.354 N 
ATOM     42  C   UNL A   1      44.510  28.855  28.296  1.00  0.00     0.074 A 
ATOM     43  C   UNL A   1      44.729  27.526  27.764  1.00  0.00     0.031 C 
ATOM     44  C   UNL A   1      38.120  29.095  28.981  1.00  0.00     0.029 A 
ATOM     45  C   UNL A   1      39.089  30.130  29.326  1.00  0.00     0.049 A 
ATOM     46  H   UNL A   1      41.152  30.078  29.027  1.00  0.00     0.167 HD
ATOM     47  C   UNL A   1      45.493  29.755  28.550  1.00  0.00     0.034 A 
ATOM     48  C   UNL A   1      38.792  31.313  29.903  1.00  0.00     0.034 A 
ATOM     49  C   UNL A   1      45.260  31.084  29.066  1.00  0.00     0.049 A 
ATOM     50  C   UNL A   1      39.910  32.278  30.206  1.00  0.00     0.074 A 
ATOM     51  C   UNL A   1      46.182  32.093  29.291  1.00  0.00     0.029 A 
ATOM     52  N   UNL A   1      44.024  31.587  29.447  1.00  0.00    -0.354 N 
ATOM     53  N   UNL A   1      41.199  32.147  29.989  1.00  0.00    -0.248 NA
ATOM     54  C   UNL A   1      39.533  33.555  30.827  1.00  0.00     0.031 C 
ATOM     55  C   UNL A   1      45.517  33.176  29.874  1.00  0.00     0.029 A 
ATOM     56  C   UNL A   1      44.166  32.876  29.942  1.00  0.00     0.049 A 
ATOM     57  H   UNL A   1      43.170  31.101  29.377  1.00  0.00     0.167 HD
ATOM     58  C   UNL A   1      41.778  33.338  30.417  1.00  0.00     0.074 A 
ATOM     59  C   UNL A   1      40.699  34.181  30.886  1.00  0.00     0.031 C 
ATOM     60  C   UNL A   1      43.085  33.704  30.419  1.00  0.00     0.034 A 
BRANCH  47  61
ATOM     61  C   UNL A   1      46.920  29.326  28.304  1.00  0.00     0.023 A 
ATOM     62  C   UNL A   1      47.704  28.741  29.313  1.00  0.00     0.031 A 
ATOM     63  C   UNL A   1      47.497  29.487  27.032  1.00  0.00     0.131 A 
ATOM     64  C   UNL A   1      49.036  28.388  29.048  1.00  0.00     0.055 A 
ATOM     65  C   UNL A   1      48.800  29.070  26.755  1.00  0.00     0.041 A 
ATOM     66  F   UNL A   1      46.802  30.055  26.033  1.00  0.00    -0.206 F 
ATOM     67  C   UNL A   1      49.582  28.526  27.770  1.00  0.00     0.022 A 
BRANCH  64  68
ATOM     68  S   UNL A   1      50.081  27.845  30.427  1.00  0.00     0.124 S 
ATOM     69  O   UNL A   1      51.397  27.787  29.796  1.00  0.00    -0.237 OA
ATOM     70  O   UNL A   1      49.888  28.907  31.407  1.00  0.00    -0.237 OA
ATOM     71  O   UNL A   1      49.517  26.547  30.795  1.00  0.00    -0.744 OA
ENDBRANCH  64  68
ENDBRANCH  47  61
BRANCH  48  72
ATOM     72  C   UNL A   1      37.384  31.652  30.262  1.00  0.00     0.023 A 
ATOM     73  C   UNL A   1      36.484  32.117  29.290  1.00  0.00     0.031 A 
ATOM     74  C   UNL A   1      36.938  31.586  31.594  1.00  0.00     0.131 A 
ATOM     75  C   UNL A   1      35.206  32.554  29.672  1.00  0.00     0.055 A 
ATOM     76  C   UNL A   1      35.645  31.965  31.959  1.00  0.00     0.041 A 
ATOM     77  F   UNL A   1      37.757  31.149  32.564  1.00  0.00    -0.206 F 
ATOM     78  C   UNL A   1      34.776  32.469  30.996  1.00  0.00     0.022 A 
BRANCH  75  79
ATOM     79  S   UNL A   1      34.154  33.347  28.424  1.00  0.00     0.124 S 
ATOM     80  O   UNL A   1      33.536  32.193  27.780  1.00  0.00    -0.237 OA
ATOM     81  O   UNL A   1      33.275  34.169  29.249  1.00  0.00    -0.237 OA
ATOM     82  O   UNL A   1      35.106  34.088  27.599  1.00  0.00    -0.744 OA
ENDBRANCH  75  79
ENDBRANCH  48  72
BRANCH  60  83
ATOM     83  C   UNL A   1      43.404  35.096  30.907  1.00  0.00     0.023 A 
ATOM     84  C   UNL A   1      43.447  36.196  30.031  1.00  0.00     0.031 A 
ATOM     85  C   UNL A   1      43.689  35.323  32.266  1.00  0.00     0.131 A 
ATOM     86  C   UNL A   1      43.826  37.459  30.511  1.00  0.00     0.055 A 
ATOM     87  C   UNL A   1      44.005  36.593  32.749  1.00  0.00     0.041 A 
ATOM     88  F   UNL A   1      43.666  34.310  33.146  1.00  0.00    -0.206 F 
ATOM     89  C   UNL A   1      44.089  37.668  31.868  1.00  0.00     0.022 A 
BRANCH  86  90
ATOM     90  S   UNL A   1      44.061  38.809  29.323  1.00  0.00     0.124 S 
ATOM     91  O   UNL A   1      42.716  38.972  28.779  1.00  0.00    -0.237 OA
ATOM     92  O   UNL A   1      44.541  39.893  30.173  1.00  0.00    -0.237 OA
ATOM     93  O   UNL A   1      45.048  38.274  28.387  1.00  0.00    -0.744 OA
ENDBRANCH  86  90
ENDBRANCH  60  83
ENDBRANCH  34  35
ENDBRANCH  26  29
ENDBRANCH  24  25
ENDBRANCH  23  24
ENDBRANCH   1  23
TORSDOF 17
ENDMDL
