MODEL 1
REMARK VINA RESULT:     -12.2      0.000      0.000
REMARK SMILES O=C(Cc1ccccc1C(=O)NCCCNC(=O)c1ccc(-c2c3nc(c(-c4cc(S(=O)(=O)[O-])ccc4F)c4ccc([nH]4)c(-c4cc(S(=O)(=O)[O-])ccc4F)c4nc(c(-c5cc(S(=O)(=O)[O-])ccc5F)c5ccc2[nH]5)C=C4)C=C3)cc1)Nc1ccc(S(=O)(=O)N2CCCC2)cc1
REMARK SMILES IDX 13 1 12 2 10 3 11 4 9 6 4 7 5 8 6 9 8 10 7 11 3 12 2 13 1 14
REMARK SMILES IDX 82 15 83 17 84 18 96 19 85 20 95 21 86 22 87 23 88 24 89 25
REMARK SMILES IDX 90 26 91 27 94 28 92 29 93 30 14 31 15 32 16 33 17 34 18 36
REMARK SMILES IDX 19 37 20 38 81 39 21 40 80 41 22 42 23 43 24 44 74 45 25 46
REMARK SMILES IDX 79 47 73 48 75 49 26 50 78 51 72 52 71 53 27 55 59 56 39 57
REMARK SMILES IDX 58 58 40 59 43 60 57 61 76 62 41 63 42 64 56 66 77 67 44 68
REMARK SMILES IDX 28 69 29 70 37 71 30 72 36 73 38 74 35 75 31 76 32 77 33 78
REMARK SMILES IDX 34 79 60 80 61 81 69 82 62 83 68 84 70 85 67 86 63 87 64 88
REMARK SMILES IDX 65 89 66 90 45 91 46 92 54 93 47 94 53 95 55 96 52 97 48 98
REMARK SMILES IDX 49 99 50 100 51 101
REMARK H PARENT 12 5 82 16 16 35 75 54 43 65
REMARK Flexibility Score: inf
ROOT
ATOM      1  C   UNL A   1      32.198  26.913  25.985  1.00  0.00     0.118 C 
ENDROOT
BRANCH   1   2
ATOM      2  N   UNL A   1      32.209  25.551  26.484  1.00  0.00    -0.352 N 
ATOM      3  C   UNL A   1      32.782  24.349  26.176  1.00  0.00     0.251 C 
ATOM      4  O   UNL A   1      32.395  23.429  26.912  1.00  0.00    -0.269 OA
ATOM      5  H   UNL A   1      31.635  25.469  27.279  1.00  0.00     0.163 HD
BRANCH   3   6
ATOM      6  C   UNL A   1      33.864  24.017  25.172  1.00  0.00     0.043 A 
ATOM      7  C   UNL A   1      33.807  23.553  23.837  1.00  0.00    -0.026 A 
ATOM      8  C   UNL A   1      35.018  23.236  23.155  1.00  0.00     0.005 A 
ATOM      9  C   UNL A   1      36.257  23.281  23.783  1.00  0.00     0.000 A 
ATOM     10  C   UNL A   1      35.154  24.053  25.770  1.00  0.00     0.014 A 
ATOM     11  C   UNL A   1      36.322  23.672  25.104  1.00  0.00     0.001 A 
BRANCH   7  12
ATOM     12  C   UNL A   1      32.570  23.123  23.096  1.00  0.00     0.136 C 
BRANCH  12  13
ATOM     13  C   UNL A   1      31.519  24.203  23.160  1.00  0.00     0.228 C 
ATOM     14  O   UNL A   1      30.424  23.986  23.669  1.00  0.00    -0.274 OA
ATOM     15  N   UNL A   1      31.870  25.392  22.555  1.00  0.00    -0.326 N 
ATOM     16  H   UNL A   1      32.669  25.412  21.980  1.00  0.00     0.169 HD
BRANCH  15  17
ATOM     17  C   UNL A   1      31.135  26.577  22.729  1.00  0.00     0.041 A 
ATOM     18  C   UNL A   1      31.731  27.797  22.413  1.00  0.00     0.027 A 
ATOM     19  C   UNL A   1      29.827  26.551  23.225  1.00  0.00     0.027 A 
ATOM     20  C   UNL A   1      31.011  28.984  22.577  1.00  0.00     0.024 A 
ATOM     21  C   UNL A   1      29.099  27.723  23.364  1.00  0.00     0.024 A 
ATOM     22  C   UNL A   1      29.701  28.940  23.069  1.00  0.00     0.082 A 
BRANCH  22  23
ATOM     23  S   UNL A   1      28.824  30.456  23.395  1.00  0.00     0.243 S 
ATOM     24  O   UNL A   1      27.424  30.102  23.501  1.00  0.00    -0.207 OA
ATOM     25  O   UNL A   1      29.518  31.114  24.482  1.00  0.00    -0.207 OA
BRANCH  23  26
ATOM     26  N   UNL A   1      29.017  31.343  21.982  1.00  0.00    -0.198 NA
ATOM     27  C   UNL A   1      28.894  32.809  22.015  1.00  0.00     0.102 C 
ATOM     28  C   UNL A   1      28.502  30.843  20.694  1.00  0.00     0.102 C 
ATOM     29  C   UNL A   1      27.717  33.113  21.105  1.00  0.00     0.018 C 
ATOM     30  C   UNL A   1      27.714  31.994  20.078  1.00  0.00     0.018 C 
ENDBRANCH  23  26
ENDBRANCH  22  23
ENDBRANCH  15  17
ENDBRANCH  12  13
ENDBRANCH   7  12
ENDBRANCH   3   6
ENDBRANCH   1   2
BRANCH   1  31
ATOM     31  C   UNL A   1      33.324  27.732  26.632  1.00  0.00     0.042 C 
BRANCH  31  32
ATOM     32  C   UNL A   1      33.874  28.867  25.771  1.00  0.00     0.118 C 
BRANCH  32  33
ATOM     33  N   UNL A   1      33.673  30.169  26.380  1.00  0.00    -0.352 N 
ATOM     34  C   UNL A   1      34.311  30.806  27.417  1.00  0.00     0.251 C 
ATOM     35  H   UNL A   1      32.943  30.692  25.975  1.00  0.00     0.163 HD
ATOM     36  O   UNL A   1      33.783  31.825  27.865  1.00  0.00    -0.269 OA
BRANCH  34  37
ATOM     37  C   UNL A   1      35.580  30.314  28.023  1.00  0.00     0.039 A 
ATOM     38  C   UNL A   1      36.753  30.412  27.260  1.00  0.00     0.014 A 
ATOM     39  C   UNL A   1      35.643  29.676  29.262  1.00  0.00     0.014 A 
ATOM     40  C   UNL A   1      37.968  29.905  27.743  1.00  0.00     0.010 A 
ATOM     41  C   UNL A   1      36.874  29.262  29.788  1.00  0.00     0.010 A 
ATOM     42  C   UNL A   1      38.050  29.345  29.026  1.00  0.00    -0.014 A 
BRANCH  42  43
ATOM     43  C   UNL A   1      39.329  28.779  29.555  1.00  0.00     0.031 A 
ATOM     44  C   UNL A   1      40.053  29.474  30.685  1.00  0.00     0.074 A 
ATOM     45  C   UNL A   1      39.871  27.671  29.007  1.00  0.00     0.049 A 
ATOM     46  N   UNL A   1      41.236  29.229  31.194  1.00  0.00    -0.248 NA
ATOM     47  C   UNL A   1      39.363  30.616  31.306  1.00  0.00     0.031 C 
ATOM     48  C   UNL A   1      39.295  26.891  27.910  1.00  0.00     0.029 A 
ATOM     49  N   UNL A   1      41.049  27.020  29.287  1.00  0.00    -0.354 N 
ATOM     50  C   UNL A   1      41.434  30.188  32.183  1.00  0.00     0.074 A 
ATOM     51  C   UNL A   1      40.286  31.069  32.141  1.00  0.00     0.031 C 
ATOM     52  C   UNL A   1      40.122  25.877  27.605  1.00  0.00     0.029 A 
ATOM     53  C   UNL A   1      41.309  25.961  28.449  1.00  0.00     0.049 A 
ATOM     54  H   UNL A   1      41.651  27.287  30.019  1.00  0.00     0.167 HD
ATOM     55  C   UNL A   1      42.450  30.305  33.076  1.00  0.00     0.034 A 
ATOM     56  C   UNL A   1      42.391  25.165  28.344  1.00  0.00     0.034 A 
ATOM     57  C   UNL A   1      43.576  29.405  33.140  1.00  0.00     0.049 A 
ATOM     58  C   UNL A   1      43.537  25.343  29.301  1.00  0.00     0.074 A 
ATOM     59  C   UNL A   1      44.624  29.395  34.045  1.00  0.00     0.029 A 
ATOM     60  N   UNL A   1      43.799  28.349  32.268  1.00  0.00    -0.354 N 
ATOM     61  N   UNL A   1      43.696  26.246  30.238  1.00  0.00    -0.248 NA
ATOM     62  C   UNL A   1      44.633  24.372  29.200  1.00  0.00     0.031 C 
ATOM     63  C   UNL A   1      45.507  28.368  33.688  1.00  0.00     0.029 A 
ATOM     64  C   UNL A   1      44.974  27.693  32.602  1.00  0.00     0.049 A 
ATOM     65  H   UNL A   1      43.208  28.101  31.519  1.00  0.00     0.167 HD
ATOM     66  C   UNL A   1      44.891  25.920  30.873  1.00  0.00     0.074 A 
ATOM     67  C   UNL A   1      45.411  24.744  30.205  1.00  0.00     0.031 C 
ATOM     68  C   UNL A   1      45.492  26.527  31.927  1.00  0.00     0.034 A 
BRANCH  55  69
ATOM     69  C   UNL A   1      42.383  31.454  34.058  1.00  0.00     0.023 A 
ATOM     70  C   UNL A   1      41.536  31.412  35.180  1.00  0.00     0.031 A 
ATOM     71  C   UNL A   1      43.153  32.613  33.862  1.00  0.00     0.131 A 
ATOM     72  C   UNL A   1      41.411  32.536  36.010  1.00  0.00     0.055 A 
ATOM     73  C   UNL A   1      43.091  33.697  34.743  1.00  0.00     0.041 A 
ATOM     74  F   UNL A   1      43.970  32.721  32.803  1.00  0.00    -0.206 F 
ATOM     75  C   UNL A   1      42.203  33.669  35.815  1.00  0.00     0.022 A 
BRANCH  72  76
ATOM     76  S   UNL A   1      40.095  32.547  37.257  1.00  0.00     0.124 S 
ATOM     77  O   UNL A   1      39.263  31.431  36.815  1.00  0.00    -0.237 OA
ATOM     78  O   UNL A   1      40.832  32.341  38.498  1.00  0.00    -0.237 OA
ATOM     79  O   UNL A   1      39.488  33.868  37.103  1.00  0.00    -0.744 OA
ENDBRANCH  72  76
ENDBRANCH  55  69
BRANCH  56  80
ATOM     80  C   UNL A   1      42.476  24.148  27.261  1.00  0.00     0.023 A 
ATOM     81  C   UNL A   1      41.904  22.876  27.404  1.00  0.00     0.031 A 
ATOM     82  C   UNL A   1      43.203  24.423  26.092  1.00  0.00     0.131 A 
ATOM     83  C   UNL A   1      42.104  21.910  26.406  1.00  0.00     0.055 A 
ATOM     84  C   UNL A   1      43.363  23.472  25.083  1.00  0.00     0.041 A 
ATOM     85  F   UNL A   1      43.771  25.627  25.919  1.00  0.00    -0.206 F 
ATOM     86  C   UNL A   1      42.819  22.202  25.243  1.00  0.00     0.022 A 
BRANCH  83  87
ATOM     87  S   UNL A   1      41.471  20.233  26.687  1.00  0.00     0.124 S 
ATOM     88  O   UNL A   1      41.810  19.574  25.431  1.00  0.00    -0.237 OA
ATOM     89  O   UNL A   1      42.236  19.816  27.858  1.00  0.00    -0.237 OA
ATOM     90  O   UNL A   1      40.045  20.443  26.921  1.00  0.00    -0.744 OA
ENDBRANCH  83  87
ENDBRANCH  56  80
BRANCH  68  91
ATOM     91  C   UNL A   1      46.740  25.875  32.465  1.00  0.00     0.023 A 
ATOM     92  C   UNL A   1      46.694  24.908  33.483  1.00  0.00     0.031 A 
ATOM     93  C   UNL A   1      47.999  26.268  31.978  1.00  0.00     0.131 A 
ATOM     94  C   UNL A   1      47.889  24.415  34.029  1.00  0.00     0.055 A 
ATOM     95  C   UNL A   1      49.183  25.729  32.483  1.00  0.00     0.041 A 
ATOM     96  F   UNL A   1      48.100  27.193  31.010  1.00  0.00    -0.206 F 
ATOM     97  C   UNL A   1      49.132  24.808  33.526  1.00  0.00     0.022 A 
BRANCH  94  98
ATOM     98  S   UNL A   1      47.800  23.337  35.485  1.00  0.00     0.124 S 
ATOM     99  O   UNL A   1      46.366  23.314  35.756  1.00  0.00    -0.237 OA
ATOM    100  O   UNL A   1      48.375  22.092  34.986  1.00  0.00    -0.237 OA
ATOM    101  O   UNL A   1      48.609  24.037  36.481  1.00  0.00    -0.744 OA
ENDBRANCH  94  98
ENDBRANCH  68  91
ENDBRANCH  42  43
ENDBRANCH  34  37
ENDBRANCH  32  33
ENDBRANCH  31  32
ENDBRANCH   1  31
TORSDOF 18
ENDMDL
MODEL 2
REMARK VINA RESULT:     -11.7      1.902      7.598
REMARK SMILES O=C(Cc1ccccc1C(=O)NCCCNC(=O)c1ccc(-c2c3nc(c(-c4cc(S(=O)(=O)[O-])ccc4F)c4ccc([nH]4)c(-c4cc(S(=O)(=O)[O-])ccc4F)c4nc(c(-c5cc(S(=O)(=O)[O-])ccc5F)c5ccc2[nH]5)C=C4)C=C3)cc1)Nc1ccc(S(=O)(=O)N2CCCC2)cc1
REMARK SMILES IDX 13 1 12 2 10 3 11 4 9 6 4 7 5 8 6 9 8 10 7 11 3 12 2 13 1 14
REMARK SMILES IDX 82 15 83 17 84 18 96 19 85 20 95 21 86 22 87 23 88 24 89 25
REMARK SMILES IDX 90 26 91 27 94 28 92 29 93 30 14 31 15 32 16 33 17 34 18 36
REMARK SMILES IDX 19 37 20 38 81 39 21 40 80 41 22 42 23 43 24 44 74 45 25 46
REMARK SMILES IDX 79 47 73 48 75 49 26 50 78 51 72 52 71 53 27 55 59 56 39 57
REMARK SMILES IDX 58 58 40 59 43 60 57 61 76 62 41 63 42 64 56 66 77 67 44 68
REMARK SMILES IDX 28 69 29 70 37 71 30 72 36 73 38 74 35 75 31 76 32 77 33 78
REMARK SMILES IDX 34 79 60 80 61 81 69 82 62 83 68 84 70 85 67 86 63 87 64 88
REMARK SMILES IDX 65 89 66 90 45 91 46 92 54 93 47 94 53 95 55 96 52 97 48 98
REMARK SMILES IDX 49 99 50 100 51 101
REMARK H PARENT 12 5 82 16 16 35 75 54 43 65
REMARK Flexibility Score: inf
ROOT
ATOM      1  C   UNL A   1      32.114  26.799  25.871  1.00  0.00     0.118 C 
ENDROOT
BRANCH   1   2
ATOM      2  N   UNL A   1      32.302  25.501  26.490  1.00  0.00    -0.352 N 
ATOM      3  C   UNL A   1      32.946  24.324  26.232  1.00  0.00     0.251 C 
ATOM      4  O   UNL A   1      32.724  23.455  27.090  1.00  0.00    -0.269 OA
ATOM      5  H   UNL A   1      31.824  25.454  27.350  1.00  0.00     0.163 HD
BRANCH   3   6
ATOM      6  C   UNL A   1      33.943  23.979  25.147  1.00  0.00     0.043 A 
ATOM      7  C   UNL A   1      33.777  23.517  23.820  1.00  0.00    -0.026 A 
ATOM      8  C   UNL A   1      34.926  23.185  23.047  1.00  0.00     0.005 A 
ATOM      9  C   UNL A   1      36.211  23.215  23.576  1.00  0.00     0.000 A 
ATOM     10  C   UNL A   1      35.276  23.998  25.643  1.00  0.00     0.014 A 
ATOM     11  C   UNL A   1      36.384  23.604  24.888  1.00  0.00     0.001 A 
BRANCH   7  12
ATOM     12  C   UNL A   1      32.480  23.103  23.178  1.00  0.00     0.136 C 
BRANCH  12  13
ATOM     13  C   UNL A   1      31.448  24.192  23.333  1.00  0.00     0.228 C 
ATOM     14  O   UNL A   1      30.492  24.050  24.090  1.00  0.00    -0.274 OA
ATOM     15  N   UNL A   1      31.638  25.293  22.524  1.00  0.00    -0.326 N 
ATOM     16  H   UNL A   1      32.293  25.234  21.792  1.00  0.00     0.169 HD
BRANCH  15  17
ATOM     17  C   UNL A   1      30.935  26.496  22.705  1.00  0.00     0.041 A 
ATOM     18  C   UNL A   1      31.527  27.694  22.304  1.00  0.00     0.027 A 
ATOM     19  C   UNL A   1      29.665  26.513  23.290  1.00  0.00     0.027 A 
ATOM     20  C   UNL A   1      30.840  28.898  22.474  1.00  0.00     0.024 A 
ATOM     21  C   UNL A   1      28.967  27.701  23.436  1.00  0.00     0.024 A 
ATOM     22  C   UNL A   1      29.566  28.896  23.056  1.00  0.00     0.082 A 
BRANCH  22  23
ATOM     23  S   UNL A   1      28.739  30.438  23.386  1.00  0.00     0.243 S 
ATOM     24  O   UNL A   1      27.329  30.127  23.507  1.00  0.00    -0.207 OA
ATOM     25  O   UNL A   1      29.463  31.079  24.463  1.00  0.00    -0.207 OA
BRANCH  23  26
ATOM     26  N   UNL A   1      28.943  31.315  21.968  1.00  0.00    -0.198 NA
ATOM     27  C   UNL A   1      28.826  32.782  21.990  1.00  0.00     0.102 C 
ATOM     28  C   UNL A   1      28.434  30.808  20.680  1.00  0.00     0.102 C 
ATOM     29  C   UNL A   1      27.655  33.084  21.071  1.00  0.00     0.018 C 
ATOM     30  C   UNL A   1      27.654  31.958  20.052  1.00  0.00     0.018 C 
ENDBRANCH  23  26
ENDBRANCH  22  23
ENDBRANCH  15  17
ENDBRANCH  12  13
ENDBRANCH   7  12
ENDBRANCH   3   6
ENDBRANCH   1   2
BRANCH   1  31
ATOM     31  C   UNL A   1      33.344  27.688  26.103  1.00  0.00     0.042 C 
BRANCH  31  32
ATOM     32  C   UNL A   1      33.466  28.881  25.158  1.00  0.00     0.118 C 
BRANCH  32  33
ATOM     33  N   UNL A   1      32.935  30.101  25.738  1.00  0.00    -0.352 N 
ATOM     34  C   UNL A   1      33.327  30.848  26.824  1.00  0.00     0.251 C 
ATOM     35  H   UNL A   1      32.148  30.460  25.267  1.00  0.00     0.163 HD
ATOM     36  O   UNL A   1      32.553  31.723  27.217  1.00  0.00    -0.269 OA
BRANCH  34  37
ATOM     37  C   UNL A   1      34.613  30.634  27.543  1.00  0.00     0.039 A 
ATOM     38  C   UNL A   1      34.778  29.436  28.254  1.00  0.00     0.014 A 
ATOM     39  C   UNL A   1      35.618  31.599  27.625  1.00  0.00     0.014 A 
ATOM     40  C   UNL A   1      35.936  29.202  29.008  1.00  0.00     0.010 A 
ATOM     41  C   UNL A   1      36.817  31.323  28.293  1.00  0.00     0.010 A 
ATOM     42  C   UNL A   1      36.984  30.132  29.018  1.00  0.00    -0.014 A 
BRANCH  42  43
ATOM     43  C   UNL A   1      38.220  29.915  29.830  1.00  0.00     0.031 A 
ATOM     44  C   UNL A   1      39.277  28.944  29.354  1.00  0.00     0.074 A 
ATOM     45  C   UNL A   1      38.389  30.546  31.010  1.00  0.00     0.049 A 
ATOM     46  N   UNL A   1      40.348  28.508  29.971  1.00  0.00    -0.248 NA
ATOM     47  C   UNL A   1      39.083  28.364  28.017  1.00  0.00     0.031 C 
ATOM     48  C   UNL A   1      37.460  31.509  31.605  1.00  0.00     0.029 A 
ATOM     49  N   UNL A   1      39.400  30.454  31.938  1.00  0.00    -0.354 N 
ATOM     50  C   UNL A   1      40.948  27.601  29.103  1.00  0.00     0.074 A 
ATOM     51  C   UNL A   1      40.073  27.485  27.955  1.00  0.00     0.031 C 
ATOM     52  C   UNL A   1      37.937  31.908  32.796  1.00  0.00     0.029 A 
ATOM     53  C   UNL A   1      39.180  31.197  33.074  1.00  0.00     0.049 A 
ATOM     54  H   UNL A   1      40.207  29.906  31.801  1.00  0.00     0.167 HD
ATOM     55  C   UNL A   1      42.136  26.954  29.221  1.00  0.00     0.034 A 
ATOM     56  C   UNL A   1      39.875  31.275  34.224  1.00  0.00     0.034 A 
ATOM     57  C   UNL A   1      43.025  27.098  30.349  1.00  0.00     0.049 A 
ATOM     58  C   UNL A   1      41.160  30.508  34.367  1.00  0.00     0.074 A 
ATOM     59  C   UNL A   1      44.278  26.541  30.539  1.00  0.00     0.029 A 
ATOM     60  N   UNL A   1      42.757  27.858  31.479  1.00  0.00    -0.354 N 
ATOM     61  N   UNL A   1      41.717  29.668  33.527  1.00  0.00    -0.248 NA
ATOM     62  C   UNL A   1      41.922  30.726  35.603  1.00  0.00     0.031 C 
ATOM     63  C   UNL A   1      44.744  26.920  31.804  1.00  0.00     0.029 A 
ATOM     64  C   UNL A   1      43.812  27.771  32.375  1.00  0.00     0.049 A 
ATOM     65  H   UNL A   1      41.936  28.384  31.624  1.00  0.00     0.167 HD
ATOM     66  C   UNL A   1      42.922  29.295  34.114  1.00  0.00     0.074 A 
ATOM     67  C   UNL A   1      43.004  29.996  35.380  1.00  0.00     0.031 C 
ATOM     68  C   UNL A   1      43.884  28.464  33.639  1.00  0.00     0.034 A 
BRANCH  55  69
ATOM     69  C   UNL A   1      42.541  26.032  28.093  1.00  0.00     0.023 A 
ATOM     70  C   UNL A   1      41.939  24.772  27.922  1.00  0.00     0.031 A 
ATOM     71  C   UNL A   1      43.554  26.401  27.191  1.00  0.00     0.131 A 
ATOM     72  C   UNL A   1      42.413  23.894  26.936  1.00  0.00     0.055 A 
ATOM     73  C   UNL A   1      43.962  25.556  26.154  1.00  0.00     0.041 A 
ATOM     74  F   UNL A   1      44.177  27.584  27.309  1.00  0.00    -0.206 F 
ATOM     75  C   UNL A   1      43.402  24.287  26.033  1.00  0.00     0.022 A 
BRANCH  72  76
ATOM     76  S   UNL A   1      41.819  22.180  26.948  1.00  0.00     0.124 S 
ATOM     77  O   UNL A   1      42.657  21.588  27.988  1.00  0.00    -0.237 OA
ATOM     78  O   UNL A   1      40.408  22.337  27.278  1.00  0.00    -0.237 OA
ATOM     79  O   UNL A   1      42.096  21.712  25.592  1.00  0.00    -0.744 OA
ENDBRANCH  72  76
ENDBRANCH  55  69
BRANCH  56  80
ATOM     80  C   UNL A   1      39.358  32.077  35.366  1.00  0.00     0.023 A 
ATOM     81  C   UNL A   1      39.781  33.395  35.588  1.00  0.00     0.031 A 
ATOM     82  C   UNL A   1      38.478  31.496  36.294  1.00  0.00     0.131 A 
ATOM     83  C   UNL A   1      39.354  34.076  36.738  1.00  0.00     0.055 A 
ATOM     84  C   UNL A   1      38.023  32.192  37.413  1.00  0.00     0.041 A 
ATOM     85  F   UNL A   1      38.053  30.235  36.120  1.00  0.00    -0.206 F 
ATOM     86  C   UNL A   1      38.470  33.488  37.645  1.00  0.00     0.022 A 
BRANCH  83  87
ATOM     87  S   UNL A   1      40.033  35.726  37.069  1.00  0.00     0.124 S 
ATOM     88  O   UNL A   1      39.657  36.448  35.859  1.00  0.00    -0.237 OA
ATOM     89  O   UNL A   1      39.325  36.102  38.288  1.00  0.00    -0.237 OA
ATOM     90  O   UNL A   1      41.463  35.478  37.233  1.00  0.00    -0.744 OA
ENDBRANCH  83  87
ENDBRANCH  56  80
BRANCH  68  91
ATOM     91  C   UNL A   1      45.139  28.335  34.464  1.00  0.00     0.023 A 
ATOM     92  C   UNL A   1      45.270  27.364  35.471  1.00  0.00     0.031 A 
ATOM     93  C   UNL A   1      46.201  29.234  34.266  1.00  0.00     0.131 A 
ATOM     94  C   UNL A   1      46.410  27.359  36.289  1.00  0.00     0.055 A 
ATOM     95  C   UNL A   1      47.360  29.185  35.042  1.00  0.00     0.041 A 
ATOM     96  F   UNL A   1      46.125  30.185  33.320  1.00  0.00    -0.206 F 
ATOM     97  C   UNL A   1      47.462  28.253  36.071  1.00  0.00     0.022 A 
BRANCH  94  98
ATOM     98  S   UNL A   1      46.452  26.240  37.715  1.00  0.00     0.124 S 
ATOM     99  O   UNL A   1      45.417  25.271  37.370  1.00  0.00    -0.237 OA
ATOM    100  O   UNL A   1      47.825  25.746  37.683  1.00  0.00    -0.237 OA
ATOM    101  O   UNL A   1      46.134  27.111  38.845  1.00  0.00    -0.744 OA
ENDBRANCH  94  98
ENDBRANCH  68  91
ENDBRANCH  42  43
ENDBRANCH  34  37
ENDBRANCH  32  33
ENDBRANCH  31  32
ENDBRANCH   1  31
TORSDOF 18
ENDMDL
MODEL 3
REMARK VINA RESULT:     -11.6      4.163      9.053
REMARK SMILES O=C(Cc1ccccc1C(=O)NCCCNC(=O)c1ccc(-c2c3nc(c(-c4cc(S(=O)(=O)[O-])ccc4F)c4ccc([nH]4)c(-c4cc(S(=O)(=O)[O-])ccc4F)c4nc(c(-c5cc(S(=O)(=O)[O-])ccc5F)c5ccc2[nH]5)C=C4)C=C3)cc1)Nc1ccc(S(=O)(=O)N2CCCC2)cc1
REMARK SMILES IDX 13 1 12 2 10 3 11 4 9 6 4 7 5 8 6 9 8 10 7 11 3 12 2 13 1 14
REMARK SMILES IDX 82 15 83 17 84 18 96 19 85 20 95 21 86 22 87 23 88 24 89 25
REMARK SMILES IDX 90 26 91 27 94 28 92 29 93 30 14 31 15 32 16 33 17 34 18 36
REMARK SMILES IDX 19 37 20 38 81 39 21 40 80 41 22 42 23 43 24 44 74 45 25 46
REMARK SMILES IDX 79 47 73 48 75 49 26 50 78 51 72 52 71 53 27 55 59 56 39 57
REMARK SMILES IDX 58 58 40 59 43 60 57 61 76 62 41 63 42 64 56 66 77 67 44 68
REMARK SMILES IDX 28 69 29 70 37 71 30 72 36 73 38 74 35 75 31 76 32 77 33 78
REMARK SMILES IDX 34 79 60 80 61 81 69 82 62 83 68 84 70 85 67 86 63 87 64 88
REMARK SMILES IDX 65 89 66 90 45 91 46 92 54 93 47 94 53 95 55 96 52 97 48 98
REMARK SMILES IDX 49 99 50 100 51 101
REMARK H PARENT 12 5 82 16 16 35 75 54 43 65
REMARK Flexibility Score: inf
ROOT
ATOM      1  C   UNL A   1      38.613  29.426  27.804  1.00  0.00     0.118 C 
ENDROOT
BRANCH   1   2
ATOM      2  N   UNL A   1      38.821  28.155  28.471  1.00  0.00    -0.352 N 
ATOM      3  C   UNL A   1      39.445  26.962  28.236  1.00  0.00     0.251 C 
ATOM      4  O   UNL A   1      39.258  26.134  29.142  1.00  0.00    -0.269 OA
ATOM      5  H   UNL A   1      38.384  28.150  29.354  1.00  0.00     0.163 HD
BRANCH   3   6
ATOM      6  C   UNL A   1      40.388  26.561  27.123  1.00  0.00     0.043 A 
ATOM      7  C   UNL A   1      40.809  25.297  26.648  1.00  0.00    -0.026 A 
ATOM      8  C   UNL A   1      41.795  25.229  25.622  1.00  0.00     0.005 A 
ATOM      9  C   UNL A   1      42.427  26.362  25.124  1.00  0.00     0.000 A 
ATOM     10  C   UNL A   1      41.059  27.691  26.580  1.00  0.00     0.014 A 
ATOM     11  C   UNL A   1      42.072  27.598  25.621  1.00  0.00     0.001 A 
BRANCH   7  12
ATOM     12  C   UNL A   1      40.499  23.963  27.273  1.00  0.00     0.136 C 
BRANCH  12  13
ATOM     13  C   UNL A   1      39.384  23.279  26.522  1.00  0.00     0.228 C 
ATOM     14  O   UNL A   1      39.413  22.070  26.317  1.00  0.00    -0.274 OA
ATOM     15  N   UNL A   1      38.400  24.121  26.048  1.00  0.00    -0.326 N 
ATOM     16  H   UNL A   1      38.563  25.092  26.059  1.00  0.00     0.169 HD
BRANCH  15  17
ATOM     17  C   UNL A   1      37.173  23.649  25.552  1.00  0.00     0.041 A 
ATOM     18  C   UNL A   1      36.165  23.307  26.453  1.00  0.00     0.027 A 
ATOM     19  C   UNL A   1      36.954  23.505  24.178  1.00  0.00     0.027 A 
ATOM     20  C   UNL A   1      34.938  22.839  25.975  1.00  0.00     0.024 A 
ATOM     21  C   UNL A   1      35.730  23.067  23.698  1.00  0.00     0.024 A 
ATOM     22  C   UNL A   1      34.733  22.706  24.596  1.00  0.00     0.082 A 
BRANCH  22  23
ATOM     23  S   UNL A   1      33.217  21.995  23.988  1.00  0.00     0.243 S 
ATOM     24  O   UNL A   1      33.185  22.260  22.565  1.00  0.00    -0.207 OA
ATOM     25  O   UNL A   1      33.153  20.644  24.504  1.00  0.00    -0.207 OA
BRANCH  23  26
ATOM     26  N   UNL A   1      32.020  22.930  24.705  1.00  0.00    -0.198 NA
ATOM     27  C   UNL A   1      31.979  24.380  24.462  1.00  0.00     0.102 C 
ATOM     28  C   UNL A   1      31.564  22.658  26.081  1.00  0.00     0.102 C 
ATOM     29  C   UNL A   1      32.177  25.003  25.832  1.00  0.00     0.018 C 
ATOM     30  C   UNL A   1      31.593  23.997  26.809  1.00  0.00     0.018 C 
ENDBRANCH  23  26
ENDBRANCH  22  23
ENDBRANCH  15  17
ENDBRANCH  12  13
ENDBRANCH   7  12
ENDBRANCH   3   6
ENDBRANCH   1   2
BRANCH   1  31
ATOM     31  C   UNL A   1      37.466  30.200  28.470  1.00  0.00     0.042 C 
BRANCH  31  32
ATOM     32  C   UNL A   1      36.503  29.348  29.293  1.00  0.00     0.118 C 
BRANCH  32  33
ATOM     33  N   UNL A   1      36.224  29.931  30.593  1.00  0.00    -0.352 N 
ATOM     34  C   UNL A   1      36.943  29.949  31.765  1.00  0.00     0.251 C 
ATOM     35  H   UNL A   1      35.359  30.399  30.645  1.00  0.00     0.163 HD
ATOM     36  O   UNL A   1      36.359  30.334  32.780  1.00  0.00    -0.269 OA
BRANCH  34  37
ATOM     37  C   UNL A   1      38.363  29.513  31.860  1.00  0.00     0.039 A 
ATOM     38  C   UNL A   1      38.620  28.151  32.076  1.00  0.00     0.014 A 
ATOM     39  C   UNL A   1      39.442  30.398  31.843  1.00  0.00     0.014 A 
ATOM     40  C   UNL A   1      39.931  27.685  32.244  1.00  0.00     0.010 A 
ATOM     41  C   UNL A   1      40.757  29.920  31.907  1.00  0.00     0.010 A 
ATOM     42  C   UNL A   1      41.021  28.560  32.136  1.00  0.00    -0.014 A 
BRANCH  42  43
ATOM     43  C   UNL A   1      42.427  28.091  32.332  1.00  0.00     0.031 A 
ATOM     44  C   UNL A   1      43.281  27.741  31.134  1.00  0.00     0.074 A 
ATOM     45  C   UNL A   1      42.936  27.936  33.572  1.00  0.00     0.049 A 
ATOM     46  N   UNL A   1      44.468  27.187  31.089  1.00  0.00    -0.248 NA
ATOM     47  C   UNL A   1      42.706  28.026  29.810  1.00  0.00     0.031 C 
ATOM     48  C   UNL A   1      42.237  28.228  34.825  1.00  0.00     0.029 A 
ATOM     49  N   UNL A   1      44.161  27.468  33.984  1.00  0.00    -0.354 N 
ATOM     50  C   UNL A   1      44.776  27.051  29.738  1.00  0.00     0.074 A 
ATOM     51  C   UNL A   1      43.614  27.500  29.001  1.00  0.00     0.031 C 
ATOM     52  C   UNL A   1      43.037  27.924  35.860  1.00  0.00     0.029 A 
ATOM     53  C   UNL A   1      44.287  27.371  35.350  1.00  0.00     0.049 A 
ATOM     54  H   UNL A   1      44.882  27.224  33.359  1.00  0.00     0.167 HD
ATOM     55  C   UNL A   1      45.931  26.634  29.158  1.00  0.00     0.034 A 
ATOM     56  C   UNL A   1      45.277  26.866  36.110  1.00  0.00     0.034 A 
ATOM     57  C   UNL A   1      47.101  26.222  29.894  1.00  0.00     0.049 A 
ATOM     58  C   UNL A   1      46.528  26.352  35.452  1.00  0.00     0.074 A 
ATOM     59  C   UNL A   1      48.341  25.845  29.406  1.00  0.00     0.029 A 
ATOM     60  N   UNL A   1      47.180  26.137  31.277  1.00  0.00    -0.354 N 
ATOM     61  N   UNL A   1      46.804  26.248  34.175  1.00  0.00    -0.248 NA
ATOM     62  C   UNL A   1      47.609  25.919  36.346  1.00  0.00     0.031 C 
ATOM     63  C   UNL A   1      49.151  25.481  30.489  1.00  0.00     0.029 A 
ATOM     64  C   UNL A   1      48.440  25.698  31.657  1.00  0.00     0.049 A 
ATOM     65  H   UNL A   1      46.448  26.356  31.899  1.00  0.00     0.167 HD
ATOM     66  C   UNL A   1      48.113  25.781  34.112  1.00  0.00     0.074 A 
ATOM     67  C   UNL A   1      48.564  25.618  35.480  1.00  0.00     0.031 C 
ATOM     68  C   UNL A   1      48.881  25.529  33.022  1.00  0.00     0.034 A 
BRANCH  55  69
ATOM     69  C   UNL A   1      45.979  26.609  27.647  1.00  0.00     0.023 A 
ATOM     70  C   UNL A   1      45.821  25.411  26.926  1.00  0.00     0.031 A 
ATOM     71  C   UNL A   1      46.209  27.787  26.915  1.00  0.00     0.131 A 
ATOM     72  C   UNL A   1      45.983  25.402  25.533  1.00  0.00     0.055 A 
ATOM     73  C   UNL A   1      46.281  27.786  25.519  1.00  0.00     0.041 A 
ATOM     74  F   UNL A   1      46.382  28.960  27.544  1.00  0.00    -0.206 F 
ATOM     75  C   UNL A   1      46.185  26.585  24.821  1.00  0.00     0.022 A 
BRANCH  72  76
ATOM     76  S   UNL A   1      46.071  23.801  24.685  1.00  0.00     0.124 S 
ATOM     77  O   UNL A   1      44.707  23.661  24.181  1.00  0.00    -0.237 OA
ATOM     78  O   UNL A   1      47.102  24.032  23.680  1.00  0.00    -0.237 OA
ATOM     79  O   UNL A   1      46.435  22.868  25.749  1.00  0.00    -0.744 OA
ENDBRANCH  72  76
ENDBRANCH  55  69
BRANCH  56  80
ATOM     80  C   UNL A   1      45.120  26.771  37.587  1.00  0.00     0.023 A 
ATOM     81  C   UNL A   1      45.380  27.865  38.424  1.00  0.00     0.031 A 
ATOM     82  C   UNL A   1      44.774  25.546  38.181  1.00  0.00     0.131 A 
ATOM     83  C   UNL A   1      45.329  27.701  39.817  1.00  0.00     0.055 A 
ATOM     84  C   UNL A   1      44.682  25.399  39.566  1.00  0.00     0.041 A 
ATOM     85  F   UNL A   1      44.522  24.473  37.416  1.00  0.00    -0.206 F 
ATOM     86  C   UNL A   1      44.971  26.480  40.392  1.00  0.00     0.022 A 
BRANCH  83  87
ATOM     87  S   UNL A   1      45.808  29.097  40.870  1.00  0.00     0.124 S 
ATOM     88  O   UNL A   1      45.870  28.468  42.185  1.00  0.00    -0.237 OA
ATOM     89  O   UNL A   1      47.086  29.490  40.285  1.00  0.00    -0.237 OA
ATOM     90  O   UNL A   1      44.721  30.054  40.682  1.00  0.00    -0.744 OA
ENDBRANCH  83  87
ENDBRANCH  56  80
BRANCH  68  91
ATOM     91  C   UNL A   1      50.311  25.126  33.275  1.00  0.00     0.023 A 
ATOM     92  C   UNL A   1      50.729  23.786  33.208  1.00  0.00     0.031 A 
ATOM     93  C   UNL A   1      51.257  26.100  33.637  1.00  0.00     0.131 A 
ATOM     94  C   UNL A   1      52.044  23.449  33.566  1.00  0.00     0.055 A 
ATOM     95  C   UNL A   1      52.580  25.766  33.931  1.00  0.00     0.041 A 
ATOM     96  F   UNL A   1      50.909  27.395  33.721  1.00  0.00    -0.206 F 
ATOM     97  C   UNL A   1      52.975  24.432  33.912  1.00  0.00     0.022 A 
BRANCH  94  98
ATOM     98  S   UNL A   1      52.490  21.695  33.681  1.00  0.00     0.124 S 
ATOM     99  O   UNL A   1      52.256  21.416  35.094  1.00  0.00    -0.237 OA
ATOM    100  O   UNL A   1      51.558  21.074  32.745  1.00  0.00    -0.237 OA
ATOM    101  O   UNL A   1      53.892  21.670  33.267  1.00  0.00    -0.744 OA
ENDBRANCH  94  98
ENDBRANCH  68  91
ENDBRANCH  42  43
ENDBRANCH  34  37
ENDBRANCH  32  33
ENDBRANCH  31  32
ENDBRANCH   1  31
TORSDOF 18
ENDMDL
