MODEL 1
REMARK VINA RESULT:     -11.3      0.000      0.000
REMARK SMILES CCC[NH2+][C@]1(C(=O)NCCCNC(=O)c2ccc(-c3c4nc(c(-c5cc(S(=O)(=O)[O-])ccc5F)c5ccc([nH]5)c(-c5cc(S(=O)(=O)[O-])ccc5F)c5nc(c(-c6cc(S(=O)(=O)[O-])ccc6F)c6ccc3[nH]6)C=C5)C=C4)cc2)CC[C@@H](Sc2nnc(C)n2C)C1
REMARK SMILES IDX 10 1 9 2 8 3 6 4 7 5 5 7 78 8 89 9 79 10 80 11 4 12 3 15
REMARK SMILES IDX 2 16 1 17 81 18 82 19 83 20 87 21 84 22 85 23 88 24 86 25
REMARK SMILES IDX 11 26 12 27 13 28 14 30 15 31 16 32 77 33 17 34 76 35 18 36
REMARK SMILES IDX 19 37 20 38 70 39 21 40 75 41 69 42 71 43 22 44 74 45 68 46
REMARK SMILES IDX 67 47 23 49 55 50 35 51 54 52 36 53 39 54 53 55 72 56 37 57
REMARK SMILES IDX 38 58 52 60 73 61 40 62 24 63 25 64 33 65 26 66 32 67 34 68
REMARK SMILES IDX 31 69 27 70 28 71 29 72 30 73 56 74 57 75 65 76 58 77 64 78
REMARK SMILES IDX 66 79 63 80 59 81 60 82 61 83 62 84 41 85 42 86 50 87 43 88
REMARK SMILES IDX 49 89 51 90 48 91 44 92 45 93 46 94 47 95
REMARK H PARENT 8 6 4 13 4 14 12 29 71 48 39 59
REMARK Flexibility Score: inf
ROOT
ATOM      1  C   UNL A   1      31.451  32.151  26.538  1.00  0.00     0.042 C 
ENDROOT
BRANCH   1   2
ATOM      2  C   UNL A   1      31.649  30.769  25.930  1.00  0.00     0.118 C 
BRANCH   2   3
ATOM      3  N   UNL A   1      31.591  29.730  26.935  1.00  0.00    -0.351 N 
ATOM      4  C   UNL A   1      31.686  28.380  26.841  1.00  0.00     0.281 C 
ATOM      5  O   UNL A   1      31.514  27.768  27.908  1.00  0.00    -0.268 OA
ATOM      6  H   UNL A   1      31.461  30.063  27.853  1.00  0.00     0.163 HD
BRANCH   4   7
ATOM      7  C   UNL A   1      32.122  27.577  25.560  1.00  0.00     0.176 C 
ATOM      8  C   UNL A   1      33.348  27.995  24.733  1.00  0.00     0.080 C 
ATOM      9  C   UNL A   1      32.533  26.166  26.035  1.00  0.00     0.094 C 
ATOM     10  C   UNL A   1      33.786  26.739  23.994  1.00  0.00     0.022 C 
ATOM     11  C   UNL A   1      33.460  25.593  24.953  1.00  0.00     0.062 C 
BRANCH   7  12
ATOM     12  N   UNL A   1      30.888  27.386  24.726  1.00  0.00    -0.334 N 
ATOM     13  H   UNL A   1      30.845  26.407  24.441  1.00  0.00     0.347 HD
ATOM     14  H   UNL A   1      30.098  27.665  25.308  1.00  0.00     0.347 HD
BRANCH  12  15
ATOM     15  C   UNL A   1      30.838  28.218  23.521  1.00  0.00     0.261 C 
BRANCH  15  16
ATOM     16  C   UNL A   1      29.472  28.890  23.350  1.00  0.00     0.058 C 
ATOM     17  C   UNL A   1      29.523  30.090  22.414  1.00  0.00     0.010 C 
ENDBRANCH  15  16
ENDBRANCH  12  15
ENDBRANCH   7  12
BRANCH  11  18
ATOM     18  S   UNL A   1      34.899  24.706  25.652  1.00  0.00    -0.082 SA
BRANCH  18  19
ATOM     19  C   UNL A   1      34.254  23.178  26.140  1.00  0.00     0.191 A 
ATOM     20  N   UNL A   1      34.078  22.784  27.377  1.00  0.00    -0.123 NA
ATOM     21  N   UNL A   1      33.909  22.165  25.285  1.00  0.00    -0.309 N 
ATOM     22  N   UNL A   1      33.611  21.491  27.347  1.00  0.00    -0.135 NA
ATOM     23  C   UNL A   1      33.516  21.117  26.087  1.00  0.00     0.130 A 
ATOM     24  C   UNL A   1      33.847  22.179  23.847  1.00  0.00     0.154 C 
ATOM     25  C   UNL A   1      33.019  19.809  25.599  1.00  0.00     0.090 C 
ENDBRANCH  18  19
ENDBRANCH  11  18
ENDBRANCH   4   7
ENDBRANCH   2   3
ENDBRANCH   1   2
BRANCH   1  26
ATOM     26  C   UNL A   1      32.689  32.647  27.268  1.00  0.00     0.118 C 
BRANCH  26  27
ATOM     27  N   UNL A   1      32.547  34.039  27.670  1.00  0.00    -0.352 N 
ATOM     28  C   UNL A   1      33.152  34.717  28.700  1.00  0.00     0.251 C 
ATOM     29  H   UNL A   1      31.926  34.572  27.123  1.00  0.00     0.163 HD
ATOM     30  O   UNL A   1      32.715  35.816  29.030  1.00  0.00    -0.269 OA
BRANCH  28  31
ATOM     31  C   UNL A   1      34.311  34.128  29.410  1.00  0.00     0.039 A 
ATOM     32  C   UNL A   1      35.599  34.366  28.922  1.00  0.00     0.014 A 
ATOM     33  C   UNL A   1      34.130  33.313  30.532  1.00  0.00     0.014 A 
ATOM     34  C   UNL A   1      36.703  33.820  29.583  1.00  0.00     0.010 A 
ATOM     35  C   UNL A   1      35.233  32.850  31.241  1.00  0.00     0.010 A 
ATOM     36  C   UNL A   1      36.531  33.077  30.762  1.00  0.00    -0.014 A 
BRANCH  36  37
ATOM     37  C   UNL A   1      37.688  32.489  31.483  1.00  0.00     0.031 A 
ATOM     38  C   UNL A   1      38.454  31.349  30.864  1.00  0.00     0.074 A 
ATOM     39  C   UNL A   1      38.010  32.935  32.712  1.00  0.00     0.049 A 
ATOM     40  N   UNL A   1      39.441  30.645  31.357  1.00  0.00    -0.248 NA
ATOM     41  C   UNL A   1      38.024  30.921  29.525  1.00  0.00     0.031 C 
ATOM     42  C   UNL A   1      37.316  34.006  33.430  1.00  0.00     0.029 A 
ATOM     43  N   UNL A   1      38.997  32.541  33.579  1.00  0.00    -0.354 N 
ATOM     44  C   UNL A   1      39.734  29.680  30.398  1.00  0.00     0.074 A 
ATOM     45  C   UNL A   1      38.771  29.847  29.331  1.00  0.00     0.031 C 
ATOM     46  C   UNL A   1      37.920  34.206  34.612  1.00  0.00     0.029 A 
ATOM     47  C   UNL A   1      39.012  33.249  34.758  1.00  0.00     0.049 A 
ATOM     48  H   UNL A   1      39.637  31.820  33.376  1.00  0.00     0.167 HD
ATOM     49  C   UNL A   1      40.730  28.758  30.396  1.00  0.00     0.034 A 
ATOM     50  C   UNL A   1      39.811  33.134  35.836  1.00  0.00     0.034 A 
ATOM     51  C   UNL A   1      41.689  28.622  31.465  1.00  0.00     0.049 A 
ATOM     52  C   UNL A   1      40.900  32.092  35.824  1.00  0.00     0.074 A 
ATOM     53  C   UNL A   1      42.777  27.772  31.547  1.00  0.00     0.029 A 
ATOM     54  N   UNL A   1      41.670  29.354  32.648  1.00  0.00    -0.354 N 
ATOM     55  N   UNL A   1      41.199  31.220  34.889  1.00  0.00    -0.248 NA
ATOM     56  C   UNL A   1      41.765  32.028  37.009  1.00  0.00     0.031 C 
ATOM     57  C   UNL A   1      43.371  27.939  32.803  1.00  0.00     0.029 A 
ATOM     58  C   UNL A   1      42.705  28.950  33.477  1.00  0.00     0.049 A 
ATOM     59  H   UNL A   1      41.017  30.059  32.864  1.00  0.00     0.167 HD
ATOM     60  C   UNL A   1      42.306  30.520  35.362  1.00  0.00     0.074 A 
ATOM     61  C   UNL A   1      42.627  31.084  36.658  1.00  0.00     0.031 C 
ATOM     62  C   UNL A   1      42.999  29.511  34.776  1.00  0.00     0.034 A 
BRANCH  49  63
ATOM     63  C   UNL A   1      40.799  27.816  29.215  1.00  0.00     0.023 A 
ATOM     64  C   UNL A   1      41.742  27.986  28.184  1.00  0.00     0.031 A 
ATOM     65  C   UNL A   1      39.873  26.765  29.085  1.00  0.00     0.131 A 
ATOM     66  C   UNL A   1      41.673  27.193  27.030  1.00  0.00     0.055 A 
ATOM     67  C   UNL A   1      39.872  25.916  27.975  1.00  0.00     0.041 A 
ATOM     68  F   UNL A   1      38.935  26.559  30.022  1.00  0.00    -0.206 F 
ATOM     69  C   UNL A   1      40.761  26.140  26.928  1.00  0.00     0.022 A 
BRANCH  66  70
ATOM     70  S   UNL A   1      42.668  27.673  25.590  1.00  0.00     0.124 S 
ATOM     71  O   UNL A   1      43.962  27.954  26.208  1.00  0.00    -0.237 OA
ATOM     72  O   UNL A   1      42.606  26.481  24.752  1.00  0.00    -0.237 OA
ATOM     73  O   UNL A   1      41.970  28.844  25.065  1.00  0.00    -0.744 OA
ENDBRANCH  66  70
ENDBRANCH  49  63
BRANCH  50  74
ATOM     74  C   UNL A   1      39.620  34.030  37.011  1.00  0.00     0.023 A 
ATOM     75  C   UNL A   1      39.026  33.554  38.191  1.00  0.00     0.031 A 
ATOM     76  C   UNL A   1      40.016  35.379  36.969  1.00  0.00     0.131 A 
ATOM     77  C   UNL A   1      38.813  34.428  39.269  1.00  0.00     0.055 A 
ATOM     78  C   UNL A   1      39.845  36.232  38.061  1.00  0.00     0.041 A 
ATOM     79  F   UNL A   1      40.596  35.882  35.867  1.00  0.00    -0.206 F 
ATOM     80  C   UNL A   1      39.230  35.760  39.217  1.00  0.00     0.022 A 
BRANCH  77  81
ATOM     81  S   UNL A   1      37.922  33.811  40.724  1.00  0.00     0.124 S 
ATOM     82  O   UNL A   1      37.650  35.045  41.451  1.00  0.00    -0.237 OA
ATOM     83  O   UNL A   1      36.768  33.155  40.117  1.00  0.00    -0.237 OA
ATOM     84  O   UNL A   1      38.886  32.912  41.355  1.00  0.00    -0.744 OA
ENDBRANCH  77  81
ENDBRANCH  50  74
BRANCH  62  85
ATOM     85  C   UNL A   1      44.198  28.982  35.525  1.00  0.00     0.023 A 
ATOM     86  C   UNL A   1      44.089  27.928  36.449  1.00  0.00     0.031 A 
ATOM     87  C   UNL A   1      45.467  29.551  35.319  1.00  0.00     0.131 A 
ATOM     88  C   UNL A   1      45.217  27.514  37.174  1.00  0.00     0.055 A 
ATOM     89  C   UNL A   1      46.597  29.095  35.997  1.00  0.00     0.041 A 
ATOM     90  F   UNL A   1      45.629  30.563  34.450  1.00  0.00    -0.206 F 
ATOM     91  C   UNL A   1      46.473  28.079  36.940  1.00  0.00     0.022 A 
BRANCH  88  92
ATOM     92  S   UNL A   1      45.003  26.290  38.494  1.00  0.00     0.124 S 
ATOM     93  O   UNL A   1      43.616  26.511  38.890  1.00  0.00    -0.237 OA
ATOM     94  O   UNL A   1      45.276  25.034  37.804  1.00  0.00    -0.237 OA
ATOM     95  O   UNL A   1      46.002  26.679  39.489  1.00  0.00    -0.744 OA
ENDBRANCH  88  92
ENDBRANCH  62  85
ENDBRANCH  36  37
ENDBRANCH  28  31
ENDBRANCH  26  27
ENDBRANCH   1  26
TORSDOF 18
ENDMDL
MODEL 2
REMARK VINA RESULT:     -11.2      5.688      8.827
REMARK SMILES CCC[NH2+][C@]1(C(=O)NCCCNC(=O)c2ccc(-c3c4nc(c(-c5cc(S(=O)(=O)[O-])ccc5F)c5ccc([nH]5)c(-c5cc(S(=O)(=O)[O-])ccc5F)c5nc(c(-c6cc(S(=O)(=O)[O-])ccc6F)c6ccc3[nH]6)C=C5)C=C4)cc2)CC[C@@H](Sc2nnc(C)n2C)C1
REMARK SMILES IDX 10 1 9 2 8 3 6 4 7 5 5 7 78 8 89 9 79 10 80 11 4 12 3 15
REMARK SMILES IDX 2 16 1 17 81 18 82 19 83 20 87 21 84 22 85 23 88 24 86 25
REMARK SMILES IDX 11 26 12 27 13 28 14 30 15 31 16 32 77 33 17 34 76 35 18 36
REMARK SMILES IDX 19 37 20 38 70 39 21 40 75 41 69 42 71 43 22 44 74 45 68 46
REMARK SMILES IDX 67 47 23 49 55 50 35 51 54 52 36 53 39 54 53 55 72 56 37 57
REMARK SMILES IDX 38 58 52 60 73 61 40 62 24 63 25 64 33 65 26 66 32 67 34 68
REMARK SMILES IDX 31 69 27 70 28 71 29 72 30 73 56 74 57 75 65 76 58 77 64 78
REMARK SMILES IDX 66 79 63 80 59 81 60 82 61 83 62 84 41 85 42 86 50 87 43 88
REMARK SMILES IDX 49 89 51 90 48 91 44 92 45 93 46 94 47 95
REMARK H PARENT 8 6 4 13 4 14 12 29 71 48 39 59
REMARK Flexibility Score: inf
ROOT
ATOM      1  C   UNL A   1      36.600  22.415  24.523  1.00  0.00     0.042 C 
ENDROOT
BRANCH   1   2
ATOM      2  C   UNL A   1      35.780  23.597  24.024  1.00  0.00     0.118 C 
BRANCH   2   3
ATOM      3  N   UNL A   1      34.759  23.181  23.087  1.00  0.00    -0.351 N 
ATOM      4  C   UNL A   1      33.478  22.777  23.271  1.00  0.00     0.281 C 
ATOM      5  O   UNL A   1      32.891  22.411  22.239  1.00  0.00    -0.268 OA
ATOM      6  H   UNL A   1      35.047  23.196  22.145  1.00  0.00     0.163 HD
BRANCH   4   7
ATOM      7  C   UNL A   1      32.671  22.868  24.619  1.00  0.00     0.176 C 
ATOM      8  C   UNL A   1      33.189  23.697  25.805  1.00  0.00     0.080 C 
ATOM      9  C   UNL A   1      31.342  23.585  24.296  1.00  0.00     0.094 C 
ATOM     10  C   UNL A   1      31.958  24.024  26.639  1.00  0.00     0.022 C 
ATOM     11  C   UNL A   1      30.829  24.173  25.618  1.00  0.00     0.062 C 
BRANCH   7  12
ATOM     12  N   UNL A   1      32.299  21.465  24.999  1.00  0.00    -0.334 N 
ATOM     13  H   UNL A   1      31.564  21.510  25.706  1.00  0.00     0.347 HD
ATOM     14  H   UNL A   1      31.997  21.001  24.143  1.00  0.00     0.347 HD
BRANCH  12  15
ATOM     15  C   UNL A   1      33.406  20.672  25.539  1.00  0.00     0.261 C 
BRANCH  15  16
ATOM     16  C   UNL A   1      33.617  19.376  24.748  1.00  0.00     0.058 C 
ATOM     17  C   UNL A   1      32.558  19.166  23.676  1.00  0.00     0.010 C 
ENDBRANCH  15  16
ENDBRANCH  12  15
ENDBRANCH   7  12
BRANCH  11  18
ATOM     18  S   UNL A   1      30.148  25.860  25.424  1.00  0.00    -0.082 SA
BRANCH  18  19
ATOM     19  C   UNL A   1      31.282  26.868  26.252  1.00  0.00     0.191 A 
ATOM     20  N   UNL A   1      31.143  27.335  27.469  1.00  0.00    -0.123 NA
ATOM     21  N   UNL A   1      32.439  27.357  25.705  1.00  0.00    -0.309 N 
ATOM     22  N   UNL A   1      32.221  28.146  27.736  1.00  0.00    -0.135 NA
ATOM     23  C   UNL A   1      32.997  28.164  26.672  1.00  0.00     0.130 A 
ATOM     24  C   UNL A   1      33.045  27.040  24.438  1.00  0.00     0.154 C 
ATOM     25  C   UNL A   1      34.285  28.885  26.543  1.00  0.00     0.090 C 
ENDBRANCH  18  19
ENDBRANCH  11  18
ENDBRANCH   4   7
ENDBRANCH   2   3
ENDBRANCH   1   2
BRANCH   1  26
ATOM     26  C   UNL A   1      37.271  22.695  25.858  1.00  0.00     0.118 C 
BRANCH  26  27
ATOM     27  N   UNL A   1      38.364  21.767  26.109  1.00  0.00    -0.352 N 
ATOM     28  C   UNL A   1      39.669  22.025  26.449  1.00  0.00     0.251 C 
ATOM     29  H   UNL A   1      38.132  20.814  26.023  1.00  0.00     0.163 HD
ATOM     30  O   UNL A   1      40.496  21.121  26.373  1.00  0.00    -0.269 OA
BRANCH  28  31
ATOM     31  C   UNL A   1      40.077  23.378  26.893  1.00  0.00     0.039 A 
ATOM     32  C   UNL A   1      39.810  24.473  26.067  1.00  0.00     0.014 A 
ATOM     33  C   UNL A   1      40.756  23.566  28.101  1.00  0.00     0.014 A 
ATOM     34  C   UNL A   1      40.185  25.757  26.474  1.00  0.00     0.010 A 
ATOM     35  C   UNL A   1      41.045  24.851  28.545  1.00  0.00     0.010 A 
ATOM     36  C   UNL A   1      40.785  25.960  27.727  1.00  0.00    -0.014 A 
BRANCH  36  37
ATOM     37  C   UNL A   1      41.191  27.314  28.181  1.00  0.00     0.031 A 
ATOM     38  C   UNL A   1      42.650  27.689  28.202  1.00  0.00     0.074 A 
ATOM     39  C   UNL A   1      40.261  28.178  28.631  1.00  0.00     0.049 A 
ATOM     40  N   UNL A   1      43.221  28.785  28.632  1.00  0.00    -0.248 NA
ATOM     41  C   UNL A   1      43.594  26.678  27.703  1.00  0.00     0.031 C 
ATOM     42  C   UNL A   1      38.823  27.911  28.696  1.00  0.00     0.029 A 
ATOM     43  N   UNL A   1      40.385  29.451  29.124  1.00  0.00    -0.354 N 
ATOM     44  C   UNL A   1      44.590  28.585  28.477  1.00  0.00     0.074 A 
ATOM     45  C   UNL A   1      44.760  27.236  27.981  1.00  0.00     0.031 C 
ATOM     46  C   UNL A   1      38.196  29.000  29.168  1.00  0.00     0.029 A 
ATOM     47  C   UNL A   1      39.187  30.023  29.483  1.00  0.00     0.049 A 
ATOM     48  H   UNL A   1      41.250  29.914  29.211  1.00  0.00     0.167 HD
ATOM     49  C   UNL A   1      45.606  29.455  28.702  1.00  0.00     0.034 A 
ATOM     50  C   UNL A   1      38.920  31.233  30.013  1.00  0.00     0.034 A 
ATOM     51  C   UNL A   1      45.410  30.801  29.181  1.00  0.00     0.049 A 
ATOM     52  C   UNL A   1      40.064  32.179  30.274  1.00  0.00     0.074 A 
ATOM     53  C   UNL A   1      46.353  31.792  29.386  1.00  0.00     0.029 A 
ATOM     54  N   UNL A   1      44.181  31.345  29.540  1.00  0.00    -0.354 N 
ATOM     55  N   UNL A   1      41.350  31.997  30.074  1.00  0.00    -0.248 NA
ATOM     56  C   UNL A   1      39.719  33.496  30.821  1.00  0.00     0.031 C 
ATOM     57  C   UNL A   1      45.707  32.907  29.934  1.00  0.00     0.029 A 
ATOM     58  C   UNL A   1      44.349  32.643  29.997  1.00  0.00     0.049 A 
ATOM     59  H   UNL A   1      43.317  30.876  29.478  1.00  0.00     0.167 HD
ATOM     60  C   UNL A   1      41.965  33.189  30.446  1.00  0.00     0.074 A 
ATOM     61  C   UNL A   1      40.906  34.085  30.868  1.00  0.00     0.031 C 
ATOM     62  C   UNL A   1      43.282  33.517  30.432  1.00  0.00     0.034 A 
BRANCH  49  63
ATOM     63  C   UNL A   1      47.013  28.953  28.460  1.00  0.00     0.023 A 
ATOM     64  C   UNL A   1      47.545  28.834  27.162  1.00  0.00     0.031 A 
ATOM     65  C   UNL A   1      47.816  28.532  29.534  1.00  0.00     0.131 A 
ATOM     66  C   UNL A   1      48.788  28.217  26.965  1.00  0.00     0.055 A 
ATOM     67  C   UNL A   1      49.096  28.006  29.337  1.00  0.00     0.041 A 
ATOM     68  F   UNL A   1      47.363  28.599  30.796  1.00  0.00    -0.206 F 
ATOM     69  C   UNL A   1      49.581  27.826  28.046  1.00  0.00     0.022 A 
BRANCH  66  70
ATOM     70  S   UNL A   1      49.273  27.768  25.274  1.00  0.00     0.124 S 
ATOM     71  O   UNL A   1      50.453  28.607  25.074  1.00  0.00    -0.237 OA
ATOM     72  O   UNL A   1      49.518  26.335  25.387  1.00  0.00    -0.237 OA
ATOM     73  O   UNL A   1      48.110  28.142  24.473  1.00  0.00    -0.744 OA
ENDBRANCH  66  70
ENDBRANCH  49  63
BRANCH  50  74
ATOM     74  C   UNL A   1      37.516  31.623  30.324  1.00  0.00     0.023 A 
ATOM     75  C   UNL A   1      36.685  32.174  29.337  1.00  0.00     0.031 A 
ATOM     76  C   UNL A   1      36.988  31.461  31.618  1.00  0.00     0.131 A 
ATOM     77  C   UNL A   1      35.381  32.577  29.665  1.00  0.00     0.055 A 
ATOM     78  C   UNL A   1      35.675  31.819  31.927  1.00  0.00     0.041 A 
ATOM     79  F   UNL A   1      37.739  30.931  32.597  1.00  0.00    -0.206 F 
ATOM     80  C   UNL A   1      34.866  32.391  30.949  1.00  0.00     0.022 A 
BRANCH  77  81
ATOM     81  S   UNL A   1      34.384  33.407  28.397  1.00  0.00     0.124 S 
ATOM     82  O   UNL A   1      33.500  32.333  27.964  1.00  0.00    -0.237 OA
ATOM     83  O   UNL A   1      33.761  34.485  29.159  1.00  0.00    -0.237 OA
ATOM     84  O   UNL A   1      35.376  33.836  27.413  1.00  0.00    -0.744 OA
ENDBRANCH  77  81
ENDBRANCH  50  74
BRANCH  62  85
ATOM     85  C   UNL A   1      43.640  34.921  30.854  1.00  0.00     0.023 A 
ATOM     86  C   UNL A   1      43.632  35.993  29.943  1.00  0.00     0.031 A 
ATOM     87  C   UNL A   1      44.007  35.188  32.184  1.00  0.00     0.131 A 
ATOM     88  C   UNL A   1      44.039  37.268  30.362  1.00  0.00     0.055 A 
ATOM     89  C   UNL A   1      44.351  36.471  32.610  1.00  0.00     0.041 A 
ATOM     90  F   UNL A   1      44.035  34.202  33.096  1.00  0.00    -0.206 F 
ATOM     91  C   UNL A   1      44.381  37.517  31.693  1.00  0.00     0.022 A 
BRANCH  88  92
ATOM     92  S   UNL A   1      44.205  38.581  29.121  1.00  0.00     0.124 S 
ATOM     93  O   UNL A   1      45.021  39.563  29.827  1.00  0.00    -0.237 OA
ATOM     94  O   UNL A   1      44.858  37.887  28.016  1.00  0.00    -0.237 OA
ATOM     95  O   UNL A   1      42.824  38.989  28.866  1.00  0.00    -0.744 OA
ENDBRANCH  88  92
ENDBRANCH  62  85
ENDBRANCH  36  37
ENDBRANCH  28  31
ENDBRANCH  26  27
ENDBRANCH   1  26
TORSDOF 18
ENDMDL
MODEL 3
REMARK VINA RESULT:     -11.2      5.772     11.841
REMARK SMILES CCC[NH2+][C@]1(C(=O)NCCCNC(=O)c2ccc(-c3c4nc(c(-c5cc(S(=O)(=O)[O-])ccc5F)c5ccc([nH]5)c(-c5cc(S(=O)(=O)[O-])ccc5F)c5nc(c(-c6cc(S(=O)(=O)[O-])ccc6F)c6ccc3[nH]6)C=C5)C=C4)cc2)CC[C@@H](Sc2nnc(C)n2C)C1
REMARK SMILES IDX 10 1 9 2 8 3 6 4 7 5 5 7 78 8 89 9 79 10 80 11 4 12 3 15
REMARK SMILES IDX 2 16 1 17 81 18 82 19 83 20 87 21 84 22 85 23 88 24 86 25
REMARK SMILES IDX 11 26 12 27 13 28 14 30 15 31 16 32 77 33 17 34 76 35 18 36
REMARK SMILES IDX 19 37 20 38 70 39 21 40 75 41 69 42 71 43 22 44 74 45 68 46
REMARK SMILES IDX 67 47 23 49 55 50 35 51 54 52 36 53 39 54 53 55 72 56 37 57
REMARK SMILES IDX 38 58 52 60 73 61 40 62 24 63 25 64 33 65 26 66 32 67 34 68
REMARK SMILES IDX 31 69 27 70 28 71 29 72 30 73 56 74 57 75 65 76 58 77 64 78
REMARK SMILES IDX 66 79 63 80 59 81 60 82 61 83 62 84 41 85 42 86 50 87 43 88
REMARK SMILES IDX 49 89 51 90 48 91 44 92 45 93 46 94 47 95
REMARK H PARENT 8 6 4 13 4 14 12 29 71 48 39 59
REMARK Flexibility Score: inf
ROOT
ATOM      1  C   UNL A   1      37.892  19.794  24.996  1.00  0.00     0.042 C 
ENDROOT
BRANCH   1   2
ATOM      2  C   UNL A   1      36.810  20.831  24.727  1.00  0.00     0.118 C 
BRANCH   2   3
ATOM      3  N   UNL A   1      36.035  21.116  25.915  1.00  0.00    -0.351 N 
ATOM      4  C   UNL A   1      34.762  21.553  26.076  1.00  0.00     0.281 C 
ATOM      5  O   UNL A   1      34.428  21.772  27.253  1.00  0.00    -0.268 OA
ATOM      6  H   UNL A   1      36.520  20.963  26.759  1.00  0.00     0.163 HD
BRANCH   4   7
ATOM      7  C   UNL A   1      33.678  21.663  24.941  1.00  0.00     0.176 C 
ATOM      8  C   UNL A   1      32.332  22.362  25.188  1.00  0.00     0.080 C 
ATOM      9  C   UNL A   1      34.285  22.542  23.826  1.00  0.00     0.094 C 
ATOM     10  C   UNL A   1      31.834  22.781  23.811  1.00  0.00     0.022 C 
ATOM     11  C   UNL A   1      33.105  23.112  23.027  1.00  0.00     0.062 C 
BRANCH   7  12
ATOM     12  N   UNL A   1      33.528  20.292  24.348  1.00  0.00    -0.334 N 
ATOM     13  H   UNL A   1      33.118  20.390  23.419  1.00  0.00     0.347 HD
ATOM     14  H   UNL A   1      34.461  19.880  24.329  1.00  0.00     0.347 HD
BRANCH  12  15
ATOM     15  C   UNL A   1      32.684  19.384  25.130  1.00  0.00     0.261 C 
BRANCH  15  16
ATOM     16  C   UNL A   1      32.524  18.024  24.444  1.00  0.00     0.058 C 
ATOM     17  C   UNL A   1      32.476  18.135  22.927  1.00  0.00     0.010 C 
ENDBRANCH  15  16
ENDBRANCH  12  15
ENDBRANCH   7  12
BRANCH  11  18
ATOM     18  S   UNL A   1      33.334  24.873  22.588  1.00  0.00    -0.082 SA
BRANCH  18  19
ATOM     19  C   UNL A   1      32.295  25.717  23.681  1.00  0.00     0.191 A 
ATOM     20  N   UNL A   1      31.088  26.147  23.409  1.00  0.00    -0.123 NA
ATOM     21  N   UNL A   1      32.639  26.097  24.951  1.00  0.00    -0.309 N 
ATOM     22  N   UNL A   1      30.621  26.824  24.511  1.00  0.00    -0.135 NA
ATOM     23  C   UNL A   1      31.558  26.799  25.437  1.00  0.00     0.130 A 
ATOM     24  C   UNL A   1      33.820  25.766  25.705  1.00  0.00     0.154 C 
ATOM     25  C   UNL A   1      31.458  27.378  26.797  1.00  0.00     0.090 C 
ENDBRANCH  18  19
ENDBRANCH  11  18
ENDBRANCH   4   7
ENDBRANCH   2   3
ENDBRANCH   1   2
BRANCH   1  26
ATOM     26  C   UNL A   1      39.030  20.346  25.838  1.00  0.00     0.118 C 
BRANCH  26  27
ATOM     27  N   UNL A   1      40.101  19.372  25.990  1.00  0.00    -0.352 N 
ATOM     28  C   UNL A   1      41.454  19.573  26.116  1.00  0.00     0.251 C 
ATOM     29  H   UNL A   1      39.812  18.431  26.006  1.00  0.00     0.163 HD
ATOM     30  O   UNL A   1      42.214  18.618  25.982  1.00  0.00    -0.269 OA
BRANCH  28  31
ATOM     31  C   UNL A   1      41.991  20.924  26.399  1.00  0.00     0.039 A 
ATOM     32  C   UNL A   1      42.304  21.268  27.717  1.00  0.00     0.014 A 
ATOM     33  C   UNL A   1      42.151  21.864  25.377  1.00  0.00     0.014 A 
ATOM     34  C   UNL A   1      42.815  22.538  28.001  1.00  0.00     0.010 A 
ATOM     35  C   UNL A   1      42.746  23.092  25.647  1.00  0.00     0.010 A 
ATOM     36  C   UNL A   1      43.062  23.453  26.964  1.00  0.00    -0.014 A 
BRANCH  36  37
ATOM     37  C   UNL A   1      43.607  24.807  27.240  1.00  0.00     0.031 A 
ATOM     38  C   UNL A   1      42.700  25.881  27.780  1.00  0.00     0.074 A 
ATOM     39  C   UNL A   1      44.892  25.085  26.949  1.00  0.00     0.049 A 
ATOM     40  N   UNL A   1      42.954  27.143  28.015  1.00  0.00    -0.248 NA
ATOM     41  C   UNL A   1      41.311  25.488  28.057  1.00  0.00     0.031 C 
ATOM     42  C   UNL A   1      45.854  24.137  26.384  1.00  0.00     0.029 A 
ATOM     43  N   UNL A   1      45.609  26.247  27.079  1.00  0.00    -0.354 N 
ATOM     44  C   UNL A   1      41.752  27.697  28.446  1.00  0.00     0.074 A 
ATOM     45  C   UNL A   1      40.758  26.648  28.368  1.00  0.00     0.031 C 
ATOM     46  C   UNL A   1      47.043  24.746  26.250  1.00  0.00     0.029 A 
ATOM     47  C   UNL A   1      46.917  26.136  26.672  1.00  0.00     0.049 A 
ATOM     48  H   UNL A   1      45.223  27.081  27.433  1.00  0.00     0.167 HD
ATOM     49  C   UNL A   1      41.507  28.956  28.889  1.00  0.00     0.034 A 
ATOM     50  C   UNL A   1      47.902  27.056  26.636  1.00  0.00     0.034 A 
ATOM     51  C   UNL A   1      42.519  29.980  28.974  1.00  0.00     0.049 A 
ATOM     52  C   UNL A   1      47.607  28.453  27.116  1.00  0.00     0.074 A 
ATOM     53  C   UNL A   1      42.407  31.269  29.465  1.00  0.00     0.029 A 
ATOM     54  N   UNL A   1      43.835  29.834  28.547  1.00  0.00    -0.354 N 
ATOM     55  N   UNL A   1      46.479  28.951  27.569  1.00  0.00    -0.248 NA
ATOM     56  C   UNL A   1      48.721  29.409  27.088  1.00  0.00     0.031 C 
ATOM     57  C   UNL A   1      43.630  31.921  29.270  1.00  0.00     0.029 A 
ATOM     58  C   UNL A   1      44.532  31.019  28.731  1.00  0.00     0.049 A 
ATOM     59  H   UNL A   1      44.217  29.008  28.169  1.00  0.00     0.167 HD
ATOM     60  C   UNL A   1      46.756  30.273  27.907  1.00  0.00     0.074 A 
ATOM     61  C   UNL A   1      48.160  30.488  27.617  1.00  0.00     0.031 C 
ATOM     62  C   UNL A   1      45.929  31.221  28.418  1.00  0.00     0.034 A 
BRANCH  49  63
ATOM     63  C   UNL A   1      40.084  29.287  29.282  1.00  0.00     0.023 A 
ATOM     64  C   UNL A   1      39.690  29.382  30.630  1.00  0.00     0.031 A 
ATOM     65  C   UNL A   1      39.092  29.453  28.300  1.00  0.00     0.131 A 
ATOM     66  C   UNL A   1      38.334  29.531  30.957  1.00  0.00     0.055 A 
ATOM     67  C   UNL A   1      37.757  29.698  28.632  1.00  0.00     0.041 A 
ATOM     68  F   UNL A   1      39.397  29.355  26.996  1.00  0.00    -0.206 F 
ATOM     69  C   UNL A   1      37.367  29.717  29.968  1.00  0.00     0.022 A 
BRANCH  66  70
ATOM     70  S   UNL A   1      37.831  29.296  32.685  1.00  0.00     0.124 S 
ATOM     71  O   UNL A   1      37.725  27.841  32.765  1.00  0.00    -0.237 OA
ATOM     72  O   UNL A   1      38.937  29.898  33.420  1.00  0.00    -0.237 OA
ATOM     73  O   UNL A   1      36.560  30.011  32.773  1.00  0.00    -0.744 OA
ENDBRANCH  66  70
ENDBRANCH  49  63
BRANCH  50  74
ATOM     74  C   UNL A   1      49.257  26.685  26.138  1.00  0.00     0.023 A 
ATOM     75  C   UNL A   1      49.719  27.148  24.896  1.00  0.00     0.031 A 
ATOM     76  C   UNL A   1      50.105  25.854  26.891  1.00  0.00     0.131 A 
ATOM     77  C   UNL A   1      50.980  26.748  24.426  1.00  0.00     0.055 A 
ATOM     78  C   UNL A   1      51.378  25.498  26.440  1.00  0.00     0.041 A 
ATOM     79  F   UNL A   1      49.715  25.391  28.089  1.00  0.00    -0.206 F 
ATOM     80  C   UNL A   1      51.818  25.938  25.194  1.00  0.00     0.022 A 
BRANCH  77  81
ATOM     81  S   UNL A   1      51.486  27.257  22.759  1.00  0.00     0.124 S 
ATOM     82  O   UNL A   1      51.624  28.699  22.918  1.00  0.00    -0.237 OA
ATOM     83  O   UNL A   1      52.725  26.508  22.577  1.00  0.00    -0.237 OA
ATOM     84  O   UNL A   1      50.371  26.824  21.919  1.00  0.00    -0.744 OA
ENDBRANCH  77  81
ENDBRANCH  50  74
BRANCH  62  85
ATOM     85  C   UNL A   1      46.540  32.564  28.730  1.00  0.00     0.023 A 
ATOM     86  C   UNL A   1      46.622  33.583  27.764  1.00  0.00     0.031 A 
ATOM     87  C   UNL A   1      47.061  32.823  30.010  1.00  0.00     0.131 A 
ATOM     88  C   UNL A   1      47.261  34.792  28.077  1.00  0.00     0.055 A 
ATOM     89  C   UNL A   1      47.641  34.050  30.334  1.00  0.00     0.041 A 
ATOM     90  F   UNL A   1      47.013  31.886  30.970  1.00  0.00    -0.206 F 
ATOM     91  C   UNL A   1      47.755  35.039  29.361  1.00  0.00     0.022 A 
BRANCH  88  92
ATOM     92  S   UNL A   1      47.523  36.007  26.755  1.00  0.00     0.124 S 
ATOM     93  O   UNL A   1      48.647  36.781  27.273  1.00  0.00    -0.237 OA
ATOM     94  O   UNL A   1      47.811  35.159  25.603  1.00  0.00    -0.237 OA
ATOM     95  O   UNL A   1      46.251  36.725  26.693  1.00  0.00    -0.744 OA
ENDBRANCH  88  92
ENDBRANCH  62  85
ENDBRANCH  36  37
ENDBRANCH  28  31
ENDBRANCH  26  27
ENDBRANCH   1  26
TORSDOF 18
ENDMDL
