MODEL 1
REMARK VINA RESULT:     -12.0      0.000      0.000
REMARK SMILES Nc1cc(-c2ccsc2)ccc1C(=O)NCCCNC(=O)c1ccc(-c2c3nc(c(-c4cc(S(=O)(=O)[O-])ccc4F)c4ccc([nH]4)c(-c4cc(S(=O)(=O)[O-])ccc4F)c4nc(c(-c5cc(S(=O)(=O)[O-])ccc5F)c5ccc2[nH]5)C=C4)C=C3)cc1
REMARK SMILES IDX 18 1 17 2 16 3 15 4 13 5 14 6 12 8 2 9 3 10 4 11 11 12 10 13
REMARK SMILES IDX 1 14 5 17 6 18 9 19 7 20 8 21 19 22 20 23 21 25 22 26 23 27
REMARK SMILES IDX 84 28 24 29 83 30 25 31 26 32 27 33 77 34 28 35 82 36 76 37
REMARK SMILES IDX 78 38 29 39 81 40 75 41 74 42 30 44 62 45 42 46 61 47 43 48
REMARK SMILES IDX 46 49 60 50 79 51 44 52 45 53 59 55 80 56 47 57 31 58 32 59
REMARK SMILES IDX 40 60 33 61 39 62 41 63 38 64 34 65 35 66 36 67 37 68 63 69
REMARK SMILES IDX 64 70 72 71 65 72 71 73 73 74 70 75 66 76 67 77 68 78 69 79
REMARK SMILES IDX 48 80 49 81 57 82 50 83 56 84 58 85 55 86 51 87 52 88 53 89
REMARK SMILES IDX 54 90
REMARK H PARENT 15 7 1 15 1 16 19 24 78 43 46 54
REMARK Flexibility Score: inf
ROOT
ATOM      1  C   UNL A   1      32.713  29.692  25.482  1.00  0.00     0.118 C 
ENDROOT
BRANCH   1   2
ATOM      2  C   UNL A   1      31.531  28.748  25.310  1.00  0.00     0.042 C 
BRANCH   2   3
ATOM      3  C   UNL A   1      31.333  28.209  23.902  1.00  0.00     0.118 C 
BRANCH   3   4
ATOM      4  N   UNL A   1      32.413  28.526  22.979  1.00  0.00    -0.352 N 
ATOM      5  C   UNL A   1      33.337  27.702  22.378  1.00  0.00     0.253 C 
ATOM      6  O   UNL A   1      34.180  28.203  21.635  1.00  0.00    -0.269 OA
ATOM      7  H   UNL A   1      32.496  29.479  22.749  1.00  0.00     0.163 HD
BRANCH   5   8
ATOM      8  C   UNL A   1      33.390  26.245  22.658  1.00  0.00     0.062 A 
ATOM      9  C   UNL A   1      32.894  25.252  21.798  1.00  0.00     0.045 A 
ATOM     10  C   UNL A   1      32.911  23.921  22.240  1.00  0.00     0.035 A 
ATOM     11  C   UNL A   1      33.489  23.551  23.466  1.00  0.00    -0.015 A 
ATOM     12  C   UNL A   1      34.002  25.880  23.871  1.00  0.00     0.016 A 
ATOM     13  C   UNL A   1      34.059  24.543  24.268  1.00  0.00     0.010 A 
BRANCH   9  14
ATOM     14  N   UNL A   1      32.460  25.499  20.501  1.00  0.00    -0.398 N 
ATOM     15  H   UNL A   1      32.699  24.878  19.776  1.00  0.00     0.156 HD
ATOM     16  H   UNL A   1      31.915  26.296  20.308  1.00  0.00     0.156 HD
ENDBRANCH   9  14
BRANCH  11  17
ATOM     17  C   UNL A   1      33.503  22.153  23.893  1.00  0.00    -0.008 A 
ATOM     18  C   UNL A   1      34.532  21.480  24.630  1.00  0.00     0.020 A 
ATOM     19  C   UNL A   1      32.460  21.291  23.610  1.00  0.00     0.073 A 
ATOM     20  C   UNL A   1      34.220  20.164  24.894  1.00  0.00     0.065 A 
ATOM     21  S   UNL A   1      32.705  19.720  24.243  1.00  0.00    -0.152 S 
ENDBRANCH  11  17
ENDBRANCH   5   8
ENDBRANCH   3   4
ENDBRANCH   2   3
ENDBRANCH   1   2
BRANCH   1  22
ATOM     22  N   UNL A   1      32.369  30.973  26.087  1.00  0.00    -0.352 N 
ATOM     23  C   UNL A   1      32.990  31.726  27.058  1.00  0.00     0.251 C 
ATOM     24  H   UNL A   1      31.540  31.373  25.740  1.00  0.00     0.163 HD
ATOM     25  O   UNL A   1      32.415  32.726  27.485  1.00  0.00    -0.269 OA
BRANCH  23  26
ATOM     26  C   UNL A   1      34.300  31.331  27.627  1.00  0.00     0.039 A 
ATOM     27  C   UNL A   1      35.292  32.304  27.788  1.00  0.00     0.014 A 
ATOM     28  C   UNL A   1      34.572  30.015  27.997  1.00  0.00     0.014 A 
ATOM     29  C   UNL A   1      36.500  31.978  28.413  1.00  0.00     0.010 A 
ATOM     30  C   UNL A   1      35.719  29.718  28.728  1.00  0.00     0.010 A 
ATOM     31  C   UNL A   1      36.701  30.695  28.948  1.00  0.00    -0.014 A 
BRANCH  31  32
ATOM     32  C   UNL A   1      37.921  30.343  29.727  1.00  0.00     0.031 A 
ATOM     33  C   UNL A   1      38.933  29.384  29.153  1.00  0.00     0.074 A 
ATOM     34  C   UNL A   1      38.076  30.811  30.983  1.00  0.00     0.049 A 
ATOM     35  N   UNL A   1      39.976  28.836  29.723  1.00  0.00    -0.248 NA
ATOM     36  C   UNL A   1      38.712  28.949  27.765  1.00  0.00     0.031 C 
ATOM     37  C   UNL A   1      37.148  31.707  31.676  1.00  0.00     0.029 A 
ATOM     38  N   UNL A   1      39.066  30.586  31.909  1.00  0.00    -0.354 N 
ATOM     39  C   UNL A   1      40.516  27.970  28.776  1.00  0.00     0.074 A 
ATOM     40  C   UNL A   1      39.641  28.016  27.623  1.00  0.00     0.031 C 
ATOM     41  C   UNL A   1      37.628  31.982  32.899  1.00  0.00     0.029 A 
ATOM     42  C   UNL A   1      38.867  31.240  33.104  1.00  0.00     0.049 A 
ATOM     43  H   UNL A   1      39.845  30.010  31.735  1.00  0.00     0.167 HD
ATOM     44  C   UNL A   1      41.649  27.229  28.847  1.00  0.00     0.034 A 
ATOM     45  C   UNL A   1      39.591  31.233  34.241  1.00  0.00     0.034 A 
ATOM     46  C   UNL A   1      42.530  27.221  29.989  1.00  0.00     0.049 A 
ATOM     47  C   UNL A   1      40.846  30.399  34.300  1.00  0.00     0.074 A 
ATOM     48  C   UNL A   1      43.735  26.556  30.146  1.00  0.00     0.029 A 
ATOM     49  N   UNL A   1      42.304  27.913  31.172  1.00  0.00    -0.354 N 
ATOM     50  N   UNL A   1      41.362  29.616  33.380  1.00  0.00    -0.248 NA
ATOM     51  C   UNL A   1      41.620  30.456  35.546  1.00  0.00     0.031 C 
ATOM     52  C   UNL A   1      44.204  26.798  31.441  1.00  0.00     0.029 A 
ATOM     53  C   UNL A   1      43.333  27.673  32.070  1.00  0.00     0.049 A 
ATOM     54  H   UNL A   1      41.526  28.491  31.348  1.00  0.00     0.167 HD
ATOM     55  C   UNL A   1      42.538  29.113  33.929  1.00  0.00     0.074 A 
ATOM     56  C   UNL A   1      42.661  29.693  35.251  1.00  0.00     0.031 C 
ATOM     57  C   UNL A   1      43.438  28.254  33.387  1.00  0.00     0.034 A 
BRANCH  44  58
ATOM     58  C   UNL A   1      41.985  26.357  27.659  1.00  0.00     0.023 A 
ATOM     59  C   UNL A   1      41.558  25.020  27.579  1.00  0.00     0.031 A 
ATOM     60  C   UNL A   1      42.773  26.855  26.607  1.00  0.00     0.131 A 
ATOM     61  C   UNL A   1      41.994  24.204  26.525  1.00  0.00     0.055 A 
ATOM     62  C   UNL A   1      43.129  26.063  25.513  1.00  0.00     0.041 A 
ATOM     63  F   UNL A   1      43.229  28.118  26.632  1.00  0.00    -0.206 F 
ATOM     64  C   UNL A   1      42.754  24.723  25.476  1.00  0.00     0.022 A 
BRANCH  61  65
ATOM     65  S   UNL A   1      41.682  22.420  26.628  1.00  0.00     0.124 S 
ATOM     66  O   UNL A   1      40.223  22.380  26.693  1.00  0.00    -0.237 OA
ATOM     67  O   UNL A   1      42.280  21.923  25.395  1.00  0.00    -0.237 OA
ATOM     68  O   UNL A   1      42.365  22.024  27.858  1.00  0.00    -0.744 OA
ENDBRANCH  61  65
ENDBRANCH  44  58
BRANCH  45  69
ATOM     69  C   UNL A   1      39.156  32.034  35.422  1.00  0.00     0.023 A 
ATOM     70  C   UNL A   1      38.499  31.424  36.503  1.00  0.00     0.031 A 
ATOM     71  C   UNL A   1      39.354  33.426  35.471  1.00  0.00     0.131 A 
ATOM     72  C   UNL A   1      38.019  32.208  37.563  1.00  0.00     0.055 A 
ATOM     73  C   UNL A   1      38.921  34.194  36.554  1.00  0.00     0.041 A 
ATOM     74  F   UNL A   1      39.983  34.058  34.467  1.00  0.00    -0.206 F 
ATOM     75  C   UNL A   1      38.237  33.587  37.603  1.00  0.00     0.022 A 
BRANCH  72  76
ATOM     76  S   UNL A   1      37.029  31.408  38.855  1.00  0.00     0.124 S 
ATOM     77  O   UNL A   1      36.896  30.054  38.332  1.00  0.00    -0.237 OA
ATOM     78  O   UNL A   1      37.884  31.561  40.029  1.00  0.00    -0.237 OA
ATOM     79  O   UNL A   1      35.798  32.194  38.876  1.00  0.00    -0.744 OA
ENDBRANCH  72  76
ENDBRANCH  45  69
BRANCH  57  80
ATOM     80  C   UNL A   1      44.661  27.933  34.211  1.00  0.00     0.023 A 
ATOM     81  C   UNL A   1      44.696  26.835  35.087  1.00  0.00     0.031 A 
ATOM     82  C   UNL A   1      45.804  28.749  34.124  1.00  0.00     0.131 A 
ATOM     83  C   UNL A   1      45.831  26.612  35.881  1.00  0.00     0.055 A 
ATOM     84  C   UNL A   1      46.951  28.487  34.872  1.00  0.00     0.041 A 
ATOM     85  F   UNL A   1      45.823  29.812  33.304  1.00  0.00    -0.206 F 
ATOM     86  C   UNL A   1      46.966  27.421  35.767  1.00  0.00     0.022 A 
BRANCH  83  87
ATOM     87  S   UNL A   1      45.776  25.300  37.133  1.00  0.00     0.124 S 
ATOM     88  O   UNL A   1      46.167  26.018  38.342  1.00  0.00    -0.237 OA
ATOM     89  O   UNL A   1      44.383  24.868  37.070  1.00  0.00    -0.237 OA
ATOM     90  O   UNL A   1      46.749  24.323  36.650  1.00  0.00    -0.744 OA
ENDBRANCH  83  87
ENDBRANCH  57  80
ENDBRANCH  31  32
ENDBRANCH  23  26
ENDBRANCH   1  22
TORSDOF 15
ENDMDL
MODEL 2
REMARK VINA RESULT:     -12.0      5.530     10.410
REMARK SMILES Nc1cc(-c2ccsc2)ccc1C(=O)NCCCNC(=O)c1ccc(-c2c3nc(c(-c4cc(S(=O)(=O)[O-])ccc4F)c4ccc([nH]4)c(-c4cc(S(=O)(=O)[O-])ccc4F)c4nc(c(-c5cc(S(=O)(=O)[O-])ccc5F)c5ccc2[nH]5)C=C4)C=C3)cc1
REMARK SMILES IDX 18 1 17 2 16 3 15 4 13 5 14 6 12 8 2 9 3 10 4 11 11 12 10 13
REMARK SMILES IDX 1 14 5 17 6 18 9 19 7 20 8 21 19 22 20 23 21 25 22 26 23 27
REMARK SMILES IDX 84 28 24 29 83 30 25 31 26 32 27 33 77 34 28 35 82 36 76 37
REMARK SMILES IDX 78 38 29 39 81 40 75 41 74 42 30 44 62 45 42 46 61 47 43 48
REMARK SMILES IDX 46 49 60 50 79 51 44 52 45 53 59 55 80 56 47 57 31 58 32 59
REMARK SMILES IDX 40 60 33 61 39 62 41 63 38 64 34 65 35 66 36 67 37 68 63 69
REMARK SMILES IDX 64 70 72 71 65 72 71 73 73 74 70 75 66 76 67 77 68 78 69 79
REMARK SMILES IDX 48 80 49 81 57 82 50 83 56 84 58 85 55 86 51 87 52 88 53 89
REMARK SMILES IDX 54 90
REMARK H PARENT 15 7 1 15 1 16 19 24 78 43 46 54
REMARK Flexibility Score: inf
ROOT
ATOM      1  C   UNL A   1      36.101  22.040  25.396  1.00  0.00     0.118 C 
ENDROOT
BRANCH   1   2
ATOM      2  C   UNL A   1      35.018  21.832  24.346  1.00  0.00     0.042 C 
BRANCH   2   3
ATOM      3  C   UNL A   1      33.673  21.371  24.886  1.00  0.00     0.118 C 
BRANCH   3   4
ATOM      4  N   UNL A   1      33.542  21.466  26.333  1.00  0.00    -0.352 N 
ATOM      5  C   UNL A   1      32.905  22.409  27.106  1.00  0.00     0.253 C 
ATOM      6  O   UNL A   1      32.939  22.290  28.330  1.00  0.00    -0.269 OA
ATOM      7  H   UNL A   1      33.977  20.741  26.837  1.00  0.00     0.163 HD
BRANCH   5   8
ATOM      8  C   UNL A   1      32.245  23.598  26.510  1.00  0.00     0.062 A 
ATOM      9  C   UNL A   1      30.863  23.715  26.293  1.00  0.00     0.045 A 
ATOM     10  C   UNL A   1      30.389  24.850  25.619  1.00  0.00     0.035 A 
ATOM     11  C   UNL A   1      31.241  25.903  25.245  1.00  0.00    -0.015 A 
ATOM     12  C   UNL A   1      33.100  24.662  26.171  1.00  0.00     0.016 A 
ATOM     13  C   UNL A   1      32.601  25.809  25.551  1.00  0.00     0.010 A 
BRANCH   9  14
ATOM     14  N   UNL A   1      29.926  22.810  26.776  1.00  0.00    -0.398 N 
ATOM     15  H   UNL A   1      29.952  21.870  26.483  1.00  0.00     0.156 HD
ATOM     16  H   UNL A   1      29.234  23.108  27.410  1.00  0.00     0.156 HD
ENDBRANCH   9  14
BRANCH  11  17
ATOM     17  C   UNL A   1      30.715  27.080  24.556  1.00  0.00    -0.008 A 
ATOM     18  C   UNL A   1      31.216  28.421  24.622  1.00  0.00     0.020 A 
ATOM     19  C   UNL A   1      29.616  27.008  23.720  1.00  0.00     0.073 A 
ATOM     20  C   UNL A   1      30.503  29.293  23.828  1.00  0.00     0.065 A 
ATOM     21  S   UNL A   1      29.218  28.515  23.014  1.00  0.00    -0.152 S 
ENDBRANCH  11  17
ENDBRANCH   5   8
ENDBRANCH   3   4
ENDBRANCH   2   3
ENDBRANCH   1   2
BRANCH   1  22
ATOM     22  N   UNL A   1      37.125  21.003  25.409  1.00  0.00    -0.352 N 
ATOM     23  C   UNL A   1      38.458  21.032  25.753  1.00  0.00     0.251 C 
ATOM     24  H   UNL A   1      36.806  20.119  25.117  1.00  0.00     0.163 HD
ATOM     25  O   UNL A   1      39.140  20.029  25.550  1.00  0.00    -0.269 OA
BRANCH  23  26
ATOM     26  C   UNL A   1      39.089  22.252  26.309  1.00  0.00     0.039 A 
ATOM     27  C   UNL A   1      40.243  22.124  27.089  1.00  0.00     0.014 A 
ATOM     28  C   UNL A   1      38.558  23.521  26.082  1.00  0.00     0.014 A 
ATOM     29  C   UNL A   1      40.914  23.266  27.542  1.00  0.00     0.010 A 
ATOM     30  C   UNL A   1      39.289  24.655  26.425  1.00  0.00     0.010 A 
ATOM     31  C   UNL A   1      40.478  24.545  27.161  1.00  0.00    -0.014 A 
BRANCH  31  32
ATOM     32  C   UNL A   1      41.233  25.779  27.519  1.00  0.00     0.031 A 
ATOM     33  C   UNL A   1      40.578  26.847  28.357  1.00  0.00     0.074 A 
ATOM     34  C   UNL A   1      42.470  25.981  27.019  1.00  0.00     0.049 A 
ATOM     35  N   UNL A   1      41.002  28.050  28.652  1.00  0.00    -0.248 NA
ATOM     36  C   UNL A   1      39.244  26.536  28.895  1.00  0.00     0.031 C 
ATOM     37  C   UNL A   1      43.199  25.050  26.156  1.00  0.00     0.029 A 
ATOM     38  N   UNL A   1      43.329  27.044  27.152  1.00  0.00    -0.354 N 
ATOM     39  C   UNL A   1      39.978  28.647  29.382  1.00  0.00     0.074 A 
ATOM     40  C   UNL A   1      38.886  27.697  29.420  1.00  0.00     0.031 C 
ATOM     41  C   UNL A   1      44.405  25.565  25.867  1.00  0.00     0.029 A 
ATOM     42  C   UNL A   1      44.516  26.888  26.473  1.00  0.00     0.049 A 
ATOM     43  H   UNL A   1      43.115  27.846  27.683  1.00  0.00     0.167 HD
ATOM     44  C   UNL A   1      39.959  29.860  29.987  1.00  0.00     0.034 A 
ATOM     45  C   UNL A   1      45.569  27.718  26.341  1.00  0.00     0.034 A 
ATOM     46  C   UNL A   1      41.068  30.781  29.970  1.00  0.00     0.049 A 
ATOM     47  C   UNL A   1      45.526  29.063  27.021  1.00  0.00     0.074 A 
ATOM     48  C   UNL A   1      41.181  32.009  30.601  1.00  0.00     0.029 A 
ATOM     49  N   UNL A   1      42.261  30.576  29.289  1.00  0.00    -0.354 N 
ATOM     50  N   UNL A   1      44.564  29.595  27.738  1.00  0.00    -0.248 NA
ATOM     51  C   UNL A   1      46.714  29.915  26.879  1.00  0.00     0.031 C 
ATOM     52  C   UNL A   1      42.414  32.570  30.251  1.00  0.00     0.029 A 
ATOM     53  C   UNL A   1      43.105  31.663  29.464  1.00  0.00     0.049 A 
ATOM     54  H   UNL A   1      42.477  29.775  28.758  1.00  0.00     0.167 HD
ATOM     55  C   UNL A   1      45.046  30.832  28.159  1.00  0.00     0.074 A 
ATOM     56  C   UNL A   1      46.388  30.958  27.627  1.00  0.00     0.031 C 
ATOM     57  C   UNL A   1      44.438  31.775  28.921  1.00  0.00     0.034 A 
BRANCH  44  58
ATOM     58  C   UNL A   1      38.689  30.258  30.705  1.00  0.00     0.023 A 
ATOM     59  C   UNL A   1      37.646  30.930  30.043  1.00  0.00     0.031 A 
ATOM     60  C   UNL A   1      38.532  29.996  32.077  1.00  0.00     0.131 A 
ATOM     61  C   UNL A   1      36.539  31.395  30.767  1.00  0.00     0.055 A 
ATOM     62  C   UNL A   1      37.386  30.384  32.775  1.00  0.00     0.041 A 
ATOM     63  F   UNL A   1      39.500  29.375  32.771  1.00  0.00    -0.206 F 
ATOM     64  C   UNL A   1      36.388  31.104  32.124  1.00  0.00     0.022 A 
BRANCH  61  65
ATOM     65  S   UNL A   1      35.380  32.521  29.944  1.00  0.00     0.124 S 
ATOM     66  O   UNL A   1      34.944  31.713  28.807  1.00  0.00    -0.237 OA
ATOM     67  O   UNL A   1      34.381  32.759  30.978  1.00  0.00    -0.237 OA
ATOM     68  O   UNL A   1      36.210  33.674  29.598  1.00  0.00    -0.744 OA
ENDBRANCH  61  65
ENDBRANCH  44  58
BRANCH  45  69
ATOM     69  C   UNL A   1      46.757  27.314  25.534  1.00  0.00     0.023 A 
ATOM     70  C   UNL A   1      46.944  27.808  24.232  1.00  0.00     0.031 A 
ATOM     71  C   UNL A   1      47.700  26.397  26.033  1.00  0.00     0.131 A 
ATOM     72  C   UNL A   1      48.020  27.347  23.457  1.00  0.00     0.055 A 
ATOM     73  C   UNL A   1      48.798  25.983  25.276  1.00  0.00     0.041 A 
ATOM     74  F   UNL A   1      47.572  25.899  27.273  1.00  0.00    -0.206 F 
ATOM     75  C   UNL A   1      48.955  26.448  23.974  1.00  0.00     0.022 A 
BRANCH  72  76
ATOM     76  S   UNL A   1      48.131  27.879  21.726  1.00  0.00     0.124 S 
ATOM     77  O   UNL A   1      46.834  28.513  21.526  1.00  0.00    -0.237 OA
ATOM     78  O   UNL A   1      49.285  28.774  21.759  1.00  0.00    -0.237 OA
ATOM     79  O   UNL A   1      48.335  26.628  20.999  1.00  0.00    -0.744 OA
ENDBRANCH  72  76
ENDBRANCH  45  69
BRANCH  57  80
ATOM     80  C   UNL A   1      45.244  33.004  29.264  1.00  0.00     0.023 A 
ATOM     81  C   UNL A   1      45.214  34.158  28.461  1.00  0.00     0.031 A 
ATOM     82  C   UNL A   1      46.063  33.013  30.407  1.00  0.00     0.131 A 
ATOM     83  C   UNL A   1      46.029  35.253  28.783  1.00  0.00     0.055 A 
ATOM     84  C   UNL A   1      46.826  34.128  30.755  1.00  0.00     0.041 A 
ATOM     85  F   UNL A   1      46.131  31.938  31.208  1.00  0.00    -0.206 F 
ATOM     86  C   UNL A   1      46.822  35.252  29.935  1.00  0.00     0.022 A 
BRANCH  83  87
ATOM     87  S   UNL A   1      46.107  36.650  27.629  1.00  0.00     0.124 S 
ATOM     88  O   UNL A   1      46.468  35.990  26.378  1.00  0.00    -0.237 OA
ATOM     89  O   UNL A   1      44.753  37.189  27.698  1.00  0.00    -0.237 OA
ATOM     90  O   UNL A   1      47.144  37.509  28.199  1.00  0.00    -0.744 OA
ENDBRANCH  83  87
ENDBRANCH  57  80
ENDBRANCH  31  32
ENDBRANCH  23  26
ENDBRANCH   1  22
TORSDOF 15
ENDMDL
MODEL 3
REMARK VINA RESULT:     -11.8      1.533      1.765
REMARK SMILES Nc1cc(-c2ccsc2)ccc1C(=O)NCCCNC(=O)c1ccc(-c2c3nc(c(-c4cc(S(=O)(=O)[O-])ccc4F)c4ccc([nH]4)c(-c4cc(S(=O)(=O)[O-])ccc4F)c4nc(c(-c5cc(S(=O)(=O)[O-])ccc5F)c5ccc2[nH]5)C=C4)C=C3)cc1
REMARK SMILES IDX 18 1 17 2 16 3 15 4 13 5 14 6 12 8 2 9 3 10 4 11 11 12 10 13
REMARK SMILES IDX 1 14 5 17 6 18 9 19 7 20 8 21 19 22 20 23 21 25 22 26 23 27
REMARK SMILES IDX 84 28 24 29 83 30 25 31 26 32 27 33 77 34 28 35 82 36 76 37
REMARK SMILES IDX 78 38 29 39 81 40 75 41 74 42 30 44 62 45 42 46 61 47 43 48
REMARK SMILES IDX 46 49 60 50 79 51 44 52 45 53 59 55 80 56 47 57 31 58 32 59
REMARK SMILES IDX 40 60 33 61 39 62 41 63 38 64 34 65 35 66 36 67 37 68 63 69
REMARK SMILES IDX 64 70 72 71 65 72 71 73 73 74 70 75 66 76 67 77 68 78 69 79
REMARK SMILES IDX 48 80 49 81 57 82 50 83 56 84 58 85 55 86 51 87 52 88 53 89
REMARK SMILES IDX 54 90
REMARK H PARENT 15 7 1 15 1 16 19 24 78 43 46 54
REMARK Flexibility Score: inf
ROOT
ATOM      1  C   UNL A   1      32.357  30.106  25.895  1.00  0.00     0.118 C 
ENDROOT
BRANCH   1   2
ATOM      2  C   UNL A   1      31.256  29.554  25.001  1.00  0.00     0.042 C 
BRANCH   2   3
ATOM      3  C   UNL A   1      31.646  28.345  24.165  1.00  0.00     0.118 C 
BRANCH   3   4
ATOM      4  N   UNL A   1      32.643  28.620  23.140  1.00  0.00    -0.352 N 
ATOM      5  C   UNL A   1      33.457  27.758  22.441  1.00  0.00     0.253 C 
ATOM      6  O   UNL A   1      34.246  28.226  21.621  1.00  0.00    -0.269 OA
ATOM      7  H   UNL A   1      32.752  29.571  22.912  1.00  0.00     0.163 HD
BRANCH   5   8
ATOM      8  C   UNL A   1      33.461  26.296  22.701  1.00  0.00     0.062 A 
ATOM      9  C   UNL A   1      32.914  25.334  21.836  1.00  0.00     0.045 A 
ATOM     10  C   UNL A   1      32.889  23.997  22.261  1.00  0.00     0.035 A 
ATOM     11  C   UNL A   1      33.475  23.589  23.471  1.00  0.00    -0.015 A 
ATOM     12  C   UNL A   1      34.080  25.893  23.897  1.00  0.00     0.016 A 
ATOM     13  C   UNL A   1      34.095  24.549  24.275  1.00  0.00     0.010 A 
BRANCH   9  14
ATOM     14  N   UNL A   1      32.466  25.615  20.551  1.00  0.00    -0.398 N 
ATOM     15  H   UNL A   1      33.043  26.112  19.927  1.00  0.00     0.156 HD
ATOM     16  H   UNL A   1      31.572  25.318  20.265  1.00  0.00     0.156 HD
ENDBRANCH   9  14
BRANCH  11  17
ATOM     17  C   UNL A   1      33.445  22.186  23.879  1.00  0.00    -0.008 A 
ATOM     18  C   UNL A   1      34.452  21.471  24.605  1.00  0.00     0.020 A 
ATOM     19  C   UNL A   1      32.374  21.362  23.586  1.00  0.00     0.073 A 
ATOM     20  C   UNL A   1      34.099  20.162  24.851  1.00  0.00     0.065 A 
ATOM     21  S   UNL A   1      32.570  19.776  24.197  1.00  0.00    -0.152 S 
ENDBRANCH  11  17
ENDBRANCH   5   8
ENDBRANCH   3   4
ENDBRANCH   2   3
ENDBRANCH   1   2
BRANCH   1  22
ATOM     22  N   UNL A   1      32.118  31.466  26.364  1.00  0.00    -0.352 N 
ATOM     23  C   UNL A   1      32.840  32.291  27.196  1.00  0.00     0.251 C 
ATOM     24  H   UNL A   1      31.286  31.867  26.025  1.00  0.00     0.163 HD
ATOM     25  O   UNL A   1      32.343  33.363  27.537  1.00  0.00    -0.269 OA
BRANCH  23  26
ATOM     26  C   UNL A   1      34.167  31.892  27.723  1.00  0.00     0.039 A 
ATOM     27  C   UNL A   1      35.156  32.869  27.879  1.00  0.00     0.014 A 
ATOM     28  C   UNL A   1      34.456  30.571  28.059  1.00  0.00     0.014 A 
ATOM     29  C   UNL A   1      36.382  32.538  28.467  1.00  0.00     0.010 A 
ATOM     30  C   UNL A   1      35.623  30.267  28.754  1.00  0.00     0.010 A 
ATOM     31  C   UNL A   1      36.604  31.246  28.969  1.00  0.00    -0.014 A 
BRANCH  31  32
ATOM     32  C   UNL A   1      37.846  30.886  29.709  1.00  0.00     0.031 A 
ATOM     33  C   UNL A   1      38.843  29.937  29.094  1.00  0.00     0.074 A 
ATOM     34  C   UNL A   1      38.034  31.336  30.968  1.00  0.00     0.049 A 
ATOM     35  N   UNL A   1      39.903  29.383  29.628  1.00  0.00    -0.248 NA
ATOM     36  C   UNL A   1      38.586  29.521  27.707  1.00  0.00     0.031 C 
ATOM     37  C   UNL A   1      37.124  32.220  31.698  1.00  0.00     0.029 A 
ATOM     38  N   UNL A   1      39.049  31.101  31.863  1.00  0.00    -0.354 N 
ATOM     39  C   UNL A   1      40.419  28.533  28.654  1.00  0.00     0.074 A 
ATOM     40  C   UNL A   1      39.513  28.593  27.526  1.00  0.00     0.031 C 
ATOM     41  C   UNL A   1      37.636  32.479  32.912  1.00  0.00     0.029 A 
ATOM     42  C   UNL A   1      38.882  31.737  33.072  1.00  0.00     0.049 A 
ATOM     43  H   UNL A   1      39.825  30.529  31.659  1.00  0.00     0.167 HD
ATOM     44  C   UNL A   1      41.555  27.793  28.684  1.00  0.00     0.034 A 
ATOM     45  C   UNL A   1      39.637  31.716  34.188  1.00  0.00     0.034 A 
ATOM     46  C   UNL A   1      42.466  27.771  29.801  1.00  0.00     0.049 A 
ATOM     47  C   UNL A   1      40.895  30.884  34.201  1.00  0.00     0.074 A 
ATOM     48  C   UNL A   1      43.677  27.107  29.915  1.00  0.00     0.029 A 
ATOM     49  N   UNL A   1      42.272  28.446  30.999  1.00  0.00    -0.354 N 
ATOM     50  N   UNL A   1      41.387  30.116  33.257  1.00  0.00    -0.248 NA
ATOM     51  C   UNL A   1      41.703  30.925  35.426  1.00  0.00     0.031 C 
ATOM     52  C   UNL A   1      44.181  27.332  31.201  1.00  0.00     0.029 A 
ATOM     53  C   UNL A   1      43.326  28.196  31.865  1.00  0.00     0.049 A 
ATOM     54  H   UNL A   1      41.498  29.019  31.205  1.00  0.00     0.167 HD
ATOM     55  C   UNL A   1      42.579  29.608  33.765  1.00  0.00     0.074 A 
ATOM     56  C   UNL A   1      42.737  30.169  35.092  1.00  0.00     0.031 C 
ATOM     57  C   UNL A   1      43.466  28.759  33.187  1.00  0.00     0.034 A 
BRANCH  44  58
ATOM     58  C   UNL A   1      41.860  26.939  27.474  1.00  0.00     0.023 A 
ATOM     59  C   UNL A   1      41.529  25.573  27.433  1.00  0.00     0.031 A 
ATOM     60  C   UNL A   1      42.522  27.486  26.362  1.00  0.00     0.131 A 
ATOM     61  C   UNL A   1      41.940  24.783  26.348  1.00  0.00     0.055 A 
ATOM     62  C   UNL A   1      42.849  26.714  25.245  1.00  0.00     0.041 A 
ATOM     63  F   UNL A   1      42.882  28.780  26.347  1.00  0.00    -0.206 F 
ATOM     64  C   UNL A   1      42.574  25.349  25.241  1.00  0.00     0.022 A 
BRANCH  61  65
ATOM     65  S   UNL A   1      41.773  22.982  26.480  1.00  0.00     0.124 S 
ATOM     66  O   UNL A   1      42.503  22.709  27.715  1.00  0.00    -0.237 OA
ATOM     67  O   UNL A   1      40.327  22.803  26.540  1.00  0.00    -0.237 OA
ATOM     68  O   UNL A   1      42.414  22.489  25.263  1.00  0.00    -0.744 OA
ENDBRANCH  61  65
ENDBRANCH  44  58
BRANCH  45  69
ATOM     69  C   UNL A   1      39.233  32.499  35.392  1.00  0.00     0.023 A 
ATOM     70  C   UNL A   1      39.695  33.811  35.584  1.00  0.00     0.031 A 
ATOM     71  C   UNL A   1      38.415  31.936  36.388  1.00  0.00     0.131 A 
ATOM     72  C   UNL A   1      39.377  34.500  36.765  1.00  0.00     0.055 A 
ATOM     73  C   UNL A   1      38.058  32.645  37.536  1.00  0.00     0.041 A 
ATOM     74  F   UNL A   1      37.940  30.687  36.250  1.00  0.00    -0.206 F 
ATOM     75  C   UNL A   1      38.551  33.931  37.737  1.00  0.00     0.022 A 
BRANCH  72  76
ATOM     76  S   UNL A   1      40.130  36.125  37.052  1.00  0.00     0.124 S 
ATOM     77  O   UNL A   1      41.517  35.766  37.323  1.00  0.00    -0.237 OA
ATOM     78  O   UNL A   1      39.878  36.803  35.784  1.00  0.00    -0.237 OA
ATOM     79  O   UNL A   1      39.385  36.648  38.195  1.00  0.00    -0.744 OA
ENDBRANCH  72  76
ENDBRANCH  45  69
BRANCH  57  80
ATOM     80  C   UNL A   1      44.711  28.429  33.973  1.00  0.00     0.023 A 
ATOM     81  C   UNL A   1      44.746  27.369  34.895  1.00  0.00     0.031 A 
ATOM     82  C   UNL A   1      45.877  29.197  33.800  1.00  0.00     0.131 A 
ATOM     83  C   UNL A   1      45.906  27.140  35.650  1.00  0.00     0.055 A 
ATOM     84  C   UNL A   1      47.046  28.926  34.511  1.00  0.00     0.041 A 
ATOM     85  F   UNL A   1      45.898  30.222  32.933  1.00  0.00    -0.206 F 
ATOM     86  C   UNL A   1      47.062  27.900  35.451  1.00  0.00     0.022 A 
BRANCH  83  87
ATOM     87  S   UNL A   1      45.859  25.887  36.961  1.00  0.00     0.124 S 
ATOM     88  O   UNL A   1      44.746  26.350  37.783  1.00  0.00    -0.237 OA
ATOM     89  O   UNL A   1      45.629  24.657  36.210  1.00  0.00    -0.237 OA
ATOM     90  O   UNL A   1      47.177  25.993  37.585  1.00  0.00    -0.744 OA
ENDBRANCH  83  87
ENDBRANCH  57  80
ENDBRANCH  31  32
ENDBRANCH  23  26
ENDBRANCH   1  22
TORSDOF 15
ENDMDL
