MODEL 1
REMARK VINA RESULT:     -11.3      0.000      0.000
REMARK SMILES CC(C)CN(CC(N)=O)C(=O)N1CC[C@H](C(=O)NCCCNC(=O)c2ccc(-c3c4nc(c(-c5cc(S(=O)(=O)[O-])ccc5F)c5ccc([nH]5)c(-c5cc(S(=O)(=O)[O-])ccc5F)c5nc(c(-c6cc(S(=O)(=O)[O-])ccc6F)c6ccc3[nH]6)C=C5)C=C4)cc2)[C@@H]1C
REMARK SMILES IDX 19 1 18 2 16 3 17 4 15 6 12 7 13 8 88 9 14 10 89 11 10 12
REMARK SMILES IDX 11 13 5 14 4 15 2 16 1 17 3 18 6 19 7 20 8 21 9 22 20 25
REMARK SMILES IDX 21 26 22 27 23 28 24 30 25 31 26 32 87 33 27 34 86 35 28 36
REMARK SMILES IDX 29 37 30 38 80 39 31 40 85 41 79 42 81 43 32 44 84 45 78 46
REMARK SMILES IDX 77 47 33 49 65 50 45 51 64 52 46 53 49 54 63 55 82 56 47 57
REMARK SMILES IDX 48 58 62 60 83 61 50 62 34 63 35 64 43 65 36 66 42 67 44 68
REMARK SMILES IDX 41 69 37 70 38 71 39 72 40 73 66 74 67 75 75 76 68 77 74 78
REMARK SMILES IDX 76 79 73 80 69 81 70 82 71 83 72 84 51 85 52 86 60 87 53 88
REMARK SMILES IDX 59 89 61 90 58 91 54 92 55 93 56 94 57 95
REMARK H PARENT 18 5 8 23 8 24 22 29 81 48 49 59
REMARK Flexibility Score: inf
ROOT
ATOM      1  C   UNL A   1      34.404  21.534  25.029  1.00  0.00     0.117 C 
ENDROOT
BRANCH   1   2
ATOM      2  N   UNL A   1      34.359  22.416  23.868  1.00  0.00    -0.356 N 
ATOM      3  C   UNL A   1      34.010  23.706  23.678  1.00  0.00     0.225 C 
ATOM      4  O   UNL A   1      34.295  24.176  22.568  1.00  0.00    -0.275 OA
ATOM      5  H   UNL A   1      34.648  21.972  23.038  1.00  0.00     0.163 HD
BRANCH   3   6
ATOM      6  C   UNL A   1      33.230  24.584  24.647  1.00  0.00     0.102 C 
ATOM      7  N   UNL A   1      32.610  26.812  24.130  1.00  0.00    -0.321 N 
ATOM      8  C   UNL A   1      33.935  26.878  24.732  1.00  0.00     0.122 C 
ATOM      9  C   UNL A   1      32.057  25.459  24.192  1.00  0.00     0.096 C 
ATOM     10  C   UNL A   1      34.148  25.541  25.407  1.00  0.00     0.037 C 
ATOM     11  C   UNL A   1      31.297  24.934  22.981  1.00  0.00     0.032 C 
BRANCH   7  12
ATOM     12  C   UNL A   1      32.165  27.915  23.454  1.00  0.00     0.320 C 
ATOM     13  O   UNL A   1      32.824  28.322  22.495  1.00  0.00    -0.248 OA
BRANCH  12  14
ATOM     14  N   UNL A   1      31.084  28.621  23.942  1.00  0.00    -0.315 N 
BRANCH  14  15
ATOM     15  C   UNL A   1      29.760  28.281  23.398  1.00  0.00     0.125 C 
BRANCH  15  16
ATOM     16  C   UNL A   1      28.939  29.526  22.976  1.00  0.00     0.002 C 
ATOM     17  C   UNL A   1      29.379  30.104  21.628  1.00  0.00     0.009 C 
ATOM     18  C   UNL A   1      27.452  29.174  22.910  1.00  0.00     0.009 C 
ENDBRANCH  15  16
ENDBRANCH  14  15
BRANCH  14  19
ATOM     19  C   UNL A   1      31.125  29.780  24.838  1.00  0.00     0.221 C 
BRANCH  19  20
ATOM     20  C   UNL A   1      32.131  29.615  25.984  1.00  0.00     0.237 C 
ATOM     21  N   UNL A   1      31.693  28.913  27.073  1.00  0.00    -0.368 N 
ATOM     22  O   UNL A   1      33.281  30.046  25.969  1.00  0.00    -0.273 OA
ATOM     23  H   UNL A   1      30.773  28.563  27.095  1.00  0.00     0.159 HD
ATOM     24  H   UNL A   1      32.297  28.757  27.835  1.00  0.00     0.159 HD
ENDBRANCH  19  20
ENDBRANCH  14  19
ENDBRANCH  12  14
ENDBRANCH   7  12
ENDBRANCH   3   6
ENDBRANCH   1   2
BRANCH   1  25
ATOM     25  C   UNL A   1      35.579  20.566  24.984  1.00  0.00     0.042 C 
BRANCH  25  26
ATOM     26  C   UNL A   1      36.918  21.218  25.316  1.00  0.00     0.118 C 
BRANCH  26  27
ATOM     27  N   UNL A   1      38.040  20.286  25.361  1.00  0.00    -0.352 N 
ATOM     28  C   UNL A   1      39.322  20.437  25.842  1.00  0.00     0.251 C 
ATOM     29  H   UNL A   1      37.849  19.397  24.984  1.00  0.00     0.163 HD
ATOM     30  O   UNL A   1      40.150  19.548  25.660  1.00  0.00    -0.269 OA
BRANCH  28  31
ATOM     31  C   UNL A   1      39.712  21.688  26.525  1.00  0.00     0.039 A 
ATOM     32  C   UNL A   1      40.641  21.641  27.568  1.00  0.00     0.014 A 
ATOM     33  C   UNL A   1      39.206  22.913  26.097  1.00  0.00     0.014 A 
ATOM     34  C   UNL A   1      41.164  22.832  28.078  1.00  0.00     0.010 A 
ATOM     35  C   UNL A   1      39.820  24.087  26.511  1.00  0.00     0.010 A 
ATOM     36  C   UNL A   1      40.820  24.062  27.493  1.00  0.00    -0.014 A 
BRANCH  36  37
ATOM     37  C   UNL A   1      41.505  25.333  27.850  1.00  0.00     0.031 A 
ATOM     38  C   UNL A   1      40.749  26.412  28.579  1.00  0.00     0.074 A 
ATOM     39  C   UNL A   1      42.755  25.570  27.405  1.00  0.00     0.049 A 
ATOM     40  N   UNL A   1      41.085  27.657  28.804  1.00  0.00    -0.248 NA
ATOM     41  C   UNL A   1      39.411  26.052  29.071  1.00  0.00     0.031 C 
ATOM     42  C   UNL A   1      43.578  24.625  26.644  1.00  0.00     0.029 A 
ATOM     43  N   UNL A   1      43.549  26.684  27.509  1.00  0.00    -0.354 N 
ATOM     44  C   UNL A   1      39.986  28.237  29.430  1.00  0.00     0.074 A 
ATOM     45  C   UNL A   1      38.951  27.225  29.474  1.00  0.00     0.031 C 
ATOM     46  C   UNL A   1      44.770  25.185  26.386  1.00  0.00     0.029 A 
ATOM     47  C   UNL A   1      44.776  26.549  26.900  1.00  0.00     0.049 A 
ATOM     48  H   UNL A   1      43.268  27.503  27.977  1.00  0.00     0.167 HD
ATOM     49  C   UNL A   1      39.862  29.485  29.947  1.00  0.00     0.034 A 
ATOM     50  C   UNL A   1      45.784  27.431  26.750  1.00  0.00     0.034 A 
ATOM     51  C   UNL A   1      40.918  30.467  29.916  1.00  0.00     0.049 A 
ATOM     52  C   UNL A   1      45.613  28.826  27.292  1.00  0.00     0.074 A 
ATOM     53  C   UNL A   1      40.942  31.730  30.481  1.00  0.00     0.029 A 
ATOM     54  N   UNL A   1      42.139  30.297  29.274  1.00  0.00    -0.354 N 
ATOM     55  N   UNL A   1      44.587  29.346  27.925  1.00  0.00    -0.248 NA
ATOM     56  C   UNL A   1      46.732  29.754  27.089  1.00  0.00     0.031 C 
ATOM     57  C   UNL A   1      42.146  32.347  30.125  1.00  0.00     0.029 A 
ATOM     58  C   UNL A   1      42.906  31.446  29.394  1.00  0.00     0.049 A 
ATOM     59  H   UNL A   1      42.420  29.479  28.804  1.00  0.00     0.167 HD
ATOM     60  C   UNL A   1      44.944  30.660  28.211  1.00  0.00     0.074 A 
ATOM     61  C   UNL A   1      46.286  30.846  27.694  1.00  0.00     0.031 C 
ATOM     62  C   UNL A   1      44.230  31.623  28.845  1.00  0.00     0.034 A 
BRANCH  49  63
ATOM     63  C   UNL A   1      38.530  29.846  30.563  1.00  0.00     0.023 A 
ATOM     64  C   UNL A   1      37.542  30.533  29.833  1.00  0.00     0.031 A 
ATOM     65  C   UNL A   1      38.266  29.570  31.916  1.00  0.00     0.131 A 
ATOM     66  C   UNL A   1      36.399  31.019  30.483  1.00  0.00     0.055 A 
ATOM     67  C   UNL A   1      37.078  29.970  32.533  1.00  0.00     0.041 A 
ATOM     68  F   UNL A   1      39.173  28.932  32.673  1.00  0.00    -0.206 F 
ATOM     69  C   UNL A   1      36.147  30.721  31.823  1.00  0.00     0.022 A 
BRANCH  66  70
ATOM     70  S   UNL A   1      35.352  32.212  29.603  1.00  0.00     0.124 S 
ATOM     71  O   UNL A   1      34.406  32.600  30.647  1.00  0.00    -0.237 OA
ATOM     72  O   UNL A   1      36.311  33.232  29.196  1.00  0.00    -0.237 OA
ATOM     73  O   UNL A   1      34.776  31.424  28.514  1.00  0.00    -0.744 OA
ENDBRANCH  66  70
ENDBRANCH  49  63
BRANCH  50  74
ATOM     74  C   UNL A   1      47.036  27.030  26.050  1.00  0.00     0.023 A 
ATOM     75  C   UNL A   1      48.074  26.397  26.751  1.00  0.00     0.031 A 
ATOM     76  C   UNL A   1      47.220  27.278  24.678  1.00  0.00     0.131 A 
ATOM     77  C   UNL A   1      49.262  26.055  26.085  1.00  0.00     0.055 A 
ATOM     78  C   UNL A   1      48.385  26.896  24.010  1.00  0.00     0.041 A 
ATOM     79  F   UNL A   1      46.254  27.877  23.962  1.00  0.00    -0.206 F 
ATOM     80  C   UNL A   1      49.418  26.288  24.717  1.00  0.00     0.022 A 
BRANCH  77  81
ATOM     81  S   UNL A   1      50.624  25.345  27.048  1.00  0.00     0.124 S 
ATOM     82  O   UNL A   1      51.039  26.484  27.860  1.00  0.00    -0.237 OA
ATOM     83  O   UNL A   1      49.961  24.258  27.759  1.00  0.00    -0.237 OA
ATOM     84  O   UNL A   1      51.580  24.925  26.026  1.00  0.00    -0.744 OA
ENDBRANCH  77  81
ENDBRANCH  50  74
BRANCH  62  85
ATOM     85  C   UNL A   1      44.903  32.960  29.026  1.00  0.00     0.023 A 
ATOM     86  C   UNL A   1      45.788  33.197  30.091  1.00  0.00     0.031 A 
ATOM     87  C   UNL A   1      44.655  34.007  28.122  1.00  0.00     0.131 A 
ATOM     88  C   UNL A   1      46.364  34.467  30.251  1.00  0.00     0.055 A 
ATOM     89  C   UNL A   1      45.272  35.252  28.254  1.00  0.00     0.041 A 
ATOM     90  F   UNL A   1      43.815  33.833  27.089  1.00  0.00    -0.206 F 
ATOM     91  C   UNL A   1      46.125  35.490  29.328  1.00  0.00     0.022 A 
BRANCH  88  92
ATOM     92  S   UNL A   1      47.382  34.786  31.716  1.00  0.00     0.124 S 
ATOM     93  O   UNL A   1      47.338  36.242  31.805  1.00  0.00    -0.237 OA
ATOM     94  O   UNL A   1      46.665  34.061  32.761  1.00  0.00    -0.237 OA
ATOM     95  O   UNL A   1      48.684  34.225  31.359  1.00  0.00    -0.744 OA
ENDBRANCH  88  92
ENDBRANCH  62  85
ENDBRANCH  36  37
ENDBRANCH  28  31
ENDBRANCH  26  27
ENDBRANCH  25  26
ENDBRANCH   1  25
TORSDOF 19
ENDMDL
MODEL 2
REMARK VINA RESULT:     -11.2      1.606      2.059
REMARK SMILES CC(C)CN(CC(N)=O)C(=O)N1CC[C@H](C(=O)NCCCNC(=O)c2ccc(-c3c4nc(c(-c5cc(S(=O)(=O)[O-])ccc5F)c5ccc([nH]5)c(-c5cc(S(=O)(=O)[O-])ccc5F)c5nc(c(-c6cc(S(=O)(=O)[O-])ccc6F)c6ccc3[nH]6)C=C5)C=C4)cc2)[C@@H]1C
REMARK SMILES IDX 19 1 18 2 16 3 17 4 15 6 12 7 13 8 88 9 14 10 89 11 10 12
REMARK SMILES IDX 11 13 5 14 4 15 2 16 1 17 3 18 6 19 7 20 8 21 9 22 20 25
REMARK SMILES IDX 21 26 22 27 23 28 24 30 25 31 26 32 87 33 27 34 86 35 28 36
REMARK SMILES IDX 29 37 30 38 80 39 31 40 85 41 79 42 81 43 32 44 84 45 78 46
REMARK SMILES IDX 77 47 33 49 65 50 45 51 64 52 46 53 49 54 63 55 82 56 47 57
REMARK SMILES IDX 48 58 62 60 83 61 50 62 34 63 35 64 43 65 36 66 42 67 44 68
REMARK SMILES IDX 41 69 37 70 38 71 39 72 40 73 66 74 67 75 75 76 68 77 74 78
REMARK SMILES IDX 76 79 73 80 69 81 70 82 71 83 72 84 51 85 52 86 60 87 53 88
REMARK SMILES IDX 59 89 61 90 58 91 54 92 55 93 56 94 57 95
REMARK H PARENT 18 5 8 23 8 24 22 29 81 48 49 59
REMARK Flexibility Score: inf
ROOT
ATOM      1  C   UNL A   1      34.351  21.675  26.083  1.00  0.00     0.117 C 
ENDROOT
BRANCH   1   2
ATOM      2  N   UNL A   1      33.092  22.181  25.548  1.00  0.00    -0.356 N 
ATOM      3  C   UNL A   1      32.760  22.973  24.507  1.00  0.00     0.225 C 
ATOM      4  O   UNL A   1      31.552  23.024  24.240  1.00  0.00    -0.275 OA
ATOM      5  H   UNL A   1      32.308  21.877  26.061  1.00  0.00     0.163 HD
BRANCH   3   6
ATOM      6  C   UNL A   1      33.706  23.862  23.710  1.00  0.00     0.102 C 
ATOM      7  N   UNL A   1      33.183  26.108  23.162  1.00  0.00    -0.321 N 
ATOM      8  C   UNL A   1      32.642  25.282  22.091  1.00  0.00     0.122 C 
ATOM      9  C   UNL A   1      33.980  25.318  24.102  1.00  0.00     0.096 C 
ATOM     10  C   UNL A   1      33.310  23.931  22.236  1.00  0.00     0.037 C 
ATOM     11  C   UNL A   1      33.849  25.618  25.590  1.00  0.00     0.032 C 
BRANCH   7  12
ATOM     12  C   UNL A   1      32.742  27.399  23.252  1.00  0.00     0.320 C 
ATOM     13  O   UNL A   1      33.567  28.311  23.158  1.00  0.00    -0.248 OA
BRANCH  12  14
ATOM     14  N   UNL A   1      31.426  27.647  23.586  1.00  0.00    -0.315 N 
BRANCH  14  15
ATOM     15  C   UNL A   1      30.664  28.536  22.695  1.00  0.00     0.125 C 
BRANCH  15  16
ATOM     16  C   UNL A   1      29.460  29.213  23.398  1.00  0.00     0.002 C 
ATOM     17  C   UNL A   1      29.729  30.673  23.771  1.00  0.00     0.009 C 
ATOM     18  C   UNL A   1      28.224  29.144  22.500  1.00  0.00     0.009 C 
ENDBRANCH  15  16
ENDBRANCH  14  15
BRANCH  14  19
ATOM     19  C   UNL A   1      30.741  27.240  24.816  1.00  0.00     0.221 C 
BRANCH  19  20
ATOM     20  C   UNL A   1      29.953  25.933  24.658  1.00  0.00     0.237 C 
ATOM     21  N   UNL A   1      29.825  25.167  25.785  1.00  0.00    -0.368 N 
ATOM     22  O   UNL A   1      29.429  25.558  23.613  1.00  0.00    -0.273 OA
ATOM     23  H   UNL A   1      30.242  25.460  26.627  1.00  0.00     0.159 HD
ATOM     24  H   UNL A   1      29.316  24.326  25.753  1.00  0.00     0.159 HD
ENDBRANCH  19  20
ENDBRANCH  14  19
ENDBRANCH  12  14
ENDBRANCH   7  12
ENDBRANCH   3   6
ENDBRANCH   1   2
BRANCH   1  25
ATOM     25  C   UNL A   1      35.315  21.232  24.991  1.00  0.00     0.042 C 
BRANCH  25  26
ATOM     26  C   UNL A   1      36.724  21.794  25.158  1.00  0.00     0.118 C 
BRANCH  26  27
ATOM     27  N   UNL A   1      37.762  20.775  25.277  1.00  0.00    -0.352 N 
ATOM     28  C   UNL A   1      39.021  20.828  25.834  1.00  0.00     0.251 C 
ATOM     29  H   UNL A   1      37.522  19.900  24.894  1.00  0.00     0.163 HD
ATOM     30  O   UNL A   1      39.783  19.873  25.708  1.00  0.00    -0.269 OA
BRANCH  28  31
ATOM     31  C   UNL A   1      39.469  22.050  26.531  1.00  0.00     0.039 A 
ATOM     32  C   UNL A   1      40.426  21.952  27.545  1.00  0.00     0.014 A 
ATOM     33  C   UNL A   1      38.989  23.300  26.145  1.00  0.00     0.014 A 
ATOM     34  C   UNL A   1      41.000  23.114  28.065  1.00  0.00     0.010 A 
ATOM     35  C   UNL A   1      39.651  24.445  26.566  1.00  0.00     0.010 A 
ATOM     36  C   UNL A   1      40.678  24.367  27.518  1.00  0.00    -0.014 A 
BRANCH  36  37
ATOM     37  C   UNL A   1      41.412  25.609  27.881  1.00  0.00     0.031 A 
ATOM     38  C   UNL A   1      40.698  26.714  28.613  1.00  0.00     0.074 A 
ATOM     39  C   UNL A   1      42.672  25.797  27.440  1.00  0.00     0.049 A 
ATOM     40  N   UNL A   1      41.082  27.944  28.843  1.00  0.00    -0.248 NA
ATOM     41  C   UNL A   1      39.345  26.406  29.100  1.00  0.00     0.031 C 
ATOM     42  C   UNL A   1      43.458  24.823  26.676  1.00  0.00     0.029 A 
ATOM     43  N   UNL A   1      43.509  26.878  27.550  1.00  0.00    -0.354 N 
ATOM     44  C   UNL A   1      40.006  28.564  29.470  1.00  0.00     0.074 A 
ATOM     45  C   UNL A   1      38.931  27.594  29.507  1.00  0.00     0.031 C 
ATOM     46  C   UNL A   1      44.672  25.336  26.424  1.00  0.00     0.029 A 
ATOM     47  C   UNL A   1      44.731  26.697  26.943  1.00  0.00     0.049 A 
ATOM     48  H   UNL A   1      43.259  27.707  28.021  1.00  0.00     0.167 HD
ATOM     49  C   UNL A   1      39.930  29.814  29.991  1.00  0.00     0.034 A 
ATOM     50  C   UNL A   1      45.774  27.539  26.800  1.00  0.00     0.034 A 
ATOM     51  C   UNL A   1      41.025  30.753  29.966  1.00  0.00     0.049 A 
ATOM     52  C   UNL A   1      45.657  28.937  27.347  1.00  0.00     0.074 A 
ATOM     53  C   UNL A   1      41.097  32.012  30.537  1.00  0.00     0.029 A 
ATOM     54  N   UNL A   1      42.240  30.538  29.327  1.00  0.00    -0.354 N 
ATOM     55  N   UNL A   1      44.651  29.495  27.979  1.00  0.00    -0.248 NA
ATOM     56  C   UNL A   1      46.813  29.821  27.150  1.00  0.00     0.031 C 
ATOM     57  C   UNL A   1      42.326  32.582  30.186  1.00  0.00     0.029 A 
ATOM     58  C   UNL A   1      43.051  31.655  29.454  1.00  0.00     0.049 A 
ATOM     59  H   UNL A   1      42.489  29.711  28.854  1.00  0.00     0.167 HD
ATOM     60  C   UNL A   1      45.059  30.793  28.271  1.00  0.00     0.074 A 
ATOM     61  C   UNL A   1      46.409  30.928  27.758  1.00  0.00     0.031 C 
ATOM     62  C   UNL A   1      44.383  31.781  28.909  1.00  0.00     0.034 A 
BRANCH  49  63
ATOM     63  C   UNL A   1      38.612  30.226  30.606  1.00  0.00     0.023 A 
ATOM     64  C   UNL A   1      37.635  30.914  29.863  1.00  0.00     0.031 A 
ATOM     65  C   UNL A   1      38.353  29.996  31.968  1.00  0.00     0.131 A 
ATOM     66  C   UNL A   1      36.509  31.447  30.507  1.00  0.00     0.055 A 
ATOM     67  C   UNL A   1      37.180  30.443  32.582  1.00  0.00     0.041 A 
ATOM     68  F   UNL A   1      39.250  29.359  32.738  1.00  0.00    -0.206 F 
ATOM     69  C   UNL A   1      36.261  31.195  31.856  1.00  0.00     0.022 A 
BRANCH  66  70
ATOM     70  S   UNL A   1      35.485  32.637  29.598  1.00  0.00     0.124 S 
ATOM     71  O   UNL A   1      34.298  32.713  30.448  1.00  0.00    -0.237 OA
ATOM     72  O   UNL A   1      36.329  33.826  29.573  1.00  0.00    -0.237 OA
ATOM     73  O   UNL A   1      35.274  31.992  28.304  1.00  0.00    -0.744 OA
ENDBRANCH  66  70
ENDBRANCH  49  63
BRANCH  50  74
ATOM     74  C   UNL A   1      47.010  27.091  26.100  1.00  0.00     0.023 A 
ATOM     75  C   UNL A   1      48.040  26.454  26.810  1.00  0.00     0.031 A 
ATOM     76  C   UNL A   1      47.188  27.299  24.721  1.00  0.00     0.131 A 
ATOM     77  C   UNL A   1      49.214  26.068  26.144  1.00  0.00     0.055 A 
ATOM     78  C   UNL A   1      48.339  26.873  24.054  1.00  0.00     0.041 A 
ATOM     79  F   UNL A   1      46.230  27.900  23.996  1.00  0.00    -0.206 F 
ATOM     80  C   UNL A   1      49.364  26.261  24.769  1.00  0.00     0.022 A 
BRANCH  77  81
ATOM     81  S   UNL A   1      50.568  25.353  27.115  1.00  0.00     0.124 S 
ATOM     82  O   UNL A   1      49.897  24.251  27.795  1.00  0.00    -0.237 OA
ATOM     83  O   UNL A   1      51.524  24.981  26.078  1.00  0.00    -0.237 OA
ATOM     84  O   UNL A   1      50.987  26.455  27.978  1.00  0.00    -0.744 OA
ENDBRANCH  77  81
ENDBRANCH  50  74
BRANCH  62  85
ATOM     85  C   UNL A   1      45.108  33.089  29.096  1.00  0.00     0.023 A 
ATOM     86  C   UNL A   1      45.066  34.098  28.119  1.00  0.00     0.031 A 
ATOM     87  C   UNL A   1      45.849  33.328  30.267  1.00  0.00     0.131 A 
ATOM     88  C   UNL A   1      45.787  35.287  28.311  1.00  0.00     0.055 A 
ATOM     89  C   UNL A   1      46.521  34.533  30.476  1.00  0.00     0.041 A 
ATOM     90  F   UNL A   1      45.924  32.396  31.230  1.00  0.00    -0.206 F 
ATOM     91  C   UNL A   1      46.499  35.517  29.491  1.00  0.00     0.022 A 
BRANCH  88  92
ATOM     92  S   UNL A   1      45.834  36.505  26.969  1.00  0.00     0.124 S 
ATOM     93  O   UNL A   1      46.225  35.684  25.828  1.00  0.00    -0.237 OA
ATOM     94  O   UNL A   1      44.464  37.009  26.953  1.00  0.00    -0.237 OA
ATOM     95  O   UNL A   1      46.841  37.467  27.414  1.00  0.00    -0.744 OA
ENDBRANCH  88  92
ENDBRANCH  62  85
ENDBRANCH  36  37
ENDBRANCH  28  31
ENDBRANCH  26  27
ENDBRANCH  25  26
ENDBRANCH   1  25
TORSDOF 19
ENDMDL
MODEL 3
REMARK VINA RESULT:     -11.2      2.357      8.118
REMARK SMILES CC(C)CN(CC(N)=O)C(=O)N1CC[C@H](C(=O)NCCCNC(=O)c2ccc(-c3c4nc(c(-c5cc(S(=O)(=O)[O-])ccc5F)c5ccc([nH]5)c(-c5cc(S(=O)(=O)[O-])ccc5F)c5nc(c(-c6cc(S(=O)(=O)[O-])ccc6F)c6ccc3[nH]6)C=C5)C=C4)cc2)[C@@H]1C
REMARK SMILES IDX 19 1 18 2 16 3 17 4 15 6 12 7 13 8 88 9 14 10 89 11 10 12
REMARK SMILES IDX 11 13 5 14 4 15 2 16 1 17 3 18 6 19 7 20 8 21 9 22 20 25
REMARK SMILES IDX 21 26 22 27 23 28 24 30 25 31 26 32 87 33 27 34 86 35 28 36
REMARK SMILES IDX 29 37 30 38 80 39 31 40 85 41 79 42 81 43 32 44 84 45 78 46
REMARK SMILES IDX 77 47 33 49 65 50 45 51 64 52 46 53 49 54 63 55 82 56 47 57
REMARK SMILES IDX 48 58 62 60 83 61 50 62 34 63 35 64 43 65 36 66 42 67 44 68
REMARK SMILES IDX 41 69 37 70 38 71 39 72 40 73 66 74 67 75 75 76 68 77 74 78
REMARK SMILES IDX 76 79 73 80 69 81 70 82 71 83 72 84 51 85 52 86 60 87 53 88
REMARK SMILES IDX 59 89 61 90 58 91 54 92 55 93 56 94 57 95
REMARK H PARENT 18 5 8 23 8 24 22 29 81 48 49 59
REMARK Flexibility Score: inf
ROOT
ATOM      1  C   UNL A   1      35.317  21.139  24.627  1.00  0.00     0.117 C 
ENDROOT
BRANCH   1   2
ATOM      2  N   UNL A   1      34.325  20.140  25.010  1.00  0.00    -0.356 N 
ATOM      3  C   UNL A   1      32.988  20.162  25.194  1.00  0.00     0.225 C 
ATOM      4  O   UNL A   1      32.451  19.054  25.327  1.00  0.00    -0.275 OA
ATOM      5  H   UNL A   1      34.718  19.252  25.170  1.00  0.00     0.163 HD
BRANCH   3   6
ATOM      6  C   UNL A   1      32.116  21.401  25.345  1.00  0.00     0.102 C 
ATOM      7  N   UNL A   1      32.841  23.557  24.681  1.00  0.00    -0.321 N 
ATOM      8  C   UNL A   1      33.276  23.379  26.060  1.00  0.00     0.122 C 
ATOM      9  C   UNL A   1      31.992  22.451  24.237  1.00  0.00     0.096 C 
ATOM     10  C   UNL A   1      32.484  22.204  26.592  1.00  0.00     0.037 C 
ATOM     11  C   UNL A   1      32.184  21.918  22.822  1.00  0.00     0.032 C 
BRANCH   7  12
ATOM     12  C   UNL A   1      33.407  24.575  23.964  1.00  0.00     0.320 C 
ATOM     13  O   UNL A   1      34.565  24.440  23.564  1.00  0.00    -0.248 OA
BRANCH  12  14
ATOM     14  N   UNL A   1      32.730  25.771  23.831  1.00  0.00    -0.315 N 
BRANCH  14  15
ATOM     15  C   UNL A   1      33.409  26.983  24.318  1.00  0.00     0.125 C 
BRANCH  15  16
ATOM     16  C   UNL A   1      33.075  27.313  25.795  1.00  0.00     0.002 C 
ATOM     17  C   UNL A   1      34.176  28.116  26.492  1.00  0.00     0.009 C 
ATOM     18  C   UNL A   1      31.761  28.091  25.872  1.00  0.00     0.009 C 
ENDBRANCH  15  16
ENDBRANCH  14  15
BRANCH  14  19
ATOM     19  C   UNL A   1      31.344  25.952  23.392  1.00  0.00     0.221 C 
BRANCH  19  20
ATOM     20  C   UNL A   1      31.232  26.691  22.052  1.00  0.00     0.237 C 
ATOM     21  N   UNL A   1      31.795  26.067  20.973  1.00  0.00    -0.368 N 
ATOM     22  O   UNL A   1      30.661  27.766  21.896  1.00  0.00    -0.273 OA
ATOM     23  H   UNL A   1      32.254  25.204  21.088  1.00  0.00     0.159 HD
ATOM     24  H   UNL A   1      31.741  26.481  20.081  1.00  0.00     0.159 HD
ENDBRANCH  19  20
ENDBRANCH  14  19
ENDBRANCH  12  14
ENDBRANCH   7  12
ENDBRANCH   3   6
ENDBRANCH   1   2
BRANCH   1  25
ATOM     25  C   UNL A   1      36.346  21.392  25.720  1.00  0.00     0.042 C 
BRANCH  25  26
ATOM     26  C   UNL A   1      37.740  21.703  25.184  1.00  0.00     0.118 C 
BRANCH  26  27
ATOM     27  N   UNL A   1      38.789  20.836  25.711  1.00  0.00    -0.352 N 
ATOM     28  C   UNL A   1      39.886  21.119  26.494  1.00  0.00     0.251 C 
ATOM     29  H   UNL A   1      38.696  19.887  25.467  1.00  0.00     0.163 HD
ATOM     30  O   UNL A   1      40.717  20.243  26.718  1.00  0.00    -0.269 OA
BRANCH  28  31
ATOM     31  C   UNL A   1      40.089  22.487  27.015  1.00  0.00     0.039 A 
ATOM     32  C   UNL A   1      41.058  22.712  27.996  1.00  0.00     0.014 A 
ATOM     33  C   UNL A   1      39.364  23.556  26.493  1.00  0.00     0.014 A 
ATOM     34  C   UNL A   1      41.395  24.023  28.343  1.00  0.00     0.010 A 
ATOM     35  C   UNL A   1      39.788  24.854  26.741  1.00  0.00     0.010 A 
ATOM     36  C   UNL A   1      40.822  25.105  27.655  1.00  0.00    -0.014 A 
BRANCH  36  37
ATOM     37  C   UNL A   1      41.297  26.504  27.832  1.00  0.00     0.031 A 
ATOM     38  C   UNL A   1      42.697  26.877  27.423  1.00  0.00     0.074 A 
ATOM     39  C   UNL A   1      40.522  27.399  28.477  1.00  0.00     0.049 A 
ATOM     40  N   UNL A   1      43.374  27.969  27.672  1.00  0.00    -0.248 NA
ATOM     41  C   UNL A   1      43.453  25.856  26.682  1.00  0.00     0.031 C 
ATOM     42  C   UNL A   1      39.164  27.147  28.969  1.00  0.00     0.029 A 
ATOM     43  N   UNL A   1      40.770  28.696  28.850  1.00  0.00    -0.354 N 
ATOM     44  C   UNL A   1      44.645  27.752  27.149  1.00  0.00     0.074 A 
ATOM     45  C   UNL A   1      44.661  26.395  26.644  1.00  0.00     0.031 C 
ATOM     46  C   UNL A   1      38.688  28.264  29.541  1.00  0.00     0.029 A 
ATOM     47  C   UNL A   1      39.725  29.288  29.521  1.00  0.00     0.049 A 
ATOM     48  H   UNL A   1      41.616  29.160  28.655  1.00  0.00     0.167 HD
ATOM     49  C   UNL A   1      45.691  28.612  27.072  1.00  0.00     0.034 A 
ATOM     50  C   UNL A   1      39.620  30.511  30.078  1.00  0.00     0.034 A 
ATOM     51  C   UNL A   1      45.642  29.969  27.558  1.00  0.00     0.049 A 
ATOM     52  C   UNL A   1      40.805  31.438  30.020  1.00  0.00     0.074 A 
ATOM     53  C   UNL A   1      46.603  30.959  27.457  1.00  0.00     0.029 A 
ATOM     54  N   UNL A   1      44.570  30.526  28.246  1.00  0.00    -0.354 N 
ATOM     55  N   UNL A   1      41.985  31.237  29.481  1.00  0.00    -0.248 NA
ATOM     56  C   UNL A   1      40.646  32.752  30.656  1.00  0.00     0.031 C 
ATOM     57  C   UNL A   1      46.142  32.089  28.142  1.00  0.00     0.029 A 
ATOM     58  C   UNL A   1      44.864  31.831  28.613  1.00  0.00     0.049 A 
ATOM     59  H   UNL A   1      43.726  30.062  28.444  1.00  0.00     0.167 HD
ATOM     60  C   UNL A   1      42.705  32.408  29.698  1.00  0.00     0.074 A 
ATOM     61  C   UNL A   1      41.821  33.313  30.405  1.00  0.00     0.031 C 
ATOM     62  C   UNL A   1      43.980  32.708  29.344  1.00  0.00     0.034 A 
BRANCH  49  63
ATOM     63  C   UNL A   1      46.969  28.089  26.457  1.00  0.00     0.023 A 
ATOM     64  C   UNL A   1      47.234  28.222  25.082  1.00  0.00     0.031 A 
ATOM     65  C   UNL A   1      47.903  27.383  27.236  1.00  0.00     0.131 A 
ATOM     66  C   UNL A   1      48.333  27.564  24.511  1.00  0.00     0.055 A 
ATOM     67  C   UNL A   1      49.050  26.814  26.676  1.00  0.00     0.041 A 
ATOM     68  F   UNL A   1      47.703  27.206  28.552  1.00  0.00    -0.206 F 
ATOM     69  C   UNL A   1      49.258  26.882  25.302  1.00  0.00     0.022 A 
BRANCH  66  70
ATOM     70  S   UNL A   1      48.419  27.448  22.703  1.00  0.00     0.124 S 
ATOM     71  O   UNL A   1      48.355  26.003  22.497  1.00  0.00    -0.237 OA
ATOM     72  O   UNL A   1      47.247  28.206  22.282  1.00  0.00    -0.237 OA
ATOM     73  O   UNL A   1      49.708  28.058  22.380  1.00  0.00    -0.744 OA
ENDBRANCH  66  70
ENDBRANCH  49  63
BRANCH  50  74
ATOM     74  C   UNL A   1      38.355  30.925  30.748  1.00  0.00     0.023 A 
ATOM     75  C   UNL A   1      37.337  31.561  30.020  1.00  0.00     0.031 A 
ATOM     76  C   UNL A   1      38.146  30.703  32.121  1.00  0.00     0.131 A 
ATOM     77  C   UNL A   1      36.165  31.976  30.671  1.00  0.00     0.055 A 
ATOM     78  C   UNL A   1      36.961  31.078  32.755  1.00  0.00     0.041 A 
ATOM     79  F   UNL A   1      39.088  30.095  32.861  1.00  0.00    -0.206 F 
ATOM     80  C   UNL A   1      35.965  31.727  32.031  1.00  0.00     0.022 A 
BRANCH  77  81
ATOM     81  S   UNL A   1      34.924  32.896  29.723  1.00  0.00     0.124 S 
ATOM     82  O   UNL A   1      34.387  31.858  28.851  1.00  0.00    -0.237 OA
ATOM     83  O   UNL A   1      34.033  33.377  30.773  1.00  0.00    -0.237 OA
ATOM     84  O   UNL A   1      35.707  33.932  29.052  1.00  0.00    -0.744 OA
ENDBRANCH  77  81
ENDBRANCH  50  74
BRANCH  62  85
ATOM     85  C   UNL A   1      44.480  34.083  29.705  1.00  0.00     0.023 A 
ATOM     86  C   UNL A   1      44.289  35.182  28.849  1.00  0.00     0.031 A 
ATOM     87  C   UNL A   1      45.155  34.296  30.920  1.00  0.00     0.131 A 
ATOM     88  C   UNL A   1      44.805  36.438  29.201  1.00  0.00     0.055 A 
ATOM     89  C   UNL A   1      45.619  35.560  31.289  1.00  0.00     0.041 A 
ATOM     90  F   UNL A   1      45.366  33.280  31.771  1.00  0.00    -0.206 F 
ATOM     91  C   UNL A   1      45.453  36.637  30.423  1.00  0.00     0.022 A 
BRANCH  88  92
ATOM     92  S   UNL A   1      44.674  37.799  28.010  1.00  0.00     0.124 S 
ATOM     93  O   UNL A   1      43.616  37.325  27.123  1.00  0.00    -0.237 OA
ATOM     94  O   UNL A   1      44.330  38.932  28.864  1.00  0.00    -0.237 OA
ATOM     95  O   UNL A   1      46.005  37.860  27.410  1.00  0.00    -0.744 OA
ENDBRANCH  88  92
ENDBRANCH  62  85
ENDBRANCH  36  37
ENDBRANCH  28  31
ENDBRANCH  26  27
ENDBRANCH  25  26
ENDBRANCH   1  25
TORSDOF 19
ENDMDL
