MODEL 1
REMARK VINA RESULT:     -11.4      0.000      0.000
REMARK SMILES C=C[C@@H]1[C@@H](O)C[C@H]2[C@]3(CC[C@]4(C)[C@@H]([C@H](C)CCC=C(C)C)CC[C@]24C)C[C@]13CCC(=O)NCCCNC(=O)c1ccc(-c2c3nc(c(-c4cc(S(=O)(=O)[O-])ccc4F)c4ccc([nH]4)c(-c4cc(S(=O)(=O)[O-])ccc4F)c4nc(c(-c5cc(S(=O)(=O)[O-])ccc5F)c5ccc2[nH]5)C=C4)C=C3)cc1
REMARK SMILES IDX 30 1 31 2 32 3 29 5 28 6 27 7 3 8 4 9 6 10 8 11 26 12 7 13
REMARK SMILES IDX 9 14 24 15 10 16 11 17 23 18 25 19 13 20 12 21 22 22 2 23
REMARK SMILES IDX 1 24 5 25 14 27 15 28 16 29 17 30 18 31 19 32 20 33 21 34
REMARK SMILES IDX 33 35 34 36 35 37 36 38 37 39 38 41 39 42 40 43 101 44 41 45
REMARK SMILES IDX 100 46 42 47 43 48 44 49 94 50 45 51 99 52 93 53 95 54 46 55
REMARK SMILES IDX 98 56 92 57 91 58 47 60 79 61 59 62 78 63 60 64 63 65 77 66
REMARK SMILES IDX 96 67 61 68 62 69 76 71 97 72 64 73 48 74 49 75 57 76 50 77
REMARK SMILES IDX 56 78 58 79 55 80 51 81 52 82 53 83 54 84 80 85 81 86 89 87
REMARK SMILES IDX 82 88 88 89 90 90 87 91 83 92 84 93 85 94 86 95 65 96 66 97
REMARK SMILES IDX 74 98 67 99 73 100 75 101 72 102 68 103 69 104 70 105 71 106
REMARK H PARENT 32 4 5 26 36 40 95 59 63 70
REMARK Flexibility Score: inf
ROOT
ATOM      1  C   UNL A   1      34.236  29.557  27.500  1.00  0.00     0.220 C 
ATOM      2  O   UNL A   1      35.170  29.482  28.304  1.00  0.00    -0.275 OA
ATOM      3  N   UNL A   1      33.370  30.607  27.635  1.00  0.00    -0.356 N 
ATOM      4  H   UNL A   1      33.645  31.280  28.298  1.00  0.00     0.163 HD
ENDROOT
BRANCH   1   5
ATOM      5  C   UNL A   1      34.122  28.568  26.347  1.00  0.00     0.100 C 
BRANCH   5   6
ATOM      6  C   UNL A   1      32.987  27.525  26.376  1.00  0.00     0.018 C 
BRANCH   6   7
ATOM      7  C   UNL A   1      32.665  26.775  25.058  1.00  0.00    -0.014 C 
ATOM      8  C   UNL A   1      32.439  27.699  23.820  1.00  0.00     0.047 C 
ATOM      9  C   UNL A   1      32.880  27.057  22.460  1.00  0.00     0.122 C 
ATOM     10  C   UNL A   1      32.916  25.524  22.403  1.00  0.00     0.037 C 
ATOM     11  C   UNL A   1      33.227  25.385  24.911  1.00  0.00    -0.019 C 
ATOM     12  C   UNL A   1      31.740  25.561  25.126  1.00  0.00     0.016 C 
ATOM     13  C   UNL A   1      33.752  24.903  23.546  1.00  0.00     0.005 C 
ATOM     14  C   UNL A   1      33.951  24.761  26.085  1.00  0.00     0.008 C 
ATOM     15  C   UNL A   1      33.902  23.294  23.469  1.00  0.00    -0.023 C 
ATOM     16  C   UNL A   1      33.881  23.255  26.034  1.00  0.00     0.008 C 
ATOM     17  C   UNL A   1      34.537  22.679  24.790  1.00  0.00    -0.024 C 
ATOM     18  C   UNL A   1      34.991  22.890  22.420  1.00  0.00     0.008 C 
ATOM     19  C   UNL A   1      32.558  22.631  23.093  1.00  0.00     0.012 C 
ATOM     20  C   UNL A   1      36.027  23.118  24.621  1.00  0.00    -0.002 C 
ATOM     21  C   UNL A   1      34.347  21.141  24.872  1.00  0.00     0.012 C 
ATOM     22  C   UNL A   1      36.335  22.722  23.176  1.00  0.00     0.005 C 
BRANCH   8  23
ATOM     23  C   UNL A   1      30.998  28.226  23.703  1.00  0.00    -0.028 C 
ATOM     24  C   UNL A   1      30.083  27.864  22.792  1.00  0.00     0.004 C 
ENDBRANCH   8  23
BRANCH   9  25
ATOM     25  O   UNL A   1      34.162  27.573  22.081  1.00  0.00    -0.392 OA
ATOM     26  H   UNL A   1      34.725  26.846  21.773  1.00  0.00     0.210 HD
ENDBRANCH   9  25
BRANCH  20  27
ATOM     27  C   UNL A   1      37.087  22.926  25.745  1.00  0.00    -0.010 C 
ATOM     28  C   UNL A   1      37.687  24.288  26.139  1.00  0.00     0.008 C 
BRANCH  27  29
ATOM     29  C   UNL A   1      38.231  21.904  25.578  1.00  0.00     0.008 C 
BRANCH  29  30
ATOM     30  C   UNL A   1      39.496  22.250  26.405  1.00  0.00     0.027 C 
BRANCH  30  31
ATOM     31  C   UNL A   1      40.302  21.051  26.850  1.00  0.00    -0.028 C 
ATOM     32  C   UNL A   1      41.607  20.804  26.623  1.00  0.00    -0.080 C 
ATOM     33  C   UNL A   1      42.249  19.516  27.071  1.00  0.00     0.039 C 
ATOM     34  C   UNL A   1      42.512  21.755  25.893  1.00  0.00     0.039 C 
ENDBRANCH  30  31
ENDBRANCH  29  30
ENDBRANCH  27  29
ENDBRANCH  20  27
ENDBRANCH   6   7
ENDBRANCH   5   6
ENDBRANCH   1   5
BRANCH   3  35
ATOM     35  C   UNL A   1      32.107  30.900  26.964  1.00  0.00     0.117 C 
BRANCH  35  36
ATOM     36  C   UNL A   1      31.694  32.363  27.161  1.00  0.00     0.042 C 
BRANCH  36  37
ATOM     37  C   UNL A   1      32.710  33.444  26.834  1.00  0.00     0.118 C 
BRANCH  37  38
ATOM     38  N   UNL A   1      32.694  34.480  27.857  1.00  0.00    -0.352 N 
ATOM     39  C   UNL A   1      33.284  34.601  29.095  1.00  0.00     0.251 C 
ATOM     40  H   UNL A   1      32.146  35.260  27.610  1.00  0.00     0.163 HD
ATOM     41  O   UNL A   1      32.765  35.420  29.859  1.00  0.00    -0.269 OA
BRANCH  39  42
ATOM     42  C   UNL A   1      34.480  33.835  29.569  1.00  0.00     0.039 A 
ATOM     43  C   UNL A   1      34.250  32.726  30.404  1.00  0.00     0.014 A 
ATOM     44  C   UNL A   1      35.803  34.215  29.352  1.00  0.00     0.014 A 
ATOM     45  C   UNL A   1      35.313  32.028  31.006  1.00  0.00     0.010 A 
ATOM     46  C   UNL A   1      36.867  33.462  29.879  1.00  0.00     0.010 A 
ATOM     47  C   UNL A   1      36.642  32.376  30.738  1.00  0.00    -0.014 A 
BRANCH  47  48
ATOM     48  C   UNL A   1      37.796  31.667  31.382  1.00  0.00     0.031 A 
ATOM     49  C   UNL A   1      38.263  32.068  32.764  1.00  0.00     0.074 A 
ATOM     50  C   UNL A   1      38.461  30.693  30.724  1.00  0.00     0.049 A 
ATOM     51  N   UNL A   1      39.311  31.663  33.442  1.00  0.00    -0.248 NA
ATOM     52  C   UNL A   1      37.456  33.076  33.466  1.00  0.00     0.031 C 
ATOM     53  C   UNL A   1      38.130  30.197  29.388  1.00  0.00     0.029 A 
ATOM     54  N   UNL A   1      39.563  29.952  31.083  1.00  0.00    -0.354 N 
ATOM     55  C   UNL A   1      39.303  32.388  34.632  1.00  0.00     0.074 A 
ATOM     56  C   UNL A   1      38.179  33.297  34.554  1.00  0.00     0.031 C 
ATOM     57  C   UNL A   1      38.997  29.231  29.046  1.00  0.00     0.029 A 
ATOM     58  C   UNL A   1      39.980  29.069  30.113  1.00  0.00     0.049 A 
ATOM     59  H   UNL A   1      40.012  30.045  31.955  1.00  0.00     0.167 HD
ATOM     60  C   UNL A   1      40.136  32.293  35.700  1.00  0.00     0.034 A 
ATOM     61  C   UNL A   1      41.041  28.234  30.070  1.00  0.00     0.034 A 
ATOM     62  C   UNL A   1      41.238  31.363  35.785  1.00  0.00     0.049 A 
ATOM     63  C   UNL A   1      41.981  28.175  31.249  1.00  0.00     0.074 A 
ATOM     64  C   UNL A   1      42.106  31.149  36.843  1.00  0.00     0.029 A 
ATOM     65  N   UNL A   1      41.631  30.497  34.773  1.00  0.00    -0.354 N 
ATOM     66  N   UNL A   1      41.938  28.847  32.375  1.00  0.00    -0.248 NA
ATOM     67  C   UNL A   1      43.107  27.237  31.153  1.00  0.00     0.031 C 
ATOM     68  C   UNL A   1      43.064  30.211  36.446  1.00  0.00     0.029 A 
ATOM     69  C   UNL A   1      42.748  29.775  35.170  1.00  0.00     0.049 A 
ATOM     70  H   UNL A   1      41.182  30.408  33.901  1.00  0.00     0.167 HD
ATOM     71  C   UNL A   1      43.012  28.387  33.134  1.00  0.00     0.074 A 
ATOM     72  C   UNL A   1      43.674  27.371  32.344  1.00  0.00     0.031 C 
ATOM     73  C   UNL A   1      43.410  28.769  34.374  1.00  0.00     0.034 A 
BRANCH  60  74
ATOM     74  C   UNL A   1      39.903  33.240  36.858  1.00  0.00     0.023 A 
ATOM     75  C   UNL A   1      40.641  34.427  37.005  1.00  0.00     0.031 A 
ATOM     76  C   UNL A   1      38.940  32.944  37.840  1.00  0.00     0.131 A 
ATOM     77  C   UNL A   1      40.465  35.228  38.145  1.00  0.00     0.055 A 
ATOM     78  C   UNL A   1      38.707  33.790  38.926  1.00  0.00     0.041 A 
ATOM     79  F   UNL A   1      38.213  31.817  37.768  1.00  0.00    -0.206 F 
ATOM     80  C   UNL A   1      39.484  34.932  39.093  1.00  0.00     0.022 A 
BRANCH  77  81
ATOM     81  S   UNL A   1      41.643  36.575  38.441  1.00  0.00     0.124 S 
ATOM     82  O   UNL A   1      42.560  35.957  39.401  1.00  0.00    -0.237 OA
ATOM     83  O   UNL A   1      42.176  36.830  37.119  1.00  0.00    -0.237 OA
ATOM     84  O   UNL A   1      40.805  37.642  39.001  1.00  0.00    -0.744 OA
ENDBRANCH  77  81
ENDBRANCH  60  74
BRANCH  61  85
ATOM     85  C   UNL A   1      41.292  27.393  28.861  1.00  0.00     0.023 A 
ATOM     86  C   UNL A   1      42.268  27.752  27.919  1.00  0.00     0.031 A 
ATOM     87  C   UNL A   1      40.523  26.243  28.606  1.00  0.00     0.131 A 
ATOM     88  C   UNL A   1      42.420  26.998  26.745  1.00  0.00     0.055 A 
ATOM     89  C   UNL A   1      40.718  25.462  27.465  1.00  0.00     0.041 A 
ATOM     90  F   UNL A   1      39.576  25.850  29.474  1.00  0.00    -0.206 F 
ATOM     91  C   UNL A   1      41.663  25.847  26.518  1.00  0.00     0.022 A 
BRANCH  88  92
ATOM     92  S   UNL A   1      43.565  27.595  25.470  1.00  0.00     0.124 S 
ATOM     93  O   UNL A   1      44.205  28.718  26.148  1.00  0.00    -0.237 OA
ATOM     94  O   UNL A   1      44.402  26.421  25.240  1.00  0.00    -0.237 OA
ATOM     95  O   UNL A   1      42.683  27.955  24.362  1.00  0.00    -0.744 OA
ENDBRANCH  88  92
ENDBRANCH  61  85
BRANCH  73  96
ATOM     96  C   UNL A   1      44.594  28.046  34.973  1.00  0.00     0.023 A 
ATOM     97  C   UNL A   1      45.909  28.521  34.821  1.00  0.00     0.031 A 
ATOM     98  C   UNL A   1      44.402  26.860  35.705  1.00  0.00     0.131 A 
ATOM     99  C   UNL A   1      46.983  27.785  35.347  1.00  0.00     0.055 A 
ATOM    100  C   UNL A   1      45.469  26.167  36.280  1.00  0.00     0.041 A 
ATOM    101  F   UNL A   1      43.169  26.358  35.880  1.00  0.00    -0.206 F 
ATOM    102  C   UNL A   1      46.770  26.623  36.091  1.00  0.00     0.022 A 
BRANCH  99 103
ATOM    103  S   UNL A   1      48.675  28.321  34.968  1.00  0.00     0.124 S 
ATOM    104  O   UNL A   1      48.451  29.643  34.390  1.00  0.00    -0.237 OA
ATOM    105  O   UNL A   1      49.312  28.299  36.280  1.00  0.00    -0.237 OA
ATOM    106  O   UNL A   1      49.154  27.307  34.030  1.00  0.00    -0.744 OA
ENDBRANCH  99 103
ENDBRANCH  73  96
ENDBRANCH  47  48
ENDBRANCH  39  42
ENDBRANCH  37  38
ENDBRANCH  36  37
ENDBRANCH  35  36
ENDBRANCH   3  35
TORSDOF 21
ENDMDL
MODEL 2
REMARK VINA RESULT:     -11.3      2.494      7.667
REMARK SMILES C=C[C@@H]1[C@@H](O)C[C@H]2[C@]3(CC[C@]4(C)[C@@H]([C@H](C)CCC=C(C)C)CC[C@]24C)C[C@]13CCC(=O)NCCCNC(=O)c1ccc(-c2c3nc(c(-c4cc(S(=O)(=O)[O-])ccc4F)c4ccc([nH]4)c(-c4cc(S(=O)(=O)[O-])ccc4F)c4nc(c(-c5cc(S(=O)(=O)[O-])ccc5F)c5ccc2[nH]5)C=C4)C=C3)cc1
REMARK SMILES IDX 30 1 31 2 32 3 29 5 28 6 27 7 3 8 4 9 6 10 8 11 26 12 7 13
REMARK SMILES IDX 9 14 24 15 10 16 11 17 23 18 25 19 13 20 12 21 22 22 2 23
REMARK SMILES IDX 1 24 5 25 14 27 15 28 16 29 17 30 18 31 19 32 20 33 21 34
REMARK SMILES IDX 33 35 34 36 35 37 36 38 37 39 38 41 39 42 40 43 101 44 41 45
REMARK SMILES IDX 100 46 42 47 43 48 44 49 94 50 45 51 99 52 93 53 95 54 46 55
REMARK SMILES IDX 98 56 92 57 91 58 47 60 79 61 59 62 78 63 60 64 63 65 77 66
REMARK SMILES IDX 96 67 61 68 62 69 76 71 97 72 64 73 48 74 49 75 57 76 50 77
REMARK SMILES IDX 56 78 58 79 55 80 51 81 52 82 53 83 54 84 80 85 81 86 89 87
REMARK SMILES IDX 82 88 88 89 90 90 87 91 83 92 84 93 85 94 86 95 65 96 66 97
REMARK SMILES IDX 74 98 67 99 73 100 75 101 72 102 68 103 69 104 70 105 71 106
REMARK H PARENT 32 4 5 26 36 40 95 59 63 70
REMARK Flexibility Score: inf
ROOT
ATOM      1  C   UNL A   1      35.427  29.994  28.152  1.00  0.00     0.220 C 
ATOM      2  O   UNL A   1      36.247  29.279  28.736  1.00  0.00    -0.275 OA
ATOM      3  N   UNL A   1      35.292  31.284  28.585  1.00  0.00    -0.356 N 
ATOM      4  H   UNL A   1      35.955  31.561  29.257  1.00  0.00     0.163 HD
ENDROOT
BRANCH   1   5
ATOM      5  C   UNL A   1      34.675  29.474  26.933  1.00  0.00     0.100 C 
BRANCH   5   6
ATOM      6  C   UNL A   1      33.497  28.503  27.149  1.00  0.00     0.018 C 
BRANCH   6   7
ATOM      7  C   UNL A   1      32.616  28.156  25.922  1.00  0.00    -0.014 C 
ATOM      8  C   UNL A   1      32.472  29.306  24.876  1.00  0.00     0.047 C 
ATOM      9  C   UNL A   1      32.305  28.804  23.401  1.00  0.00     0.122 C 
ATOM     10  C   UNL A   1      31.745  27.388  23.215  1.00  0.00     0.037 C 
ATOM     11  C   UNL A   1      32.560  26.707  25.512  1.00  0.00    -0.019 C 
ATOM     12  C   UNL A   1      31.345  27.341  26.154  1.00  0.00     0.016 C 
ATOM     13  C   UNL A   1      32.527  26.326  24.021  1.00  0.00     0.005 C 
ATOM     14  C   UNL A   1      33.248  25.675  26.380  1.00  0.00     0.008 C 
ATOM     15  C   UNL A   1      32.036  24.804  23.778  1.00  0.00    -0.023 C 
ATOM     16  C   UNL A   1      32.605  24.319  26.232  1.00  0.00     0.008 C 
ATOM     17  C   UNL A   1      32.682  23.785  24.811  1.00  0.00    -0.024 C 
ATOM     18  C   UNL A   1      32.612  24.244  22.434  1.00  0.00     0.008 C 
ATOM     19  C   UNL A   1      30.493  24.719  23.747  1.00  0.00     0.012 C 
ATOM     20  C   UNL A   1      34.143  23.709  24.262  1.00  0.00    -0.002 C 
ATOM     21  C   UNL A   1      31.950  22.416  24.822  1.00  0.00     0.012 C 
ATOM     22  C   UNL A   1      33.930  23.495  22.762  1.00  0.00     0.005 C 
BRANCH   8  23
ATOM     23  C   UNL A   1      31.353  30.307  25.215  1.00  0.00    -0.028 C 
ATOM     24  C   UNL A   1      31.398  31.276  26.141  1.00  0.00     0.004 C 
ENDBRANCH   8  23
BRANCH   9  25
ATOM     25  O   UNL A   1      33.560  28.909  22.715  1.00  0.00    -0.392 OA
ATOM     26  H   UNL A   1      34.284  28.868  23.358  1.00  0.00     0.210 HD
ENDBRANCH   9  25
BRANCH  20  27
ATOM     27  C   UNL A   1      35.283  22.968  25.020  1.00  0.00    -0.010 C 
ATOM     28  C   UNL A   1      36.310  23.988  25.548  1.00  0.00     0.008 C 
BRANCH  27  29
ATOM     29  C   UNL A   1      36.036  21.797  24.355  1.00  0.00     0.008 C 
BRANCH  29  30
ATOM     30  C   UNL A   1      35.717  20.417  24.985  1.00  0.00     0.027 C 
BRANCH  30  31
ATOM     31  C   UNL A   1      34.311  19.922  24.734  1.00  0.00    -0.028 C 
ATOM     32  C   UNL A   1      33.917  18.666  24.448  1.00  0.00    -0.080 C 
ATOM     33  C   UNL A   1      32.475  18.348  24.146  1.00  0.00     0.039 C 
ATOM     34  C   UNL A   1      34.863  17.501  24.376  1.00  0.00     0.039 C 
ENDBRANCH  30  31
ENDBRANCH  29  30
ENDBRANCH  27  29
ENDBRANCH  20  27
ENDBRANCH   6   7
ENDBRANCH   5   6
ENDBRANCH   1   5
BRANCH   3  35
ATOM     35  C   UNL A   1      34.331  32.321  28.222  1.00  0.00     0.117 C 
BRANCH  35  36
ATOM     36  C   UNL A   1      34.060  33.270  29.395  1.00  0.00     0.042 C 
BRANCH  36  37
ATOM     37  C   UNL A   1      33.414  34.611  29.096  1.00  0.00     0.118 C 
BRANCH  37  38
ATOM     38  N   UNL A   1      32.922  35.222  30.324  1.00  0.00    -0.352 N 
ATOM     39  C   UNL A   1      33.198  35.026  31.658  1.00  0.00     0.251 C 
ATOM     40  H   UNL A   1      32.251  35.924  30.165  1.00  0.00     0.163 HD
ATOM     41  O   UNL A   1      32.340  35.429  32.448  1.00  0.00    -0.269 OA
BRANCH  39  42
ATOM     42  C   UNL A   1      34.432  34.379  32.207  1.00  0.00     0.039 A 
ATOM     43  C   UNL A   1      35.663  35.014  31.957  1.00  0.00     0.014 A 
ATOM     44  C   UNL A   1      34.465  33.132  32.829  1.00  0.00     0.014 A 
ATOM     45  C   UNL A   1      36.883  34.414  32.314  1.00  0.00     0.010 A 
ATOM     46  C   UNL A   1      35.679  32.576  33.269  1.00  0.00     0.010 A 
ATOM     47  C   UNL A   1      36.910  33.190  32.994  1.00  0.00    -0.014 A 
BRANCH  47  48
ATOM     48  C   UNL A   1      38.194  32.514  33.367  1.00  0.00     0.031 A 
ATOM     49  C   UNL A   1      38.768  31.425  32.487  1.00  0.00     0.074 A 
ATOM     50  C   UNL A   1      38.835  32.835  34.512  1.00  0.00     0.049 A 
ATOM     51  N   UNL A   1      39.798  30.639  32.694  1.00  0.00    -0.248 NA
ATOM     52  C   UNL A   1      38.075  31.171  31.216  1.00  0.00     0.031 C 
ATOM     53  C   UNL A   1      38.407  33.862  35.461  1.00  0.00     0.029 A 
ATOM     54  N   UNL A   1      39.978  32.321  35.080  1.00  0.00    -0.354 N 
ATOM     55  C   UNL A   1      39.856  29.782  31.597  1.00  0.00     0.074 A 
ATOM     56  C   UNL A   1      38.722  30.110  30.758  1.00  0.00     0.031 C 
ATOM     57  C   UNL A   1      39.276  33.912  36.483  1.00  0.00     0.029 A 
ATOM     58  C   UNL A   1      40.299  32.888  36.293  1.00  0.00     0.049 A 
ATOM     59  H   UNL A   1      40.517  31.614  34.658  1.00  0.00     0.167 HD
ATOM     60  C   UNL A   1      40.776  28.829  31.300  1.00  0.00     0.034 A 
ATOM     61  C   UNL A   1      41.290  32.610  37.168  1.00  0.00     0.034 A 
ATOM     62  C   UNL A   1      41.922  28.527  32.126  1.00  0.00     0.049 A 
ATOM     63  C   UNL A   1      42.277  31.516  36.841  1.00  0.00     0.074 A 
ATOM     64  C   UNL A   1      42.942  27.621  31.887  1.00  0.00     0.029 A 
ATOM     65  N   UNL A   1      42.200  29.117  33.352  1.00  0.00    -0.354 N 
ATOM     66  N   UNL A   1      42.330  30.740  35.784  1.00  0.00    -0.248 NA
ATOM     67  C   UNL A   1      43.343  31.270  37.821  1.00  0.00     0.031 C 
ATOM     68  C   UNL A   1      43.791  27.609  32.998  1.00  0.00     0.029 A 
ATOM     69  C   UNL A   1      43.353  28.569  33.895  1.00  0.00     0.049 A 
ATOM     70  H   UNL A   1      41.657  29.822  33.774  1.00  0.00     0.167 HD
ATOM     71  C   UNL A   1      43.454  29.936  35.960  1.00  0.00     0.074 A 
ATOM     72  C   UNL A   1      44.057  30.333  37.214  1.00  0.00     0.031 C 
ATOM     73  C   UNL A   1      43.945  28.961  35.152  1.00  0.00     0.034 A 
BRANCH  60  74
ATOM     74  C   UNL A   1      40.567  28.021  30.037  1.00  0.00     0.023 A 
ATOM     75  C   UNL A   1      41.362  28.213  28.893  1.00  0.00     0.031 A 
ATOM     76  C   UNL A   1      39.547  27.055  29.968  1.00  0.00     0.131 A 
ATOM     77  C   UNL A   1      41.073  27.514  27.710  1.00  0.00     0.055 A 
ATOM     78  C   UNL A   1      39.321  26.299  28.815  1.00  0.00     0.041 A 
ATOM     79  F   UNL A   1      38.741  26.835  31.019  1.00  0.00    -0.206 F 
ATOM     80  C   UNL A   1      40.075  26.539  27.671  1.00  0.00     0.022 A 
BRANCH  77  81
ATOM     81  S   UNL A   1      41.922  28.012  26.187  1.00  0.00     0.124 S 
ATOM     82  O   UNL A   1      43.250  28.363  26.693  1.00  0.00    -0.237 OA
ATOM     83  O   UNL A   1      41.842  26.818  25.371  1.00  0.00    -0.237 OA
ATOM     84  O   UNL A   1      41.131  29.154  25.714  1.00  0.00    -0.744 OA
ENDBRANCH  77  81
ENDBRANCH  60  74
BRANCH  61  85
ATOM     85  C   UNL A   1      41.396  33.363  38.453  1.00  0.00     0.023 A 
ATOM     86  C   UNL A   1      40.821  32.866  39.634  1.00  0.00     0.031 A 
ATOM     87  C   UNL A   1      42.032  34.617  38.509  1.00  0.00     0.131 A 
ATOM     88  C   UNL A   1      40.852  33.636  40.807  1.00  0.00     0.055 A 
ATOM     89  C   UNL A   1      42.111  35.353  39.693  1.00  0.00     0.041 A 
ATOM     90  F   UNL A   1      42.601  35.141  37.411  1.00  0.00    -0.206 F 
ATOM     91  C   UNL A   1      41.507  34.869  40.849  1.00  0.00     0.022 A 
BRANCH  88  92
ATOM     92  S   UNL A   1      39.945  33.042  42.261  1.00  0.00     0.124 S 
ATOM     93  O   UNL A   1      39.814  34.263  43.049  1.00  0.00    -0.237 OA
ATOM     94  O   UNL A   1      38.716  32.529  41.662  1.00  0.00    -0.237 OA
ATOM     95  O   UNL A   1      40.831  32.026  42.824  1.00  0.00    -0.744 OA
ENDBRANCH  88  92
ENDBRANCH  61  85
BRANCH  73  96
ATOM     96  C   UNL A   1      45.227  28.288  35.582  1.00  0.00     0.023 A 
ATOM     97  C   UNL A   1      45.227  27.098  36.330  1.00  0.00     0.031 A 
ATOM     98  C   UNL A   1      46.470  28.851  35.237  1.00  0.00     0.131 A 
ATOM     99  C   UNL A   1      46.443  26.538  36.755  1.00  0.00     0.055 A 
ATOM    100  C   UNL A   1      47.677  28.255  35.609  1.00  0.00     0.041 A 
ATOM    101  F   UNL A   1      46.532  29.988  34.527  1.00  0.00    -0.206 F 
ATOM    102  C   UNL A   1      47.667  27.099  36.383  1.00  0.00     0.022 A 
BRANCH  99 103
ATOM    103  S   UNL A   1      46.402  25.115  37.879  1.00  0.00     0.124 S 
ATOM    104  O   UNL A   1      45.011  25.118  38.321  1.00  0.00    -0.237 OA
ATOM    105  O   UNL A   1      46.790  24.014  37.004  1.00  0.00    -0.237 OA
ATOM    106  O   UNL A   1      47.381  25.462  38.908  1.00  0.00    -0.744 OA
ENDBRANCH  99 103
ENDBRANCH  73  96
ENDBRANCH  47  48
ENDBRANCH  39  42
ENDBRANCH  37  38
ENDBRANCH  36  37
ENDBRANCH  35  36
ENDBRANCH   3  35
TORSDOF 21
ENDMDL
MODEL 3
REMARK VINA RESULT:     -11.3      5.216     10.943
REMARK SMILES C=C[C@@H]1[C@@H](O)C[C@H]2[C@]3(CC[C@]4(C)[C@@H]([C@H](C)CCC=C(C)C)CC[C@]24C)C[C@]13CCC(=O)NCCCNC(=O)c1ccc(-c2c3nc(c(-c4cc(S(=O)(=O)[O-])ccc4F)c4ccc([nH]4)c(-c4cc(S(=O)(=O)[O-])ccc4F)c4nc(c(-c5cc(S(=O)(=O)[O-])ccc5F)c5ccc2[nH]5)C=C4)C=C3)cc1
REMARK SMILES IDX 30 1 31 2 32 3 29 5 28 6 27 7 3 8 4 9 6 10 8 11 26 12 7 13
REMARK SMILES IDX 9 14 24 15 10 16 11 17 23 18 25 19 13 20 12 21 22 22 2 23
REMARK SMILES IDX 1 24 5 25 14 27 15 28 16 29 17 30 18 31 19 32 20 33 21 34
REMARK SMILES IDX 33 35 34 36 35 37 36 38 37 39 38 41 39 42 40 43 101 44 41 45
REMARK SMILES IDX 100 46 42 47 43 48 44 49 94 50 45 51 99 52 93 53 95 54 46 55
REMARK SMILES IDX 98 56 92 57 91 58 47 60 79 61 59 62 78 63 60 64 63 65 77 66
REMARK SMILES IDX 96 67 61 68 62 69 76 71 97 72 64 73 48 74 49 75 57 76 50 77
REMARK SMILES IDX 56 78 58 79 55 80 51 81 52 82 53 83 54 84 80 85 81 86 89 87
REMARK SMILES IDX 82 88 88 89 90 90 87 91 83 92 84 93 85 94 86 95 65 96 66 97
REMARK SMILES IDX 74 98 67 99 73 100 75 101 72 102 68 103 69 104 70 105 71 106
REMARK H PARENT 32 4 5 26 36 40 95 59 63 70
REMARK Flexibility Score: inf
ROOT
ATOM      1  C   UNL A   1      38.324  23.783  26.368  1.00  0.00     0.220 C 
ATOM      2  O   UNL A   1      38.554  24.986  26.531  1.00  0.00    -0.275 OA
ATOM      3  N   UNL A   1      39.387  22.925  26.417  1.00  0.00    -0.356 N 
ATOM      4  H   UNL A   1      40.233  23.339  26.700  1.00  0.00     0.163 HD
ENDROOT
BRANCH   1   5
ATOM      5  C   UNL A   1      36.893  23.281  26.218  1.00  0.00     0.100 C 
BRANCH   5   6
ATOM      6  C   UNL A   1      36.314  23.109  24.799  1.00  0.00     0.018 C 
BRANCH   6   7
ATOM      7  C   UNL A   1      34.846  22.627  24.674  1.00  0.00    -0.014 C 
ATOM      8  C   UNL A   1      34.512  21.335  25.483  1.00  0.00     0.047 C 
ATOM      9  C   UNL A   1      33.035  21.276  26.004  1.00  0.00     0.122 C 
ATOM     10  C   UNL A   1      32.001  22.110  25.236  1.00  0.00     0.037 C 
ATOM     11  C   UNL A   1      33.804  23.684  24.411  1.00  0.00    -0.019 C 
ATOM     12  C   UNL A   1      34.171  22.717  23.306  1.00  0.00     0.016 C 
ATOM     13  C   UNL A   1      32.421  23.590  25.083  1.00  0.00     0.005 C 
ATOM     14  C   UNL A   1      34.252  25.108  24.160  1.00  0.00     0.008 C 
ATOM     15  C   UNL A   1      31.316  24.529  24.367  1.00  0.00    -0.023 C 
ATOM     16  C   UNL A   1      33.247  25.859  23.325  1.00  0.00     0.008 C 
ATOM     17  C   UNL A   1      31.888  25.965  23.996  1.00  0.00    -0.024 C 
ATOM     18  C   UNL A   1      30.190  24.928  25.379  1.00  0.00     0.008 C 
ATOM     19  C   UNL A   1      30.683  23.812  23.153  1.00  0.00     0.012 C 
ATOM     20  C   UNL A   1      31.952  26.621  25.414  1.00  0.00    -0.002 C 
ATOM     21  C   UNL A   1      30.970  26.724  23.001  1.00  0.00     0.012 C 
ATOM     22  C   UNL A   1      30.577  26.296  26.000  1.00  0.00     0.005 C 
BRANCH   8  23
ATOM     23  C   UNL A   1      34.850  20.035  24.731  1.00  0.00    -0.028 C 
ATOM     24  C   UNL A   1      34.174  18.879  24.786  1.00  0.00     0.004 C 
ENDBRANCH   8  23
BRANCH   9  25
ATOM     25  O   UNL A   1      33.002  21.643  27.389  1.00  0.00    -0.392 OA
ATOM     26  H   UNL A   1      33.162  20.859  27.936  1.00  0.00     0.210 HD
ENDBRANCH   9  25
BRANCH  20  27
ATOM     27  C   UNL A   1      32.620  28.004  25.664  1.00  0.00    -0.010 C 
ATOM     28  C   UNL A   1      33.924  27.820  26.464  1.00  0.00     0.008 C 
BRANCH  27  29
ATOM     29  C   UNL A   1      31.814  29.165  26.282  1.00  0.00     0.008 C 
BRANCH  29  30
ATOM     30  C   UNL A   1      31.367  30.230  25.247  1.00  0.00     0.027 C 
BRANCH  30  31
ATOM     31  C   UNL A   1      30.513  29.692  24.122  1.00  0.00    -0.028 C 
ATOM     32  C   UNL A   1      29.460  30.287  23.529  1.00  0.00    -0.080 C 
ATOM     33  C   UNL A   1      28.659  29.580  22.465  1.00  0.00     0.039 C 
ATOM     34  C   UNL A   1      28.982  31.665  23.887  1.00  0.00     0.039 C 
ENDBRANCH  30  31
ENDBRANCH  29  30
ENDBRANCH  27  29
ENDBRANCH  20  27
ENDBRANCH   6   7
ENDBRANCH   5   6
ENDBRANCH   1   5
BRANCH   3  35
ATOM     35  C   UNL A   1      39.480  21.498  26.123  1.00  0.00     0.117 C 
BRANCH  35  36
ATOM     36  C   UNL A   1      40.901  21.105  25.703  1.00  0.00     0.042 C 
BRANCH  36  37
ATOM     37  C   UNL A   1      41.454  19.780  26.200  1.00  0.00     0.118 C 
BRANCH  37  38
ATOM     38  N   UNL A   1      42.692  19.456  25.505  1.00  0.00    -0.352 N 
ATOM     39  C   UNL A   1      43.709  20.215  24.972  1.00  0.00     0.251 C 
ATOM     40  H   UNL A   1      42.831  18.487  25.394  1.00  0.00     0.163 HD
ATOM     41  O   UNL A   1      44.409  19.654  24.124  1.00  0.00    -0.269 OA
BRANCH  39  42
ATOM     42  C   UNL A   1      44.021  21.633  25.338  1.00  0.00     0.039 A 
ATOM     43  C   UNL A   1      44.358  21.897  26.679  1.00  0.00     0.014 A 
ATOM     44  C   UNL A   1      43.876  22.723  24.483  1.00  0.00     0.014 A 
ATOM     45  C   UNL A   1      44.535  23.212  27.145  1.00  0.00     0.010 A 
ATOM     46  C   UNL A   1      44.143  24.030  24.927  1.00  0.00     0.010 A 
ATOM     47  C   UNL A   1      44.447  24.301  26.270  1.00  0.00    -0.014 A 
BRANCH  47  48
ATOM     48  C   UNL A   1      44.607  25.715  26.741  1.00  0.00     0.031 A 
ATOM     49  C   UNL A   1      45.967  26.380  26.713  1.00  0.00     0.074 A 
ATOM     50  C   UNL A   1      43.554  26.401  27.234  1.00  0.00     0.049 A 
ATOM     51  N   UNL A   1      46.335  27.547  27.185  1.00  0.00    -0.248 NA
ATOM     52  C   UNL A   1      47.061  25.619  26.094  1.00  0.00     0.031 C 
ATOM     53  C   UNL A   1      42.184  25.897  27.324  1.00  0.00     0.029 A 
ATOM     54  N   UNL A   1      43.471  27.668  27.765  1.00  0.00    -0.354 N 
ATOM     55  C   UNL A   1      47.705  27.644  26.946  1.00  0.00     0.074 A 
ATOM     56  C   UNL A   1      48.107  26.393  26.340  1.00  0.00     0.031 C 
ATOM     57  C   UNL A   1      41.398  26.842  27.864  1.00  0.00     0.029 A 
ATOM     58  C   UNL A   1      42.211  28.005  28.206  1.00  0.00     0.049 A 
ATOM     59  H   UNL A   1      44.242  28.278  27.823  1.00  0.00     0.167 HD
ATOM     60  C   UNL A   1      48.546  28.683  27.185  1.00  0.00     0.034 A 
ATOM     61  C   UNL A   1      41.757  29.111  28.833  1.00  0.00     0.034 A 
ATOM     62  C   UNL A   1      48.133  29.941  27.762  1.00  0.00     0.049 A 
ATOM     63  C   UNL A   1      42.717  30.237  29.130  1.00  0.00     0.074 A 
ATOM     64  C   UNL A   1      48.894  31.075  27.993  1.00  0.00     0.029 A 
ATOM     65  N   UNL A   1      46.850  30.233  28.206  1.00  0.00    -0.354 N 
ATOM     66  N   UNL A   1      44.001  30.319  28.868  1.00  0.00    -0.248 NA
ATOM     67  C   UNL A   1      42.163  31.422  29.798  1.00  0.00     0.031 C 
ATOM     68  C   UNL A   1      48.094  32.021  28.642  1.00  0.00     0.029 A 
ATOM     69  C   UNL A   1      46.809  31.513  28.741  1.00  0.00     0.049 A 
ATOM     70  H   UNL A   1      46.081  29.620  28.150  1.00  0.00     0.167 HD
ATOM     71  C   UNL A   1      44.398  31.579  29.311  1.00  0.00     0.074 A 
ATOM     72  C   UNL A   1      43.217  32.226  29.841  1.00  0.00     0.031 C 
ATOM     73  C   UNL A   1      45.629  32.150  29.277  1.00  0.00     0.034 A 
BRANCH  60  74
ATOM     74  C   UNL A   1      50.009  28.494  26.845  1.00  0.00     0.023 A 
ATOM     75  C   UNL A   1      50.523  28.813  25.576  1.00  0.00     0.031 A 
ATOM     76  C   UNL A   1      50.902  27.970  27.799  1.00  0.00     0.131 A 
ATOM     77  C   UNL A   1      51.864  28.529  25.270  1.00  0.00     0.055 A 
ATOM     78  C   UNL A   1      52.255  27.774  27.515  1.00  0.00     0.041 A 
ATOM     79  F   UNL A   1      50.471  27.630  29.024  1.00  0.00    -0.206 F 
ATOM     80  C   UNL A   1      52.740  28.038  26.238  1.00  0.00     0.022 A 
BRANCH  77  81
ATOM     81  S   UNL A   1      52.401  28.673  23.543  1.00  0.00     0.124 S 
ATOM     82  O   UNL A   1      53.547  29.576  23.666  1.00  0.00    -0.237 OA
ATOM     83  O   UNL A   1      52.701  27.301  23.186  1.00  0.00    -0.237 OA
ATOM     84  O   UNL A   1      51.235  29.259  22.872  1.00  0.00    -0.744 OA
ENDBRANCH  77  81
ENDBRANCH  60  74
BRANCH  61  85
ATOM     85  C   UNL A   1      40.325  29.212  29.245  1.00  0.00     0.023 A 
ATOM     86  C   UNL A   1      39.948  29.088  30.592  1.00  0.00     0.031 A 
ATOM     87  C   UNL A   1      39.306  29.385  28.291  1.00  0.00     0.131 A 
ATOM     88  C   UNL A   1      38.589  29.091  30.943  1.00  0.00     0.055 A 
ATOM     89  C   UNL A   1      37.958  29.446  28.652  1.00  0.00     0.041 A 
ATOM     90  F   UNL A   1      39.607  29.511  26.988  1.00  0.00    -0.206 F 
ATOM     91  C   UNL A   1      37.592  29.285  29.985  1.00  0.00     0.022 A 
BRANCH  88  92
ATOM     92  S   UNL A   1      38.135  28.749  32.666  1.00  0.00     0.124 S 
ATOM     93  O   UNL A   1      38.082  27.291  32.675  1.00  0.00    -0.237 OA
ATOM     94  O   UNL A   1      39.244  29.355  33.398  1.00  0.00    -0.237 OA
ATOM     95  O   UNL A   1      36.848  29.422  32.820  1.00  0.00    -0.744 OA
ENDBRANCH  88  92
ENDBRANCH  61  85
BRANCH  73  96
ATOM     96  C   UNL A   1      45.749  33.567  29.786  1.00  0.00     0.023 A 
ATOM     97  C   UNL A   1      46.063  33.850  31.127  1.00  0.00     0.031 A 
ATOM     98  C   UNL A   1      45.542  34.651  28.914  1.00  0.00     0.131 A 
ATOM     99  C   UNL A   1      46.108  35.183  31.568  1.00  0.00     0.055 A 
ATOM    100  C   UNL A   1      45.651  35.975  29.345  1.00  0.00     0.041 A 
ATOM    101  F   UNL A   1      45.236  34.441  27.624  1.00  0.00    -0.206 F 
ATOM    102  C   UNL A   1      45.923  36.246  30.682  1.00  0.00     0.022 A 
BRANCH  99 103
ATOM    103  S   UNL A   1      46.324  35.507  33.340  1.00  0.00     0.124 S 
ATOM    104  O   UNL A   1      45.566  36.742  33.517  1.00  0.00    -0.237 OA
ATOM    105  O   UNL A   1      45.749  34.313  33.950  1.00  0.00    -0.237 OA
ATOM    106  O   UNL A   1      47.772  35.642  33.491  1.00  0.00    -0.744 OA
ENDBRANCH  99 103
ENDBRANCH  73  96
ENDBRANCH  47  48
ENDBRANCH  39  42
ENDBRANCH  37  38
ENDBRANCH  36  37
ENDBRANCH  35  36
ENDBRANCH   3  35
TORSDOF 21
ENDMDL
