MODEL 1
REMARK VINA RESULT:     -12.6      0.000      0.000
REMARK SMILES Cc1nsc(NC(=O)[C@@H]2C=C[C@@H]([NH3+])C2)c1C(=O)NCCCNC(=O)c1ccc(-c2c3nc(c(-c4cc(S(=O)(=O)[O-])ccc4F)c4ccc([nH]4)c(-c4cc(S(=O)(=O)[O-])ccc4F)c4nc(c(-c5cc(S(=O)(=O)[O-])ccc5F)c5ccc2[nH]5)C=C4)C=C3)cc1
REMARK SMILES IDX 20 1 19 2 18 3 16 4 17 5 15 7 1 8 2 9 3 10 4 11 5 12 6 13
REMARK SMILES IDX 7 14 8 16 9 17 10 18 14 19 11 20 12 21 13 22 21 26 22 27
REMARK SMILES IDX 23 28 24 30 25 31 26 32 87 33 27 34 86 35 28 36 29 37 30 38
REMARK SMILES IDX 80 39 31 40 85 41 79 42 81 43 32 44 84 45 78 46 77 47 33 49
REMARK SMILES IDX 65 50 45 51 64 52 46 53 49 54 63 55 82 56 47 57 48 58 62 60
REMARK SMILES IDX 83 61 50 62 34 63 35 64 43 65 36 66 42 67 44 68 41 69 37 70
REMARK SMILES IDX 38 71 39 72 40 73 66 74 67 75 75 76 68 77 74 78 76 79 73 80
REMARK SMILES IDX 69 81 70 82 71 83 72 84 51 85 52 86 60 87 53 88 59 89 61 90
REMARK SMILES IDX 58 91 54 92 55 93 56 94 57 95
REMARK H PARENT 18 6 6 15 13 23 13 24 13 25 22 29 81 48 49 59
REMARK Flexibility Score: inf
ROOT
ATOM      1  C   UNL A   1      33.305  28.974  27.207  1.00  0.00     0.042 C 
ENDROOT
BRANCH   1   2
ATOM      2  C   UNL A   1      32.892  29.533  25.851  1.00  0.00     0.118 C 
BRANCH   2   3
ATOM      3  N   UNL A   1      33.575  28.992  24.693  1.00  0.00    -0.352 N 
ATOM      4  C   UNL A   1      33.144  28.281  23.602  1.00  0.00     0.256 C 
ATOM      5  O   UNL A   1      33.951  28.160  22.676  1.00  0.00    -0.269 OA
ATOM      6  H   UNL A   1      34.542  29.174  24.688  1.00  0.00     0.163 HD
BRANCH   4   7
ATOM      7  C   UNL A   1      31.875  27.562  23.577  1.00  0.00     0.097 A 
ATOM      8  C   UNL A   1      29.906  29.272  23.100  1.00  0.00     0.069 C 
ATOM      9  C   UNL A   1      30.487  27.978  23.564  1.00  0.00     0.066 A 
ATOM     10  N   UNL A   1      29.594  27.026  23.870  1.00  0.00    -0.195 NA
ATOM     11  S   UNL A   1      30.372  25.562  23.827  1.00  0.00    -0.017 S 
ATOM     12  C   UNL A   1      31.827  26.213  23.227  1.00  0.00     0.129 A 
BRANCH  12  13
ATOM     13  N   UNL A   1      32.778  25.435  22.607  1.00  0.00    -0.315 N 
ATOM     14  C   UNL A   1      33.619  24.510  23.177  1.00  0.00     0.232 C 
ATOM     15  H   UNL A   1      32.867  25.555  21.635  1.00  0.00     0.170 HD
ATOM     16  O   UNL A   1      34.387  23.911  22.414  1.00  0.00    -0.274 OA
BRANCH  14  17
ATOM     17  C   UNL A   1      33.643  24.213  24.697  1.00  0.00     0.107 C 
ATOM     18  C   UNL A   1      34.854  24.828  25.369  1.00  0.00    -0.012 C 
ATOM     19  C   UNL A   1      33.817  22.748  25.139  1.00  0.00     0.087 C 
ATOM     20  C   UNL A   1      35.738  23.913  25.791  1.00  0.00     0.033 C 
ATOM     21  C   UNL A   1      35.298  22.538  25.444  1.00  0.00     0.205 C 
BRANCH  21  22
ATOM     22  N   UNL A   1      35.468  21.570  26.509  1.00  0.00    -0.352 N 
ATOM     23  H   UNL A   1      36.429  21.229  26.508  1.00  0.00     0.345 HD
ATOM     24  H   UNL A   1      34.829  20.787  26.362  1.00  0.00     0.345 HD
ATOM     25  H   UNL A   1      35.264  22.010  27.406  1.00  0.00     0.345 HD
ENDBRANCH  21  22
ENDBRANCH  14  17
ENDBRANCH  12  13
ENDBRANCH   4   7
ENDBRANCH   2   3
ENDBRANCH   1   2
BRANCH   1  26
ATOM     26  C   UNL A   1      34.804  29.070  27.444  1.00  0.00     0.118 C 
BRANCH  26  27
ATOM     27  N   UNL A   1      35.151  30.068  28.461  1.00  0.00    -0.352 N 
ATOM     28  C   UNL A   1      36.320  30.183  29.184  1.00  0.00     0.251 C 
ATOM     29  H   UNL A   1      34.461  30.743  28.650  1.00  0.00     0.163 HD
ATOM     30  O   UNL A   1      36.368  30.911  30.171  1.00  0.00    -0.269 OA
BRANCH  28  31
ATOM     31  C   UNL A   1      37.480  29.376  28.775  1.00  0.00     0.039 A 
ATOM     32  C   UNL A   1      38.183  29.709  27.618  1.00  0.00     0.014 A 
ATOM     33  C   UNL A   1      37.939  28.375  29.632  1.00  0.00     0.014 A 
ATOM     34  C   UNL A   1      39.426  29.122  27.402  1.00  0.00     0.010 A 
ATOM     35  C   UNL A   1      39.219  27.880  29.474  1.00  0.00     0.010 A 
ATOM     36  C   UNL A   1      39.975  28.253  28.363  1.00  0.00    -0.014 A 
BRANCH  36  37
ATOM     37  C   UNL A   1      41.404  27.920  28.296  1.00  0.00     0.031 A 
ATOM     38  C   UNL A   1      41.699  26.686  27.517  1.00  0.00     0.074 A 
ATOM     39  C   UNL A   1      42.421  28.715  28.697  1.00  0.00     0.049 A 
ATOM     40  N   UNL A   1      42.040  25.529  27.978  1.00  0.00    -0.248 NA
ATOM     41  C   UNL A   1      41.408  26.680  26.073  1.00  0.00     0.031 C 
ATOM     42  C   UNL A   1      42.326  30.090  29.195  1.00  0.00     0.029 A 
ATOM     43  N   UNL A   1      43.772  28.496  28.659  1.00  0.00    -0.354 N 
ATOM     44  C   UNL A   1      42.281  24.728  26.864  1.00  0.00     0.074 A 
ATOM     45  C   UNL A   1      41.654  25.405  25.763  1.00  0.00     0.031 C 
ATOM     46  C   UNL A   1      43.552  30.656  29.203  1.00  0.00     0.029 A 
ATOM     47  C   UNL A   1      44.538  29.635  28.895  1.00  0.00     0.049 A 
ATOM     48  H   UNL A   1      44.167  27.612  28.481  1.00  0.00     0.167 HD
ATOM     49  C   UNL A   1      43.221  23.741  26.918  1.00  0.00     0.034 A 
ATOM     50  C   UNL A   1      45.890  29.760  28.881  1.00  0.00     0.034 A 
ATOM     51  C   UNL A   1      43.629  23.522  28.289  1.00  0.00     0.049 A 
ATOM     52  C   UNL A   1      46.459  28.425  29.160  1.00  0.00     0.074 A 
ATOM     53  C   UNL A   1      43.085  22.960  29.422  1.00  0.00     0.029 A 
ATOM     54  N   UNL A   1      44.697  24.288  28.690  1.00  0.00    -0.354 N 
ATOM     55  N   UNL A   1      46.289  27.809  30.298  1.00  0.00    -0.248 NA
ATOM     56  C   UNL A   1      46.925  27.581  28.067  1.00  0.00     0.031 C 
ATOM     57  C   UNL A   1      43.713  23.612  30.525  1.00  0.00     0.029 A 
ATOM     58  C   UNL A   1      44.659  24.516  30.041  1.00  0.00     0.049 A 
ATOM     59  H   UNL A   1      45.397  24.630  28.087  1.00  0.00     0.167 HD
ATOM     60  C   UNL A   1      46.185  26.476  29.959  1.00  0.00     0.074 A 
ATOM     61  C   UNL A   1      46.769  26.377  28.628  1.00  0.00     0.031 C 
ATOM     62  C   UNL A   1      45.346  25.647  30.644  1.00  0.00     0.034 A 
BRANCH  49  63
ATOM     63  C   UNL A   1      44.136  23.310  25.775  1.00  0.00     0.023 A 
ATOM     64  C   UNL A   1      44.045  21.958  25.370  1.00  0.00     0.031 A 
ATOM     65  C   UNL A   1      45.254  24.012  25.276  1.00  0.00     0.131 A 
ATOM     66  C   UNL A   1      45.080  21.338  24.646  1.00  0.00     0.055 A 
ATOM     67  C   UNL A   1      46.260  23.401  24.516  1.00  0.00     0.041 A 
ATOM     68  F   UNL A   1      45.483  25.300  25.540  1.00  0.00    -0.206 F 
ATOM     69  C   UNL A   1      46.196  22.049  24.228  1.00  0.00     0.022 A 
BRANCH  66  70
ATOM     70  S   UNL A   1      45.013  19.543  24.407  1.00  0.00     0.124 S 
ATOM     71  O   UNL A   1      46.399  19.161  24.657  1.00  0.00    -0.237 OA
ATOM     72  O   UNL A   1      44.038  19.141  25.416  1.00  0.00    -0.237 OA
ATOM     73  O   UNL A   1      44.568  19.404  23.022  1.00  0.00    -0.744 OA
ENDBRANCH  66  70
ENDBRANCH  49  63
BRANCH  50  74
ATOM     74  C   UNL A   1      46.704  30.943  28.505  1.00  0.00     0.023 A 
ATOM     75  C   UNL A   1      46.341  31.833  27.474  1.00  0.00     0.031 A 
ATOM     76  C   UNL A   1      47.758  31.346  29.356  1.00  0.00     0.131 A 
ATOM     77  C   UNL A   1      47.012  33.071  27.336  1.00  0.00     0.055 A 
ATOM     78  C   UNL A   1      48.419  32.568  29.212  1.00  0.00     0.041 A 
ATOM     79  F   UNL A   1      48.121  30.597  30.409  1.00  0.00    -0.206 F 
ATOM     80  C   UNL A   1      48.038  33.442  28.207  1.00  0.00     0.022 A 
BRANCH  77  81
ATOM     81  S   UNL A   1      46.483  34.270  26.068  1.00  0.00     0.124 S 
ATOM     82  O   UNL A   1      45.979  35.375  26.873  1.00  0.00    -0.237 OA
ATOM     83  O   UNL A   1      47.719  34.510  25.332  1.00  0.00    -0.237 OA
ATOM     84  O   UNL A   1      45.458  33.541  25.317  1.00  0.00    -0.744 OA
ENDBRANCH  77  81
ENDBRANCH  50  74
BRANCH  62  85
ATOM     85  C   UNL A   1      45.010  26.016  32.070  1.00  0.00     0.023 A 
ATOM     86  C   UNL A   1      43.835  26.678  32.488  1.00  0.00     0.031 A 
ATOM     87  C   UNL A   1      45.934  25.634  33.058  1.00  0.00     0.131 A 
ATOM     88  C   UNL A   1      43.629  26.942  33.856  1.00  0.00     0.055 A 
ATOM     89  C   UNL A   1      45.716  25.877  34.413  1.00  0.00     0.041 A 
ATOM     90  F   UNL A   1      47.066  24.993  32.722  1.00  0.00    -0.206 F 
ATOM     91  C   UNL A   1      44.565  26.540  34.816  1.00  0.00     0.022 A 
BRANCH  88  92
ATOM     92  S   UNL A   1      42.149  27.846  34.413  1.00  0.00     0.124 S 
ATOM     93  O   UNL A   1      42.630  28.627  35.548  1.00  0.00    -0.237 OA
ATOM     94  O   UNL A   1      41.781  28.610  33.224  1.00  0.00    -0.237 OA
ATOM     95  O   UNL A   1      41.210  26.779  34.763  1.00  0.00    -0.744 OA
ENDBRANCH  88  92
ENDBRANCH  62  85
ENDBRANCH  36  37
ENDBRANCH  28  31
ENDBRANCH  26  27
ENDBRANCH   1  26
TORSDOF 16
ENDMDL
MODEL 2
REMARK VINA RESULT:     -12.5      4.242     10.173
REMARK SMILES Cc1nsc(NC(=O)[C@@H]2C=C[C@@H]([NH3+])C2)c1C(=O)NCCCNC(=O)c1ccc(-c2c3nc(c(-c4cc(S(=O)(=O)[O-])ccc4F)c4ccc([nH]4)c(-c4cc(S(=O)(=O)[O-])ccc4F)c4nc(c(-c5cc(S(=O)(=O)[O-])ccc5F)c5ccc2[nH]5)C=C4)C=C3)cc1
REMARK SMILES IDX 20 1 19 2 18 3 16 4 17 5 15 7 1 8 2 9 3 10 4 11 5 12 6 13
REMARK SMILES IDX 7 14 8 16 9 17 10 18 14 19 11 20 12 21 13 22 21 26 22 27
REMARK SMILES IDX 23 28 24 30 25 31 26 32 87 33 27 34 86 35 28 36 29 37 30 38
REMARK SMILES IDX 80 39 31 40 85 41 79 42 81 43 32 44 84 45 78 46 77 47 33 49
REMARK SMILES IDX 65 50 45 51 64 52 46 53 49 54 63 55 82 56 47 57 48 58 62 60
REMARK SMILES IDX 83 61 50 62 34 63 35 64 43 65 36 66 42 67 44 68 41 69 37 70
REMARK SMILES IDX 38 71 39 72 40 73 66 74 67 75 75 76 68 77 74 78 76 79 73 80
REMARK SMILES IDX 69 81 70 82 71 83 72 84 51 85 52 86 60 87 53 88 59 89 61 90
REMARK SMILES IDX 58 91 54 92 55 93 56 94 57 95
REMARK H PARENT 18 6 6 15 13 23 13 24 13 25 22 29 81 48 49 59
REMARK Flexibility Score: inf
ROOT
ATOM      1  C   UNL A   1      37.061  23.237  25.108  1.00  0.00     0.042 C 
ENDROOT
BRANCH   1   2
ATOM      2  C   UNL A   1      36.258  22.091  25.711  1.00  0.00     0.118 C 
BRANCH   2   3
ATOM      3  N   UNL A   1      35.272  22.448  26.710  1.00  0.00    -0.352 N 
ATOM      4  C   UNL A   1      33.900  22.404  26.727  1.00  0.00     0.256 C 
ATOM      5  O   UNL A   1      33.362  22.575  27.823  1.00  0.00    -0.269 OA
ATOM      6  H   UNL A   1      35.665  22.790  27.545  1.00  0.00     0.163 HD
BRANCH   4   7
ATOM      7  C   UNL A   1      33.097  22.323  25.511  1.00  0.00     0.097 A 
ATOM      8  C   UNL A   1      32.828  19.784  24.802  1.00  0.00     0.069 C 
ATOM      9  C   UNL A   1      32.796  21.258  24.576  1.00  0.00     0.066 A 
ATOM     10  N   UNL A   1      32.282  21.647  23.401  1.00  0.00    -0.195 NA
ATOM     11  S   UNL A   1      31.829  23.236  23.541  1.00  0.00    -0.017 S 
ATOM     12  C   UNL A   1      32.160  23.312  25.210  1.00  0.00     0.129 A 
BRANCH  12  13
ATOM     13  N   UNL A   1      31.625  24.286  26.022  1.00  0.00    -0.315 N 
ATOM     14  C   UNL A   1      32.025  25.594  26.153  1.00  0.00     0.232 C 
ATOM     15  H   UNL A   1      30.859  24.014  26.575  1.00  0.00     0.170 HD
ATOM     16  O   UNL A   1      31.377  26.299  26.936  1.00  0.00    -0.274 OA
BRANCH  14  17
ATOM     17  C   UNL A   1      33.231  26.189  25.385  1.00  0.00     0.107 C 
ATOM     18  C   UNL A   1      34.005  27.176  26.236  1.00  0.00    -0.012 C 
ATOM     19  C   UNL A   1      32.935  27.078  24.163  1.00  0.00     0.087 C 
ATOM     20  C   UNL A   1      33.884  28.441  25.810  1.00  0.00     0.033 C 
ATOM     21  C   UNL A   1      32.983  28.530  24.633  1.00  0.00     0.205 C 
BRANCH  21  22
ATOM     22  N   UNL A   1      33.467  29.394  23.575  1.00  0.00    -0.352 N 
ATOM     23  H   UNL A   1      33.161  29.029  22.672  1.00  0.00     0.345 HD
ATOM     24  H   UNL A   1      34.486  29.426  23.601  1.00  0.00     0.345 HD
ATOM     25  H   UNL A   1      33.094  30.334  23.705  1.00  0.00     0.345 HD
ENDBRANCH  21  22
ENDBRANCH  14  17
ENDBRANCH  12  13
ENDBRANCH   4   7
ENDBRANCH   2   3
ENDBRANCH   1   2
BRANCH   1  26
ATOM     26  C   UNL A   1      37.765  24.075  26.164  1.00  0.00     0.118 C 
BRANCH  26  27
ATOM     27  N   UNL A   1      39.222  23.925  26.124  1.00  0.00    -0.352 N 
ATOM     28  C   UNL A   1      40.186  24.797  26.587  1.00  0.00     0.251 C 
ATOM     29  H   UNL A   1      39.556  23.095  25.715  1.00  0.00     0.163 HD
ATOM     30  O   UNL A   1      41.360  24.651  26.259  1.00  0.00    -0.269 OA
BRANCH  28  31
ATOM     31  C   UNL A   1      39.764  25.924  27.432  1.00  0.00     0.039 A 
ATOM     32  C   UNL A   1      39.301  25.686  28.725  1.00  0.00     0.014 A 
ATOM     33  C   UNL A   1      39.969  27.225  26.970  1.00  0.00     0.014 A 
ATOM     34  C   UNL A   1      39.178  26.764  29.598  1.00  0.00     0.010 A 
ATOM     35  C   UNL A   1      39.954  28.275  27.867  1.00  0.00     0.010 A 
ATOM     36  C   UNL A   1      39.566  28.054  29.187  1.00  0.00    -0.014 A 
BRANCH  36  37
ATOM     37  C   UNL A   1      39.760  29.100  30.201  1.00  0.00     0.031 A 
ATOM     38  C   UNL A   1      38.545  29.922  30.457  1.00  0.00     0.074 A 
ATOM     39  C   UNL A   1      40.836  29.229  31.008  1.00  0.00     0.049 A 
ATOM     40  N   UNL A   1      38.324  31.136  30.075  1.00  0.00    -0.248 NA
ATOM     41  C   UNL A   1      37.365  29.267  31.046  1.00  0.00     0.031 C 
ATOM     42  C   UNL A   1      41.981  28.321  31.108  1.00  0.00     0.029 A 
ATOM     43  N   UNL A   1      41.094  30.155  31.983  1.00  0.00    -0.354 N 
ATOM     44  C   UNL A   1      37.093  31.491  30.622  1.00  0.00     0.074 A 
ATOM     45  C   UNL A   1      36.465  30.252  30.988  1.00  0.00     0.031 C 
ATOM     46  C   UNL A   1      42.692  28.607  32.220  1.00  0.00     0.029 A 
ATOM     47  C   UNL A   1      42.169  29.828  32.806  1.00  0.00     0.049 A 
ATOM     48  H   UNL A   1      40.567  30.980  32.091  1.00  0.00     0.167 HD
ATOM     49  C   UNL A   1      36.848  32.784  30.981  1.00  0.00     0.034 A 
ATOM     50  C   UNL A   1      42.645  30.508  33.880  1.00  0.00     0.034 A 
ATOM     51  C   UNL A   1      37.878  33.649  30.448  1.00  0.00     0.049 A 
ATOM     52  C   UNL A   1      42.254  31.923  33.716  1.00  0.00     0.074 A 
ATOM     53  C   UNL A   1      38.239  34.140  29.212  1.00  0.00     0.029 A 
ATOM     54  N   UNL A   1      38.954  33.829  31.284  1.00  0.00    -0.354 N 
ATOM     55  N   UNL A   1      42.701  32.671  32.745  1.00  0.00    -0.248 NA
ATOM     56  C   UNL A   1      41.082  32.447  34.407  1.00  0.00     0.031 C 
ATOM     57  C   UNL A   1      39.642  34.391  29.284  1.00  0.00     0.029 A 
ATOM     58  C   UNL A   1      40.092  34.097  30.571  1.00  0.00     0.049 A 
ATOM     59  H   UNL A   1      38.912  33.771  32.266  1.00  0.00     0.167 HD
ATOM     60  C   UNL A   1      41.638  33.488  32.418  1.00  0.00     0.074 A 
ATOM     61  C   UNL A   1      40.757  33.444  33.578  1.00  0.00     0.031 C 
ATOM     62  C   UNL A   1      41.415  33.856  31.124  1.00  0.00     0.034 A 
BRANCH  49  63
ATOM     63  C   UNL A   1      36.016  33.241  32.176  1.00  0.00     0.023 A 
ATOM     64  C   UNL A   1      34.878  34.031  31.888  1.00  0.00     0.031 A 
ATOM     65  C   UNL A   1      36.402  33.218  33.533  1.00  0.00     0.131 A 
ATOM     66  C   UNL A   1      34.280  34.842  32.869  1.00  0.00     0.055 A 
ATOM     67  C   UNL A   1      35.775  33.993  34.517  1.00  0.00     0.041 A 
ATOM     68  F   UNL A   1      37.438  32.509  33.984  1.00  0.00    -0.206 F 
ATOM     69  C   UNL A   1      34.732  34.839  34.182  1.00  0.00     0.022 A 
BRANCH  66  70
ATOM     70  S   UNL A   1      33.008  36.026  32.356  1.00  0.00     0.124 S 
ATOM     71  O   UNL A   1      33.410  36.314  30.984  1.00  0.00    -0.237 OA
ATOM     72  O   UNL A   1      31.787  35.245  32.523  1.00  0.00    -0.237 OA
ATOM     73  O   UNL A   1      33.174  37.129  33.300  1.00  0.00    -0.744 OA
ENDBRANCH  66  70
ENDBRANCH  49  63
BRANCH  50  74
ATOM     74  C   UNL A   1      43.300  29.967  35.098  1.00  0.00     0.023 A 
ATOM     75  C   UNL A   1      42.920  28.751  35.702  1.00  0.00     0.031 A 
ATOM     76  C   UNL A   1      44.505  30.553  35.544  1.00  0.00     0.131 A 
ATOM     77  C   UNL A   1      43.740  28.165  36.696  1.00  0.00     0.055 A 
ATOM     78  C   UNL A   1      45.309  29.973  36.527  1.00  0.00     0.041 A 
ATOM     79  F   UNL A   1      44.982  31.671  34.974  1.00  0.00    -0.206 F 
ATOM     80  C   UNL A   1      44.934  28.767  37.099  1.00  0.00     0.022 A 
BRANCH  77  81
ATOM     81  S   UNL A   1      43.308  26.545  37.411  1.00  0.00     0.124 S 
ATOM     82  O   UNL A   1      41.851  26.590  37.429  1.00  0.00    -0.237 OA
ATOM     83  O   UNL A   1      43.919  25.615  36.468  1.00  0.00    -0.237 OA
ATOM     84  O   UNL A   1      43.939  26.577  38.732  1.00  0.00    -0.744 OA
ENDBRANCH  77  81
ENDBRANCH  50  74
BRANCH  62  85
ATOM     85  C   UNL A   1      42.601  33.874  30.189  1.00  0.00     0.023 A 
ATOM     86  C   UNL A   1      43.013  32.800  29.370  1.00  0.00     0.031 A 
ATOM     87  C   UNL A   1      43.328  35.075  30.108  1.00  0.00     0.131 A 
ATOM     88  C   UNL A   1      44.126  32.954  28.520  1.00  0.00     0.055 A 
ATOM     89  C   UNL A   1      44.413  35.231  29.249  1.00  0.00     0.041 A 
ATOM     90  F   UNL A   1      42.977  36.135  30.856  1.00  0.00    -0.206 F 
ATOM     91  C   UNL A   1      44.822  34.167  28.457  1.00  0.00     0.022 A 
BRANCH  88  92
ATOM     92  S   UNL A   1      44.712  31.564  27.499  1.00  0.00     0.124 S 
ATOM     93  O   UNL A   1      43.951  30.424  28.001  1.00  0.00    -0.237 OA
ATOM     94  O   UNL A   1      44.382  32.006  26.147  1.00  0.00    -0.237 OA
ATOM     95  O   UNL A   1      46.147  31.512  27.787  1.00  0.00    -0.744 OA
ENDBRANCH  88  92
ENDBRANCH  62  85
ENDBRANCH  36  37
ENDBRANCH  28  31
ENDBRANCH  26  27
ENDBRANCH   1  26
TORSDOF 16
ENDMDL
MODEL 3
REMARK VINA RESULT:     -12.4      1.292      3.172
REMARK SMILES Cc1nsc(NC(=O)[C@@H]2C=C[C@@H]([NH3+])C2)c1C(=O)NCCCNC(=O)c1ccc(-c2c3nc(c(-c4cc(S(=O)(=O)[O-])ccc4F)c4ccc([nH]4)c(-c4cc(S(=O)(=O)[O-])ccc4F)c4nc(c(-c5cc(S(=O)(=O)[O-])ccc5F)c5ccc2[nH]5)C=C4)C=C3)cc1
REMARK SMILES IDX 20 1 19 2 18 3 16 4 17 5 15 7 1 8 2 9 3 10 4 11 5 12 6 13
REMARK SMILES IDX 7 14 8 16 9 17 10 18 14 19 11 20 12 21 13 22 21 26 22 27
REMARK SMILES IDX 23 28 24 30 25 31 26 32 87 33 27 34 86 35 28 36 29 37 30 38
REMARK SMILES IDX 80 39 31 40 85 41 79 42 81 43 32 44 84 45 78 46 77 47 33 49
REMARK SMILES IDX 65 50 45 51 64 52 46 53 49 54 63 55 82 56 47 57 48 58 62 60
REMARK SMILES IDX 83 61 50 62 34 63 35 64 43 65 36 66 42 67 44 68 41 69 37 70
REMARK SMILES IDX 38 71 39 72 40 73 66 74 67 75 75 76 68 77 74 78 76 79 73 80
REMARK SMILES IDX 69 81 70 82 71 83 72 84 51 85 52 86 60 87 53 88 59 89 61 90
REMARK SMILES IDX 58 91 54 92 55 93 56 94 57 95
REMARK H PARENT 18 6 6 15 13 23 13 24 13 25 22 29 81 48 49 59
REMARK Flexibility Score: inf
ROOT
ATOM      1  C   UNL A   1      34.047  29.983  26.541  1.00  0.00     0.042 C 
ENDROOT
BRANCH   1   2
ATOM      2  C   UNL A   1      33.366  29.021  25.575  1.00  0.00     0.118 C 
BRANCH   2   3
ATOM      3  N   UNL A   1      32.204  28.316  26.075  1.00  0.00    -0.352 N 
ATOM      4  C   UNL A   1      31.624  27.117  25.744  1.00  0.00     0.256 C 
ATOM      5  O   UNL A   1      30.759  26.697  26.517  1.00  0.00    -0.269 OA
ATOM      6  H   UNL A   1      31.737  28.792  26.799  1.00  0.00     0.163 HD
BRANCH   4   7
ATOM      7  C   UNL A   1      31.877  26.439  24.477  1.00  0.00     0.097 A 
ATOM      8  C   UNL A   1      33.662  24.515  24.852  1.00  0.00     0.069 C 
ATOM      9  C   UNL A   1      32.867  25.478  24.034  1.00  0.00     0.066 A 
ATOM     10  N   UNL A   1      32.978  25.331  22.707  1.00  0.00    -0.195 NA
ATOM     11  S   UNL A   1      31.671  26.067  21.999  1.00  0.00    -0.017 S 
ATOM     12  C   UNL A   1      30.902  26.404  23.481  1.00  0.00     0.129 A 
BRANCH  12  13
ATOM     13  N   UNL A   1      29.557  26.682  23.563  1.00  0.00    -0.315 N 
ATOM     14  C   UNL A   1      28.913  27.853  23.242  1.00  0.00     0.232 C 
ATOM     15  H   UNL A   1      28.984  25.953  23.891  1.00  0.00     0.170 HD
ATOM     16  O   UNL A   1      27.683  27.867  23.379  1.00  0.00    -0.274 OA
BRANCH  14  17
ATOM     17  C   UNL A   1      29.656  29.116  22.741  1.00  0.00     0.107 C 
ATOM     18  C   UNL A   1      29.889  30.109  23.861  1.00  0.00    -0.012 C 
ATOM     19  C   UNL A   1      28.926  30.026  21.736  1.00  0.00     0.087 C 
ATOM     20  C   UNL A   1      29.160  31.226  23.730  1.00  0.00     0.033 C 
ATOM     21  C   UNL A   1      28.287  31.161  22.531  1.00  0.00     0.205 C 
BRANCH  21  22
ATOM     22  N   UNL A   1      28.257  32.380  21.747  1.00  0.00    -0.352 N 
ATOM     23  H   UNL A   1      27.476  32.961  22.051  1.00  0.00     0.345 HD
ATOM     24  H   UNL A   1      28.144  32.148  20.760  1.00  0.00     0.345 HD
ATOM     25  H   UNL A   1      29.131  32.891  21.878  1.00  0.00     0.345 HD
ENDBRANCH  21  22
ENDBRANCH  14  17
ENDBRANCH  12  13
ENDBRANCH   4   7
ENDBRANCH   2   3
ENDBRANCH   1   2
BRANCH   1  26
ATOM     26  C   UNL A   1      34.834  29.261  27.624  1.00  0.00     0.118 C 
BRANCH  26  27
ATOM     27  N   UNL A   1      35.166  30.131  28.755  1.00  0.00    -0.352 N 
ATOM     28  C   UNL A   1      36.314  30.141  29.521  1.00  0.00     0.251 C 
ATOM     29  H   UNL A   1      34.482  30.795  28.999  1.00  0.00     0.163 HD
ATOM     30  O   UNL A   1      36.343  30.754  30.584  1.00  0.00    -0.269 OA
BRANCH  28  31
ATOM     31  C   UNL A   1      37.472  29.361  29.058  1.00  0.00     0.039 A 
ATOM     32  C   UNL A   1      38.168  29.763  27.919  1.00  0.00     0.014 A 
ATOM     33  C   UNL A   1      37.937  28.312  29.851  1.00  0.00     0.014 A 
ATOM     34  C   UNL A   1      39.411  29.192  27.661  1.00  0.00     0.010 A 
ATOM     35  C   UNL A   1      39.216  27.829  29.657  1.00  0.00     0.010 A 
ATOM     36  C   UNL A   1      39.965  28.267  28.566  1.00  0.00    -0.014 A 
BRANCH  36  37
ATOM     37  C   UNL A   1      41.395  27.941  28.471  1.00  0.00     0.031 A 
ATOM     38  C   UNL A   1      41.682  26.726  27.659  1.00  0.00     0.074 A 
ATOM     39  C   UNL A   1      42.415  28.729  28.876  1.00  0.00     0.049 A 
ATOM     40  N   UNL A   1      42.032  25.559  28.089  1.00  0.00    -0.248 NA
ATOM     41  C   UNL A   1      41.371  26.753  26.221  1.00  0.00     0.031 C 
ATOM     42  C   UNL A   1      42.323  30.092  29.407  1.00  0.00     0.029 A 
ATOM     43  N   UNL A   1      43.766  28.516  28.814  1.00  0.00    -0.354 N 
ATOM     44  C   UNL A   1      42.260  24.785  26.953  1.00  0.00     0.074 A 
ATOM     45  C   UNL A   1      41.616  25.486  25.877  1.00  0.00     0.031 C 
ATOM     46  C   UNL A   1      43.547  30.662  29.411  1.00  0.00     0.029 A 
ATOM     47  C   UNL A   1      44.532  29.651  29.066  1.00  0.00     0.049 A 
ATOM     48  H   UNL A   1      44.160  27.637  28.611  1.00  0.00     0.167 HD
ATOM     49  C   UNL A   1      43.204  23.801  26.971  1.00  0.00     0.034 A 
ATOM     50  C   UNL A   1      45.883  29.780  29.035  1.00  0.00     0.034 A 
ATOM     51  C   UNL A   1      43.631  23.551  28.331  1.00  0.00     0.049 A 
ATOM     52  C   UNL A   1      46.460  28.441  29.276  1.00  0.00     0.074 A 
ATOM     53  C   UNL A   1      43.104  22.961  29.458  1.00  0.00     0.029 A 
ATOM     54  N   UNL A   1      44.703  24.311  28.735  1.00  0.00    -0.354 N 
ATOM     55  N   UNL A   1      46.307  27.799  30.401  1.00  0.00    -0.248 NA
ATOM     56  C   UNL A   1      46.913  27.624  28.157  1.00  0.00     0.031 C 
ATOM     57  C   UNL A   1      43.747  23.590  30.567  1.00  0.00     0.029 A 
ATOM     58  C   UNL A   1      44.683  24.508  30.091  1.00  0.00     0.049 A 
ATOM     59  H   UNL A   1      45.393  24.668  28.130  1.00  0.00     0.167 HD
ATOM     60  C   UNL A   1      46.202  26.474  30.033  1.00  0.00     0.074 A 
ATOM     61  C   UNL A   1      46.768  26.408  28.692  1.00  0.00     0.031 C 
ATOM     62  C   UNL A   1      45.375  25.627  30.710  1.00  0.00     0.034 A 
BRANCH  49  63
ATOM     63  C   UNL A   1      44.103  23.399  25.806  1.00  0.00     0.023 A 
ATOM     64  C   UNL A   1      44.028  22.050  25.386  1.00  0.00     0.031 A 
ATOM     65  C   UNL A   1      45.199  24.126  25.294  1.00  0.00     0.131 A 
ATOM     66  C   UNL A   1      45.059  21.457  24.635  1.00  0.00     0.055 A 
ATOM     67  C   UNL A   1      46.201  23.542  24.508  1.00  0.00     0.041 A 
ATOM     68  F   UNL A   1      45.412  25.414  25.569  1.00  0.00    -0.206 F 
ATOM     69  C   UNL A   1      46.155  22.192  24.204  1.00  0.00     0.022 A 
BRANCH  66  70
ATOM     70  S   UNL A   1      45.019  19.663  24.376  1.00  0.00     0.124 S 
ATOM     71  O   UNL A   1      46.421  19.307  24.566  1.00  0.00    -0.237 OA
ATOM     72  O   UNL A   1      44.093  19.230  25.418  1.00  0.00    -0.237 OA
ATOM     73  O   UNL A   1      44.521  19.532  23.009  1.00  0.00    -0.744 OA
ENDBRANCH  66  70
ENDBRANCH  49  63
BRANCH  50  74
ATOM     74  C   UNL A   1      46.688  30.975  28.676  1.00  0.00     0.023 A 
ATOM     75  C   UNL A   1      46.384  31.808  27.581  1.00  0.00     0.031 A 
ATOM     76  C   UNL A   1      47.655  31.448  29.591  1.00  0.00     0.131 A 
ATOM     77  C   UNL A   1      47.026  33.062  27.444  1.00  0.00     0.055 A 
ATOM     78  C   UNL A   1      48.287  32.685  29.448  1.00  0.00     0.041 A 
ATOM     79  F   UNL A   1      47.952  30.756  30.702  1.00  0.00    -0.206 F 
ATOM     80  C   UNL A   1      47.964  33.504  28.378  1.00  0.00     0.022 A 
BRANCH  77  81
ATOM     81  S   UNL A   1      46.567  34.189  26.086  1.00  0.00     0.124 S 
ATOM     82  O   UNL A   1      47.844  34.414  25.421  1.00  0.00    -0.237 OA
ATOM     83  O   UNL A   1      45.580  33.406  25.351  1.00  0.00    -0.237 OA
ATOM     84  O   UNL A   1      46.023  35.357  26.781  1.00  0.00    -0.744 OA
ENDBRANCH  77  81
ENDBRANCH  50  74
BRANCH  62  85
ATOM     85  C   UNL A   1      45.059  25.961  32.149  1.00  0.00     0.023 A 
ATOM     86  C   UNL A   1      43.888  26.609  32.599  1.00  0.00     0.031 A 
ATOM     87  C   UNL A   1      45.997  25.560  33.115  1.00  0.00     0.131 A 
ATOM     88  C   UNL A   1      43.700  26.842  33.975  1.00  0.00     0.055 A 
ATOM     89  C   UNL A   1      45.797  25.770  34.478  1.00  0.00     0.041 A 
ATOM     90  F   UNL A   1      47.126  24.929  32.749  1.00  0.00    -0.206 F 
ATOM     91  C   UNL A   1      44.650  26.420  34.913  1.00  0.00     0.022 A 
BRANCH  88  92
ATOM     92  S   UNL A   1      42.226  27.728  34.574  1.00  0.00     0.124 S 
ATOM     93  O   UNL A   1      41.871  28.598  33.458  1.00  0.00    -0.237 OA
ATOM     94  O   UNL A   1      41.295  26.638  34.854  1.00  0.00    -0.237 OA
ATOM     95  O   UNL A   1      42.711  28.431  35.763  1.00  0.00    -0.744 OA
ENDBRANCH  88  92
ENDBRANCH  62  85
ENDBRANCH  36  37
ENDBRANCH  28  31
ENDBRANCH  26  27
ENDBRANCH   1  26
TORSDOF 16
ENDMDL
