MODEL 1
REMARK VINA RESULT:     -12.3      0.000      0.000
REMARK SMILES C[C@@H]1CN(c2cc(C(=O)NCCCNC(=O)c3ccc(-c4c5nc(c(-c6cc(S(=O)(=O)[O-])ccc6F)c6ccc([nH]6)c(-c6cc(S(=O)(=O)[O-])ccc6F)c6nc(c(-c7cc(S(=O)(=O)[O-])ccc7F)c7ccc4[nH]7)C=C6)C=C5)cc3)c(F)cc2F)S(=O)(=O)C1
REMARK SMILES IDX 13 1 12 2 11 3 10 4 8 5 9 6 7 8 5 9 6 10 83 11 82 12 84 13
REMARK SMILES IDX 80 14 81 15 4 16 1 17 2 18 3 19 88 20 85 21 86 22 87 23
REMARK SMILES IDX 14 24 15 25 16 27 17 28 18 29 79 30 19 31 78 32 20 33 21 34
REMARK SMILES IDX 22 35 72 36 23 37 77 38 71 39 73 40 24 41 76 42 70 43 69 44
REMARK SMILES IDX 25 46 57 47 37 48 56 49 38 50 41 51 55 52 74 53 39 54 40 55
REMARK SMILES IDX 54 57 75 58 42 59 26 60 27 61 35 62 28 63 34 64 36 65 33 66
REMARK SMILES IDX 29 67 30 68 31 69 32 70 58 71 59 72 67 73 60 74 66 75 68 76
REMARK SMILES IDX 65 77 61 78 62 79 63 80 64 81 43 82 44 83 52 84 45 85 51 86
REMARK SMILES IDX 53 87 50 88 46 89 47 90 48 91 49 92
REMARK H PARENT 10 7 14 26 73 45 41 56
REMARK Flexibility Score: inf
ROOT
ATOM      1  C   UNL A   1      32.951  28.872  25.768  1.00  0.00     0.118 C 
ENDROOT
BRANCH   1   2
ATOM      2  C   UNL A   1      34.138  28.722  24.819  1.00  0.00     0.042 C 
BRANCH   2   3
ATOM      3  C   UNL A   1      33.864  29.248  23.410  1.00  0.00     0.118 C 
BRANCH   3   4
ATOM      4  N   UNL A   1      33.956  28.179  22.436  1.00  0.00    -0.352 N 
ATOM      5  C   UNL A   1      33.123  27.150  22.103  1.00  0.00     0.254 C 
ATOM      6  O   UNL A   1      33.521  26.389  21.217  1.00  0.00    -0.269 OA
ATOM      7  H   UNL A   1      34.786  28.198  21.909  1.00  0.00     0.163 HD
BRANCH   5   8
ATOM      8  C   UNL A   1      31.775  26.904  22.676  1.00  0.00     0.077 A 
ATOM      9  C   UNL A   1      30.460  25.341  24.032  1.00  0.00     0.088 A 
ATOM     10  C   UNL A   1      31.637  25.680  23.360  1.00  0.00     0.047 A 
ATOM     11  C   UNL A   1      29.409  26.259  24.055  1.00  0.00     0.150 A 
ATOM     12  C   UNL A   1      29.506  27.458  23.361  1.00  0.00     0.081 A 
ATOM     13  F   UNL A   1      28.327  26.045  24.818  1.00  0.00    -0.205 F 
ATOM     14  C   UNL A   1      30.691  27.785  22.700  1.00  0.00     0.139 A 
ATOM     15  F   UNL A   1      30.755  29.012  22.176  1.00  0.00    -0.206 F 
BRANCH   9  16
ATOM     16  N   UNL A   1      30.511  24.150  24.831  1.00  0.00    -0.267 N 
ATOM     17  C   UNL A   1      32.829  21.151  24.976  1.00  0.00     0.011 C 
ATOM     18  C   UNL A   1      31.741  22.127  25.392  1.00  0.00     0.023 C 
ATOM     19  C   UNL A   1      31.231  22.988  24.229  1.00  0.00     0.140 C 
ATOM     20  C   UNL A   1      32.201  23.126  26.452  1.00  0.00     0.165 C 
ATOM     21  S   UNL A   1      30.854  24.295  26.506  1.00  0.00     0.235 S 
ATOM     22  O   UNL A   1      31.348  25.611  26.848  1.00  0.00    -0.206 OA
ATOM     23  O   UNL A   1      29.767  23.679  27.231  1.00  0.00    -0.206 OA
ENDBRANCH   9  16
ENDBRANCH   5   8
ENDBRANCH   3   4
ENDBRANCH   2   3
ENDBRANCH   1   2
BRANCH   1  24
ATOM     24  N   UNL A   1      32.658  30.270  26.044  1.00  0.00    -0.352 N 
ATOM     25  C   UNL A   1      33.207  31.135  26.954  1.00  0.00     0.251 C 
ATOM     26  H   UNL A   1      31.949  30.660  25.483  1.00  0.00     0.163 HD
ATOM     27  O   UNL A   1      32.603  32.173  27.212  1.00  0.00    -0.269 OA
BRANCH  25  28
ATOM     28  C   UNL A   1      34.497  30.841  27.617  1.00  0.00     0.039 A 
ATOM     29  C   UNL A   1      34.636  29.621  28.284  1.00  0.00     0.014 A 
ATOM     30  C   UNL A   1      35.537  31.776  27.657  1.00  0.00     0.014 A 
ATOM     31  C   UNL A   1      35.820  29.330  28.961  1.00  0.00     0.010 A 
ATOM     32  C   UNL A   1      36.751  31.448  28.260  1.00  0.00     0.010 A 
ATOM     33  C   UNL A   1      36.900  30.230  28.934  1.00  0.00    -0.014 A 
BRANCH  33  34
ATOM     34  C   UNL A   1      38.176  29.886  29.612  1.00  0.00     0.031 A 
ATOM     35  C   UNL A   1      38.497  30.443  30.975  1.00  0.00     0.074 A 
ATOM     36  C   UNL A   1      39.049  29.071  28.988  1.00  0.00     0.049 A 
ATOM     37  N   UNL A   1      39.539  30.219  31.733  1.00  0.00    -0.248 NA
ATOM     38  C   UNL A   1      37.534  31.396  31.547  1.00  0.00     0.031 C 
ATOM     39  C   UNL A   1      38.867  28.517  27.643  1.00  0.00     0.029 A 
ATOM     40  N   UNL A   1      40.251  28.553  29.398  1.00  0.00    -0.354 N 
ATOM     41  C   UNL A   1      39.359  31.002  32.870  1.00  0.00     0.074 A 
ATOM     42  C   UNL A   1      38.144  31.761  32.664  1.00  0.00     0.031 C 
ATOM     43  C   UNL A   1      39.890  27.695  27.363  1.00  0.00     0.029 A 
ATOM     44  C   UNL A   1      40.824  27.699  28.483  1.00  0.00     0.049 A 
ATOM     45  H   UNL A   1      40.663  28.770  30.264  1.00  0.00     0.167 HD
ATOM     46  C   UNL A   1      40.121  31.061  33.991  1.00  0.00     0.034 A 
ATOM     47  C   UNL A   1      41.973  26.997  28.541  1.00  0.00     0.034 A 
ATOM     48  C   UNL A   1      41.330  30.292  34.174  1.00  0.00     0.049 A 
ATOM     49  C   UNL A   1      42.807  27.087  29.793  1.00  0.00     0.074 A 
ATOM     50  C   UNL A   1      42.158  30.236  35.282  1.00  0.00     0.029 A 
ATOM     51  N   UNL A   1      41.891  29.449  33.222  1.00  0.00    -0.354 N 
ATOM     52  N   UNL A   1      42.589  27.785  30.885  1.00  0.00    -0.248 NA
ATOM     53  C   UNL A   1      44.031  26.281  29.826  1.00  0.00     0.031 C 
ATOM     54  C   UNL A   1      43.256  29.426  34.972  1.00  0.00     0.029 A 
ATOM     55  C   UNL A   1      43.071  28.899  33.703  1.00  0.00     0.049 A 
ATOM     56  H   UNL A   1      41.508  29.270  32.333  1.00  0.00     0.167 HD
ATOM     57  C   UNL A   1      43.638  27.476  31.747  1.00  0.00     0.074 A 
ATOM     58  C   UNL A   1      44.464  26.506  31.057  1.00  0.00     0.031 C 
ATOM     59  C   UNL A   1      43.897  27.949  32.993  1.00  0.00     0.034 A 
BRANCH  46  60
ATOM     60  C   UNL A   1      39.681  32.005  35.088  1.00  0.00     0.023 A 
ATOM     61  C   UNL A   1      38.983  31.550  36.222  1.00  0.00     0.031 A 
ATOM     62  C   UNL A   1      39.943  33.383  34.991  1.00  0.00     0.131 A 
ATOM     63  C   UNL A   1      38.507  32.469  37.169  1.00  0.00     0.055 A 
ATOM     64  C   UNL A   1      39.543  34.282  35.983  1.00  0.00     0.041 A 
ATOM     65  F   UNL A   1      40.585  33.885  33.924  1.00  0.00    -0.206 F 
ATOM     66  C   UNL A   1      38.807  33.829  37.073  1.00  0.00     0.022 A 
BRANCH  63  67
ATOM     67  S   UNL A   1      37.363  31.880  38.449  1.00  0.00     0.124 S 
ATOM     68  O   UNL A   1      36.252  32.817  38.304  1.00  0.00    -0.237 OA
ATOM     69  O   UNL A   1      37.102  30.508  38.032  1.00  0.00    -0.237 OA
ATOM     70  O   UNL A   1      38.130  32.022  39.685  1.00  0.00    -0.744 OA
ENDBRANCH  63  67
ENDBRANCH  46  60
BRANCH  47  71
ATOM     71  C   UNL A   1      42.401  26.147  27.392  1.00  0.00     0.023 A 
ATOM     72  C   UNL A   1      42.025  24.796  27.307  1.00  0.00     0.031 A 
ATOM     73  C   UNL A   1      43.233  26.663  26.382  1.00  0.00     0.131 A 
ATOM     74  C   UNL A   1      42.524  23.995  26.268  1.00  0.00     0.055 A 
ATOM     75  C   UNL A   1      43.675  25.878  25.316  1.00  0.00     0.041 A 
ATOM     76  F   UNL A   1      43.620  27.948  26.411  1.00  0.00    -0.206 F 
ATOM     77  C   UNL A   1      43.333  24.530  25.263  1.00  0.00     0.022 A 
BRANCH  74  78
ATOM     78  S   UNL A   1      42.183  22.214  26.304  1.00  0.00     0.124 S 
ATOM     79  O   UNL A   1      42.636  21.851  27.642  1.00  0.00    -0.237 OA
ATOM     80  O   UNL A   1      40.741  22.178  26.083  1.00  0.00    -0.237 OA
ATOM     81  O   UNL A   1      42.993  21.691  25.207  1.00  0.00    -0.744 OA
ENDBRANCH  74  78
ENDBRANCH  47  71
BRANCH  59  82
ATOM     82  C   UNL A   1      45.114  27.386  33.693  1.00  0.00     0.023 A 
ATOM     83  C   UNL A   1      45.035  26.239  34.501  1.00  0.00     0.031 A 
ATOM     84  C   UNL A   1      46.355  28.038  33.594  1.00  0.00     0.131 A 
ATOM     85  C   UNL A   1      46.149  25.832  35.250  1.00  0.00     0.055 A 
ATOM     86  C   UNL A   1      47.483  27.580  34.278  1.00  0.00     0.041 A 
ATOM     87  F   UNL A   1      46.492  29.141  32.842  1.00  0.00    -0.206 F 
ATOM     88  C   UNL A   1      47.378  26.485  35.129  1.00  0.00     0.022 A 
BRANCH  85  89
ATOM     89  S   UNL A   1      45.926  24.537  36.500  1.00  0.00     0.124 S 
ATOM     90  O   UNL A   1      45.660  23.363  35.675  1.00  0.00    -0.237 OA
ATOM     91  O   UNL A   1      47.210  24.549  37.193  1.00  0.00    -0.237 OA
ATOM     92  O   UNL A   1      44.790  25.013  37.288  1.00  0.00    -0.744 OA
ENDBRANCH  85  89
ENDBRANCH  59  82
ENDBRANCH  33  34
ENDBRANCH  25  28
ENDBRANCH   1  24
TORSDOF 14
ENDMDL
MODEL 2
REMARK VINA RESULT:     -12.3      1.358      1.637
REMARK SMILES C[C@@H]1CN(c2cc(C(=O)NCCCNC(=O)c3ccc(-c4c5nc(c(-c6cc(S(=O)(=O)[O-])ccc6F)c6ccc([nH]6)c(-c6cc(S(=O)(=O)[O-])ccc6F)c6nc(c(-c7cc(S(=O)(=O)[O-])ccc7F)c7ccc4[nH]7)C=C6)C=C5)cc3)c(F)cc2F)S(=O)(=O)C1
REMARK SMILES IDX 13 1 12 2 11 3 10 4 8 5 9 6 7 8 5 9 6 10 83 11 82 12 84 13
REMARK SMILES IDX 80 14 81 15 4 16 1 17 2 18 3 19 88 20 85 21 86 22 87 23
REMARK SMILES IDX 14 24 15 25 16 27 17 28 18 29 79 30 19 31 78 32 20 33 21 34
REMARK SMILES IDX 22 35 72 36 23 37 77 38 71 39 73 40 24 41 76 42 70 43 69 44
REMARK SMILES IDX 25 46 57 47 37 48 56 49 38 50 41 51 55 52 74 53 39 54 40 55
REMARK SMILES IDX 54 57 75 58 42 59 26 60 27 61 35 62 28 63 34 64 36 65 33 66
REMARK SMILES IDX 29 67 30 68 31 69 32 70 58 71 59 72 67 73 60 74 66 75 68 76
REMARK SMILES IDX 65 77 61 78 62 79 63 80 64 81 43 82 44 83 52 84 45 85 51 86
REMARK SMILES IDX 53 87 50 88 46 89 47 90 48 91 49 92
REMARK H PARENT 10 7 14 26 73 45 41 56
REMARK Flexibility Score: inf
ROOT
ATOM      1  C   UNL A   1      33.135  28.802  25.709  1.00  0.00     0.118 C 
ENDROOT
BRANCH   1   2
ATOM      2  C   UNL A   1      34.233  28.637  24.660  1.00  0.00     0.042 C 
BRANCH   2   3
ATOM      3  C   UNL A   1      33.845  29.170  23.280  1.00  0.00     0.118 C 
BRANCH   3   4
ATOM      4  N   UNL A   1      33.875  28.109  22.294  1.00  0.00    -0.352 N 
ATOM      5  C   UNL A   1      33.023  27.084  22.003  1.00  0.00     0.254 C 
ATOM      6  O   UNL A   1      33.364  26.330  21.088  1.00  0.00    -0.269 OA
ATOM      7  H   UNL A   1      34.672  28.133  21.716  1.00  0.00     0.163 HD
BRANCH   5   8
ATOM      8  C   UNL A   1      31.712  26.832  22.656  1.00  0.00     0.077 A 
ATOM      9  C   UNL A   1      30.481  25.253  24.070  1.00  0.00     0.088 A 
ATOM     10  C   UNL A   1      31.615  25.599  23.330  1.00  0.00     0.047 A 
ATOM     11  C   UNL A   1      29.436  26.172  24.171  1.00  0.00     0.150 A 
ATOM     12  C   UNL A   1      29.492  27.382  23.490  1.00  0.00     0.081 A 
ATOM     13  F   UNL A   1      28.403  25.950  24.998  1.00  0.00    -0.205 F 
ATOM     14  C   UNL A   1      30.635  27.715  22.760  1.00  0.00     0.139 A 
ATOM     15  F   UNL A   1      30.670  28.949  22.251  1.00  0.00    -0.206 F 
BRANCH   9  16
ATOM     16  N   UNL A   1      30.578  24.051  24.847  1.00  0.00    -0.267 N 
ATOM     17  C   UNL A   1      32.981  21.116  24.904  1.00  0.00     0.011 C 
ATOM     18  C   UNL A   1      31.873  22.054  25.355  1.00  0.00     0.023 C 
ATOM     19  C   UNL A   1      31.320  22.920  24.215  1.00  0.00     0.140 C 
ATOM     20  C   UNL A   1      32.323  23.048  26.423  1.00  0.00     0.165 C 
ATOM     21  S   UNL A   1      30.945  24.178  26.519  1.00  0.00     0.235 S 
ATOM     22  O   UNL A   1      31.408  25.501  26.875  1.00  0.00    -0.206 OA
ATOM     23  O   UNL A   1      29.888  23.519  27.251  1.00  0.00    -0.206 OA
ENDBRANCH   9  16
ENDBRANCH   5   8
ENDBRANCH   3   4
ENDBRANCH   2   3
ENDBRANCH   1   2
BRANCH   1  24
ATOM     24  N   UNL A   1      32.822  30.203  25.941  1.00  0.00    -0.352 N 
ATOM     25  C   UNL A   1      33.307  31.086  26.870  1.00  0.00     0.251 C 
ATOM     26  H   UNL A   1      32.151  30.581  25.328  1.00  0.00     0.163 HD
ATOM     27  O   UNL A   1      32.685  32.126  27.070  1.00  0.00    -0.269 OA
BRANCH  25  28
ATOM     28  C   UNL A   1      34.552  30.807  27.622  1.00  0.00     0.039 A 
ATOM     29  C   UNL A   1      34.650  29.598  28.317  1.00  0.00     0.014 A 
ATOM     30  C   UNL A   1      35.584  31.746  27.716  1.00  0.00     0.014 A 
ATOM     31  C   UNL A   1      35.787  29.322  29.076  1.00  0.00     0.010 A 
ATOM     32  C   UNL A   1      36.756  31.433  28.403  1.00  0.00     0.010 A 
ATOM     33  C   UNL A   1      36.864  30.225  29.105  1.00  0.00    -0.014 A 
BRANCH  33  34
ATOM     34  C   UNL A   1      38.093  29.898  29.872  1.00  0.00     0.031 A 
ATOM     35  C   UNL A   1      38.316  30.469  31.248  1.00  0.00     0.074 A 
ATOM     36  C   UNL A   1      39.012  29.084  29.316  1.00  0.00     0.049 A 
ATOM     37  N   UNL A   1      39.306  30.260  32.078  1.00  0.00    -0.248 NA
ATOM     38  C   UNL A   1      37.310  31.419  31.745  1.00  0.00     0.031 C 
ATOM     39  C   UNL A   1      38.926  28.517  27.968  1.00  0.00     0.029 A 
ATOM     40  N   UNL A   1      40.187  28.578  29.812  1.00  0.00    -0.354 N 
ATOM     41  C   UNL A   1      39.043  31.051  33.193  1.00  0.00     0.074 A 
ATOM     42  C   UNL A   1      37.840  31.799  32.898  1.00  0.00     0.031 C 
ATOM     43  C   UNL A   1      39.971  27.700  27.765  1.00  0.00     0.029 A 
ATOM     44  C   UNL A   1      40.827  27.721  28.946  1.00  0.00     0.049 A 
ATOM     45  H   UNL A   1      40.538  28.807  30.702  1.00  0.00     0.167 HD
ATOM     46  C   UNL A   1      39.727  31.125  34.362  1.00  0.00     0.034 A 
ATOM     47  C   UNL A   1      41.974  27.028  29.088  1.00  0.00     0.034 A 
ATOM     48  C   UNL A   1      40.926  30.367  34.634  1.00  0.00     0.049 A 
ATOM     49  C   UNL A   1      42.721  27.136  30.393  1.00  0.00     0.074 A 
ATOM     50  C   UNL A   1      41.677  30.328  35.797  1.00  0.00     0.029 A 
ATOM     51  N   UNL A   1      41.557  29.521  33.730  1.00  0.00    -0.354 N 
ATOM     52  N   UNL A   1      42.423  27.841  31.461  1.00  0.00    -0.248 NA
ATOM     53  C   UNL A   1      43.945  26.339  30.517  1.00  0.00     0.031 C 
ATOM     54  C   UNL A   1      42.799  29.523  35.569  1.00  0.00     0.029 A 
ATOM     55  C   UNL A   1      42.704  28.983  34.296  1.00  0.00     0.049 A 
ATOM     56  H   UNL A   1      41.236  29.330  32.819  1.00  0.00     0.167 HD
ATOM     57  C   UNL A   1      43.414  27.548  32.396  1.00  0.00     0.074 A 
ATOM     58  C   UNL A   1      44.291  26.579  31.772  1.00  0.00     0.031 C 
ATOM     59  C   UNL A   1      43.584  28.034  33.653  1.00  0.00     0.034 A 
BRANCH  46  60
ATOM     60  C   UNL A   1      39.206  32.075  35.418  1.00  0.00     0.023 A 
ATOM     61  C   UNL A   1      39.646  33.409  35.497  1.00  0.00     0.031 A 
ATOM     62  C   UNL A   1      38.271  31.638  36.373  1.00  0.00     0.131 A 
ATOM     63  C   UNL A   1      39.213  34.231  36.548  1.00  0.00     0.055 A 
ATOM     64  C   UNL A   1      37.775  32.489  37.364  1.00  0.00     0.041 A 
ATOM     65  F   UNL A   1      37.827  30.371  36.367  1.00  0.00    -0.206 F 
ATOM     66  C   UNL A   1      38.259  33.790  37.466  1.00  0.00     0.022 A 
BRANCH  63  67
ATOM     67  S   UNL A   1      40.027  35.835  36.786  1.00  0.00     0.124 S 
ATOM     68  O   UNL A   1      39.280  36.380  37.916  1.00  0.00    -0.237 OA
ATOM     69  O   UNL A   1      41.407  35.451  37.058  1.00  0.00    -0.237 OA
ATOM     70  O   UNL A   1      39.810  36.522  35.514  1.00  0.00    -0.744 OA
ENDBRANCH  63  67
ENDBRANCH  46  60
BRANCH  47  71
ATOM     71  C   UNL A   1      42.486  26.172  27.979  1.00  0.00     0.023 A 
ATOM     72  C   UNL A   1      41.955  24.893  27.743  1.00  0.00     0.031 A 
ATOM     73  C   UNL A   1      43.548  26.603  27.164  1.00  0.00     0.131 A 
ATOM     74  C   UNL A   1      42.521  24.070  26.758  1.00  0.00     0.055 A 
ATOM     75  C   UNL A   1      44.067  25.806  26.143  1.00  0.00     0.041 A 
ATOM     76  F   UNL A   1      44.092  27.817  27.342  1.00  0.00    -0.206 F 
ATOM     77  C   UNL A   1      43.563  24.524  25.945  1.00  0.00     0.022 A 
BRANCH  74  78
ATOM     78  S   UNL A   1      41.944  22.356  26.620  1.00  0.00     0.124 S 
ATOM     79  O   UNL A   1      40.497  22.532  26.585  1.00  0.00    -0.237 OA
ATOM     80  O   UNL A   1      42.569  21.927  25.374  1.00  0.00    -0.237 OA
ATOM     81  O   UNL A   1      42.469  21.724  27.828  1.00  0.00    -0.744 OA
ENDBRANCH  74  78
ENDBRANCH  47  71
BRANCH  59  82
ATOM     82  C   UNL A   1      44.754  27.487  34.439  1.00  0.00     0.023 A 
ATOM     83  C   UNL A   1      44.667  26.271  35.140  1.00  0.00     0.031 A 
ATOM     84  C   UNL A   1      45.951  28.217  34.532  1.00  0.00     0.131 A 
ATOM     85  C   UNL A   1      45.720  25.870  35.976  1.00  0.00     0.055 A 
ATOM     86  C   UNL A   1      47.028  27.770  35.300  1.00  0.00     0.041 A 
ATOM     87  F   UNL A   1      46.093  29.387  33.888  1.00  0.00    -0.206 F 
ATOM     88  C   UNL A   1      46.907  26.602  36.045  1.00  0.00     0.022 A 
BRANCH  85  89
ATOM     89  S   UNL A   1      45.453  24.461  37.087  1.00  0.00     0.124 S 
ATOM     90  O   UNL A   1      46.820  24.090  37.438  1.00  0.00    -0.237 OA
ATOM     91  O   UNL A   1      44.660  25.056  38.158  1.00  0.00    -0.237 OA
ATOM     92  O   UNL A   1      44.742  23.495  36.251  1.00  0.00    -0.744 OA
ENDBRANCH  85  89
ENDBRANCH  59  82
ENDBRANCH  33  34
ENDBRANCH  25  28
ENDBRANCH   1  24
TORSDOF 14
ENDMDL
MODEL 3
REMARK VINA RESULT:     -12.2      1.882      2.260
REMARK SMILES C[C@@H]1CN(c2cc(C(=O)NCCCNC(=O)c3ccc(-c4c5nc(c(-c6cc(S(=O)(=O)[O-])ccc6F)c6ccc([nH]6)c(-c6cc(S(=O)(=O)[O-])ccc6F)c6nc(c(-c7cc(S(=O)(=O)[O-])ccc7F)c7ccc4[nH]7)C=C6)C=C5)cc3)c(F)cc2F)S(=O)(=O)C1
REMARK SMILES IDX 13 1 12 2 11 3 10 4 8 5 9 6 7 8 5 9 6 10 83 11 82 12 84 13
REMARK SMILES IDX 80 14 81 15 4 16 1 17 2 18 3 19 88 20 85 21 86 22 87 23
REMARK SMILES IDX 14 24 15 25 16 27 17 28 18 29 79 30 19 31 78 32 20 33 21 34
REMARK SMILES IDX 22 35 72 36 23 37 77 38 71 39 73 40 24 41 76 42 70 43 69 44
REMARK SMILES IDX 25 46 57 47 37 48 56 49 38 50 41 51 55 52 74 53 39 54 40 55
REMARK SMILES IDX 54 57 75 58 42 59 26 60 27 61 35 62 28 63 34 64 36 65 33 66
REMARK SMILES IDX 29 67 30 68 31 69 32 70 58 71 59 72 67 73 60 74 66 75 68 76
REMARK SMILES IDX 65 77 61 78 62 79 63 80 64 81 43 82 44 83 52 84 45 85 51 86
REMARK SMILES IDX 53 87 50 88 46 89 47 90 48 91 49 92
REMARK H PARENT 10 7 14 26 73 45 41 56
REMARK Flexibility Score: inf
ROOT
ATOM      1  C   UNL A   1      31.973  30.251  26.583  1.00  0.00     0.118 C 
ENDROOT
BRANCH   1   2
ATOM      2  C   UNL A   1      32.265  29.714  25.183  1.00  0.00     0.042 C 
BRANCH   2   3
ATOM      3  C   UNL A   1      33.604  28.985  25.076  1.00  0.00     0.118 C 
BRANCH   3   4
ATOM      4  N   UNL A   1      34.035  28.904  23.695  1.00  0.00    -0.352 N 
ATOM      5  C   UNL A   1      33.741  28.043  22.678  1.00  0.00     0.254 C 
ATOM      6  O   UNL A   1      34.307  28.253  21.602  1.00  0.00    -0.269 OA
ATOM      7  H   UNL A   1      34.667  29.614  23.438  1.00  0.00     0.163 HD
BRANCH   5   8
ATOM      8  C   UNL A   1      32.772  26.919  22.744  1.00  0.00     0.077 A 
ATOM      9  C   UNL A   1      32.551  24.529  23.241  1.00  0.00     0.088 A 
ATOM     10  C   UNL A   1      33.339  25.667  23.053  1.00  0.00     0.047 A 
ATOM     11  C   UNL A   1      31.163  24.649  23.156  1.00  0.00     0.150 A 
ATOM     12  C   UNL A   1      30.580  25.864  22.821  1.00  0.00     0.081 A 
ATOM     13  F   UNL A   1      30.364  23.623  23.486  1.00  0.00    -0.205 F 
ATOM     14  C   UNL A   1      31.382  26.993  22.642  1.00  0.00     0.139 A 
ATOM     15  F   UNL A   1      30.738  28.149  22.460  1.00  0.00    -0.206 F 
BRANCH   9  16
ATOM     16  N   UNL A   1      33.234  23.362  23.721  1.00  0.00    -0.267 N 
ATOM     17  C   UNL A   1      36.876  22.327  23.954  1.00  0.00     0.011 C 
ATOM     18  C   UNL A   1      35.374  22.305  24.191  1.00  0.00     0.023 C 
ATOM     19  C   UNL A   1      34.591  23.116  23.150  1.00  0.00     0.140 C 
ATOM     20  C   UNL A   1      34.969  22.897  25.540  1.00  0.00     0.165 C 
ATOM     21  S   UNL A   1      33.194  23.016  25.402  1.00  0.00     0.235 S 
ATOM     22  O   UNL A   1      32.707  24.137  26.176  1.00  0.00    -0.206 OA
ATOM     23  O   UNL A   1      32.651  21.687  25.563  1.00  0.00    -0.206 OA
ENDBRANCH   9  16
ENDBRANCH   5   8
ENDBRANCH   3   4
ENDBRANCH   2   3
ENDBRANCH   1   2
BRANCH   1  24
ATOM     24  N   UNL A   1      32.037  31.704  26.625  1.00  0.00    -0.352 N 
ATOM     25  C   UNL A   1      32.837  32.542  27.357  1.00  0.00     0.251 C 
ATOM     26  H   UNL A   1      31.402  32.160  26.028  1.00  0.00     0.163 HD
ATOM     27  O   UNL A   1      32.514  33.723  27.452  1.00  0.00    -0.269 OA
BRANCH  25  28
ATOM     28  C   UNL A   1      34.065  32.051  28.021  1.00  0.00     0.039 A 
ATOM     29  C   UNL A   1      35.084  32.969  28.292  1.00  0.00     0.014 A 
ATOM     30  C   UNL A   1      34.259  30.696  28.308  1.00  0.00     0.014 A 
ATOM     31  C   UNL A   1      36.275  32.535  28.873  1.00  0.00     0.010 A 
ATOM     32  C   UNL A   1      35.413  30.277  28.968  1.00  0.00     0.010 A 
ATOM     33  C   UNL A   1      36.442  31.188  29.241  1.00  0.00    -0.014 A 
BRANCH  33  34
ATOM     34  C   UNL A   1      37.693  30.745  29.909  1.00  0.00     0.031 A 
ATOM     35  C   UNL A   1      38.010  31.184  31.315  1.00  0.00     0.074 A 
ATOM     36  C   UNL A   1      38.546  29.948  29.237  1.00  0.00     0.049 A 
ATOM     37  N   UNL A   1      39.031  30.864  32.069  1.00  0.00    -0.248 NA
ATOM     38  C   UNL A   1      37.075  32.127  31.945  1.00  0.00     0.031 C 
ATOM     39  C   UNL A   1      38.366  29.504  27.851  1.00  0.00     0.029 A 
ATOM     40  N   UNL A   1      39.720  29.354  29.623  1.00  0.00    -0.354 N 
ATOM     41  C   UNL A   1      38.861  31.564  33.259  1.00  0.00     0.074 A 
ATOM     42  C   UNL A   1      37.679  32.382  33.096  1.00  0.00     0.031 C 
ATOM     43  C   UNL A   1      39.362  28.668  27.523  1.00  0.00     0.029 A 
ATOM     44  C   UNL A   1      40.277  28.551  28.653  1.00  0.00     0.049 A 
ATOM     45  H   UNL A   1      40.126  29.489  30.509  1.00  0.00     0.167 HD
ATOM     46  C   UNL A   1      39.606  31.508  34.392  1.00  0.00     0.034 A 
ATOM     47  C   UNL A   1      41.398  27.803  28.673  1.00  0.00     0.034 A 
ATOM     48  C   UNL A   1      40.782  30.681  34.533  1.00  0.00     0.049 A 
ATOM     49  C   UNL A   1      42.213  27.766  29.940  1.00  0.00     0.074 A 
ATOM     50  C   UNL A   1      41.588  30.510  35.645  1.00  0.00     0.029 A 
ATOM     51  N   UNL A   1      41.328  29.893  33.526  1.00  0.00    -0.354 N 
ATOM     52  N   UNL A   1      42.002  28.386  31.079  1.00  0.00    -0.248 NA
ATOM     53  C   UNL A   1      43.406  26.913  29.928  1.00  0.00     0.031 C 
ATOM     54  C   UNL A   1      42.661  29.685  35.288  1.00  0.00     0.029 A 
ATOM     55  C   UNL A   1      42.477  29.263  33.981  1.00  0.00     0.049 A 
ATOM     56  H   UNL A   1      40.953  29.797  32.621  1.00  0.00     0.167 HD
ATOM     57  C   UNL A   1      43.025  27.973  31.930  1.00  0.00     0.074 A 
ATOM     58  C   UNL A   1      43.826  27.027  31.178  1.00  0.00     0.031 C 
ATOM     59  C   UNL A   1      43.280  28.339  33.212  1.00  0.00     0.034 A 
BRANCH  46  60
ATOM     60  C   UNL A   1      39.182  32.382  35.552  1.00  0.00     0.023 A 
ATOM     61  C   UNL A   1      39.604  33.719  35.666  1.00  0.00     0.031 A 
ATOM     62  C   UNL A   1      38.360  31.868  36.571  1.00  0.00     0.131 A 
ATOM     63  C   UNL A   1      39.269  34.468  36.804  1.00  0.00     0.055 A 
ATOM     64  C   UNL A   1      37.957  32.647  37.658  1.00  0.00     0.041 A 
ATOM     65  F   UNL A   1      37.941  30.593  36.534  1.00  0.00    -0.206 F 
ATOM     66  C   UNL A   1      38.425  33.951  37.788  1.00  0.00     0.022 A 
BRANCH  63  67
ATOM     67  S   UNL A   1      40.076  36.074  37.053  1.00  0.00     0.124 S 
ATOM     68  O   UNL A   1      41.457  35.674  37.308  1.00  0.00    -0.237 OA
ATOM     69  O   UNL A   1      39.830  36.751  35.785  1.00  0.00    -0.237 OA
ATOM     70  O   UNL A   1      39.373  36.635  38.206  1.00  0.00    -0.744 OA
ENDBRANCH  63  67
ENDBRANCH  46  60
BRANCH  47  71
ATOM     71  C   UNL A   1      41.813  27.027  27.469  1.00  0.00     0.023 A 
ATOM     72  C   UNL A   1      41.616  25.639  27.394  1.00  0.00     0.031 A 
ATOM     73  C   UNL A   1      42.458  27.659  26.389  1.00  0.00     0.131 A 
ATOM     74  C   UNL A   1      42.107  24.920  26.293  1.00  0.00     0.055 A 
ATOM     75  C   UNL A   1      42.887  26.949  25.267  1.00  0.00     0.041 A 
ATOM     76  F   UNL A   1      42.668  28.984  26.405  1.00  0.00    -0.206 F 
ATOM     77  C   UNL A   1      42.726  25.567  25.221  1.00  0.00     0.022 A 
BRANCH  74  78
ATOM     78  S   UNL A   1      42.014  23.109  26.326  1.00  0.00     0.124 S 
ATOM     79  O   UNL A   1      40.579  22.886  26.452  1.00  0.00    -0.237 OA
ATOM     80  O   UNL A   1      42.610  22.752  25.043  1.00  0.00    -0.237 OA
ATOM     81  O   UNL A   1      42.808  22.751  27.500  1.00  0.00    -0.744 OA
ENDBRANCH  74  78
ENDBRANCH  47  71
BRANCH  59  82
ATOM     82  C   UNL A   1      44.463  27.679  33.884  1.00  0.00     0.023 A 
ATOM     83  C   UNL A   1      44.323  26.492  34.625  1.00  0.00     0.031 A 
ATOM     84  C   UNL A   1      45.736  28.274  33.827  1.00  0.00     0.131 A 
ATOM     85  C   UNL A   1      45.411  25.990  35.353  1.00  0.00     0.055 A 
ATOM     86  C   UNL A   1      46.835  27.723  34.488  1.00  0.00     0.041 A 
ATOM     87  F   UNL A   1      45.931  29.409  33.139  1.00  0.00    -0.206 F 
ATOM     88  C   UNL A   1      46.671  26.587  35.275  1.00  0.00     0.022 A 
BRANCH  85  89
ATOM     89  S   UNL A   1      45.116  24.638  36.527  1.00  0.00     0.124 S 
ATOM     90  O   UNL A   1      44.165  25.243  37.453  1.00  0.00    -0.237 OA
ATOM     91  O   UNL A   1      44.585  23.588  35.665  1.00  0.00    -0.237 OA
ATOM     92  O   UNL A   1      46.442  24.373  37.083  1.00  0.00    -0.744 OA
ENDBRANCH  85  89
ENDBRANCH  59  82
ENDBRANCH  33  34
ENDBRANCH  25  28
ENDBRANCH   1  24
TORSDOF 14
ENDMDL
