MODEL 1
REMARK VINA RESULT:     -11.4      0.000      0.000
REMARK SMILES CCC[C@]1(C(=O)NCCCNC(=O)c2ccc(-c3c4nc(c(-c5cc(S(=O)(=O)[O-])ccc5F)c5ccc([nH]5)c(-c5cc(S(=O)(=O)[O-])ccc5F)c5nc(c(-c6cc(S(=O)(=O)[O-])ccc6F)c6ccc3[nH]6)C=C5)C=C4)cc2)CCN(C(=O)N[C@H]2CCOC2)C1
REMARK SMILES IDX 9 1 8 2 7 3 5 4 6 5 4 7 77 8 88 9 78 10 79 11 3 12 2 13 1 14
REMARK SMILES IDX 80 15 81 16 82 17 83 19 84 20 87 21 85 22 86 23 10 24 11 25
REMARK SMILES IDX 12 26 13 28 14 29 15 30 76 31 16 32 75 33 17 34 18 35 19 36
REMARK SMILES IDX 69 37 20 38 74 39 68 40 70 41 21 42 73 43 67 44 66 45 22 47
REMARK SMILES IDX 54 48 34 49 53 50 35 51 38 52 52 53 71 54 36 55 37 56 51 58
REMARK SMILES IDX 72 59 39 60 23 61 24 62 32 63 25 64 31 65 33 66 30 67 26 68
REMARK SMILES IDX 27 69 28 70 29 71 55 72 56 73 64 74 57 75 63 76 65 77 62 78
REMARK SMILES IDX 58 79 59 80 60 81 61 82 40 83 41 84 49 85 42 86 48 87 50 88
REMARK SMILES IDX 47 89 43 90 44 91 45 92 46 93
REMARK H PARENT 7 6 82 18 11 27 70 46 38 57
REMARK Flexibility Score: inf
ROOT
ATOM      1  C   UNL A   1      33.067  27.545  26.619  1.00  0.00     0.042 C 
ENDROOT
BRANCH   1   2
ATOM      2  C   UNL A   1      32.868  26.325  25.729  1.00  0.00     0.117 C 
BRANCH   2   3
ATOM      3  N   UNL A   1      31.975  25.342  26.313  1.00  0.00    -0.355 N 
ATOM      4  C   UNL A   1      32.120  24.044  26.672  1.00  0.00     0.228 C 
ATOM      5  O   UNL A   1      31.184  23.592  27.339  1.00  0.00    -0.274 OA
ATOM      6  H   UNL A   1      31.071  25.693  26.485  1.00  0.00     0.163 HD
BRANCH   4   7
ATOM      7  C   UNL A   1      33.361  23.191  26.357  1.00  0.00     0.068 C 
ATOM      8  C   UNL A   1      33.522  21.861  27.137  1.00  0.00     0.040 C 
ATOM      9  C   UNL A   1      33.238  22.699  24.878  1.00  0.00     0.138 C 
ATOM     10  C   UNL A   1      34.149  20.940  26.104  1.00  0.00     0.122 C 
ATOM     11  N   UNL A   1      33.373  21.240  24.939  1.00  0.00    -0.324 N 
BRANCH   7  12
ATOM     12  C   UNL A   1      34.667  24.037  26.540  1.00  0.00     0.018 C 
BRANCH  12  13
ATOM     13  C   UNL A   1      35.807  23.916  25.505  1.00  0.00    -0.002 C 
ATOM     14  C   UNL A   1      37.241  23.895  26.012  1.00  0.00     0.004 C 
ENDBRANCH  12  13
ENDBRANCH   7  12
BRANCH  11  15
ATOM     15  C   UNL A   1      32.813  20.466  23.990  1.00  0.00     0.317 C 
ATOM     16  O   UNL A   1      32.087  20.974  23.126  1.00  0.00    -0.249 OA
ATOM     17  N   UNL A   1      32.935  19.138  23.889  1.00  0.00    -0.333 N 
ATOM     18  H   UNL A   1      32.616  18.878  22.995  1.00  0.00     0.165 HD
BRANCH  17  19
ATOM     19  C   UNL A   1      33.359  17.912  24.585  1.00  0.00     0.112 C 
ATOM     20  C   UNL A   1      32.414  17.061  25.393  1.00  0.00     0.056 C 
ATOM     21  C   UNL A   1      33.886  16.868  23.588  1.00  0.00     0.185 C 
ATOM     22  C   UNL A   1      33.079  15.703  25.422  1.00  0.00     0.162 C 
ATOM     23  O   UNL A   1      33.828  15.582  24.216  1.00  0.00    -0.379 OA
ENDBRANCH  17  19
ENDBRANCH  11  15
ENDBRANCH   4   7
ENDBRANCH   2   3
ENDBRANCH   1   2
BRANCH   1  24
ATOM     24  C   UNL A   1      34.094  28.547  26.104  1.00  0.00     0.118 C 
BRANCH  24  25
ATOM     25  N   UNL A   1      33.802  29.916  26.499  1.00  0.00    -0.352 N 
ATOM     26  C   UNL A   1      34.442  30.731  27.404  1.00  0.00     0.251 C 
ATOM     27  H   UNL A   1      33.026  30.323  26.050  1.00  0.00     0.163 HD
ATOM     28  O   UNL A   1      33.925  31.794  27.728  1.00  0.00    -0.269 OA
BRANCH  26  29
ATOM     29  C   UNL A   1      35.729  30.314  28.002  1.00  0.00     0.039 A 
ATOM     30  C   UNL A   1      35.726  29.735  29.274  1.00  0.00     0.014 A 
ATOM     31  C   UNL A   1      36.935  30.496  27.321  1.00  0.00     0.014 A 
ATOM     32  C   UNL A   1      36.923  29.271  29.827  1.00  0.00     0.010 A 
ATOM     33  C   UNL A   1      38.111  29.959  27.837  1.00  0.00     0.010 A 
ATOM     34  C   UNL A   1      38.119  29.339  29.095  1.00  0.00    -0.014 A 
BRANCH  34  35
ATOM     35  C   UNL A   1      39.388  28.771  29.626  1.00  0.00     0.031 A 
ATOM     36  C   UNL A   1      40.119  29.473  30.739  1.00  0.00     0.074 A 
ATOM     37  C   UNL A   1      39.918  27.670  29.054  1.00  0.00     0.049 A 
ATOM     38  N   UNL A   1      41.287  29.203  31.261  1.00  0.00    -0.248 NA
ATOM     39  C   UNL A   1      39.462  30.654  31.319  1.00  0.00     0.031 C 
ATOM     40  C   UNL A   1      39.320  26.922  27.945  1.00  0.00     0.029 A 
ATOM     41  N   UNL A   1      41.085  26.995  29.313  1.00  0.00    -0.354 N 
ATOM     42  C   UNL A   1      41.515  30.190  32.215  1.00  0.00     0.074 A 
ATOM     43  C   UNL A   1      40.385  31.093  32.162  1.00  0.00     0.031 C 
ATOM     44  C   UNL A   1      40.115  25.888  27.631  1.00  0.00     0.029 A 
ATOM     45  C   UNL A   1      41.306  25.925  28.473  1.00  0.00     0.049 A 
ATOM     46  H   UNL A   1      41.706  27.250  30.033  1.00  0.00     0.167 HD
ATOM     47  C   UNL A   1      42.562  30.320  33.066  1.00  0.00     0.034 A 
ATOM     48  C   UNL A   1      42.358  25.087  28.374  1.00  0.00     0.034 A 
ATOM     49  C   UNL A   1      43.669  29.395  33.119  1.00  0.00     0.049 A 
ATOM     50  C   UNL A   1      43.520  25.266  29.320  1.00  0.00     0.074 A 
ATOM     51  C   UNL A   1      44.744  29.392  33.992  1.00  0.00     0.029 A 
ATOM     52  N   UNL A   1      43.853  28.319  32.260  1.00  0.00    -0.354 N 
ATOM     53  N   UNL A   1      43.691  26.171  30.257  1.00  0.00    -0.248 NA
ATOM     54  C   UNL A   1      44.628  24.307  29.203  1.00  0.00     0.031 C 
ATOM     55  C   UNL A   1      45.615  28.368  33.610  1.00  0.00     0.029 A 
ATOM     56  C   UNL A   1      45.043  27.672  32.558  1.00  0.00     0.049 A 
ATOM     57  H   UNL A   1      43.230  28.055  31.546  1.00  0.00     0.167 HD
ATOM     58  C   UNL A   1      44.909  25.865  30.862  1.00  0.00     0.074 A 
ATOM     59  C   UNL A   1      45.420  24.687  30.194  1.00  0.00     0.031 C 
ATOM     60  C   UNL A   1      45.543  26.499  31.880  1.00  0.00     0.034 A 
BRANCH  47  61
ATOM     61  C   UNL A   1      42.580  31.517  33.985  1.00  0.00     0.023 A 
ATOM     62  C   UNL A   1      42.104  31.448  35.307  1.00  0.00     0.031 A 
ATOM     63  C   UNL A   1      43.085  32.749  33.534  1.00  0.00     0.131 A 
ATOM     64  C   UNL A   1      42.087  32.601  36.107  1.00  0.00     0.055 A 
ATOM     65  C   UNL A   1      43.140  33.872  34.360  1.00  0.00     0.041 A 
ATOM     66  F   UNL A   1      43.533  32.883  32.275  1.00  0.00    -0.206 F 
ATOM     67  C   UNL A   1      42.628  33.806  35.652  1.00  0.00     0.022 A 
BRANCH  64  68
ATOM     68  S   UNL A   1      41.233  32.535  37.705  1.00  0.00     0.124 S 
ATOM     69  O   UNL A   1      42.071  31.598  38.448  1.00  0.00    -0.237 OA
ATOM     70  O   UNL A   1      41.281  33.924  38.147  1.00  0.00    -0.237 OA
ATOM     71  O   UNL A   1      39.904  32.034  37.363  1.00  0.00    -0.744 OA
ENDBRANCH  64  68
ENDBRANCH  47  61
BRANCH  48  72
ATOM     72  C   UNL A   1      42.386  24.023  27.326  1.00  0.00     0.023 A 
ATOM     73  C   UNL A   1      41.784  22.774  27.542  1.00  0.00     0.031 A 
ATOM     74  C   UNL A   1      43.072  24.222  26.113  1.00  0.00     0.131 A 
ATOM     75  C   UNL A   1      41.929  21.752  26.589  1.00  0.00     0.055 A 
ATOM     76  C   UNL A   1      43.157  23.224  25.140  1.00  0.00     0.041 A 
ATOM     77  F   UNL A   1      43.668  25.397  25.852  1.00  0.00    -0.206 F 
ATOM     78  C   UNL A   1      42.598  21.974  25.383  1.00  0.00     0.022 A 
BRANCH  75  79
ATOM     79  S   UNL A   1      41.329  20.090  26.999  1.00  0.00     0.124 S 
ATOM     80  O   UNL A   1      40.363  19.853  25.932  1.00  0.00    -0.237 OA
ATOM     81  O   UNL A   1      42.555  19.303  26.941  1.00  0.00    -0.237 OA
ATOM     82  O   UNL A   1      40.757  20.256  28.334  1.00  0.00    -0.744 OA
ENDBRANCH  75  79
ENDBRANCH  48  72
BRANCH  60  83
ATOM     83  C   UNL A   1      46.837  25.895  32.371  1.00  0.00     0.023 A 
ATOM     84  C   UNL A   1      46.872  24.960  33.420  1.00  0.00     0.031 A 
ATOM     85  C   UNL A   1      48.056  26.260  31.771  1.00  0.00     0.131 A 
ATOM     86  C   UNL A   1      48.103  24.462  33.871  1.00  0.00     0.055 A 
ATOM     87  C   UNL A   1      49.272  25.711  32.181  1.00  0.00     0.041 A 
ATOM     88  F   UNL A   1      48.083  27.150  30.766  1.00  0.00    -0.206 F 
ATOM     89  C   UNL A   1      49.301  24.816  33.245  1.00  0.00     0.022 A 
BRANCH  86  90
ATOM     90  S   UNL A   1      48.129  23.409  35.348  1.00  0.00     0.124 S 
ATOM     91  O   UNL A   1      47.987  24.388  36.421  1.00  0.00    -0.237 OA
ATOM     92  O   UNL A   1      46.983  22.533  35.129  1.00  0.00    -0.237 OA
ATOM     93  O   UNL A   1      49.433  22.752  35.279  1.00  0.00    -0.744 OA
ENDBRANCH  86  90
ENDBRANCH  60  83
ENDBRANCH  34  35
ENDBRANCH  26  29
ENDBRANCH  24  25
ENDBRANCH   1  24
TORSDOF 17
ENDMDL
MODEL 2
REMARK VINA RESULT:     -11.4      2.185      7.886
REMARK SMILES CCC[C@]1(C(=O)NCCCNC(=O)c2ccc(-c3c4nc(c(-c5cc(S(=O)(=O)[O-])ccc5F)c5ccc([nH]5)c(-c5cc(S(=O)(=O)[O-])ccc5F)c5nc(c(-c6cc(S(=O)(=O)[O-])ccc6F)c6ccc3[nH]6)C=C5)C=C4)cc2)CCN(C(=O)N[C@H]2CCOC2)C1
REMARK SMILES IDX 9 1 8 2 7 3 5 4 6 5 4 7 77 8 88 9 78 10 79 11 3 12 2 13 1 14
REMARK SMILES IDX 80 15 81 16 82 17 83 19 84 20 87 21 85 22 86 23 10 24 11 25
REMARK SMILES IDX 12 26 13 28 14 29 15 30 76 31 16 32 75 33 17 34 18 35 19 36
REMARK SMILES IDX 69 37 20 38 74 39 68 40 70 41 21 42 73 43 67 44 66 45 22 47
REMARK SMILES IDX 54 48 34 49 53 50 35 51 38 52 52 53 71 54 36 55 37 56 51 58
REMARK SMILES IDX 72 59 39 60 23 61 24 62 32 63 25 64 31 65 33 66 30 67 26 68
REMARK SMILES IDX 27 69 28 70 29 71 55 72 56 73 64 74 57 75 63 76 65 77 62 78
REMARK SMILES IDX 58 79 59 80 60 81 61 82 40 83 41 84 49 85 42 86 48 87 50 88
REMARK SMILES IDX 47 89 43 90 44 91 45 92 46 93
REMARK H PARENT 7 6 82 18 11 27 70 46 38 57
REMARK Flexibility Score: inf
ROOT
ATOM      1  C   UNL A   1      32.331  28.023  25.951  1.00  0.00     0.042 C 
ENDROOT
BRANCH   1   2
ATOM      2  C   UNL A   1      33.054  26.687  25.837  1.00  0.00     0.117 C 
BRANCH   2   3
ATOM      3  N   UNL A   1      32.380  25.620  26.553  1.00  0.00    -0.355 N 
ATOM      4  C   UNL A   1      32.157  24.311  26.287  1.00  0.00     0.228 C 
ATOM      5  O   UNL A   1      31.722  23.663  27.245  1.00  0.00    -0.274 OA
ATOM      6  H   UNL A   1      32.005  25.909  27.417  1.00  0.00     0.163 HD
BRANCH   4   7
ATOM      7  C   UNL A   1      32.471  23.634  24.942  1.00  0.00     0.068 C 
ATOM      8  C   UNL A   1      33.709  24.147  24.163  1.00  0.00     0.040 C 
ATOM      9  C   UNL A   1      32.851  22.147  25.235  1.00  0.00     0.138 C 
ATOM     10  C   UNL A   1      34.251  22.879  23.523  1.00  0.00     0.122 C 
ATOM     11  N   UNL A   1      34.160  21.946  24.605  1.00  0.00    -0.324 N 
BRANCH   7  12
ATOM     12  C   UNL A   1      31.225  23.699  23.994  1.00  0.00     0.018 C 
BRANCH  12  13
ATOM     13  C   UNL A   1      30.854  25.034  23.309  1.00  0.00    -0.002 C 
ATOM     14  C   UNL A   1      29.702  25.842  23.884  1.00  0.00     0.004 C 
ENDBRANCH  12  13
ENDBRANCH   7  12
BRANCH  11  15
ATOM     15  C   UNL A   1      35.005  21.009  25.078  1.00  0.00     0.317 C 
ATOM     16  O   UNL A   1      36.092  21.345  25.562  1.00  0.00    -0.249 OA
ATOM     17  N   UNL A   1      34.801  19.688  25.054  1.00  0.00    -0.333 N 
ATOM     18  H   UNL A   1      35.462  19.275  25.655  1.00  0.00     0.165 HD
BRANCH  17  19
ATOM     19  C   UNL A   1      33.981  18.606  24.485  1.00  0.00     0.112 C 
ATOM     20  C   UNL A   1      34.515  17.219  24.234  1.00  0.00     0.056 C 
ATOM     21  C   UNL A   1      32.787  18.282  25.397  1.00  0.00     0.185 C 
ATOM     22  C   UNL A   1      33.277  16.350  24.214  1.00  0.00     0.162 C 
ATOM     23  O   UNL A   1      32.322  16.968  25.073  1.00  0.00    -0.379 OA
ENDBRANCH  17  19
ENDBRANCH  11  15
ENDBRANCH   4   7
ENDBRANCH   2   3
ENDBRANCH   1   2
BRANCH   1  24
ATOM     24  C   UNL A   1      33.126  29.221  25.443  1.00  0.00     0.118 C 
BRANCH  24  25
ATOM     25  N   UNL A   1      32.657  30.487  25.985  1.00  0.00    -0.352 N 
ATOM     26  C   UNL A   1      33.168  31.256  27.003  1.00  0.00     0.251 C 
ATOM     27  H   UNL A   1      31.847  30.849  25.557  1.00  0.00     0.163 HD
ATOM     28  O   UNL A   1      32.516  32.202  27.430  1.00  0.00    -0.269 OA
BRANCH  26  29
ATOM     29  C   UNL A   1      34.482  30.928  27.598  1.00  0.00     0.039 A 
ATOM     30  C   UNL A   1      35.427  31.946  27.752  1.00  0.00     0.014 A 
ATOM     31  C   UNL A   1      34.789  29.625  27.999  1.00  0.00     0.014 A 
ATOM     32  C   UNL A   1      36.647  31.672  28.376  1.00  0.00     0.010 A 
ATOM     33  C   UNL A   1      35.968  29.373  28.694  1.00  0.00     0.010 A 
ATOM     34  C   UNL A   1      36.911  30.393  28.892  1.00  0.00    -0.014 A 
BRANCH  34  35
ATOM     35  C   UNL A   1      38.164  30.100  29.638  1.00  0.00     0.031 A 
ATOM     36  C   UNL A   1      39.144  29.093  29.097  1.00  0.00     0.074 A 
ATOM     37  C   UNL A   1      38.380  30.681  30.836  1.00  0.00     0.049 A 
ATOM     38  N   UNL A   1      40.232  28.619  29.648  1.00  0.00    -0.248 NA
ATOM     39  C   UNL A   1      38.843  28.522  27.776  1.00  0.00     0.031 C 
ATOM     40  C   UNL A   1      37.485  31.646  31.481  1.00  0.00     0.029 A 
ATOM     41  N   UNL A   1      39.408  30.537  31.735  1.00  0.00    -0.354 N 
ATOM     42  C   UNL A   1      40.734  27.680  28.752  1.00  0.00     0.074 A 
ATOM     43  C   UNL A   1      39.802  27.617  27.646  1.00  0.00     0.031 C 
ATOM     44  C   UNL A   1      38.010  32.015  32.660  1.00  0.00     0.029 A 
ATOM     45  C   UNL A   1      39.248  31.277  32.886  1.00  0.00     0.049 A 
ATOM     46  H   UNL A   1      40.188  29.959  31.572  1.00  0.00     0.167 HD
ATOM     47  C   UNL A   1      41.873  26.952  28.839  1.00  0.00     0.034 A 
ATOM     48  C   UNL A   1      39.997  31.335  34.006  1.00  0.00     0.034 A 
ATOM     49  C   UNL A   1      42.802  27.045  29.940  1.00  0.00     0.049 A 
ATOM     50  C   UNL A   1      41.250  30.498  34.085  1.00  0.00     0.074 A 
ATOM     51  C   UNL A   1      44.021  26.408  30.092  1.00  0.00     0.029 A 
ATOM     52  N   UNL A   1      42.610  27.813  31.082  1.00  0.00    -0.354 N 
ATOM     53  N   UNL A   1      41.741  29.660  33.201  1.00  0.00    -0.248 NA
ATOM     54  C   UNL A   1      42.057  30.621  35.307  1.00  0.00     0.031 C 
ATOM     55  C   UNL A   1      44.526  26.725  31.356  1.00  0.00     0.029 A 
ATOM     56  C   UNL A   1      43.670  27.633  31.958  1.00  0.00     0.049 A 
ATOM     57  H   UNL A   1      41.837  28.399  31.245  1.00  0.00     0.167 HD
ATOM     58  C   UNL A   1      42.931  29.184  33.748  1.00  0.00     0.074 A 
ATOM     59  C   UNL A   1      43.089  29.839  35.029  1.00  0.00     0.031 C 
ATOM     60  C   UNL A   1      43.814  28.291  33.236  1.00  0.00     0.034 A 
BRANCH  47  61
ATOM     61  C   UNL A   1      42.167  25.967  27.732  1.00  0.00     0.023 A 
ATOM     62  C   UNL A   1      41.659  24.656  27.748  1.00  0.00     0.031 A 
ATOM     63  C   UNL A   1      42.965  26.349  26.640  1.00  0.00     0.131 A 
ATOM     64  C   UNL A   1      42.006  23.758  26.726  1.00  0.00     0.055 A 
ATOM     65  C   UNL A   1      43.240  25.476  25.586  1.00  0.00     0.041 A 
ATOM     66  F   UNL A   1      43.497  27.580  26.579  1.00  0.00    -0.206 F 
ATOM     67  C   UNL A   1      42.770  24.167  25.631  1.00  0.00     0.022 A 
BRANCH  64  68
ATOM     68  S   UNL A   1      41.548  22.013  26.914  1.00  0.00     0.124 S 
ATOM     69  O   UNL A   1      42.132  21.425  25.710  1.00  0.00    -0.237 OA
ATOM     70  O   UNL A   1      42.186  21.652  28.175  1.00  0.00    -0.237 OA
ATOM     71  O   UNL A   1      40.088  22.042  26.938  1.00  0.00    -0.744 OA
ENDBRANCH  64  68
ENDBRANCH  47  61
BRANCH  48  72
ATOM     72  C   UNL A   1      39.576  32.185  35.159  1.00  0.00     0.023 A 
ATOM     73  C   UNL A   1      38.880  31.640  36.249  1.00  0.00     0.031 A 
ATOM     74  C   UNL A   1      39.811  33.573  35.158  1.00  0.00     0.131 A 
ATOM     75  C   UNL A   1      38.392  32.482  37.262  1.00  0.00     0.055 A 
ATOM     76  C   UNL A   1      39.381  34.397  36.200  1.00  0.00     0.041 A 
ATOM     77  F   UNL A   1      40.471  34.151  34.141  1.00  0.00    -0.206 F 
ATOM     78  C   UNL A   1      38.652  33.854  37.252  1.00  0.00     0.022 A 
BRANCH  75  79
ATOM     79  S   UNL A   1      37.311  31.773  38.535  1.00  0.00     0.124 S 
ATOM     80  O   UNL A   1      36.118  32.603  38.406  1.00  0.00    -0.237 OA
ATOM     81  O   UNL A   1      37.183  30.391  38.087  1.00  0.00    -0.237 OA
ATOM     82  O   UNL A   1      38.072  31.960  39.769  1.00  0.00    -0.744 OA
ENDBRANCH  75  79
ENDBRANCH  48  72
BRANCH  60  83
ATOM     83  C   UNL A   1      45.061  28.012  34.040  1.00  0.00     0.023 A 
ATOM     84  C   UNL A   1      45.126  26.964  34.975  1.00  0.00     0.031 A 
ATOM     85  C   UNL A   1      46.206  28.810  33.861  1.00  0.00     0.131 A 
ATOM     86  C   UNL A   1      46.292  26.774  35.731  1.00  0.00     0.055 A 
ATOM     87  C   UNL A   1      47.386  28.574  34.569  1.00  0.00     0.041 A 
ATOM     88  F   UNL A   1      46.200  29.826  32.983  1.00  0.00    -0.206 F 
ATOM     89  C   UNL A   1      47.428  27.559  35.519  1.00  0.00     0.022 A 
BRANCH  86  90
ATOM     90  S   UNL A   1      46.277  25.540  37.061  1.00  0.00     0.124 S 
ATOM     91  O   UNL A   1      47.459  24.745  36.749  1.00  0.00    -0.237 OA
ATOM     92  O   UNL A   1      46.365  26.370  38.258  1.00  0.00    -0.237 OA
ATOM     93  O   UNL A   1      45.001  24.852  36.877  1.00  0.00    -0.744 OA
ENDBRANCH  86  90
ENDBRANCH  60  83
ENDBRANCH  34  35
ENDBRANCH  26  29
ENDBRANCH  24  25
ENDBRANCH   1  24
TORSDOF 17
ENDMDL
MODEL 3
REMARK VINA RESULT:     -11.4      3.714      8.912
REMARK SMILES CCC[C@]1(C(=O)NCCCNC(=O)c2ccc(-c3c4nc(c(-c5cc(S(=O)(=O)[O-])ccc5F)c5ccc([nH]5)c(-c5cc(S(=O)(=O)[O-])ccc5F)c5nc(c(-c6cc(S(=O)(=O)[O-])ccc6F)c6ccc3[nH]6)C=C5)C=C4)cc2)CCN(C(=O)N[C@H]2CCOC2)C1
REMARK SMILES IDX 9 1 8 2 7 3 5 4 6 5 4 7 77 8 88 9 78 10 79 11 3 12 2 13 1 14
REMARK SMILES IDX 80 15 81 16 82 17 83 19 84 20 87 21 85 22 86 23 10 24 11 25
REMARK SMILES IDX 12 26 13 28 14 29 15 30 76 31 16 32 75 33 17 34 18 35 19 36
REMARK SMILES IDX 69 37 20 38 74 39 68 40 70 41 21 42 73 43 67 44 66 45 22 47
REMARK SMILES IDX 54 48 34 49 53 50 35 51 38 52 52 53 71 54 36 55 37 56 51 58
REMARK SMILES IDX 72 59 39 60 23 61 24 62 32 63 25 64 31 65 33 66 30 67 26 68
REMARK SMILES IDX 27 69 28 70 29 71 55 72 56 73 64 74 57 75 63 76 65 77 62 78
REMARK SMILES IDX 58 79 59 80 60 81 61 82 40 83 41 84 49 85 42 86 48 87 50 88
REMARK SMILES IDX 47 89 43 90 44 91 45 92 46 93
REMARK H PARENT 7 6 82 18 11 27 70 46 38 57
REMARK Flexibility Score: inf
ROOT
ATOM      1  C   UNL A   1      31.340  32.339  26.505  1.00  0.00     0.042 C 
ENDROOT
BRANCH   1   2
ATOM      2  C   UNL A   1      31.177  30.831  26.363  1.00  0.00     0.117 C 
BRANCH   2   3
ATOM      3  N   UNL A   1      31.425  30.363  25.011  1.00  0.00    -0.355 N 
ATOM      4  C   UNL A   1      31.828  29.180  24.491  1.00  0.00     0.228 C 
ATOM      5  O   UNL A   1      31.721  29.101  23.263  1.00  0.00    -0.274 OA
ATOM      6  H   UNL A   1      31.266  31.054  24.327  1.00  0.00     0.163 HD
BRANCH   4   7
ATOM      7  C   UNL A   1      32.317  27.986  25.329  1.00  0.00     0.068 C 
ATOM      8  C   UNL A   1      31.271  26.900  25.690  1.00  0.00     0.040 C 
ATOM      9  C   UNL A   1      33.345  27.187  24.464  1.00  0.00     0.138 C 
ATOM     10  C   UNL A   1      32.088  25.619  25.642  1.00  0.00     0.122 C 
ATOM     11  N   UNL A   1      32.852  25.806  24.446  1.00  0.00    -0.324 N 
BRANCH   7  12
ATOM     12  C   UNL A   1      32.992  28.485  26.651  1.00  0.00     0.018 C 
BRANCH  12  13
ATOM     13  C   UNL A   1      34.481  28.898  26.640  1.00  0.00    -0.002 C 
ATOM     14  C   UNL A   1      34.959  29.898  27.682  1.00  0.00     0.004 C 
ENDBRANCH  12  13
ENDBRANCH   7  12
BRANCH  11  15
ATOM     15  C   UNL A   1      33.156  24.990  23.419  1.00  0.00     0.317 C 
ATOM     16  O   UNL A   1      32.470  25.007  22.390  1.00  0.00    -0.249 OA
ATOM     17  N   UNL A   1      34.150  24.096  23.397  1.00  0.00    -0.333 N 
ATOM     18  H   UNL A   1      34.273  23.811  22.463  1.00  0.00     0.165 HD
BRANCH  17  19
ATOM     19  C   UNL A   1      35.133  23.368  24.217  1.00  0.00     0.112 C 
ATOM     20  C   UNL A   1      36.473  22.924  23.687  1.00  0.00     0.056 C 
ATOM     21  C   UNL A   1      35.578  24.212  25.421  1.00  0.00     0.185 C 
ATOM     22  C   UNL A   1      37.322  22.766  24.929  1.00  0.00     0.162 C 
ATOM     23  O   UNL A   1      36.829  23.696  25.890  1.00  0.00    -0.379 OA
ENDBRANCH  17  19
ENDBRANCH  11  15
ENDBRANCH   4   7
ENDBRANCH   2   3
ENDBRANCH   1   2
BRANCH   1  24
ATOM     24  C   UNL A   1      32.637  32.777  27.176  1.00  0.00     0.118 C 
BRANCH  24  25
ATOM     25  N   UNL A   1      32.565  34.119  27.734  1.00  0.00    -0.352 N 
ATOM     26  C   UNL A   1      33.293  34.694  28.749  1.00  0.00     0.251 C 
ATOM     27  H   UNL A   1      31.890  34.705  27.321  1.00  0.00     0.163 HD
ATOM     28  O   UNL A   1      32.950  35.785  29.192  1.00  0.00    -0.269 OA
BRANCH  26  29
ATOM     29  C   UNL A   1      34.462  33.991  29.320  1.00  0.00     0.039 A 
ATOM     30  C   UNL A   1      35.745  34.406  28.952  1.00  0.00     0.014 A 
ATOM     31  C   UNL A   1      34.301  32.924  30.207  1.00  0.00     0.014 A 
ATOM     32  C   UNL A   1      36.863  33.802  29.534  1.00  0.00     0.010 A 
ATOM     33  C   UNL A   1      35.412  32.381  30.847  1.00  0.00     0.010 A 
ATOM     34  C   UNL A   1      36.705  32.814  30.519  1.00  0.00    -0.014 A 
BRANCH  34  35
ATOM     35  C   UNL A   1      37.878  32.219  31.217  1.00  0.00     0.031 A 
ATOM     36  C   UNL A   1      38.635  31.084  30.581  1.00  0.00     0.074 A 
ATOM     37  C   UNL A   1      38.208  32.649  32.452  1.00  0.00     0.049 A 
ATOM     38  N   UNL A   1      39.608  30.361  31.072  1.00  0.00    -0.248 NA
ATOM     39  C   UNL A   1      38.222  30.691  29.225  1.00  0.00     0.031 C 
ATOM     40  C   UNL A   1      37.527  33.717  33.186  1.00  0.00     0.029 A 
ATOM     41  N   UNL A   1      39.190  32.232  33.317  1.00  0.00    -0.354 N 
ATOM     42  C   UNL A   1      39.910  29.416  30.097  1.00  0.00     0.074 A 
ATOM     43  C   UNL A   1      38.981  29.627  29.007  1.00  0.00     0.031 C 
ATOM     44  C   UNL A   1      38.118  33.880  34.380  1.00  0.00     0.029 A 
ATOM     45  C   UNL A   1      39.185  32.895  34.524  1.00  0.00     0.049 A 
ATOM     46  H   UNL A   1      39.839  31.525  33.095  1.00  0.00     0.167 HD
ATOM     47  C   UNL A   1      40.881  28.471  30.105  1.00  0.00     0.034 A 
ATOM     48  C   UNL A   1      39.934  32.713  35.631  1.00  0.00     0.034 A 
ATOM     49  C   UNL A   1      41.813  28.290  31.192  1.00  0.00     0.049 A 
ATOM     50  C   UNL A   1      40.995  31.640  35.622  1.00  0.00     0.074 A 
ATOM     51  C   UNL A   1      42.881  27.413  31.271  1.00  0.00     0.029 A 
ATOM     52  N   UNL A   1      41.782  28.987  32.394  1.00  0.00    -0.354 N 
ATOM     53  N   UNL A   1      41.306  30.794  34.666  1.00  0.00    -0.248 NA
ATOM     54  C   UNL A   1      41.814  31.503  36.834  1.00  0.00     0.031 C 
ATOM     55  C   UNL A   1      43.444  27.521  32.546  1.00  0.00     0.029 A 
ATOM     56  C   UNL A   1      42.788  28.530  33.233  1.00  0.00     0.049 A 
ATOM     57  H   UNL A   1      41.142  29.700  32.616  1.00  0.00     0.167 HD
ATOM     58  C   UNL A   1      42.379  30.050  35.152  1.00  0.00     0.074 A 
ATOM     59  C   UNL A   1      42.669  30.556  36.476  1.00  0.00     0.031 C 
ATOM     60  C   UNL A   1      43.064  29.042  34.555  1.00  0.00     0.034 A 
BRANCH  47  61
ATOM     61  C   UNL A   1      40.969  27.539  28.920  1.00  0.00     0.023 A 
ATOM     62  C   UNL A   1      41.917  27.721  27.898  1.00  0.00     0.031 A 
ATOM     63  C   UNL A   1      40.091  26.446  28.814  1.00  0.00     0.131 A 
ATOM     64  C   UNL A   1      41.924  26.863  26.787  1.00  0.00     0.055 A 
ATOM     65  C   UNL A   1      40.155  25.549  27.746  1.00  0.00     0.041 A 
ATOM     66  F   UNL A   1      39.150  26.232  29.747  1.00  0.00    -0.206 F 
ATOM     67  C   UNL A   1      41.068  25.762  26.718  1.00  0.00     0.022 A 
BRANCH  64  68
ATOM     68  S   UNL A   1      42.981  27.282  25.375  1.00  0.00     0.124 S 
ATOM     69  O   UNL A   1      43.062  26.001  24.678  1.00  0.00    -0.237 OA
ATOM     70  O   UNL A   1      42.216  28.327  24.705  1.00  0.00    -0.237 OA
ATOM     71  O   UNL A   1      44.227  27.722  25.998  1.00  0.00    -0.744 OA
ENDBRANCH  64  68
ENDBRANCH  47  61
BRANCH  48  72
ATOM     72  C   UNL A   1      39.695  33.535  36.855  1.00  0.00     0.023 A 
ATOM     73  C   UNL A   1      39.085  32.985  37.993  1.00  0.00     0.031 A 
ATOM     74  C   UNL A   1      40.019  34.905  36.880  1.00  0.00     0.131 A 
ATOM     75  C   UNL A   1      38.763  33.810  39.084  1.00  0.00     0.055 A 
ATOM     76  C   UNL A   1      39.757  35.706  37.993  1.00  0.00     0.041 A 
ATOM     77  F   UNL A   1      40.603  35.486  35.820  1.00  0.00    -0.206 F 
ATOM     78  C   UNL A   1      39.110  35.163  39.097  1.00  0.00     0.022 A 
BRANCH  75  79
ATOM     79  S   UNL A   1      37.781  33.112  40.440  1.00  0.00     0.124 S 
ATOM     80  O   UNL A   1      38.434  31.824  40.646  1.00  0.00    -0.237 OA
ATOM     81  O   UNL A   1      37.971  34.103  41.492  1.00  0.00    -0.237 OA
ATOM     82  O   UNL A   1      36.431  33.046  39.882  1.00  0.00    -0.744 OA
ENDBRANCH  75  79
ENDBRANCH  48  72
BRANCH  60  83
ATOM     83  C   UNL A   1      44.233  28.459  35.311  1.00  0.00     0.023 A 
ATOM     84  C   UNL A   1      44.069  27.438  36.264  1.00  0.00     0.031 A 
ATOM     85  C   UNL A   1      45.536  28.932  35.068  1.00  0.00     0.131 A 
ATOM     86  C   UNL A   1      45.180  26.960  36.974  1.00  0.00     0.055 A 
ATOM     87  C   UNL A   1      46.646  28.406  35.730  1.00  0.00     0.041 A 
ATOM     88  F   UNL A   1      45.751  29.907  34.170  1.00  0.00    -0.206 F 
ATOM     89  C   UNL A   1      46.470  27.423  36.698  1.00  0.00     0.022 A 
BRANCH  86  90
ATOM     90  S   UNL A   1      44.910  25.784  38.328  1.00  0.00     0.124 S 
ATOM     91  O   UNL A   1      43.905  26.472  39.131  1.00  0.00    -0.237 OA
ATOM     92  O   UNL A   1      44.454  24.592  37.621  1.00  0.00    -0.237 OA
ATOM     93  O   UNL A   1      46.228  25.668  38.951  1.00  0.00    -0.744 OA
ENDBRANCH  86  90
ENDBRANCH  60  83
ENDBRANCH  34  35
ENDBRANCH  26  29
ENDBRANCH  24  25
ENDBRANCH   1  24
TORSDOF 17
ENDMDL
