MODEL 1
REMARK VINA RESULT:     -13.4      0.000      0.000
REMARK SMILES Cc1ccc(/C=C2\SC(=S)N([C@H](C(=O)NCCCNC(=O)c3ccc(-c4c5nc(c(-c6cc(S(=O)(=O)[O-])ccc6F)c6ccc([nH]6)c(-c6cc(S(=O)(=O)[O-])ccc6F)c6nc(c(-c7cc(S(=O)(=O)[O-])ccc7F)c7ccc4[nH]7)C=C6)C=C5)cc3)C(C)C)C2=O)cc1
REMARK SMILES IDX 17 1 16 2 15 3 13 4 14 5 12 7 11 8 6 9 7 10 8 11 88 12 9 13
REMARK SMILES IDX 89 14 10 15 5 16 1 17 2 18 3 19 91 20 4 21 90 22 85 23 86 24
REMARK SMILES IDX 87 25 18 26 19 27 20 28 21 30 22 31 23 32 84 33 24 34 83 35
REMARK SMILES IDX 25 36 26 37 27 38 77 39 28 40 82 41 76 42 78 43 29 44 81 45
REMARK SMILES IDX 75 46 74 47 30 49 62 50 42 51 61 52 43 53 46 54 60 55 79 56
REMARK SMILES IDX 44 57 45 58 59 60 80 61 47 62 31 63 32 64 40 65 33 66 39 67
REMARK SMILES IDX 41 68 38 69 34 70 35 71 36 72 37 73 63 74 64 75 72 76 65 77
REMARK SMILES IDX 71 78 73 79 70 80 66 81 67 82 68 83 69 84 48 85 49 86 57 87
REMARK SMILES IDX 50 88 56 89 58 90 55 91 51 92 52 93 53 94 54 95
REMARK H PARENT 15 6 19 29 78 48 46 59
REMARK Flexibility Score: inf
ROOT
ATOM      1  C   UNL A   1      32.428  29.713  27.268  1.00  0.00     0.042 C 
ENDROOT
BRANCH   1   2
ATOM      2  C   UNL A   1      32.540  28.206  27.116  1.00  0.00     0.117 C 
BRANCH   2   3
ATOM      3  N   UNL A   1      31.483  27.640  26.272  1.00  0.00    -0.354 N 
ATOM      4  C   UNL A   1      31.562  26.994  25.063  1.00  0.00     0.243 C 
ATOM      5  O   UNL A   1      30.553  26.458  24.598  1.00  0.00    -0.273 OA
ATOM      6  H   UNL A   1      30.571  27.740  26.629  1.00  0.00     0.163 HD
BRANCH   4   7
ATOM      7  C   UNL A   1      32.906  26.951  24.306  1.00  0.00     0.184 C 
BRANCH   7   8
ATOM      8  N   UNL A   1      33.235  25.507  24.035  1.00  0.00    -0.280 N 
ATOM      9  C   UNL A   1      33.565  22.142  25.295  1.00  0.00     0.029 C 
ATOM     10  C   UNL A   1      33.610  23.218  24.500  1.00  0.00     0.081 C 
ATOM     11  S   UNL A   1      33.618  23.250  22.796  1.00  0.00    -0.054 SA
ATOM     12  C   UNL A   1      33.564  24.604  25.042  1.00  0.00     0.266 C 
ATOM     13  C   UNL A   1      33.144  24.943  22.764  1.00  0.00     0.149 C 
ATOM     14  O   UNL A   1      33.739  24.804  26.224  1.00  0.00    -0.268 OA
ATOM     15  S   UNL A   1      32.619  25.600  21.327  1.00  0.00    -0.052 S 
BRANCH   9  16
ATOM     16  C   UNL A   1      33.653  20.762  24.814  1.00  0.00    -0.024 A 
ATOM     17  C   UNL A   1      33.772  16.684  23.438  1.00  0.00     0.044 C 
ATOM     18  C   UNL A   1      33.734  18.106  23.909  1.00  0.00    -0.051 A 
ATOM     19  C   UNL A   1      34.856  18.683  24.520  1.00  0.00     0.004 A 
ATOM     20  C   UNL A   1      32.575  18.871  23.752  1.00  0.00     0.004 A 
ATOM     21  C   UNL A   1      34.818  20.006  24.972  1.00  0.00     0.008 A 
ATOM     22  C   UNL A   1      32.537  20.190  24.197  1.00  0.00     0.008 A 
ENDBRANCH   9  16
ENDBRANCH   7   8
BRANCH   7  23
ATOM     23  C   UNL A   1      32.824  27.904  23.066  1.00  0.00     0.015 C 
ATOM     24  C   UNL A   1      31.742  28.992  23.141  1.00  0.00     0.010 C 
ATOM     25  C   UNL A   1      34.165  28.622  22.847  1.00  0.00     0.010 C 
ENDBRANCH   7  23
ENDBRANCH   4   7
ENDBRANCH   2   3
ENDBRANCH   1   2
BRANCH   1  26
ATOM     26  C   UNL A   1      33.659  30.441  26.774  1.00  0.00     0.118 C 
BRANCH  26  27
ATOM     27  N   UNL A   1      34.218  31.399  27.716  1.00  0.00    -0.352 N 
ATOM     28  C   UNL A   1      35.081  31.182  28.777  1.00  0.00     0.251 C 
ATOM     29  H   UNL A   1      33.944  32.334  27.579  1.00  0.00     0.163 HD
ATOM     30  O   UNL A   1      35.261  32.054  29.623  1.00  0.00    -0.269 OA
BRANCH  28  31
ATOM     31  C   UNL A   1      35.947  29.973  28.785  1.00  0.00     0.039 A 
ATOM     32  C   UNL A   1      36.378  29.528  30.046  1.00  0.00     0.014 A 
ATOM     33  C   UNL A   1      36.613  29.561  27.641  1.00  0.00     0.014 A 
ATOM     34  C   UNL A   1      37.638  28.960  30.171  1.00  0.00     0.010 A 
ATOM     35  C   UNL A   1      37.920  29.183  27.770  1.00  0.00     0.010 A 
ATOM     36  C   UNL A   1      38.439  28.938  29.041  1.00  0.00    -0.014 A 
BRANCH  36  37
ATOM     37  C   UNL A   1      39.845  28.617  29.023  1.00  0.00     0.031 A 
ATOM     38  C   UNL A   1      40.210  27.245  28.665  1.00  0.00     0.074 A 
ATOM     39  C   UNL A   1      40.729  29.634  29.089  1.00  0.00     0.049 A 
ATOM     40  N   UNL A   1      41.359  26.725  28.880  1.00  0.00    -0.248 NA
ATOM     41  C   UNL A   1      39.264  26.314  28.053  1.00  0.00     0.031 C 
ATOM     42  C   UNL A   1      42.143  29.632  28.737  1.00  0.00     0.029 A 
ATOM     43  N   UNL A   1      40.533  30.862  29.718  1.00  0.00    -0.354 N 
ATOM     44  C   UNL A   1      41.420  25.558  28.154  1.00  0.00     0.074 A 
ATOM     45  C   UNL A   1      40.061  25.283  27.768  1.00  0.00     0.031 C 
ATOM     46  C   UNL A   1      42.748  30.643  29.387  1.00  0.00     0.029 A 
ATOM     47  C   UNL A   1      41.770  31.212  30.300  1.00  0.00     0.049 A 
ATOM     48  H   UNL A   1      39.697  31.382  29.750  1.00  0.00     0.167 HD
ATOM     49  C   UNL A   1      42.651  25.069  27.841  1.00  0.00     0.034 A 
ATOM     50  C   UNL A   1      41.874  31.221  31.665  1.00  0.00     0.034 A 
ATOM     51  C   UNL A   1      43.694  25.890  28.467  1.00  0.00     0.049 A 
ATOM     52  C   UNL A   1      42.774  30.116  32.202  1.00  0.00     0.074 A 
ATOM     53  C   UNL A   1      44.545  26.889  28.023  1.00  0.00     0.029 A 
ATOM     54  N   UNL A   1      43.720  25.958  29.845  1.00  0.00    -0.354 N 
ATOM     55  N   UNL A   1      43.296  29.167  31.469  1.00  0.00    -0.248 NA
ATOM     56  C   UNL A   1      43.127  29.966  33.612  1.00  0.00     0.031 C 
ATOM     57  C   UNL A   1      45.045  27.580  29.171  1.00  0.00     0.029 A 
ATOM     58  C   UNL A   1      44.526  26.976  30.303  1.00  0.00     0.049 A 
ATOM     59  H   UNL A   1      43.220  25.349  30.434  1.00  0.00     0.167 HD
ATOM     60  C   UNL A   1      43.996  28.287  32.254  1.00  0.00     0.074 A 
ATOM     61  C   UNL A   1      43.846  28.828  33.597  1.00  0.00     0.031 C 
ATOM     62  C   UNL A   1      44.619  27.177  31.743  1.00  0.00     0.034 A 
BRANCH  49  63
ATOM     63  C   UNL A   1      42.951  24.016  26.803  1.00  0.00     0.023 A 
ATOM     64  C   UNL A   1      42.335  22.759  26.957  1.00  0.00     0.031 A 
ATOM     65  C   UNL A   1      43.814  24.126  25.695  1.00  0.00     0.131 A 
ATOM     66  C   UNL A   1      42.629  21.680  26.108  1.00  0.00     0.055 A 
ATOM     67  C   UNL A   1      44.132  23.044  24.862  1.00  0.00     0.041 A 
ATOM     68  F   UNL A   1      44.362  25.286  25.321  1.00  0.00    -0.206 F 
ATOM     69  C   UNL A   1      43.544  21.808  25.070  1.00  0.00     0.022 A 
BRANCH  66  70
ATOM     70  S   UNL A   1      41.790  20.104  26.395  1.00  0.00     0.124 S 
ATOM     71  O   UNL A   1      42.223  19.313  25.248  1.00  0.00    -0.237 OA
ATOM     72  O   UNL A   1      42.319  19.705  27.695  1.00  0.00    -0.237 OA
ATOM     73  O   UNL A   1      40.374  20.471  26.392  1.00  0.00    -0.744 OA
ENDBRANCH  66  70
ENDBRANCH  49  63
BRANCH  50  74
ATOM     74  C   UNL A   1      40.612  31.751  32.290  1.00  0.00     0.023 A 
ATOM     75  C   UNL A   1      40.087  31.007  33.376  1.00  0.00     0.031 A 
ATOM     76  C   UNL A   1      40.273  33.109  32.213  1.00  0.00     0.131 A 
ATOM     77  C   UNL A   1      39.453  31.663  34.446  1.00  0.00     0.055 A 
ATOM     78  C   UNL A   1      39.564  33.742  33.246  1.00  0.00     0.041 A 
ATOM     79  F   UNL A   1      40.754  33.879  31.226  1.00  0.00    -0.206 F 
ATOM     80  C   UNL A   1      39.207  33.034  34.396  1.00  0.00     0.022 A 
BRANCH  77  81
ATOM     81  S   UNL A   1      39.245  30.763  36.018  1.00  0.00     0.124 S 
ATOM     82  O   UNL A   1      39.728  31.738  36.990  1.00  0.00    -0.237 OA
ATOM     83  O   UNL A   1      37.810  30.492  36.039  1.00  0.00    -0.237 OA
ATOM     84  O   UNL A   1      40.074  29.569  35.853  1.00  0.00    -0.744 OA
ENDBRANCH  77  81
ENDBRANCH  50  74
BRANCH  62  85
ATOM     85  C   UNL A   1      45.351  26.144  32.574  1.00  0.00     0.023 A 
ATOM     86  C   UNL A   1      44.671  25.236  33.392  1.00  0.00     0.031 A 
ATOM     87  C   UNL A   1      46.768  26.070  32.623  1.00  0.00     0.131 A 
ATOM     88  C   UNL A   1      45.371  24.254  34.115  1.00  0.00     0.055 A 
ATOM     89  C   UNL A   1      47.463  25.161  33.422  1.00  0.00     0.041 A 
ATOM     90  F   UNL A   1      47.557  26.840  31.863  1.00  0.00    -0.206 F 
ATOM     91  C   UNL A   1      46.763  24.224  34.158  1.00  0.00     0.022 A 
BRANCH  88  92
ATOM     92  S   UNL A   1      44.419  22.945  34.919  1.00  0.00     0.124 S 
ATOM     93  O   UNL A   1      44.622  23.229  36.336  1.00  0.00    -0.237 OA
ATOM     94  O   UNL A   1      43.075  23.202  34.407  1.00  0.00    -0.237 OA
ATOM     95  O   UNL A   1      45.043  21.715  34.434  1.00  0.00    -0.744 OA
ENDBRANCH  88  92
ENDBRANCH  62  85
ENDBRANCH  36  37
ENDBRANCH  28  31
ENDBRANCH  26  27
ENDBRANCH   1  26
TORSDOF 16
ENDMDL
MODEL 2
REMARK VINA RESULT:     -13.2      1.962      2.343
REMARK SMILES Cc1ccc(/C=C2\SC(=S)N([C@H](C(=O)NCCCNC(=O)c3ccc(-c4c5nc(c(-c6cc(S(=O)(=O)[O-])ccc6F)c6ccc([nH]6)c(-c6cc(S(=O)(=O)[O-])ccc6F)c6nc(c(-c7cc(S(=O)(=O)[O-])ccc7F)c7ccc4[nH]7)C=C6)C=C5)cc3)C(C)C)C2=O)cc1
REMARK SMILES IDX 17 1 16 2 15 3 13 4 14 5 12 7 11 8 6 9 7 10 8 11 88 12 9 13
REMARK SMILES IDX 89 14 10 15 5 16 1 17 2 18 3 19 91 20 4 21 90 22 85 23 86 24
REMARK SMILES IDX 87 25 18 26 19 27 20 28 21 30 22 31 23 32 84 33 24 34 83 35
REMARK SMILES IDX 25 36 26 37 27 38 77 39 28 40 82 41 76 42 78 43 29 44 81 45
REMARK SMILES IDX 75 46 74 47 30 49 62 50 42 51 61 52 43 53 46 54 60 55 79 56
REMARK SMILES IDX 44 57 45 58 59 60 80 61 47 62 31 63 32 64 40 65 33 66 39 67
REMARK SMILES IDX 41 68 38 69 34 70 35 71 36 72 37 73 63 74 64 75 72 76 65 77
REMARK SMILES IDX 71 78 73 79 70 80 66 81 67 82 68 83 69 84 48 85 49 86 57 87
REMARK SMILES IDX 50 88 56 89 58 90 55 91 51 92 52 93 53 94 54 95
REMARK H PARENT 15 6 19 29 78 48 46 59
REMARK Flexibility Score: inf
ROOT
ATOM      1  C   UNL A   1      33.804  29.756  26.788  1.00  0.00     0.042 C 
ENDROOT
BRANCH   1   2
ATOM      2  C   UNL A   1      33.675  28.243  26.835  1.00  0.00     0.117 C 
BRANCH   2   3
ATOM      3  N   UNL A   1      32.424  27.760  26.241  1.00  0.00    -0.354 N 
ATOM      4  C   UNL A   1      32.200  27.094  25.062  1.00  0.00     0.243 C 
ATOM      5  O   UNL A   1      31.076  26.643  24.828  1.00  0.00    -0.273 OA
ATOM      6  H   UNL A   1      31.617  27.944  26.773  1.00  0.00     0.163 HD
BRANCH   4   7
ATOM      7  C   UNL A   1      33.352  26.924  24.049  1.00  0.00     0.184 C 
BRANCH   7   8
ATOM      8  N   UNL A   1      33.545  25.450  23.816  1.00  0.00    -0.280 N 
ATOM      9  C   UNL A   1      33.795  22.127  25.201  1.00  0.00     0.029 C 
ATOM     10  C   UNL A   1      33.817  23.162  24.350  1.00  0.00     0.081 C 
ATOM     11  S   UNL A   1      33.617  23.119  22.658  1.00  0.00    -0.054 SA
ATOM     12  C   UNL A   1      33.933  24.568  24.822  1.00  0.00     0.266 C 
ATOM     13  C   UNL A   1      33.261  24.840  22.596  1.00  0.00     0.149 C 
ATOM     14  O   UNL A   1      34.264  24.806  25.963  1.00  0.00    -0.268 OA
ATOM     15  S   UNL A   1      32.609  25.471  21.199  1.00  0.00    -0.052 S 
BRANCH   9  16
ATOM     16  C   UNL A   1      33.729  20.725  24.784  1.00  0.00    -0.024 A 
ATOM     17  C   UNL A   1      33.673  16.613  23.508  1.00  0.00     0.044 C 
ATOM     18  C   UNL A   1      33.689  18.042  23.960  1.00  0.00    -0.051 A 
ATOM     19  C   UNL A   1      32.535  18.830  23.867  1.00  0.00     0.004 A 
ATOM     20  C   UNL A   1      34.861  18.606  24.472  1.00  0.00     0.004 A 
ATOM     21  C   UNL A   1      32.552  20.168  24.277  1.00  0.00     0.008 A 
ATOM     22  C   UNL A   1      34.878  19.936  24.885  1.00  0.00     0.008 A 
ENDBRANCH   9  16
ENDBRANCH   7   8
BRANCH   7  23
ATOM     23  C   UNL A   1      33.059  27.808  22.790  1.00  0.00     0.015 C 
ATOM     24  C   UNL A   1      31.929  28.836  22.955  1.00  0.00     0.010 C 
ATOM     25  C   UNL A   1      34.316  28.589  22.374  1.00  0.00     0.010 C 
ENDBRANCH   7  23
ENDBRANCH   4   7
ENDBRANCH   2   3
ENDBRANCH   1   2
BRANCH   1  26
ATOM     26  C   UNL A   1      33.943  30.370  28.164  1.00  0.00     0.118 C 
BRANCH  26  27
ATOM     27  N   UNL A   1      34.958  31.408  28.267  1.00  0.00    -0.352 N 
ATOM     28  C   UNL A   1      36.270  31.310  28.701  1.00  0.00     0.251 C 
ATOM     29  H   UNL A   1      34.672  32.308  27.988  1.00  0.00     0.163 HD
ATOM     30  O   UNL A   1      36.917  32.320  28.963  1.00  0.00    -0.269 OA
BRANCH  28  31
ATOM     31  C   UNL A   1      36.962  29.995  28.658  1.00  0.00     0.039 A 
ATOM     32  C   UNL A   1      37.035  29.293  29.873  1.00  0.00     0.014 A 
ATOM     33  C   UNL A   1      37.820  29.671  27.619  1.00  0.00     0.014 A 
ATOM     34  C   UNL A   1      38.157  28.522  30.144  1.00  0.00     0.010 A 
ATOM     35  C   UNL A   1      39.009  29.077  27.940  1.00  0.00     0.010 A 
ATOM     36  C   UNL A   1      39.189  28.555  29.220  1.00  0.00    -0.014 A 
BRANCH  36  37
ATOM     37  C   UNL A   1      40.513  28.025  29.432  1.00  0.00     0.031 A 
ATOM     38  C   UNL A   1      40.776  26.673  28.934  1.00  0.00     0.074 A 
ATOM     39  C   UNL A   1      41.479  28.874  29.839  1.00  0.00     0.049 A 
ATOM     40  N   UNL A   1      41.776  25.957  29.286  1.00  0.00    -0.248 NA
ATOM     41  C   UNL A   1      39.882  25.991  28.001  1.00  0.00     0.031 C 
ATOM     42  C   UNL A   1      42.924  28.700  29.782  1.00  0.00     0.029 A 
ATOM     43  N   UNL A   1      41.301  30.022  30.609  1.00  0.00    -0.354 N 
ATOM     44  C   UNL A   1      41.852  24.903  28.406  1.00  0.00     0.074 A 
ATOM     45  C   UNL A   1      40.589  24.897  27.715  1.00  0.00     0.031 C 
ATOM     46  C   UNL A   1      43.490  29.508  30.696  1.00  0.00     0.029 A 
ATOM     47  C   UNL A   1      42.413  30.095  31.476  1.00  0.00     0.049 A 
ATOM     48  H   UNL A   1      40.550  30.656  30.558  1.00  0.00     0.167 HD
ATOM     49  C   UNL A   1      43.052  24.275  28.269  1.00  0.00     0.034 A 
ATOM     50  C   UNL A   1      42.212  29.904  32.817  1.00  0.00     0.034 A 
ATOM     51  C   UNL A   1      44.024  24.833  29.217  1.00  0.00     0.049 A 
ATOM     52  C   UNL A   1      42.827  28.610  33.335  1.00  0.00     0.074 A 
ATOM     53  C   UNL A   1      45.068  25.738  29.122  1.00  0.00     0.029 A 
ATOM     54  N   UNL A   1      43.753  24.710  30.564  1.00  0.00    -0.354 N 
ATOM     55  N   UNL A   1      43.377  27.699  32.575  1.00  0.00    -0.248 NA
ATOM     56  C   UNL A   1      42.838  28.219  34.742  1.00  0.00     0.031 C 
ATOM     57  C   UNL A   1      45.383  26.182  30.445  1.00  0.00     0.029 A 
ATOM     58  C   UNL A   1      44.556  25.520  31.335  1.00  0.00     0.049 A 
ATOM     59  H   UNL A   1      43.063  24.113  30.933  1.00  0.00     0.167 HD
ATOM     60  C   UNL A   1      43.773  26.624  33.329  1.00  0.00     0.074 A 
ATOM     61  C   UNL A   1      43.397  26.996  34.685  1.00  0.00     0.031 C 
ATOM     62  C   UNL A   1      44.351  25.509  32.778  1.00  0.00     0.034 A 
BRANCH  49  63
ATOM     63  C   UNL A   1      43.443  23.337  27.154  1.00  0.00     0.023 A 
ATOM     64  C   UNL A   1      42.765  22.104  27.076  1.00  0.00     0.031 A 
ATOM     65  C   UNL A   1      44.443  23.531  26.182  1.00  0.00     0.131 A 
ATOM     66  C   UNL A   1      43.124  21.119  26.142  1.00  0.00     0.055 A 
ATOM     67  C   UNL A   1      44.824  22.540  25.266  1.00  0.00     0.041 A 
ATOM     68  F   UNL A   1      45.078  24.696  26.023  1.00  0.00    -0.206 F 
ATOM     69  C   UNL A   1      44.168  21.320  25.247  1.00  0.00     0.022 A 
BRANCH  66  70
ATOM     70  S   UNL A   1      42.197  19.566  26.128  1.00  0.00     0.124 S 
ATOM     71  O   UNL A   1      42.770  18.878  24.976  1.00  0.00    -0.237 OA
ATOM     72  O   UNL A   1      42.510  19.008  27.439  1.00  0.00    -0.237 OA
ATOM     73  O   UNL A   1      40.811  20.004  25.960  1.00  0.00    -0.744 OA
ENDBRANCH  66  70
ENDBRANCH  49  63
BRANCH  50  74
ATOM     74  C   UNL A   1      40.918  30.535  33.255  1.00  0.00     0.023 A 
ATOM     75  C   UNL A   1      40.873  31.951  33.248  1.00  0.00     0.031 A 
ATOM     76  C   UNL A   1      39.700  29.848  33.152  1.00  0.00     0.131 A 
ATOM     77  C   UNL A   1      39.683  32.622  32.914  1.00  0.00     0.055 A 
ATOM     78  C   UNL A   1      38.499  30.531  32.904  1.00  0.00     0.041 A 
ATOM     79  F   UNL A   1      39.670  28.508  33.129  1.00  0.00    -0.206 F 
ATOM     80  C   UNL A   1      38.497  31.916  32.721  1.00  0.00     0.022 A 
BRANCH  77  81
ATOM     81  S   UNL A   1      39.780  34.378  32.431  1.00  0.00     0.124 S 
ATOM     82  O   UNL A   1      41.195  34.523  32.107  1.00  0.00    -0.237 OA
ATOM     83  O   UNL A   1      38.851  34.448  31.307  1.00  0.00    -0.237 OA
ATOM     84  O   UNL A   1      39.327  35.095  33.623  1.00  0.00    -0.744 OA
ENDBRANCH  77  81
ENDBRANCH  50  74
BRANCH  62  85
ATOM     85  C   UNL A   1      44.749  24.273  33.557  1.00  0.00     0.023 A 
ATOM     86  C   UNL A   1      46.088  23.907  33.731  1.00  0.00     0.031 A 
ATOM     87  C   UNL A   1      43.793  23.376  34.104  1.00  0.00     0.131 A 
ATOM     88  C   UNL A   1      46.432  22.781  34.502  1.00  0.00     0.055 A 
ATOM     89  C   UNL A   1      44.136  22.205  34.779  1.00  0.00     0.041 A 
ATOM     90  F   UNL A   1      42.475  23.611  34.060  1.00  0.00    -0.206 F 
ATOM     91  C   UNL A   1      45.467  21.912  35.006  1.00  0.00     0.022 A 
BRANCH  88  92
ATOM     92  S   UNL A   1      48.173  22.534  34.920  1.00  0.00     0.124 S 
ATOM     93  O   UNL A   1      48.429  21.185  34.427  1.00  0.00    -0.237 OA
ATOM     94  O   UNL A   1      48.811  23.614  34.172  1.00  0.00    -0.237 OA
ATOM     95  O   UNL A   1      48.204  22.684  36.373  1.00  0.00    -0.744 OA
ENDBRANCH  88  92
ENDBRANCH  62  85
ENDBRANCH  36  37
ENDBRANCH  28  31
ENDBRANCH  26  27
ENDBRANCH   1  26
TORSDOF 16
ENDMDL
MODEL 3
REMARK VINA RESULT:     -13.0      4.006      9.703
REMARK SMILES Cc1ccc(/C=C2\SC(=S)N([C@H](C(=O)NCCCNC(=O)c3ccc(-c4c5nc(c(-c6cc(S(=O)(=O)[O-])ccc6F)c6ccc([nH]6)c(-c6cc(S(=O)(=O)[O-])ccc6F)c6nc(c(-c7cc(S(=O)(=O)[O-])ccc7F)c7ccc4[nH]7)C=C6)C=C5)cc3)C(C)C)C2=O)cc1
REMARK SMILES IDX 17 1 16 2 15 3 13 4 14 5 12 7 11 8 6 9 7 10 8 11 88 12 9 13
REMARK SMILES IDX 89 14 10 15 5 16 1 17 2 18 3 19 91 20 4 21 90 22 85 23 86 24
REMARK SMILES IDX 87 25 18 26 19 27 20 28 21 30 22 31 23 32 84 33 24 34 83 35
REMARK SMILES IDX 25 36 26 37 27 38 77 39 28 40 82 41 76 42 78 43 29 44 81 45
REMARK SMILES IDX 75 46 74 47 30 49 62 50 42 51 61 52 43 53 46 54 60 55 79 56
REMARK SMILES IDX 44 57 45 58 59 60 80 61 47 62 31 63 32 64 40 65 33 66 39 67
REMARK SMILES IDX 41 68 38 69 34 70 35 71 36 72 37 73 63 74 64 75 72 76 65 77
REMARK SMILES IDX 71 78 73 79 70 80 66 81 67 82 68 83 69 84 48 85 49 86 57 87
REMARK SMILES IDX 50 88 56 89 58 90 55 91 51 92 52 93 53 94 54 95
REMARK H PARENT 15 6 19 29 78 48 46 59
REMARK Flexibility Score: inf
ROOT
ATOM      1  C   UNL A   1      37.605  22.102  24.639  1.00  0.00     0.042 C 
ENDROOT
BRANCH   1   2
ATOM      2  C   UNL A   1      36.659  23.210  24.209  1.00  0.00     0.117 C 
BRANCH   2   3
ATOM      3  N   UNL A   1      35.442  22.700  23.566  1.00  0.00    -0.354 N 
ATOM      4  C   UNL A   1      34.137  22.726  23.989  1.00  0.00     0.243 C 
ATOM      5  O   UNL A   1      33.244  22.375  23.214  1.00  0.00    -0.273 OA
ATOM      6  H   UNL A   1      35.587  22.272  22.692  1.00  0.00     0.163 HD
BRANCH   4   7
ATOM      7  C   UNL A   1      33.807  23.189  25.424  1.00  0.00     0.184 C 
BRANCH   7   8
ATOM      8  N   UNL A   1      32.880  24.371  25.325  1.00  0.00    -0.280 N 
ATOM      9  C   UNL A   1      32.037  27.487  23.712  1.00  0.00     0.029 C 
ATOM     10  C   UNL A   1      32.052  26.450  24.560  1.00  0.00     0.081 C 
ATOM     11  S   UNL A   1      30.767  25.877  25.522  1.00  0.00    -0.054 SA
ATOM     12  C   UNL A   1      33.239  25.564  24.703  1.00  0.00     0.266 C 
ATOM     13  C   UNL A   1      31.560  24.327  25.766  1.00  0.00     0.149 C 
ATOM     14  O   UNL A   1      34.311  25.899  24.248  1.00  0.00    -0.268 OA
ATOM     15  S   UNL A   1      30.672  23.066  26.394  1.00  0.00    -0.052 S 
BRANCH   9  16
ATOM     16  C   UNL A   1      30.913  28.413  23.569  1.00  0.00    -0.024 A 
ATOM     17  C   UNL A   1      27.622  31.176  23.292  1.00  0.00     0.044 C 
ATOM     18  C   UNL A   1      28.771  30.217  23.382  1.00  0.00    -0.051 A 
ATOM     19  C   UNL A   1      28.741  29.005  22.680  1.00  0.00     0.004 A 
ATOM     20  C   UNL A   1      29.882  30.521  24.173  1.00  0.00     0.004 A 
ATOM     21  C   UNL A   1      29.807  28.104  22.772  1.00  0.00     0.008 A 
ATOM     22  C   UNL A   1      30.947  29.626  24.262  1.00  0.00     0.008 A 
ENDBRANCH   9  16
ENDBRANCH   7   8
BRANCH   7  23
ATOM     23  C   UNL A   1      33.302  21.960  26.254  1.00  0.00     0.015 C 
ATOM     24  C   UNL A   1      33.528  20.587  25.601  1.00  0.00     0.010 C 
ATOM     25  C   UNL A   1      33.985  21.919  27.629  1.00  0.00     0.010 C 
ENDBRANCH   7  23
ENDBRANCH   4   7
ENDBRANCH   2   3
ENDBRANCH   1   2
BRANCH   1  26
ATOM     26  C   UNL A   1      37.869  22.107  26.128  1.00  0.00     0.118 C 
BRANCH  26  27
ATOM     27  N   UNL A   1      39.276  22.077  26.497  1.00  0.00    -0.352 N 
ATOM     28  C   UNL A   1      40.177  23.124  26.599  1.00  0.00     0.251 C 
ATOM     29  H   UNL A   1      39.639  21.186  26.704  1.00  0.00     0.163 HD
ATOM     30  O   UNL A   1      41.383  22.903  26.678  1.00  0.00    -0.269 OA
BRANCH  28  31
ATOM     31  C   UNL A   1      39.676  24.507  26.817  1.00  0.00     0.039 A 
ATOM     32  C   UNL A   1      40.422  25.537  26.222  1.00  0.00     0.014 A 
ATOM     33  C   UNL A   1      38.798  24.796  27.850  1.00  0.00     0.014 A 
ATOM     34  C   UNL A   1      40.528  26.759  26.870  1.00  0.00     0.010 A 
ATOM     35  C   UNL A   1      39.041  25.916  28.594  1.00  0.00     0.010 A 
ATOM     36  C   UNL A   1      39.948  26.866  28.124  1.00  0.00    -0.014 A 
BRANCH  36  37
ATOM     37  C   UNL A   1      40.152  27.955  29.046  1.00  0.00     0.031 A 
ATOM     38  C   UNL A   1      39.247  29.101  28.934  1.00  0.00     0.074 A 
ATOM     39  C   UNL A   1      40.979  27.754  30.093  1.00  0.00     0.049 A 
ATOM     40  N   UNL A   1      39.465  30.246  29.462  1.00  0.00    -0.248 NA
ATOM     41  C   UNL A   1      38.007  29.050  28.163  1.00  0.00     0.031 C 
ATOM     42  C   UNL A   1      41.083  28.519  31.328  1.00  0.00     0.029 A 
ATOM     43  N   UNL A   1      42.074  26.893  30.128  1.00  0.00    -0.354 N 
ATOM     44  C   UNL A   1      38.286  30.953  29.401  1.00  0.00     0.074 A 
ATOM     45  C   UNL A   1      37.457  30.225  28.477  1.00  0.00     0.031 C 
ATOM     46  C   UNL A   1      42.301  28.313  31.860  1.00  0.00     0.029 A 
ATOM     47  C   UNL A   1      43.067  27.545  30.892  1.00  0.00     0.049 A 
ATOM     48  H   UNL A   1      42.142  26.006  29.705  1.00  0.00     0.167 HD
ATOM     49  C   UNL A   1      38.116  31.980  30.278  1.00  0.00     0.034 A 
ATOM     50  C   UNL A   1      44.203  27.975  30.259  1.00  0.00     0.034 A 
ATOM     51  C   UNL A   1      39.337  32.175  31.069  1.00  0.00     0.049 A 
ATOM     52  C   UNL A   1      44.306  29.494  30.189  1.00  0.00     0.074 A 
ATOM     53  C   UNL A   1      39.734  31.826  32.350  1.00  0.00     0.029 A 
ATOM     54  N   UNL A   1      40.492  32.518  30.397  1.00  0.00    -0.354 N 
ATOM     55  N   UNL A   1      43.362  30.317  30.566  1.00  0.00    -0.248 NA
ATOM     56  C   UNL A   1      45.463  30.208  29.653  1.00  0.00     0.031 C 
ATOM     57  C   UNL A   1      41.159  31.932  32.409  1.00  0.00     0.029 A 
ATOM     58  C   UNL A   1      41.615  32.376  31.181  1.00  0.00     0.049 A 
ATOM     59  H   UNL A   1      40.512  32.829  29.464  1.00  0.00     0.167 HD
ATOM     60  C   UNL A   1      43.729  31.613  30.312  1.00  0.00     0.074 A 
ATOM     61  C   UNL A   1      45.054  31.488  29.724  1.00  0.00     0.031 C 
ATOM     62  C   UNL A   1      42.908  32.678  30.581  1.00  0.00     0.034 A 
BRANCH  49  63
ATOM     63  C   UNL A   1      36.811  32.662  30.606  1.00  0.00     0.023 A 
ATOM     64  C   UNL A   1      36.123  33.289  29.549  1.00  0.00     0.031 A 
ATOM     65  C   UNL A   1      36.199  32.779  31.869  1.00  0.00     0.131 A 
ATOM     66  C   UNL A   1      34.956  34.039  29.766  1.00  0.00     0.055 A 
ATOM     67  C   UNL A   1      35.051  33.551  32.095  1.00  0.00     0.041 A 
ATOM     68  F   UNL A   1      36.640  32.124  32.947  1.00  0.00    -0.206 F 
ATOM     69  C   UNL A   1      34.424  34.194  31.040  1.00  0.00     0.022 A 
BRANCH  66  70
ATOM     70  S   UNL A   1      34.151  34.811  28.342  1.00  0.00     0.124 S 
ATOM     71  O   UNL A   1      34.939  34.295  27.227  1.00  0.00    -0.237 OA
ATOM     72  O   UNL A   1      32.784  34.316  28.454  1.00  0.00    -0.237 OA
ATOM     73  O   UNL A   1      34.311  36.242  28.601  1.00  0.00    -0.744 OA
ENDBRANCH  66  70
ENDBRANCH  49  63
BRANCH  50  74
ATOM     74  C   UNL A   1      44.637  26.985  29.213  1.00  0.00     0.023 A 
ATOM     75  C   UNL A   1      44.408  27.354  27.864  1.00  0.00     0.031 A 
ATOM     76  C   UNL A   1      45.656  26.056  29.467  1.00  0.00     0.131 A 
ATOM     77  C   UNL A   1      45.320  26.979  26.861  1.00  0.00     0.055 A 
ATOM     78  C   UNL A   1      46.511  25.617  28.443  1.00  0.00     0.041 A 
ATOM     79  F   UNL A   1      45.943  25.681  30.721  1.00  0.00    -0.206 F 
ATOM     80  C   UNL A   1      46.385  26.127  27.149  1.00  0.00     0.022 A 
BRANCH  77  81
ATOM     81  S   UNL A   1      45.274  27.864  25.268  1.00  0.00     0.124 S 
ATOM     82  O   UNL A   1      43.850  27.843  24.953  1.00  0.00    -0.237 OA
ATOM     83  O   UNL A   1      45.837  29.167  25.614  1.00  0.00    -0.237 OA
ATOM     84  O   UNL A   1      46.128  27.060  24.394  1.00  0.00    -0.744 OA
ENDBRANCH  77  81
ENDBRANCH  50  74
BRANCH  62  85
ATOM     85  C   UNL A   1      43.240  34.122  30.263  1.00  0.00     0.023 A 
ATOM     86  C   UNL A   1      43.329  34.587  28.947  1.00  0.00     0.031 A 
ATOM     87  C   UNL A   1      43.542  35.075  31.271  1.00  0.00     0.131 A 
ATOM     88  C   UNL A   1      43.590  35.943  28.679  1.00  0.00     0.055 A 
ATOM     89  C   UNL A   1      43.902  36.395  30.998  1.00  0.00     0.041 A 
ATOM     90  F   UNL A   1      43.456  34.795  32.578  1.00  0.00    -0.206 F 
ATOM     91  C   UNL A   1      43.903  36.846  29.692  1.00  0.00     0.022 A 
BRANCH  88  92
ATOM     92  S   UNL A   1      43.409  36.526  26.978  1.00  0.00     0.124 S 
ATOM     93  O   UNL A   1      41.960  36.608  26.823  1.00  0.00    -0.237 OA
ATOM     94  O   UNL A   1      44.114  37.805  27.029  1.00  0.00    -0.237 OA
ATOM     95  O   UNL A   1      44.064  35.488  26.184  1.00  0.00    -0.744 OA
ENDBRANCH  88  92
ENDBRANCH  62  85
ENDBRANCH  36  37
ENDBRANCH  28  31
ENDBRANCH  26  27
ENDBRANCH   1  26
TORSDOF 16
ENDMDL
