MODEL 1
REMARK VINA RESULT:     -12.4      0.000      0.000
REMARK SMILES C[NH+]1CCN(c2nc3c(cc2F)c(=O)c(C(=O)NCCCNC(=O)c2ccc(-c4c5nc(c(-c6cc(S(=O)(=O)[O-])ccc6F)c6ccc([nH]6)c(-c6cc(S(=O)(=O)[O-])ccc6F)c6nc(c(-c7cc(S(=O)(=O)[O-])ccc7F)c7ccc4[nH]7)C=C6)C=C5)cc2)cn3-c2ccc(F)cc2F)CC1
REMARK SMILES IDX 21 1 20 2 19 3 18 4 16 5 17 6 15 8 6 9 7 10 11 11 8 12 10 13
REMARK SMILES IDX 12 14 9 15 89 16 13 17 88 18 14 19 5 20 1 21 2 22 3 23 99 24
REMARK SMILES IDX 4 26 98 27 90 28 91 29 96 30 92 31 95 32 97 33 93 34 94 35
REMARK SMILES IDX 22 36 23 37 24 39 25 40 26 41 87 42 27 43 86 44 28 45 29 46
REMARK SMILES IDX 30 47 80 48 31 49 85 50 79 51 81 52 32 53 84 54 78 55 77 56
REMARK SMILES IDX 33 58 65 59 45 60 64 61 46 62 49 63 63 64 82 65 47 66 48 67
REMARK SMILES IDX 62 69 83 70 50 71 34 72 35 73 43 74 36 75 42 76 44 77 41 78
REMARK SMILES IDX 37 79 38 80 39 81 40 82 66 83 67 84 75 85 68 86 74 87 76 88
REMARK SMILES IDX 73 89 69 90 70 91 71 92 72 93 51 94 52 95 60 96 53 97 59 98
REMARK SMILES IDX 61 99 58 100 54 101 55 102 56 103 57 104
REMARK H PARENT 18 7 2 25 22 38 81 57 49 68
REMARK Flexibility Score: inf
ROOT
ATOM      1  C   UNL A   1      36.553  23.559  25.776  1.00  0.00     0.118 C 
ENDROOT
BRANCH   1   2
ATOM      2  C   UNL A   1      35.311  23.372  26.632  1.00  0.00     0.042 C 
BRANCH   2   3
ATOM      3  C   UNL A   1      34.126  22.796  25.860  1.00  0.00     0.118 C 
BRANCH   3   4
ATOM      4  N   UNL A   1      32.952  22.666  26.706  1.00  0.00    -0.352 N 
ATOM      5  C   UNL A   1      31.845  23.439  26.862  1.00  0.00     0.256 C 
ATOM      6  O   UNL A   1      30.995  23.011  27.651  1.00  0.00    -0.269 OA
ATOM      7  H   UNL A   1      32.961  21.863  27.276  1.00  0.00     0.163 HD
BRANCH   5   8
ATOM      8  C   UNL A   1      31.582  24.683  26.085  1.00  0.00     0.104 A 
ATOM      9  C   UNL A   1      29.986  28.813  23.584  1.00  0.00     0.167 A 
ATOM     10  N   UNL A   1      31.006  28.568  24.444  1.00  0.00    -0.209 NA
ATOM     11  C   UNL A   1      29.125  27.791  23.178  1.00  0.00     0.166 A 
ATOM     12  C   UNL A   1      31.191  27.313  24.932  1.00  0.00     0.151 A 
ATOM     13  C   UNL A   1      29.338  26.498  23.614  1.00  0.00     0.059 A 
ATOM     14  F   UNL A   1      28.112  28.031  22.331  1.00  0.00    -0.203 F 
ATOM     15  C   UNL A   1      30.389  26.260  24.496  1.00  0.00     0.069 A 
ATOM     16  N   UNL A   1      32.209  27.051  25.906  1.00  0.00    -0.297 N 
ATOM     17  C   UNL A   1      30.672  24.886  24.937  1.00  0.00     0.203 A 
ATOM     18  C   UNL A   1      32.298  25.766  26.438  1.00  0.00     0.111 A 
ATOM     19  O   UNL A   1      30.151  23.978  24.307  1.00  0.00    -0.288 OA
BRANCH   9  20
ATOM     20  N   UNL A   1      29.853  30.098  23.126  1.00  0.00    -0.343 N 
ATOM     21  C   UNL A   1      27.371  32.663  20.816  1.00  0.00     0.332 C 
ATOM     22  N   UNL A   1      28.467  32.146  21.630  1.00  0.00    -0.334 N 
ATOM     23  C   UNL A   1      29.141  31.013  20.945  1.00  0.00     0.283 C 
ATOM     24  C   UNL A   1      27.958  31.677  22.940  1.00  0.00     0.283 C 
ATOM     25  H   UNL A   1      29.138  32.902  21.771  1.00  0.00     0.347 HD
ATOM     26  C   UNL A   1      30.309  30.417  21.776  1.00  0.00     0.179 C 
ATOM     27  C   UNL A   1      29.080  31.109  23.834  1.00  0.00     0.179 C 
ENDBRANCH   9  20
BRANCH  16  28
ATOM     28  C   UNL A   1      33.083  28.073  26.386  1.00  0.00     0.083 A 
ATOM     29  C   UNL A   1      34.444  28.075  26.038  1.00  0.00     0.033 A 
ATOM     30  C   UNL A   1      32.612  29.107  27.213  1.00  0.00     0.150 A 
ATOM     31  C   UNL A   1      35.296  29.080  26.503  1.00  0.00     0.041 A 
ATOM     32  C   UNL A   1      33.456  30.102  27.693  1.00  0.00     0.080 A 
ATOM     33  F   UNL A   1      31.321  29.140  27.579  1.00  0.00    -0.205 F 
ATOM     34  C   UNL A   1      34.794  30.079  27.329  1.00  0.00     0.126 A 
ATOM     35  F   UNL A   1      35.618  31.035  27.779  1.00  0.00    -0.207 F 
ENDBRANCH  16  28
ENDBRANCH   5   8
ENDBRANCH   3   4
ENDBRANCH   2   3
ENDBRANCH   1   2
BRANCH   1  36
ATOM     36  N   UNL A   1      37.573  22.563  26.077  1.00  0.00    -0.352 N 
ATOM     37  C   UNL A   1      38.865  22.756  26.502  1.00  0.00     0.251 C 
ATOM     38  H   UNL A   1      37.299  21.625  25.960  1.00  0.00     0.163 HD
ATOM     39  O   UNL A   1      39.664  21.822  26.477  1.00  0.00    -0.269 OA
BRANCH  37  40
ATOM     40  C   UNL A   1      39.290  24.088  26.980  1.00  0.00     0.039 A 
ATOM     41  C   UNL A   1      39.049  24.445  28.309  1.00  0.00     0.014 A 
ATOM     42  C   UNL A   1      39.911  24.989  26.109  1.00  0.00     0.014 A 
ATOM     43  C   UNL A   1      39.469  25.694  28.774  1.00  0.00     0.010 A 
ATOM     44  C   UNL A   1      40.393  26.201  26.591  1.00  0.00     0.010 A 
ATOM     45  C   UNL A   1      40.156  26.574  27.921  1.00  0.00    -0.014 A 
BRANCH  45  46
ATOM     46  C   UNL A   1      40.586  27.911  28.396  1.00  0.00     0.031 A 
ATOM     47  C   UNL A   1      42.043  28.282  28.353  1.00  0.00     0.074 A 
ATOM     48  C   UNL A   1      39.679  28.771  28.894  1.00  0.00     0.049 A 
ATOM     49  N   UNL A   1      42.615  29.407  28.692  1.00  0.00    -0.248 NA
ATOM     50  C   UNL A   1      42.983  27.247  27.891  1.00  0.00     0.031 C 
ATOM     51  C   UNL A   1      38.249  28.493  29.041  1.00  0.00     0.029 A 
ATOM     52  N   UNL A   1      39.821  30.049  29.373  1.00  0.00    -0.354 N 
ATOM     53  C   UNL A   1      43.975  29.218  28.481  1.00  0.00     0.074 A 
ATOM     54  C   UNL A   1      44.152  27.850  28.052  1.00  0.00     0.031 C 
ATOM     55  C   UNL A   1      37.643  29.576  29.552  1.00  0.00     0.029 A 
ATOM     56  C   UNL A   1      38.640  30.621  29.784  1.00  0.00     0.049 A 
ATOM     57  H   UNL A   1      40.687  30.514  29.417  1.00  0.00     0.167 HD
ATOM     58  C   UNL A   1      44.981  30.114  28.601  1.00  0.00     0.034 A 
ATOM     59  C   UNL A   1      38.385  31.851  30.275  1.00  0.00     0.034 A 
ATOM     60  C   UNL A   1      44.788  31.478  29.014  1.00  0.00     0.049 A 
ATOM     61  C   UNL A   1      39.516  32.845  30.369  1.00  0.00     0.074 A 
ATOM     62  C   UNL A   1      45.735  32.480  29.125  1.00  0.00     0.029 A 
ATOM     63  N   UNL A   1      43.569  32.035  29.372  1.00  0.00    -0.354 N 
ATOM     64  N   UNL A   1      40.784  32.681  30.071  1.00  0.00    -0.248 NA
ATOM     65  C   UNL A   1      39.183  34.199  30.837  1.00  0.00     0.031 C 
ATOM     66  C   UNL A   1      45.097  33.631  29.589  1.00  0.00     0.029 A 
ATOM     67  C   UNL A   1      43.741  33.366  29.709  1.00  0.00     0.049 A 
ATOM     68  H   UNL A   1      42.710  31.555  29.384  1.00  0.00     0.167 HD
ATOM     69  C   UNL A   1      41.389  33.919  30.273  1.00  0.00     0.074 A 
ATOM     70  C   UNL A   1      40.348  34.823  30.714  1.00  0.00     0.031 C 
ATOM     71  C   UNL A   1      42.689  34.269  30.105  1.00  0.00     0.034 A 
BRANCH  58  72
ATOM     72  C   UNL A   1      46.377  29.673  28.250  1.00  0.00     0.023 A 
ATOM     73  C   UNL A   1      47.222  29.141  29.240  1.00  0.00     0.031 A 
ATOM     74  C   UNL A   1      46.901  29.879  26.961  1.00  0.00     0.131 A 
ATOM     75  C   UNL A   1      48.558  28.858  28.930  1.00  0.00     0.055 A 
ATOM     76  C   UNL A   1      48.222  29.560  26.649  1.00  0.00     0.041 A 
ATOM     77  F   UNL A   1      46.130  30.381  25.983  1.00  0.00    -0.206 F 
ATOM     78  C   UNL A   1      49.060  29.056  27.639  1.00  0.00     0.022 A 
BRANCH  75  79
ATOM     79  S   UNL A   1      49.705  28.256  30.199  1.00  0.00     0.124 S 
ATOM     80  O   UNL A   1      50.926  28.992  29.876  1.00  0.00    -0.237 OA
ATOM     81  O   UNL A   1      49.037  28.663  31.431  1.00  0.00    -0.237 OA
ATOM     82  O   UNL A   1      49.769  26.818  29.958  1.00  0.00    -0.744 OA
ENDBRANCH  75  79
ENDBRANCH  58  72
BRANCH  59  83
ATOM     83  C   UNL A   1      36.981  32.225  30.606  1.00  0.00     0.023 A 
ATOM     84  C   UNL A   1      36.165  32.888  29.671  1.00  0.00     0.031 A 
ATOM     85  C   UNL A   1      36.471  32.012  31.898  1.00  0.00     0.131 A 
ATOM     86  C   UNL A   1      34.901  33.353  30.059  1.00  0.00     0.055 A 
ATOM     87  C   UNL A   1      35.190  32.427  32.262  1.00  0.00     0.041 A 
ATOM     88  F   UNL A   1      37.222  31.398  32.827  1.00  0.00    -0.206 F 
ATOM     89  C   UNL A   1      34.401  33.113  31.343  1.00  0.00     0.022 A 
BRANCH  86  90
ATOM     90  S   UNL A   1      33.895  34.365  28.938  1.00  0.00     0.124 S 
ATOM     91  O   UNL A   1      34.870  35.331  28.438  1.00  0.00    -0.237 OA
ATOM     92  O   UNL A   1      33.442  33.369  27.970  1.00  0.00    -0.237 OA
ATOM     93  O   UNL A   1      32.857  34.911  29.804  1.00  0.00    -0.744 OA
ENDBRANCH  86  90
ENDBRANCH  59  83
BRANCH  71  94
ATOM     94  C   UNL A   1      43.091  35.702  30.346  1.00  0.00     0.023 A 
ATOM     95  C   UNL A   1      43.073  36.615  29.273  1.00  0.00     0.031 A 
ATOM     96  C   UNL A   1      43.644  36.118  31.567  1.00  0.00     0.131 A 
ATOM     97  C   UNL A   1      43.635  37.887  29.433  1.00  0.00     0.055 A 
ATOM     98  C   UNL A   1      44.165  37.402  31.734  1.00  0.00     0.041 A 
ATOM     99  F   UNL A   1      43.696  35.277  32.613  1.00  0.00    -0.206 F 
ATOM    100  C   UNL A   1      44.174  38.288  30.660  1.00  0.00     0.022 A 
BRANCH  97 101
ATOM    101  S   UNL A   1      43.759  39.037  28.035  1.00  0.00     0.124 S 
ATOM    102  O   UNL A   1      43.324  40.295  28.639  1.00  0.00    -0.237 OA
ATOM    103  O   UNL A   1      45.179  38.963  27.702  1.00  0.00    -0.237 OA
ATOM    104  O   UNL A   1      42.849  38.481  27.039  1.00  0.00    -0.744 OA
ENDBRANCH  97 101
ENDBRANCH  71  94
ENDBRANCH  45  46
ENDBRANCH  37  40
ENDBRANCH   1  36
TORSDOF 15
ENDMDL
MODEL 2
REMARK VINA RESULT:     -12.3      2.341      2.767
REMARK SMILES C[NH+]1CCN(c2nc3c(cc2F)c(=O)c(C(=O)NCCCNC(=O)c2ccc(-c4c5nc(c(-c6cc(S(=O)(=O)[O-])ccc6F)c6ccc([nH]6)c(-c6cc(S(=O)(=O)[O-])ccc6F)c6nc(c(-c7cc(S(=O)(=O)[O-])ccc7F)c7ccc4[nH]7)C=C6)C=C5)cc2)cn3-c2ccc(F)cc2F)CC1
REMARK SMILES IDX 21 1 20 2 19 3 18 4 16 5 17 6 15 8 6 9 7 10 11 11 8 12 10 13
REMARK SMILES IDX 12 14 9 15 89 16 13 17 88 18 14 19 5 20 1 21 2 22 3 23 99 24
REMARK SMILES IDX 4 26 98 27 90 28 91 29 96 30 92 31 95 32 97 33 93 34 94 35
REMARK SMILES IDX 22 36 23 37 24 39 25 40 26 41 87 42 27 43 86 44 28 45 29 46
REMARK SMILES IDX 30 47 80 48 31 49 85 50 79 51 81 52 32 53 84 54 78 55 77 56
REMARK SMILES IDX 33 58 65 59 45 60 64 61 46 62 49 63 63 64 82 65 47 66 48 67
REMARK SMILES IDX 62 69 83 70 50 71 34 72 35 73 43 74 36 75 42 76 44 77 41 78
REMARK SMILES IDX 37 79 38 80 39 81 40 82 66 83 67 84 75 85 68 86 74 87 76 88
REMARK SMILES IDX 73 89 69 90 70 91 71 92 72 93 51 94 52 95 60 96 53 97 59 98
REMARK SMILES IDX 61 99 58 100 54 101 55 102 56 103 57 104
REMARK H PARENT 18 7 2 25 22 38 81 57 49 68
REMARK Flexibility Score: inf
ROOT
ATOM      1  C   UNL A   1      36.468  22.722  25.538  1.00  0.00     0.118 C 
ENDROOT
BRANCH   1   2
ATOM      2  C   UNL A   1      35.256  22.707  26.456  1.00  0.00     0.042 C 
BRANCH   2   3
ATOM      3  C   UNL A   1      33.930  22.620  25.704  1.00  0.00     0.118 C 
BRANCH   3   4
ATOM      4  N   UNL A   1      32.803  22.556  26.618  1.00  0.00    -0.352 N 
ATOM      5  C   UNL A   1      31.751  23.389  26.837  1.00  0.00     0.256 C 
ATOM      6  O   UNL A   1      30.927  23.010  27.677  1.00  0.00    -0.269 OA
ATOM      7  H   UNL A   1      32.801  21.755  27.191  1.00  0.00     0.163 HD
BRANCH   5   8
ATOM      8  C   UNL A   1      31.512  24.645  26.072  1.00  0.00     0.104 A 
ATOM      9  C   UNL A   1      29.992  28.821  23.598  1.00  0.00     0.167 A 
ATOM     10  N   UNL A   1      30.996  28.556  24.471  1.00  0.00    -0.209 NA
ATOM     11  C   UNL A   1      29.129  27.811  23.164  1.00  0.00     0.166 A 
ATOM     12  C   UNL A   1      31.162  27.293  24.946  1.00  0.00     0.151 A 
ATOM     13  C   UNL A   1      29.324  26.511  23.587  1.00  0.00     0.059 A 
ATOM     14  F   UNL A   1      28.133  28.071  22.304  1.00  0.00    -0.203 F 
ATOM     15  C   UNL A   1      30.359  26.252  24.484  1.00  0.00     0.069 A 
ATOM     16  N   UNL A   1      32.161  27.010  25.933  1.00  0.00    -0.297 N 
ATOM     17  C   UNL A   1      30.623  24.871  24.912  1.00  0.00     0.203 A 
ATOM     18  C   UNL A   1      32.230  25.718  26.450  1.00  0.00     0.111 A 
ATOM     19  O   UNL A   1      30.105  23.976  24.261  1.00  0.00    -0.288 OA
BRANCH   9  20
ATOM     20  N   UNL A   1      29.878  30.113  23.154  1.00  0.00    -0.343 N 
ATOM     21  C   UNL A   1      27.456  32.728  20.836  1.00  0.00     0.332 C 
ATOM     22  N   UNL A   1      28.535  32.191  21.662  1.00  0.00    -0.334 N 
ATOM     23  C   UNL A   1      29.210  31.062  20.974  1.00  0.00     0.283 C 
ATOM     24  C   UNL A   1      28.000  31.710  22.958  1.00  0.00     0.283 C 
ATOM     25  H   UNL A   1      29.209  32.940  21.823  1.00  0.00     0.347 HD
ATOM     26  C   UNL A   1      30.359  30.445  21.816  1.00  0.00     0.179 C 
ATOM     27  C   UNL A   1      29.101  31.121  23.863  1.00  0.00     0.179 C 
ENDBRANCH   9  20
BRANCH  16  28
ATOM     28  C   UNL A   1      33.036  28.018  26.440  1.00  0.00     0.083 A 
ATOM     29  C   UNL A   1      34.403  28.013  26.114  1.00  0.00     0.033 A 
ATOM     30  C   UNL A   1      32.560  29.046  27.274  1.00  0.00     0.150 A 
ATOM     31  C   UNL A   1      35.256  29.005  26.606  1.00  0.00     0.041 A 
ATOM     32  C   UNL A   1      33.405  30.026  27.780  1.00  0.00     0.080 A 
ATOM     33  F   UNL A   1      31.263  29.084  27.619  1.00  0.00    -0.205 F 
ATOM     34  C   UNL A   1      34.748  29.997  27.437  1.00  0.00     0.126 A 
ATOM     35  F   UNL A   1      35.572  30.940  27.913  1.00  0.00    -0.207 F 
ENDBRANCH  16  28
ENDBRANCH   5   8
ENDBRANCH   3   4
ENDBRANCH   2   3
ENDBRANCH   1   2
BRANCH   1  36
ATOM     36  N   UNL A   1      37.334  21.573  25.765  1.00  0.00    -0.352 N 
ATOM     37  C   UNL A   1      38.668  21.553  26.089  1.00  0.00     0.251 C 
ATOM     38  H   UNL A   1      36.905  20.693  25.672  1.00  0.00     0.163 HD
ATOM     39  O   UNL A   1      39.302  20.503  26.007  1.00  0.00    -0.269 OA
BRANCH  37  40
ATOM     40  C   UNL A   1      39.337  22.795  26.529  1.00  0.00     0.039 A 
ATOM     41  C   UNL A   1      40.334  22.725  27.506  1.00  0.00     0.014 A 
ATOM     42  C   UNL A   1      38.965  24.030  25.987  1.00  0.00     0.014 A 
ATOM     43  C   UNL A   1      40.986  23.893  27.909  1.00  0.00     0.010 A 
ATOM     44  C   UNL A   1      39.664  25.180  26.337  1.00  0.00     0.010 A 
ATOM     45  C   UNL A   1      40.665  25.126  27.317  1.00  0.00    -0.014 A 
BRANCH  45  46
ATOM     46  C   UNL A   1      41.334  26.376  27.753  1.00  0.00     0.031 A 
ATOM     47  C   UNL A   1      42.757  26.638  27.347  1.00  0.00     0.074 A 
ATOM     48  C   UNL A   1      40.677  27.250  28.537  1.00  0.00     0.049 A 
ATOM     49  N   UNL A   1      43.505  27.679  27.599  1.00  0.00    -0.248 NA
ATOM     50  C   UNL A   1      43.438  25.583  26.575  1.00  0.00     0.031 C 
ATOM     51  C   UNL A   1      39.316  27.068  29.043  1.00  0.00     0.029 A 
ATOM     52  N   UNL A   1      41.064  28.462  29.051  1.00  0.00    -0.354 N 
ATOM     53  C   UNL A   1      44.737  27.408  27.016  1.00  0.00     0.074 A 
ATOM     54  C   UNL A   1      44.661  26.078  26.459  1.00  0.00     0.031 C 
ATOM     55  C   UNL A   1      38.974  28.140  29.775  1.00  0.00     0.029 A 
ATOM     56  C   UNL A   1      40.094  29.079  29.804  1.00  0.00     0.049 A 
ATOM     57  H   UNL A   1      41.953  28.854  28.893  1.00  0.00     0.167 HD
ATOM     58  C   UNL A   1      45.823  28.211  26.926  1.00  0.00     0.034 A 
ATOM     59  C   UNL A   1      40.099  30.273  30.432  1.00  0.00     0.034 A 
ATOM     60  C   UNL A   1      45.880  29.540  27.472  1.00  0.00     0.049 A 
ATOM     61  C   UNL A   1      41.307  31.166  30.290  1.00  0.00     0.074 A 
ATOM     62  C   UNL A   1      46.917  30.451  27.395  1.00  0.00     0.029 A 
ATOM     63  N   UNL A   1      44.857  30.150  28.184  1.00  0.00    -0.354 N 
ATOM     64  N   UNL A   1      42.430  30.936  29.651  1.00  0.00    -0.248 NA
ATOM     65  C   UNL A   1      41.242  32.490  30.926  1.00  0.00     0.031 C 
ATOM     66  C   UNL A   1      46.538  31.599  28.095  1.00  0.00     0.029 A 
ATOM     67  C   UNL A   1      45.241  31.426  28.556  1.00  0.00     0.049 A 
ATOM     68  H   UNL A   1      43.989  29.738  28.391  1.00  0.00     0.167 HD
ATOM     69  C   UNL A   1      43.186  32.099  29.771  1.00  0.00     0.074 A 
ATOM     70  C   UNL A   1      42.390  33.033  30.539  1.00  0.00     0.031 C 
ATOM     71  C   UNL A   1      44.423  32.364  29.285  1.00  0.00     0.034 A 
BRANCH  58  72
ATOM     72  C   UNL A   1      47.028  27.701  26.181  1.00  0.00     0.023 A 
ATOM     73  C   UNL A   1      47.174  27.958  24.807  1.00  0.00     0.031 A 
ATOM     74  C   UNL A   1      47.974  26.871  26.812  1.00  0.00     0.131 A 
ATOM     75  C   UNL A   1      48.229  27.368  24.100  1.00  0.00     0.055 A 
ATOM     76  C   UNL A   1      49.044  26.317  26.111  1.00  0.00     0.041 A 
ATOM     77  F   UNL A   1      47.878  26.601  28.124  1.00  0.00    -0.206 F 
ATOM     78  C   UNL A   1      49.169  26.556  24.745  1.00  0.00     0.022 A 
BRANCH  75  79
ATOM     79  S   UNL A   1      48.402  27.601  22.310  1.00  0.00     0.124 S 
ATOM     80  O   UNL A   1      47.117  28.203  21.958  1.00  0.00    -0.237 OA
ATOM     81  O   UNL A   1      49.553  28.495  22.230  1.00  0.00    -0.237 OA
ATOM     82  O   UNL A   1      48.611  26.250  21.800  1.00  0.00    -0.744 OA
ENDBRANCH  75  79
ENDBRANCH  58  72
BRANCH  59  83
ATOM     83  C   UNL A   1      38.874  30.719  31.155  1.00  0.00     0.023 A 
ATOM     84  C   UNL A   1      37.917  31.538  30.528  1.00  0.00     0.031 A 
ATOM     85  C   UNL A   1      38.696  30.412  32.515  1.00  0.00     0.131 A 
ATOM     86  C   UNL A   1      36.851  32.057  31.276  1.00  0.00     0.055 A 
ATOM     87  C   UNL A   1      37.601  30.885  33.240  1.00  0.00     0.041 A 
ATOM     88  F   UNL A   1      39.593  29.648  33.157  1.00  0.00    -0.206 F 
ATOM     89  C   UNL A   1      36.677  31.723  32.623  1.00  0.00     0.022 A 
BRANCH  86  90
ATOM     90  S   UNL A   1      35.699  33.256  30.549  1.00  0.00     0.124 S 
ATOM     91  O   UNL A   1      36.378  33.621  29.308  1.00  0.00    -0.237 OA
ATOM     92  O   UNL A   1      34.492  32.448  30.392  1.00  0.00    -0.237 OA
ATOM     93  O   UNL A   1      35.619  34.310  31.553  1.00  0.00    -0.744 OA
ENDBRANCH  86  90
ENDBRANCH  59  83
BRANCH  71  94
ATOM     94  C   UNL A   1      45.014  33.733  29.511  1.00  0.00     0.023 A 
ATOM     95  C   UNL A   1      44.850  34.728  28.527  1.00  0.00     0.031 A 
ATOM     96  C   UNL A   1      45.865  34.000  30.594  1.00  0.00     0.131 A 
ATOM     97  C   UNL A   1      45.560  35.930  28.627  1.00  0.00     0.055 A 
ATOM     98  C   UNL A   1      46.538  35.218  30.712  1.00  0.00     0.041 A 
ATOM     99  F   UNL A   1      46.063  33.077  31.549  1.00  0.00    -0.206 F 
ATOM    100  C   UNL A   1      46.397  36.183  29.719  1.00  0.00     0.022 A 
BRANCH  97 101
ATOM    101  S   UNL A   1      45.485  37.174  27.309  1.00  0.00     0.124 S 
ATOM    102  O   UNL A   1      46.065  38.344  27.964  1.00  0.00    -0.237 OA
ATOM    103  O   UNL A   1      46.311  36.568  26.268  1.00  0.00    -0.237 OA
ATOM    104  O   UNL A   1      44.062  37.277  27.001  1.00  0.00    -0.744 OA
ENDBRANCH  97 101
ENDBRANCH  71  94
ENDBRANCH  45  46
ENDBRANCH  37  40
ENDBRANCH   1  36
TORSDOF 15
ENDMDL
MODEL 3
REMARK VINA RESULT:     -11.9      2.265      2.847
REMARK SMILES C[NH+]1CCN(c2nc3c(cc2F)c(=O)c(C(=O)NCCCNC(=O)c2ccc(-c4c5nc(c(-c6cc(S(=O)(=O)[O-])ccc6F)c6ccc([nH]6)c(-c6cc(S(=O)(=O)[O-])ccc6F)c6nc(c(-c7cc(S(=O)(=O)[O-])ccc7F)c7ccc4[nH]7)C=C6)C=C5)cc2)cn3-c2ccc(F)cc2F)CC1
REMARK SMILES IDX 21 1 20 2 19 3 18 4 16 5 17 6 15 8 6 9 7 10 11 11 8 12 10 13
REMARK SMILES IDX 12 14 9 15 89 16 13 17 88 18 14 19 5 20 1 21 2 22 3 23 99 24
REMARK SMILES IDX 4 26 98 27 90 28 91 29 96 30 92 31 95 32 97 33 93 34 94 35
REMARK SMILES IDX 22 36 23 37 24 39 25 40 26 41 87 42 27 43 86 44 28 45 29 46
REMARK SMILES IDX 30 47 80 48 31 49 85 50 79 51 81 52 32 53 84 54 78 55 77 56
REMARK SMILES IDX 33 58 65 59 45 60 64 61 46 62 49 63 63 64 82 65 47 66 48 67
REMARK SMILES IDX 62 69 83 70 50 71 34 72 35 73 43 74 36 75 42 76 44 77 41 78
REMARK SMILES IDX 37 79 38 80 39 81 40 82 66 83 67 84 75 85 68 86 74 87 76 88
REMARK SMILES IDX 73 89 69 90 70 91 71 92 72 93 51 94 52 95 60 96 53 97 59 98
REMARK SMILES IDX 61 99 58 100 54 101 55 102 56 103 57 104
REMARK H PARENT 18 7 2 25 22 38 81 57 49 68
REMARK Flexibility Score: inf
ROOT
ATOM      1  C   UNL A   1      36.272  22.731  25.384  1.00  0.00     0.118 C 
ENDROOT
BRANCH   1   2
ATOM      2  C   UNL A   1      35.098  22.744  26.349  1.00  0.00     0.042 C 
BRANCH   2   3
ATOM      3  C   UNL A   1      33.757  22.467  25.674  1.00  0.00     0.118 C 
BRANCH   3   4
ATOM      4  N   UNL A   1      32.667  22.464  26.634  1.00  0.00    -0.352 N 
ATOM      5  C   UNL A   1      31.662  23.345  26.883  1.00  0.00     0.256 C 
ATOM      6  O   UNL A   1      30.858  23.013  27.762  1.00  0.00    -0.269 OA
ATOM      7  H   UNL A   1      32.655  21.672  27.219  1.00  0.00     0.163 HD
BRANCH   5   8
ATOM      8  C   UNL A   1      31.444  24.599  26.108  1.00  0.00     0.104 A 
ATOM      9  C   UNL A   1      29.998  28.778  23.598  1.00  0.00     0.167 A 
ATOM     10  N   UNL A   1      30.991  28.506  24.480  1.00  0.00    -0.209 NA
ATOM     11  C   UNL A   1      29.126  27.778  23.163  1.00  0.00     0.166 A 
ATOM     12  C   UNL A   1      31.138  27.245  24.964  1.00  0.00     0.151 A 
ATOM     13  C   UNL A   1      29.300  26.477  23.596  1.00  0.00     0.059 A 
ATOM     14  F   UNL A   1      28.139  28.044  22.294  1.00  0.00    -0.203 F 
ATOM     15  C   UNL A   1      30.325  26.211  24.502  1.00  0.00     0.069 A 
ATOM     16  N   UNL A   1      32.125  26.954  25.960  1.00  0.00    -0.297 N 
ATOM     17  C   UNL A   1      30.568  24.829  24.940  1.00  0.00     0.203 A 
ATOM     18  C   UNL A   1      32.174  25.664  26.486  1.00  0.00     0.111 A 
ATOM     19  O   UNL A   1      30.043  23.937  24.291  1.00  0.00    -0.288 OA
BRANCH   9  20
ATOM     20  N   UNL A   1      29.903  30.069  23.145  1.00  0.00    -0.343 N 
ATOM     21  C   UNL A   1      27.564  32.687  20.747  1.00  0.00     0.332 C 
ATOM     22  N   UNL A   1      28.615  32.148  21.606  1.00  0.00    -0.334 N 
ATOM     23  C   UNL A   1      29.304  31.012  20.943  1.00  0.00     0.283 C 
ATOM     24  C   UNL A   1      28.041  31.676  22.888  1.00  0.00     0.283 C 
ATOM     25  H   UNL A   1      29.289  32.894  21.784  1.00  0.00     0.347 HD
ATOM     26  C   UNL A   1      30.424  30.393  21.820  1.00  0.00     0.179 C 
ATOM     27  C   UNL A   1      29.112  31.085  23.827  1.00  0.00     0.179 C 
ENDBRANCH   9  20
BRANCH  16  28
ATOM     28  C   UNL A   1      33.009  27.954  26.469  1.00  0.00     0.083 A 
ATOM     29  C   UNL A   1      34.365  27.968  26.102  1.00  0.00     0.033 A 
ATOM     30  C   UNL A   1      32.552  28.956  27.344  1.00  0.00     0.150 A 
ATOM     31  C   UNL A   1      35.226  28.951  26.595  1.00  0.00     0.041 A 
ATOM     32  C   UNL A   1      33.406  29.928  27.851  1.00  0.00     0.080 A 
ATOM     33  F   UNL A   1      31.266  28.976  27.729  1.00  0.00    -0.205 F 
ATOM     34  C   UNL A   1      34.738  29.917  27.467  1.00  0.00     0.126 A 
ATOM     35  F   UNL A   1      35.571  30.853  27.944  1.00  0.00    -0.207 F 
ENDBRANCH  16  28
ENDBRANCH   5   8
ENDBRANCH   3   4
ENDBRANCH   2   3
ENDBRANCH   1   2
BRANCH   1  36
ATOM     36  N   UNL A   1      37.101  21.545  25.555  1.00  0.00    -0.352 N 
ATOM     37  C   UNL A   1      38.433  21.467  25.879  1.00  0.00     0.251 C 
ATOM     38  H   UNL A   1      36.644  20.684  25.421  1.00  0.00     0.163 HD
ATOM     39  O   UNL A   1      39.034  20.402  25.747  1.00  0.00    -0.269 OA
BRANCH  37  40
ATOM     40  C   UNL A   1      39.141  22.665  26.378  1.00  0.00     0.039 A 
ATOM     41  C   UNL A   1      40.142  22.515  27.341  1.00  0.00     0.014 A 
ATOM     42  C   UNL A   1      38.800  23.936  25.906  1.00  0.00     0.014 A 
ATOM     43  C   UNL A   1      40.830  23.640  27.800  1.00  0.00     0.010 A 
ATOM     44  C   UNL A   1      39.534  25.047  26.310  1.00  0.00     0.010 A 
ATOM     45  C   UNL A   1      40.540  24.912  27.277  1.00  0.00    -0.014 A 
BRANCH  45  46
ATOM     46  C   UNL A   1      41.247  26.117  27.773  1.00  0.00     0.031 A 
ATOM     47  C   UNL A   1      42.690  26.333  27.412  1.00  0.00     0.074 A 
ATOM     48  C   UNL A   1      40.606  26.991  28.570  1.00  0.00     0.049 A 
ATOM     49  N   UNL A   1      43.473  27.334  27.719  1.00  0.00    -0.248 NA
ATOM     50  C   UNL A   1      43.347  25.278  26.622  1.00  0.00     0.031 C 
ATOM     51  C   UNL A   1      39.225  26.849  29.035  1.00  0.00     0.029 A 
ATOM     52  N   UNL A   1      41.028  28.169  29.135  1.00  0.00    -0.354 N 
ATOM     53  C   UNL A   1      44.708  27.032  27.159  1.00  0.00     0.074 A 
ATOM     54  C   UNL A   1      44.593  25.725  26.553  1.00  0.00     0.031 C 
ATOM     55  C   UNL A   1      38.908  27.909  29.795  1.00  0.00     0.029 A 
ATOM     56  C   UNL A   1      40.064  28.800  29.885  1.00  0.00     0.049 A 
ATOM     57  H   UNL A   1      41.937  28.528  29.014  1.00  0.00     0.167 HD
ATOM     58  C   UNL A   1      45.827  27.791  27.123  1.00  0.00     0.034 A 
ATOM     59  C   UNL A   1      40.101  29.970  30.554  1.00  0.00     0.034 A 
ATOM     60  C   UNL A   1      45.924  29.097  27.716  1.00  0.00     0.049 A 
ATOM     61  C   UNL A   1      41.348  30.816  30.473  1.00  0.00     0.074 A 
ATOM     62  C   UNL A   1      46.999  29.967  27.698  1.00  0.00     0.029 A 
ATOM     63  N   UNL A   1      44.909  29.726  28.423  1.00  0.00    -0.354 N 
ATOM     64  N   UNL A   1      42.477  30.561  29.855  1.00  0.00    -0.248 NA
ATOM     65  C   UNL A   1      41.320  32.120  31.153  1.00  0.00     0.031 C 
ATOM     66  C   UNL A   1      46.649  31.105  28.427  1.00  0.00     0.029 A 
ATOM     67  C   UNL A   1      45.335  30.971  28.849  1.00  0.00     0.049 A 
ATOM     68  H   UNL A   1      44.019  29.343  28.594  1.00  0.00     0.167 HD
ATOM     69  C   UNL A   1      43.276  31.687  30.035  1.00  0.00     0.074 A 
ATOM     70  C   UNL A   1      42.499  32.627  30.814  1.00  0.00     0.031 C 
ATOM     71  C   UNL A   1      44.536  31.917  29.590  1.00  0.00     0.034 A 
BRANCH  58  72
ATOM     72  C   UNL A   1      47.030  27.256  26.392  1.00  0.00     0.023 A 
ATOM     73  C   UNL A   1      48.029  26.552  27.089  1.00  0.00     0.031 A 
ATOM     74  C   UNL A   1      47.236  27.538  25.029  1.00  0.00     0.131 A 
ATOM     75  C   UNL A   1      49.202  26.177  26.425  1.00  0.00     0.055 A 
ATOM     76  C   UNL A   1      48.391  27.128  24.363  1.00  0.00     0.041 A 
ATOM     77  F   UNL A   1      46.309  28.203  24.322  1.00  0.00    -0.206 F 
ATOM     78  C   UNL A   1      49.385  26.452  25.065  1.00  0.00     0.022 A 
BRANCH  75  79
ATOM     79  S   UNL A   1      50.552  25.347  27.306  1.00  0.00     0.124 S 
ATOM     80  O   UNL A   1      51.441  24.966  26.210  1.00  0.00    -0.237 OA
ATOM     81  O   UNL A   1      51.049  26.412  28.172  1.00  0.00    -0.237 OA
ATOM     82  O   UNL A   1      49.895  24.234  27.983  1.00  0.00    -0.744 OA
ENDBRANCH  75  79
ENDBRANCH  58  72
BRANCH  59  83
ATOM     83  C   UNL A   1      38.876  30.442  31.260  1.00  0.00     0.023 A 
ATOM     84  C   UNL A   1      37.968  31.316  30.637  1.00  0.00     0.031 A 
ATOM     85  C   UNL A   1      38.653  30.102  32.606  1.00  0.00     0.131 A 
ATOM     86  C   UNL A   1      36.904  31.854  31.374  1.00  0.00     0.055 A 
ATOM     87  C   UNL A   1      37.559  30.596  33.319  1.00  0.00     0.041 A 
ATOM     88  F   UNL A   1      39.503  29.284  33.246  1.00  0.00    -0.206 F 
ATOM     89  C   UNL A   1      36.684  31.487  32.706  1.00  0.00     0.022 A 
BRANCH  86  90
ATOM     90  S   UNL A   1      35.818  33.119  30.657  1.00  0.00     0.124 S 
ATOM     91  O   UNL A   1      36.463  33.387  29.375  1.00  0.00    -0.237 OA
ATOM     92  O   UNL A   1      34.545  32.408  30.585  1.00  0.00    -0.237 OA
ATOM     93  O   UNL A   1      35.871  34.208  31.626  1.00  0.00    -0.744 OA
ENDBRANCH  86  90
ENDBRANCH  59  83
BRANCH  71  94
ATOM     94  C   UNL A   1      45.176  33.252  29.877  1.00  0.00     0.023 A 
ATOM     95  C   UNL A   1      45.820  33.459  31.113  1.00  0.00     0.031 A 
ATOM     96  C   UNL A   1      45.006  34.351  29.021  1.00  0.00     0.131 A 
ATOM     97  C   UNL A   1      46.236  34.746  31.474  1.00  0.00     0.055 A 
ATOM     98  C   UNL A   1      45.460  35.625  29.367  1.00  0.00     0.041 A 
ATOM     99  F   UNL A   1      44.385  34.205  27.839  1.00  0.00    -0.206 F 
ATOM    100  C   UNL A   1      46.066  35.828  30.605  1.00  0.00     0.022 A 
BRANCH  97 101
ATOM    101  S   UNL A   1      46.938  35.077  33.114  1.00  0.00     0.124 S 
ATOM    102  O   UNL A   1      46.115  36.191  33.576  1.00  0.00    -0.237 OA
ATOM    103  O   UNL A   1      46.716  33.809  33.804  1.00  0.00    -0.237 OA
ATOM    104  O   UNL A   1      48.333  35.407  32.840  1.00  0.00    -0.744 OA
ENDBRANCH  97 101
ENDBRANCH  71  94
ENDBRANCH  45  46
ENDBRANCH  37  40
ENDBRANCH   1  36
TORSDOF 15
ENDMDL
