MODEL 1
REMARK VINA RESULT:     -11.6      0.000      0.000
REMARK SMILES CC(C)(C)C[N@H+]1[C@@H](C(=O)NCCCNC(=O)c2ccc(-c3c4nc(c(-c5cc(S(=O)(=O)[O-])ccc5F)c5ccc([nH]5)c(-c5cc(S(=O)(=O)[O-])ccc5F)c5nc(c(-c6cc(S(=O)(=O)[O-])ccc6F)c6ccc3[nH]6)C=C5)C=C4)cc2)CC[C@H]2CCCC[C@@H]21
REMARK SMILES IDX 12 1 11 2 10 3 8 4 9 5 7 7 6 8 87 9 80 11 82 12 86 13 81 14
REMARK SMILES IDX 83 15 85 16 84 17 5 18 2 19 1 20 3 21 4 22 13 23 14 24 15 25
REMARK SMILES IDX 16 27 17 28 18 29 79 30 19 31 78 32 20 33 21 34 22 35 72 36
REMARK SMILES IDX 23 37 77 38 71 39 73 40 24 41 76 42 70 43 69 44 25 46 57 47
REMARK SMILES IDX 37 48 56 49 38 50 41 51 55 52 74 53 39 54 40 55 54 57 75 58
REMARK SMILES IDX 42 59 26 60 27 61 35 62 28 63 34 64 36 65 33 66 29 67 30 68
REMARK SMILES IDX 31 69 32 70 58 71 59 72 67 73 60 74 66 75 68 76 65 77 61 78
REMARK SMILES IDX 62 79 63 80 64 81 43 82 44 83 52 84 45 85 51 86 53 87 50 88
REMARK SMILES IDX 46 89 47 90 48 91 49 92
REMARK H PARENT 10 6 6 10 14 26 73 45 41 56
REMARK Flexibility Score: inf
ROOT
ATOM      1  C   UNL A   1      32.771  28.259  26.957  1.00  0.00     0.042 C 
ENDROOT
BRANCH   1   2
ATOM      2  C   UNL A   1      32.737  26.823  26.425  1.00  0.00     0.118 C 
BRANCH   2   3
ATOM      3  N   UNL A   1      31.439  26.164  26.529  1.00  0.00    -0.351 N 
ATOM      4  C   UNL A   1      31.073  24.866  26.255  1.00  0.00     0.278 C 
ATOM      5  O   UNL A   1      29.919  24.527  26.534  1.00  0.00    -0.268 OA
ATOM      6  H   UNL A   1      30.708  26.741  26.846  1.00  0.00     0.163 HD
BRANCH   4   7
ATOM      7  C   UNL A   1      32.107  23.858  25.733  1.00  0.00     0.274 C 
ATOM      8  N   UNL A   1      32.992  24.392  24.682  1.00  0.00    -0.322 N 
ATOM      9  C   UNL A   1      34.224  23.533  24.610  1.00  0.00     0.187 C 
ATOM     10  H   UNL A   1      33.151  25.348  25.001  1.00  0.00     0.349 HD
ATOM     11  C   UNL A   1      31.575  22.441  25.415  1.00  0.00     0.076 C 
ATOM     12  C   UNL A   1      33.993  22.067  25.081  1.00  0.00     0.048 C 
ATOM     13  C   UNL A   1      35.396  24.076  25.451  1.00  0.00     0.065 C 
ATOM     14  C   UNL A   1      32.613  21.579  24.669  1.00  0.00     0.016 C 
ATOM     15  C   UNL A   1      35.176  21.211  24.641  1.00  0.00     0.010 C 
ATOM     16  C   UNL A   1      36.656  23.211  25.254  1.00  0.00     0.006 C 
ATOM     17  C   UNL A   1      36.422  21.699  25.389  1.00  0.00     0.001 C 
BRANCH   8  18
ATOM     18  C   UNL A   1      32.474  24.633  23.305  1.00  0.00     0.269 C 
BRANCH  18  19
ATOM     19  C   UNL A   1      32.328  25.956  22.453  1.00  0.00     0.011 C 
ATOM     20  C   UNL A   1      32.468  25.705  20.945  1.00  0.00     0.017 C 
ATOM     21  C   UNL A   1      33.522  26.864  22.869  1.00  0.00     0.017 C 
ATOM     22  C   UNL A   1      31.079  26.807  22.696  1.00  0.00     0.017 C 
ENDBRANCH  18  19
ENDBRANCH   8  18
ENDBRANCH   4   7
ENDBRANCH   2   3
ENDBRANCH   1   2
BRANCH   1  23
ATOM     23  C   UNL A   1      33.638  29.233  26.158  1.00  0.00     0.118 C 
BRANCH  23  24
ATOM     24  N   UNL A   1      33.569  30.590  26.670  1.00  0.00    -0.352 N 
ATOM     25  C   UNL A   1      34.345  31.246  27.595  1.00  0.00     0.251 C 
ATOM     26  H   UNL A   1      32.840  31.133  26.291  1.00  0.00     0.163 HD
ATOM     27  O   UNL A   1      33.950  32.332  28.016  1.00  0.00    -0.269 OA
BRANCH  25  28
ATOM     28  C   UNL A   1      35.621  30.683  28.110  1.00  0.00     0.039 A 
ATOM     29  C   UNL A   1      35.559  29.774  29.173  1.00  0.00     0.014 A 
ATOM     30  C   UNL A   1      36.872  31.093  27.640  1.00  0.00     0.014 A 
ATOM     31  C   UNL A   1      36.731  29.248  29.731  1.00  0.00     0.010 A 
ATOM     32  C   UNL A   1      38.044  30.525  28.159  1.00  0.00     0.010 A 
ATOM     33  C   UNL A   1      37.988  29.598  29.214  1.00  0.00    -0.014 A 
BRANCH  33  34
ATOM     34  C   UNL A   1      39.239  29.008  29.773  1.00  0.00     0.031 A 
ATOM     35  C   UNL A   1      39.886  29.598  31.000  1.00  0.00     0.074 A 
ATOM     36  C   UNL A   1      39.818  27.956  29.160  1.00  0.00     0.049 A 
ATOM     37  N   UNL A   1      41.002  29.258  31.595  1.00  0.00    -0.248 NA
ATOM     38  C   UNL A   1      39.194  30.734  31.624  1.00  0.00     0.031 C 
ATOM     39  C   UNL A   1      39.306  27.297  27.957  1.00  0.00     0.029 A 
ATOM     40  N   UNL A   1      40.964  27.259  29.457  1.00  0.00    -0.354 N 
ATOM     41  C   UNL A   1      41.154  30.143  32.659  1.00  0.00     0.074 A 
ATOM     42  C   UNL A   1      40.041  31.068  32.587  1.00  0.00     0.031 C 
ATOM     43  C   UNL A   1      40.122  26.282  27.632  1.00  0.00     0.029 A 
ATOM     44  C   UNL A   1      41.240  26.244  28.570  1.00  0.00     0.049 A 
ATOM     45  H   UNL A   1      41.534  27.467  30.232  1.00  0.00     0.167 HD
ATOM     46  C   UNL A   1      42.117  30.171  33.617  1.00  0.00     0.034 A 
ATOM     47  C   UNL A   1      42.280  25.389  28.506  1.00  0.00     0.034 A 
ATOM     48  C   UNL A   1      43.222  29.243  33.680  1.00  0.00     0.049 A 
ATOM     49  C   UNL A   1      43.366  25.469  29.549  1.00  0.00     0.074 A 
ATOM     50  C   UNL A   1      44.226  29.158  34.631  1.00  0.00     0.029 A 
ATOM     51  N   UNL A   1      43.480  28.243  32.749  1.00  0.00    -0.354 N 
ATOM     52  N   UNL A   1      43.476  26.291  30.567  1.00  0.00    -0.248 NA
ATOM     53  C   UNL A   1      44.464  24.500  29.436  1.00  0.00     0.031 C 
ATOM     54  C   UNL A   1      45.124  28.160  34.240  1.00  0.00     0.029 A 
ATOM     55  C   UNL A   1      44.643  27.563  33.086  1.00  0.00     0.049 A 
ATOM     56  H   UNL A   1      42.919  28.046  31.964  1.00  0.00     0.167 HD
ATOM     57  C   UNL A   1      44.640  25.915  31.233  1.00  0.00     0.074 A 
ATOM     58  C   UNL A   1      45.188  24.788  30.508  1.00  0.00     0.031 C 
ATOM     59  C   UNL A   1      45.197  26.450  32.349  1.00  0.00     0.034 A 
BRANCH  46  60
ATOM     60  C   UNL A   1      42.031  31.270  34.653  1.00  0.00     0.023 A 
ATOM     61  C   UNL A   1      41.006  31.297  35.617  1.00  0.00     0.031 A 
ATOM     62  C   UNL A   1      42.961  32.325  34.656  1.00  0.00     0.131 A 
ATOM     63  C   UNL A   1      40.884  32.397  36.481  1.00  0.00     0.055 A 
ATOM     64  C   UNL A   1      42.886  33.372  35.578  1.00  0.00     0.041 A 
ATOM     65  F   UNL A   1      43.952  32.365  33.751  1.00  0.00    -0.206 F 
ATOM     66  C   UNL A   1      41.832  33.422  36.485  1.00  0.00     0.022 A 
BRANCH  63  67
ATOM     67  S   UNL A   1      39.379  32.546  37.481  1.00  0.00     0.124 S 
ATOM     68  O   UNL A   1      39.922  32.534  38.838  1.00  0.00    -0.237 OA
ATOM     69  O   UNL A   1      38.822  33.814  37.026  1.00  0.00    -0.237 OA
ATOM     70  O   UNL A   1      38.607  31.358  37.117  1.00  0.00    -0.744 OA
ENDBRANCH  63  67
ENDBRANCH  46  60
BRANCH  47  71
ATOM     71  C   UNL A   1      42.359  24.386  27.405  1.00  0.00     0.023 A 
ATOM     72  C   UNL A   1      41.621  23.193  27.458  1.00  0.00     0.031 A 
ATOM     73  C   UNL A   1      43.202  24.594  26.298  1.00  0.00     0.131 A 
ATOM     74  C   UNL A   1      41.768  22.236  26.442  1.00  0.00     0.055 A 
ATOM     75  C   UNL A   1      43.305  23.661  25.266  1.00  0.00     0.041 A 
ATOM     76  F   UNL A   1      43.926  25.720  26.198  1.00  0.00    -0.206 F 
ATOM     77  C   UNL A   1      42.593  22.468  25.340  1.00  0.00     0.022 A 
BRANCH  74  78
ATOM     78  S   UNL A   1      40.911  20.647  26.617  1.00  0.00     0.124 S 
ATOM     79  O   UNL A   1      41.767  19.760  25.838  1.00  0.00    -0.237 OA
ATOM     80  O   UNL A   1      40.926  20.450  28.062  1.00  0.00    -0.237 OA
ATOM     81  O   UNL A   1      39.593  20.906  26.041  1.00  0.00    -0.744 OA
ENDBRANCH  74  78
ENDBRANCH  47  71
BRANCH  59  82
ATOM     82  C   UNL A   1      46.446  25.787  32.879  1.00  0.00     0.023 A 
ATOM     83  C   UNL A   1      47.714  26.037  32.325  1.00  0.00     0.031 A 
ATOM     84  C   UNL A   1      46.362  24.876  33.948  1.00  0.00     0.131 A 
ATOM     85  C   UNL A   1      48.838  25.344  32.804  1.00  0.00     0.055 A 
ATOM     86  C   UNL A   1      47.491  24.234  34.460  1.00  0.00     0.041 A 
ATOM     87  F   UNL A   1      45.178  24.595  34.515  1.00  0.00    -0.206 F 
ATOM     88  C   UNL A   1      48.736  24.457  33.879  1.00  0.00     0.022 A 
BRANCH  85  89
ATOM     89  S   UNL A   1      50.422  25.550  31.946  1.00  0.00     0.124 S 
ATOM     90  O   UNL A   1      51.281  26.059  33.011  1.00  0.00    -0.237 OA
ATOM     91  O   UNL A   1      50.709  24.194  31.489  1.00  0.00    -0.237 OA
ATOM     92  O   UNL A   1      50.117  26.509  30.886  1.00  0.00    -0.744 OA
ENDBRANCH  85  89
ENDBRANCH  59  82
ENDBRANCH  33  34
ENDBRANCH  25  28
ENDBRANCH  23  24
ENDBRANCH   1  23
TORSDOF 15
ENDMDL
MODEL 2
REMARK VINA RESULT:     -11.5      2.564      8.210
REMARK SMILES CC(C)(C)C[N@H+]1[C@@H](C(=O)NCCCNC(=O)c2ccc(-c3c4nc(c(-c5cc(S(=O)(=O)[O-])ccc5F)c5ccc([nH]5)c(-c5cc(S(=O)(=O)[O-])ccc5F)c5nc(c(-c6cc(S(=O)(=O)[O-])ccc6F)c6ccc3[nH]6)C=C5)C=C4)cc2)CC[C@H]2CCCC[C@@H]21
REMARK SMILES IDX 12 1 11 2 10 3 8 4 9 5 7 7 6 8 87 9 80 11 82 12 86 13 81 14
REMARK SMILES IDX 83 15 85 16 84 17 5 18 2 19 1 20 3 21 4 22 13 23 14 24 15 25
REMARK SMILES IDX 16 27 17 28 18 29 79 30 19 31 78 32 20 33 21 34 22 35 72 36
REMARK SMILES IDX 23 37 77 38 71 39 73 40 24 41 76 42 70 43 69 44 25 46 57 47
REMARK SMILES IDX 37 48 56 49 38 50 41 51 55 52 74 53 39 54 40 55 54 57 75 58
REMARK SMILES IDX 42 59 26 60 27 61 35 62 28 63 34 64 36 65 33 66 29 67 30 68
REMARK SMILES IDX 31 69 32 70 58 71 59 72 67 73 60 74 66 75 68 76 65 77 61 78
REMARK SMILES IDX 62 79 63 80 64 81 43 82 44 83 52 84 45 85 51 86 53 87 50 88
REMARK SMILES IDX 46 89 47 90 48 91 49 92
REMARK H PARENT 10 6 6 10 14 26 73 45 41 56
REMARK Flexibility Score: inf
ROOT
ATOM      1  C   UNL A   1      32.960  29.098  23.891  1.00  0.00     0.042 C 
ENDROOT
BRANCH   1   2
ATOM      2  C   UNL A   1      32.118  27.971  23.285  1.00  0.00     0.118 C 
BRANCH   2   3
ATOM      3  N   UNL A   1      32.683  27.364  22.085  1.00  0.00    -0.351 N 
ATOM      4  C   UNL A   1      32.872  26.041  21.758  1.00  0.00     0.278 C 
ATOM      5  O   UNL A   1      33.275  25.785  20.620  1.00  0.00    -0.268 OA
ATOM      6  H   UNL A   1      32.975  28.005  21.397  1.00  0.00     0.163 HD
BRANCH   4   7
ATOM      7  C   UNL A   1      32.480  24.931  22.744  1.00  0.00     0.274 C 
ATOM      8  N   UNL A   1      33.475  24.688  23.805  1.00  0.00    -0.322 N 
ATOM      9  C   UNL A   1      32.798  23.977  24.943  1.00  0.00     0.187 C 
ATOM     10  H   UNL A   1      33.798  25.632  24.016  1.00  0.00     0.349 HD
ATOM     11  C   UNL A   1      31.931  23.628  22.117  1.00  0.00     0.076 C 
ATOM     12  C   UNL A   1      31.565  23.132  24.509  1.00  0.00     0.048 C 
ATOM     13  C   UNL A   1      32.300  24.930  26.048  1.00  0.00     0.065 C 
ATOM     14  C   UNL A   1      31.801  22.490  23.150  1.00  0.00     0.016 C 
ATOM     15  C   UNL A   1      31.180  22.192  25.647  1.00  0.00     0.010 C 
ATOM     16  C   UNL A   1      31.711  24.136  27.230  1.00  0.00     0.006 C 
ATOM     17  C   UNL A   1      30.707  23.044  26.830  1.00  0.00     0.001 C 
BRANCH   8  18
ATOM     18  C   UNL A   1      34.765  24.008  23.492  1.00  0.00     0.269 C 
BRANCH  18  19
ATOM     19  C   UNL A   1      35.676  23.040  24.346  1.00  0.00     0.011 C 
ATOM     20  C   UNL A   1      36.244  23.718  25.601  1.00  0.00     0.017 C 
ATOM     21  C   UNL A   1      36.891  22.687  23.439  1.00  0.00     0.017 C 
ATOM     22  C   UNL A   1      35.074  21.690  24.746  1.00  0.00     0.017 C 
ENDBRANCH  18  19
ENDBRANCH   8  18
ENDBRANCH   4   7
ENDBRANCH   2   3
ENDBRANCH   1   2
BRANCH   1  23
ATOM     23  C   UNL A   1      32.879  29.231  25.413  1.00  0.00     0.118 C 
BRANCH  23  24
ATOM     24  N   UNL A   1      32.533  30.577  25.836  1.00  0.00    -0.352 N 
ATOM     25  C   UNL A   1      33.009  31.346  26.870  1.00  0.00     0.251 C 
ATOM     26  H   UNL A   1      31.839  31.011  25.291  1.00  0.00     0.163 HD
ATOM     27  O   UNL A   1      32.402  32.378  27.150  1.00  0.00    -0.269 OA
BRANCH  25  28
ATOM     28  C   UNL A   1      34.209  30.967  27.662  1.00  0.00     0.039 A 
ATOM     29  C   UNL A   1      35.176  31.951  27.905  1.00  0.00     0.014 A 
ATOM     30  C   UNL A   1      34.451  29.658  28.088  1.00  0.00     0.014 A 
ATOM     31  C   UNL A   1      36.349  31.639  28.603  1.00  0.00     0.010 A 
ATOM     32  C   UNL A   1      35.599  29.358  28.836  1.00  0.00     0.010 A 
ATOM     33  C   UNL A   1      36.564  30.344  29.099  1.00  0.00    -0.014 A 
BRANCH  33  34
ATOM     34  C   UNL A   1      37.790  30.016  29.882  1.00  0.00     0.031 A 
ATOM     35  C   UNL A   1      38.822  29.065  29.333  1.00  0.00     0.074 A 
ATOM     36  C   UNL A   1      37.967  30.549  31.108  1.00  0.00     0.049 A 
ATOM     37  N   UNL A   1      39.920  28.617  29.890  1.00  0.00    -0.248 NA
ATOM     38  C   UNL A   1      38.572  28.534  27.986  1.00  0.00     0.031 C 
ATOM     39  C   UNL A   1      37.041  31.471  31.766  1.00  0.00     0.029 A 
ATOM     40  N   UNL A   1      38.980  30.389  32.023  1.00  0.00    -0.354 N 
ATOM     41  C   UNL A   1      40.489  27.743  28.968  1.00  0.00     0.074 A 
ATOM     42  C   UNL A   1      39.580  27.685  27.841  1.00  0.00     0.031 C 
ATOM     43  C   UNL A   1      37.537  31.810  32.967  1.00  0.00     0.029 A 
ATOM     44  C   UNL A   1      38.790  31.095  33.188  1.00  0.00     0.049 A 
ATOM     45  H   UNL A   1      39.767  29.821  31.859  1.00  0.00     0.167 HD
ATOM     46  C   UNL A   1      41.665  27.067  29.044  1.00  0.00     0.034 A 
ATOM     47  C   UNL A   1      39.529  31.152  34.314  1.00  0.00     0.034 A 
ATOM     48  C   UNL A   1      42.564  27.133  30.173  1.00  0.00     0.049 A 
ATOM     49  C   UNL A   1      40.806  30.354  34.400  1.00  0.00     0.074 A 
ATOM     50  C   UNL A   1      43.798  26.524  30.331  1.00  0.00     0.029 A 
ATOM     51  N   UNL A   1      42.325  27.842  31.345  1.00  0.00    -0.354 N 
ATOM     52  N   UNL A   1      41.345  29.559  33.505  1.00  0.00    -0.248 NA
ATOM     53  C   UNL A   1      41.577  30.470  35.645  1.00  0.00     0.031 C 
ATOM     54  C   UNL A   1      44.269  26.803  31.618  1.00  0.00     0.029 A 
ATOM     55  C   UNL A   1      43.370  27.655  32.240  1.00  0.00     0.049 A 
ATOM     56  H   UNL A   1      41.529  28.395  31.516  1.00  0.00     0.167 HD
ATOM     57  C   UNL A   1      42.535  29.105  34.069  1.00  0.00     0.074 A 
ATOM     58  C   UNL A   1      42.638  29.723  35.374  1.00  0.00     0.031 C 
ATOM     59  C   UNL A   1      43.461  28.260  33.549  1.00  0.00     0.034 A 
BRANCH  46  60
ATOM     60  C   UNL A   1      42.024  26.168  27.881  1.00  0.00     0.023 A 
ATOM     61  C   UNL A   1      41.597  24.829  27.824  1.00  0.00     0.031 A 
ATOM     62  C   UNL A   1      42.834  26.643  26.834  1.00  0.00     0.131 A 
ATOM     63  C   UNL A   1      42.052  23.990  26.795  1.00  0.00     0.055 A 
ATOM     64  C   UNL A   1      43.211  25.826  25.765  1.00  0.00     0.041 A 
ATOM     65  F   UNL A   1      43.288  27.906  26.839  1.00  0.00    -0.206 F 
ATOM     66  C   UNL A   1      42.836  24.487  25.752  1.00  0.00     0.022 A 
BRANCH  63  67
ATOM     67  S   UNL A   1      41.744  22.209  26.932  1.00  0.00     0.124 S 
ATOM     68  O   UNL A   1      42.088  21.744  25.591  1.00  0.00    -0.237 OA
ATOM     69  O   UNL A   1      42.652  21.812  28.001  1.00  0.00    -0.237 OA
ATOM     70  O   UNL A   1      40.320  22.133  27.262  1.00  0.00    -0.744 OA
ENDBRANCH  63  67
ENDBRANCH  46  60
BRANCH  47  71
ATOM     71  C   UNL A   1      39.077  31.983  35.467  1.00  0.00     0.023 A 
ATOM     72  C   UNL A   1      38.430  31.401  36.568  1.00  0.00     0.031 A 
ATOM     73  C   UNL A   1      39.259  33.377  35.467  1.00  0.00     0.131 A 
ATOM     74  C   UNL A   1      37.953  32.215  37.608  1.00  0.00     0.055 A 
ATOM     75  C   UNL A   1      38.827  34.176  36.527  1.00  0.00     0.041 A 
ATOM     76  F   UNL A   1      39.875  33.982  34.440  1.00  0.00    -0.206 F 
ATOM     77  C   UNL A   1      38.160  33.596  37.601  1.00  0.00     0.022 A 
BRANCH  74  78
ATOM     78  S   UNL A   1      36.995  31.447  38.942  1.00  0.00     0.124 S 
ATOM     79  O   UNL A   1      37.891  31.607  40.081  1.00  0.00    -0.237 OA
ATOM     80  O   UNL A   1      35.785  32.262  38.956  1.00  0.00    -0.237 OA
ATOM     81  O   UNL A   1      36.810  30.072  38.481  1.00  0.00    -0.744 OA
ENDBRANCH  74  78
ENDBRANCH  47  71
BRANCH  59  82
ATOM     82  C   UNL A   1      44.692  27.993  34.381  1.00  0.00     0.023 A 
ATOM     83  C   UNL A   1      44.767  26.909  35.274  1.00  0.00     0.031 A 
ATOM     84  C   UNL A   1      45.805  28.850  34.291  1.00  0.00     0.131 A 
ATOM     85  C   UNL A   1      45.905  26.740  36.079  1.00  0.00     0.055 A 
ATOM     86  C   UNL A   1      46.957  28.644  35.051  1.00  0.00     0.041 A 
ATOM     87  F   UNL A   1      45.789  29.904  33.460  1.00  0.00    -0.206 F 
ATOM     88  C   UNL A   1      47.007  27.592  35.960  1.00  0.00     0.022 A 
BRANCH  85  89
ATOM     89  S   UNL A   1      45.894  25.445  37.348  1.00  0.00     0.124 S 
ATOM     90  O   UNL A   1      47.280  25.456  37.806  1.00  0.00    -0.237 OA
ATOM     91  O   UNL A   1      44.905  25.946  38.297  1.00  0.00    -0.237 OA
ATOM     92  O   UNL A   1      45.495  24.246  36.613  1.00  0.00    -0.744 OA
ENDBRANCH  85  89
ENDBRANCH  59  82
ENDBRANCH  33  34
ENDBRANCH  25  28
ENDBRANCH  23  24
ENDBRANCH   1  23
TORSDOF 15
ENDMDL
MODEL 3
REMARK VINA RESULT:     -11.3      4.245      9.395
REMARK SMILES CC(C)(C)C[N@H+]1[C@@H](C(=O)NCCCNC(=O)c2ccc(-c3c4nc(c(-c5cc(S(=O)(=O)[O-])ccc5F)c5ccc([nH]5)c(-c5cc(S(=O)(=O)[O-])ccc5F)c5nc(c(-c6cc(S(=O)(=O)[O-])ccc6F)c6ccc3[nH]6)C=C5)C=C4)cc2)CC[C@H]2CCCC[C@@H]21
REMARK SMILES IDX 12 1 11 2 10 3 8 4 9 5 7 7 6 8 87 9 80 11 82 12 86 13 81 14
REMARK SMILES IDX 83 15 85 16 84 17 5 18 2 19 1 20 3 21 4 22 13 23 14 24 15 25
REMARK SMILES IDX 16 27 17 28 18 29 79 30 19 31 78 32 20 33 21 34 22 35 72 36
REMARK SMILES IDX 23 37 77 38 71 39 73 40 24 41 76 42 70 43 69 44 25 46 57 47
REMARK SMILES IDX 37 48 56 49 38 50 41 51 55 52 74 53 39 54 40 55 54 57 75 58
REMARK SMILES IDX 42 59 26 60 27 61 35 62 28 63 34 64 36 65 33 66 29 67 30 68
REMARK SMILES IDX 31 69 32 70 58 71 59 72 67 73 60 74 66 75 68 76 65 77 61 78
REMARK SMILES IDX 62 79 63 80 64 81 43 82 44 83 52 84 45 85 51 86 53 87 50 88
REMARK SMILES IDX 46 89 47 90 48 91 49 92
REMARK H PARENT 10 6 6 10 14 26 73 45 41 56
REMARK Flexibility Score: inf
ROOT
ATOM      1  C   UNL A   1      36.475  23.425  24.620  1.00  0.00     0.042 C 
ENDROOT
BRANCH   1   2
ATOM      2  C   UNL A   1      35.150  24.185  24.494  1.00  0.00     0.118 C 
BRANCH   2   3
ATOM      3  N   UNL A   1      34.484  24.040  23.204  1.00  0.00    -0.351 N 
ATOM      4  C   UNL A   1      33.470  24.777  22.636  1.00  0.00     0.278 C 
ATOM      5  O   UNL A   1      33.155  24.514  21.472  1.00  0.00    -0.268 OA
ATOM      6  H   UNL A   1      34.813  23.296  22.651  1.00  0.00     0.163 HD
BRANCH   4   7
ATOM      7  C   UNL A   1      32.846  25.958  23.393  1.00  0.00     0.274 C 
ATOM      8  N   UNL A   1      32.585  25.689  24.819  1.00  0.00    -0.322 N 
ATOM      9  C   UNL A   1      32.455  27.003  25.539  1.00  0.00     0.187 C 
ATOM     10  H   UNL A   1      33.396  25.130  25.084  1.00  0.00     0.349 HD
ATOM     11  C   UNL A   1      31.672  26.676  22.686  1.00  0.00     0.076 C 
ATOM     12  C   UNL A   1      31.969  28.170  24.630  1.00  0.00     0.048 C 
ATOM     13  C   UNL A   1      33.773  27.478  26.182  1.00  0.00     0.065 C 
ATOM     14  C   UNL A   1      30.952  27.674  23.614  1.00  0.00     0.016 C 
ATOM     15  C   UNL A   1      31.538  29.338  25.510  1.00  0.00     0.010 C 
ATOM     16  C   UNL A   1      33.552  28.772  26.989  1.00  0.00     0.006 C 
ATOM     17  C   UNL A   1      32.776  29.867  26.242  1.00  0.00     0.001 C 
BRANCH   8  18
ATOM     18  C   UNL A   1      31.469  24.787  25.227  1.00  0.00     0.269 C 
BRANCH  18  19
ATOM     19  C   UNL A   1      31.456  23.440  26.054  1.00  0.00     0.011 C 
ATOM     20  C   UNL A   1      32.644  23.329  27.020  1.00  0.00     0.017 C 
ATOM     21  C   UNL A   1      31.620  22.298  25.009  1.00  0.00     0.017 C 
ATOM     22  C   UNL A   1      30.171  23.102  26.814  1.00  0.00     0.017 C 
ENDBRANCH  18  19
ENDBRANCH   8  18
ENDBRANCH   4   7
ENDBRANCH   2   3
ENDBRANCH   1   2
BRANCH   1  23
ATOM     23  C   UNL A   1      36.836  22.968  26.034  1.00  0.00     0.118 C 
BRANCH  23  24
ATOM     24  N   UNL A   1      38.036  22.151  26.066  1.00  0.00    -0.352 N 
ATOM     25  C   UNL A   1      39.347  22.484  26.311  1.00  0.00     0.251 C 
ATOM     26  H   UNL A   1      37.886  21.197  25.879  1.00  0.00     0.163 HD
ATOM     27  O   UNL A   1      40.212  21.644  26.071  1.00  0.00    -0.269 OA
BRANCH  25  28
ATOM     28  C   UNL A   1      39.748  23.817  26.834  1.00  0.00     0.039 A 
ATOM     29  C   UNL A   1      40.039  24.828  25.909  1.00  0.00     0.014 A 
ATOM     30  C   UNL A   1      39.934  24.069  28.196  1.00  0.00     0.014 A 
ATOM     31  C   UNL A   1      40.468  26.088  26.344  1.00  0.00     0.010 A 
ATOM     32  C   UNL A   1      40.309  25.347  28.634  1.00  0.00     0.010 A 
ATOM     33  C   UNL A   1      40.585  26.371  27.713  1.00  0.00    -0.014 A 
BRANCH  33  34
ATOM     34  C   UNL A   1      40.999  27.725  28.184  1.00  0.00     0.031 A 
ATOM     35  C   UNL A   1      42.449  28.133  28.171  1.00  0.00     0.074 A 
ATOM     36  C   UNL A   1      40.073  28.584  28.656  1.00  0.00     0.049 A 
ATOM     37  N   UNL A   1      43.004  29.243  28.593  1.00  0.00    -0.248 NA
ATOM     38  C   UNL A   1      43.401  27.154  27.630  1.00  0.00     0.031 C 
ATOM     39  C   UNL A   1      38.637  28.312  28.739  1.00  0.00     0.029 A 
ATOM     40  N   UNL A   1      40.198  29.855  29.162  1.00  0.00    -0.354 N 
ATOM     41  C   UNL A   1      44.371  29.093  28.379  1.00  0.00     0.074 A 
ATOM     42  C   UNL A   1      44.561  27.761  27.842  1.00  0.00     0.031 C 
ATOM     43  C   UNL A   1      38.015  29.389  29.244  1.00  0.00     0.029 A 
ATOM     44  C   UNL A   1      39.006  30.410  29.566  1.00  0.00     0.049 A 
ATOM     45  H   UNL A   1      41.061  30.325  29.228  1.00  0.00     0.167 HD
ATOM     46  C   UNL A   1      45.373  29.987  28.591  1.00  0.00     0.034 A 
ATOM     47  C   UNL A   1      38.739  31.598  30.144  1.00  0.00     0.034 A 
ATOM     48  C   UNL A   1      45.172  31.314  29.127  1.00  0.00     0.049 A 
ATOM     49  C   UNL A   1      39.870  32.556  30.420  1.00  0.00     0.074 A 
ATOM     50  C   UNL A   1      46.111  32.310  29.339  1.00  0.00     0.029 A 
ATOM     51  N   UNL A   1      43.952  31.830  29.546  1.00  0.00    -0.354 N 
ATOM     52  N   UNL A   1      41.153  32.411  30.180  1.00  0.00    -0.248 NA
ATOM     53  C   UNL A   1      39.514  33.841  31.035  1.00  0.00     0.031 C 
ATOM     54  C   UNL A   1      45.475  33.396  29.950  1.00  0.00     0.029 A 
ATOM     55  C   UNL A   1      44.122  33.114  30.047  1.00  0.00     0.049 A 
ATOM     56  H   UNL A   1      43.092  31.354  29.496  1.00  0.00     0.167 HD
ATOM     57  C   UNL A   1      41.751  33.601  30.588  1.00  0.00     0.074 A 
ATOM     58  C   UNL A   1      40.689  34.454  31.078  1.00  0.00     0.031 C 
ATOM     59  C   UNL A   1      43.061  33.956  30.552  1.00  0.00     0.034 A 
BRANCH  46  60
ATOM     60  C   UNL A   1      46.782  29.536  28.274  1.00  0.00     0.023 A 
ATOM     61  C   UNL A   1      47.616  28.975  29.258  1.00  0.00     0.031 A 
ATOM     62  C   UNL A   1      47.312  29.703  26.982  1.00  0.00     0.131 A 
ATOM     63  C   UNL A   1      48.957  28.686  28.959  1.00  0.00     0.055 A 
ATOM     64  C   UNL A   1      48.622  29.329  26.669  1.00  0.00     0.041 A 
ATOM     65  F   UNL A   1      46.572  30.248  26.004  1.00  0.00    -0.206 F 
ATOM     66  C   UNL A   1      49.458  28.836  27.665  1.00  0.00     0.022 A 
BRANCH  63  67
ATOM     67  S   UNL A   1      50.076  28.271  30.325  1.00  0.00     0.124 S 
ATOM     68  O   UNL A   1      51.245  29.087  30.008  1.00  0.00    -0.237 OA
ATOM     69  O   UNL A   1      49.309  28.678  31.496  1.00  0.00    -0.237 OA
ATOM     70  O   UNL A   1      50.275  26.829  30.178  1.00  0.00    -0.744 OA
ENDBRANCH  63  67
ENDBRANCH  46  60
BRANCH  47  71
ATOM     71  C   UNL A   1      37.339  31.950  30.522  1.00  0.00     0.023 A 
ATOM     72  C   UNL A   1      36.484  32.589  29.610  1.00  0.00     0.031 A 
ATOM     73  C   UNL A   1      36.850  31.681  31.812  1.00  0.00     0.131 A 
ATOM     74  C   UNL A   1      35.195  32.972  30.014  1.00  0.00     0.055 A 
ATOM     75  C   UNL A   1      35.550  32.018  32.192  1.00  0.00     0.041 A 
ATOM     76  F   UNL A   1      37.626  31.068  32.719  1.00  0.00    -0.206 F 
ATOM     77  C   UNL A   1      34.717  32.678  31.293  1.00  0.00     0.022 A 
BRANCH  74  78
ATOM     78  S   UNL A   1      34.170  33.924  28.859  1.00  0.00     0.124 S 
ATOM     79  O   UNL A   1      33.168  34.494  29.752  1.00  0.00    -0.237 OA
ATOM     80  O   UNL A   1      35.137  34.860  28.295  1.00  0.00    -0.237 OA
ATOM     81  O   UNL A   1      33.675  32.910  27.930  1.00  0.00    -0.744 OA
ENDBRANCH  74  78
ENDBRANCH  47  71
BRANCH  59  82
ATOM     82  C   UNL A   1      43.408  35.350  31.015  1.00  0.00     0.023 A 
ATOM     83  C   UNL A   1      43.483  36.435  30.123  1.00  0.00     0.031 A 
ATOM     84  C   UNL A   1      43.686  35.594  32.373  1.00  0.00     0.131 A 
ATOM     85  C   UNL A   1      43.878  37.700  30.587  1.00  0.00     0.055 A 
ATOM     86  C   UNL A   1      44.021  36.866  32.840  1.00  0.00     0.041 A 
ATOM     87  F   UNL A   1      43.634  34.597  33.270  1.00  0.00    -0.206 F 
ATOM     88  C   UNL A   1      44.132  37.925  31.944  1.00  0.00     0.022 A 
BRANCH  85  89
ATOM     89  S   UNL A   1      44.145  39.029  29.383  1.00  0.00     0.124 S 
ATOM     90  O   UNL A   1      42.884  39.761  29.454  1.00  0.00    -0.237 OA
ATOM     91  O   UNL A   1      45.312  39.714  29.926  1.00  0.00    -0.237 OA
ATOM     92  O   UNL A   1      44.375  38.315  28.128  1.00  0.00    -0.744 OA
ENDBRANCH  85  89
ENDBRANCH  59  82
ENDBRANCH  33  34
ENDBRANCH  25  28
ENDBRANCH  23  24
ENDBRANCH   1  23
TORSDOF 15
ENDMDL
