MODEL 1
REMARK VINA RESULT:     -12.1      0.000      0.000
REMARK SMILES CS(=O)(=O)CC[C@@H](C(=O)NCCCNC(=O)c1ccc(-c2c3nc(c(-c4cc(S(=O)(=O)[O-])ccc4F)c4ccc([nH]4)c(-c4cc(S(=O)(=O)[O-])ccc4F)c4nc(c(-c5cc(S(=O)(=O)[O-])ccc5F)c5ccc2[nH]5)C=C4)C=C3)cc1)N1C(=O)c2ccccc2C1=O
REMARK SMILES IDX 12 1 11 2 10 3 8 4 9 5 7 7 6 8 5 9 2 10 1 11 3 12 4 13 80 14
REMARK SMILES IDX 81 15 89 16 82 17 83 18 88 19 90 20 84 21 87 22 85 23 86 24
REMARK SMILES IDX 13 25 14 26 15 27 16 29 17 30 18 31 79 32 19 33 78 34 20 35
REMARK SMILES IDX 21 36 22 37 72 38 23 39 77 40 71 41 73 42 24 43 76 44 70 45
REMARK SMILES IDX 69 46 25 48 57 49 37 50 56 51 38 52 41 53 55 54 74 55 39 56
REMARK SMILES IDX 40 57 54 59 75 60 42 61 26 62 27 63 35 64 28 65 34 66 36 67
REMARK SMILES IDX 33 68 29 69 30 70 31 71 32 72 58 73 59 74 67 75 60 76 66 77
REMARK SMILES IDX 68 78 65 79 61 80 62 81 63 82 64 83 43 84 44 85 52 86 45 87
REMARK SMILES IDX 51 88 53 89 50 90 46 91 47 92 48 93 49 94
REMARK H PARENT 10 6 14 28 73 47 41 58
REMARK Flexibility Score: inf
ROOT
ATOM      1  C   UNL A   1      35.632  21.975  24.278  1.00  0.00     0.042 C 
ENDROOT
BRANCH   1   2
ATOM      2  C   UNL A   1      34.116  21.844  24.359  1.00  0.00     0.117 C 
BRANCH   2   3
ATOM      3  N   UNL A   1      33.635  22.083  25.700  1.00  0.00    -0.354 N 
ATOM      4  C   UNL A   1      32.638  22.846  26.211  1.00  0.00     0.243 C 
ATOM      5  O   UNL A   1      32.433  22.649  27.418  1.00  0.00    -0.273 OA
ATOM      6  H   UNL A   1      34.137  21.587  26.386  1.00  0.00     0.163 HD
BRANCH   4   7
ATOM      7  C   UNL A   1      31.703  23.772  25.366  1.00  0.00     0.184 C 
BRANCH   7   8
ATOM      8  C   UNL A   1      31.701  23.789  23.821  1.00  0.00     0.052 C 
BRANCH   8   9
ATOM      9  C   UNL A   1      31.567  25.043  22.982  1.00  0.00     0.139 C 
BRANCH   9  10
ATOM     10  S   UNL A   1      32.903  25.560  21.924  1.00  0.00     0.147 S 
ATOM     11  C   UNL A   1      33.406  27.203  22.368  1.00  0.00     0.158 C 
ATOM     12  O   UNL A   1      32.341  25.657  20.589  1.00  0.00    -0.229 OA
ATOM     13  O   UNL A   1      34.034  24.693  22.189  1.00  0.00    -0.229 OA
ENDBRANCH   9  10
ENDBRANCH   8   9
ENDBRANCH   7   8
BRANCH   7  14
ATOM     14  N   UNL A   1      32.107  25.136  25.798  1.00  0.00    -0.262 N 
ATOM     15  C   UNL A   1      31.210  26.073  26.259  1.00  0.00     0.262 C 
ATOM     16  C   UNL A   1      33.368  25.654  25.715  1.00  0.00     0.262 C 
ATOM     17  O   UNL A   1      30.014  25.982  26.432  1.00  0.00    -0.269 OA
ATOM     18  C   UNL A   1      31.973  27.278  26.549  1.00  0.00     0.053 A 
ATOM     19  C   UNL A   1      33.290  27.032  26.217  1.00  0.00     0.053 A 
ATOM     20  O   UNL A   1      34.391  25.110  25.342  1.00  0.00    -0.269 OA
ATOM     21  C   UNL A   1      31.549  28.477  27.091  1.00  0.00     0.015 A 
ATOM     22  C   UNL A   1      34.268  27.989  26.412  1.00  0.00     0.015 A 
ATOM     23  C   UNL A   1      32.520  29.455  27.304  1.00  0.00     0.001 A 
ATOM     24  C   UNL A   1      33.868  29.213  26.966  1.00  0.00     0.001 A 
ENDBRANCH   7  14
ENDBRANCH   4   7
ENDBRANCH   2   3
ENDBRANCH   1   2
BRANCH   1  25
ATOM     25  C   UNL A   1      36.312  21.868  25.635  1.00  0.00     0.118 C 
BRANCH  25  26
ATOM     26  N   UNL A   1      37.321  20.817  25.652  1.00  0.00    -0.352 N 
ATOM     27  C   UNL A   1      38.680  20.893  25.844  1.00  0.00     0.251 C 
ATOM     28  H   UNL A   1      36.973  19.908  25.504  1.00  0.00     0.163 HD
ATOM     29  O   UNL A   1      39.372  19.912  25.582  1.00  0.00    -0.269 OA
BRANCH  27  30
ATOM     30  C   UNL A   1      39.308  22.140  26.337  1.00  0.00     0.039 A 
ATOM     31  C   UNL A   1      40.388  22.058  27.220  1.00  0.00     0.014 A 
ATOM     32  C   UNL A   1      38.824  23.392  25.950  1.00  0.00     0.014 A 
ATOM     33  C   UNL A   1      41.029  23.226  27.647  1.00  0.00     0.010 A 
ATOM     34  C   UNL A   1      39.523  24.544  26.294  1.00  0.00     0.010 A 
ATOM     35  C   UNL A   1      40.632  24.477  27.149  1.00  0.00    -0.014 A 
BRANCH  35  36
ATOM     36  C   UNL A   1      41.348  25.729  27.511  1.00  0.00     0.031 A 
ATOM     37  C   UNL A   1      40.650  26.786  28.327  1.00  0.00     0.074 A 
ATOM     38  C   UNL A   1      42.589  25.954  27.034  1.00  0.00     0.049 A 
ATOM     39  N   UNL A   1      41.046  27.995  28.634  1.00  0.00    -0.248 NA
ATOM     40  C   UNL A   1      39.309  26.447  28.832  1.00  0.00     0.031 C 
ATOM     41  C   UNL A   1      43.354  25.024  26.199  1.00  0.00     0.029 A 
ATOM     42  N   UNL A   1      43.421  27.037  27.168  1.00  0.00    -0.354 N 
ATOM     43  C   UNL A   1      39.997  28.567  29.347  1.00  0.00     0.074 A 
ATOM     44  C   UNL A   1      38.925  27.595  29.369  1.00  0.00     0.031 C 
ATOM     45  C   UNL A   1      44.550  25.567  25.918  1.00  0.00     0.029 A 
ATOM     46  C   UNL A   1      44.617  26.902  26.500  1.00  0.00     0.049 A 
ATOM     47  H   UNL A   1      43.184  27.836  27.692  1.00  0.00     0.167 HD
ATOM     48  C   UNL A   1      39.942  29.783  29.949  1.00  0.00     0.034 A 
ATOM     49  C   UNL A   1      45.644  27.764  26.358  1.00  0.00     0.034 A 
ATOM     50  C   UNL A   1      41.030  30.730  29.934  1.00  0.00     0.049 A 
ATOM     51  C   UNL A   1      45.551  29.119  27.013  1.00  0.00     0.074 A 
ATOM     52  C   UNL A   1      41.110  31.961  30.563  1.00  0.00     0.029 A 
ATOM     53  N   UNL A   1      42.227  30.558  29.250  1.00  0.00    -0.354 N 
ATOM     54  N   UNL A   1      44.571  29.628  27.725  1.00  0.00    -0.248 NA
ATOM     55  C   UNL A   1      46.703  30.014  26.849  1.00  0.00     0.031 C 
ATOM     56  C   UNL A   1      42.322  32.560  30.203  1.00  0.00     0.029 A 
ATOM     57  C   UNL A   1      43.034  31.674  29.412  1.00  0.00     0.049 A 
ATOM     58  H   UNL A   1      42.467  29.760  28.726  1.00  0.00     0.167 HD
ATOM     59  C   UNL A   1      45.003  30.892  28.114  1.00  0.00     0.074 A 
ATOM     60  C   UNL A   1      46.337  31.060  27.574  1.00  0.00     0.031 C 
ATOM     61  C   UNL A   1      44.356  31.830  28.852  1.00  0.00     0.034 A 
BRANCH  48  62
ATOM     62  C   UNL A   1      38.656  30.156  30.649  1.00  0.00     0.023 A 
ATOM     63  C   UNL A   1      37.656  30.909  30.006  1.00  0.00     0.031 A 
ATOM     64  C   UNL A   1      38.437  29.780  31.986  1.00  0.00     0.131 A 
ATOM     65  C   UNL A   1      36.527  31.332  30.724  1.00  0.00     0.055 A 
ATOM     66  C   UNL A   1      37.269  30.131  32.668  1.00  0.00     0.041 A 
ATOM     67  F   UNL A   1      39.361  29.078  32.659  1.00  0.00    -0.206 F 
ATOM     68  C   UNL A   1      36.313  30.925  32.042  1.00  0.00     0.022 A 
BRANCH  65  69
ATOM     69  S   UNL A   1      35.418  32.544  29.954  1.00  0.00     0.124 S 
ATOM     70  O   UNL A   1      34.412  32.725  30.999  1.00  0.00    -0.237 OA
ATOM     71  O   UNL A   1      36.305  33.677  29.716  1.00  0.00    -0.237 OA
ATOM     72  O   UNL A   1      34.942  31.860  28.755  1.00  0.00    -0.744 OA
ENDBRANCH  65  69
ENDBRANCH  48  62
BRANCH  49  73
ATOM     73  C   UNL A   1      46.841  27.389  25.551  1.00  0.00     0.023 A 
ATOM     74  C   UNL A   1      46.992  27.842  24.231  1.00  0.00     0.031 A 
ATOM     75  C   UNL A   1      47.832  26.538  26.072  1.00  0.00     0.131 A 
ATOM     76  C   UNL A   1      48.081  27.406  23.461  1.00  0.00     0.055 A 
ATOM     77  C   UNL A   1      48.943  26.151  25.321  1.00  0.00     0.041 A 
ATOM     78  F   UNL A   1      47.739  26.078  27.330  1.00  0.00    -0.206 F 
ATOM     79  C   UNL A   1      49.065  26.574  24.002  1.00  0.00     0.022 A 
BRANCH  76  80
ATOM     80  S   UNL A   1      48.147  27.870  21.709  1.00  0.00     0.124 S 
ATOM     81  O   UNL A   1      48.361  26.578  21.067  1.00  0.00    -0.237 OA
ATOM     82  O   UNL A   1      46.836  28.477  21.507  1.00  0.00    -0.237 OA
ATOM     83  O   UNL A   1      49.277  28.795  21.644  1.00  0.00    -0.744 OA
ENDBRANCH  76  80
ENDBRANCH  49  73
BRANCH  61  84
ATOM     84  C   UNL A   1      45.108  33.107  29.142  1.00  0.00     0.023 A 
ATOM     85  C   UNL A   1      44.983  34.240  28.320  1.00  0.00     0.031 A 
ATOM     86  C   UNL A   1      45.969  33.185  30.251  1.00  0.00     0.131 A 
ATOM     87  C   UNL A   1      45.750  35.384  28.586  1.00  0.00     0.055 A 
ATOM     88  C   UNL A   1      46.683  34.347  30.547  1.00  0.00     0.041 A 
ATOM     89  F   UNL A   1      46.128  32.132  31.069  1.00  0.00    -0.206 F 
ATOM     90  C   UNL A   1      46.585  35.451  29.705  1.00  0.00     0.022 A 
BRANCH  87  91
ATOM     91  S   UNL A   1      45.709  36.755  27.399  1.00  0.00     0.124 S 
ATOM     92  O   UNL A   1      44.309  36.761  26.990  1.00  0.00    -0.237 OA
ATOM     93  O   UNL A   1      46.141  37.887  28.213  1.00  0.00    -0.237 OA
ATOM     94  O   UNL A   1      46.656  36.341  26.365  1.00  0.00    -0.744 OA
ENDBRANCH  87  91
ENDBRANCH  61  84
ENDBRANCH  35  36
ENDBRANCH  27  30
ENDBRANCH  25  26
ENDBRANCH   1  25
TORSDOF 17
ENDMDL
MODEL 2
REMARK VINA RESULT:     -12.0      5.720     10.700
REMARK SMILES CS(=O)(=O)CC[C@@H](C(=O)NCCCNC(=O)c1ccc(-c2c3nc(c(-c4cc(S(=O)(=O)[O-])ccc4F)c4ccc([nH]4)c(-c4cc(S(=O)(=O)[O-])ccc4F)c4nc(c(-c5cc(S(=O)(=O)[O-])ccc5F)c5ccc2[nH]5)C=C4)C=C3)cc1)N1C(=O)c2ccccc2C1=O
REMARK SMILES IDX 12 1 11 2 10 3 8 4 9 5 7 7 6 8 5 9 2 10 1 11 3 12 4 13 80 14
REMARK SMILES IDX 81 15 89 16 82 17 83 18 88 19 90 20 84 21 87 22 85 23 86 24
REMARK SMILES IDX 13 25 14 26 15 27 16 29 17 30 18 31 79 32 19 33 78 34 20 35
REMARK SMILES IDX 21 36 22 37 72 38 23 39 77 40 71 41 73 42 24 43 76 44 70 45
REMARK SMILES IDX 69 46 25 48 57 49 37 50 56 51 38 52 41 53 55 54 74 55 39 56
REMARK SMILES IDX 40 57 54 59 75 60 42 61 26 62 27 63 35 64 28 65 34 66 36 67
REMARK SMILES IDX 33 68 29 69 30 70 31 71 32 72 58 73 59 74 67 75 60 76 66 77
REMARK SMILES IDX 68 78 65 79 61 80 62 81 63 82 64 83 43 84 44 85 52 86 45 87
REMARK SMILES IDX 51 88 53 89 50 90 46 91 47 92 48 93 49 94
REMARK H PARENT 10 6 14 28 73 47 41 58
REMARK Flexibility Score: inf
ROOT
ATOM      1  C   UNL A   1      31.756  31.286  26.350  1.00  0.00     0.042 C 
ENDROOT
BRANCH   1   2
ATOM      2  C   UNL A   1      32.029  29.845  25.937  1.00  0.00     0.117 C 
BRANCH   2   3
ATOM      3  N   UNL A   1      33.029  29.773  24.898  1.00  0.00    -0.354 N 
ATOM      4  C   UNL A   1      33.191  28.976  23.813  1.00  0.00     0.243 C 
ATOM      5  O   UNL A   1      34.103  29.345  23.059  1.00  0.00    -0.273 OA
ATOM      6  H   UNL A   1      33.741  30.445  24.997  1.00  0.00     0.163 HD
BRANCH   4   7
ATOM      7  C   UNL A   1      32.240  27.796  23.425  1.00  0.00     0.184 C 
BRANCH   7   8
ATOM      8  C   UNL A   1      30.885  27.539  24.120  1.00  0.00     0.052 C 
BRANCH   8   9
ATOM      9  C   UNL A   1      29.536  27.853  23.505  1.00  0.00     0.139 C 
BRANCH   9  10
ATOM     10  S   UNL A   1      29.236  29.448  22.773  1.00  0.00     0.147 S 
ATOM     11  C   UNL A   1      27.519  29.589  22.348  1.00  0.00     0.158 C 
ATOM     12  O   UNL A   1      29.964  29.456  21.518  1.00  0.00    -0.229 OA
ATOM     13  O   UNL A   1      29.498  30.453  23.786  1.00  0.00    -0.229 OA
ENDBRANCH   9  10
ENDBRANCH   8   9
ENDBRANCH   7   8
BRANCH   7  14
ATOM     14  N   UNL A   1      33.076  26.596  23.683  1.00  0.00    -0.262 N 
ATOM     15  C   UNL A   1      33.530  26.254  24.938  1.00  0.00     0.262 C 
ATOM     16  C   UNL A   1      33.562  25.746  22.732  1.00  0.00     0.262 C 
ATOM     17  O   UNL A   1      33.332  26.790  26.007  1.00  0.00    -0.269 OA
ATOM     18  C   UNL A   1      34.332  25.049  24.782  1.00  0.00     0.053 A 
ATOM     19  C   UNL A   1      34.358  24.734  23.437  1.00  0.00     0.053 A 
ATOM     20  O   UNL A   1      33.370  25.760  21.529  1.00  0.00    -0.269 OA
ATOM     21  C   UNL A   1      34.955  24.278  25.744  1.00  0.00     0.015 A 
ATOM     22  C   UNL A   1      35.023  23.613  22.979  1.00  0.00     0.015 A 
ATOM     23  C   UNL A   1      35.625  23.136  25.305  1.00  0.00     0.001 A 
ATOM     24  C   UNL A   1      35.660  22.807  23.934  1.00  0.00     0.001 A 
ENDBRANCH   7  14
ENDBRANCH   4   7
ENDBRANCH   2   3
ENDBRANCH   1   2
BRANCH   1  25
ATOM     25  C   UNL A   1      32.845  31.867  27.240  1.00  0.00     0.118 C 
BRANCH  25  26
ATOM     26  N   UNL A   1      32.661  33.296  27.456  1.00  0.00    -0.352 N 
ATOM     27  C   UNL A   1      33.244  34.139  28.372  1.00  0.00     0.251 C 
ATOM     28  H   UNL A   1      32.018  33.727  26.848  1.00  0.00     0.163 HD
ATOM     29  O   UNL A   1      32.767  35.259  28.536  1.00  0.00    -0.269 OA
BRANCH  27  30
ATOM     30  C   UNL A   1      34.413  33.700  29.170  1.00  0.00     0.039 A 
ATOM     31  C   UNL A   1      34.214  32.852  30.263  1.00  0.00     0.014 A 
ATOM     32  C   UNL A   1      35.702  34.139  28.859  1.00  0.00     0.014 A 
ATOM     33  C   UNL A   1      35.314  32.383  30.989  1.00  0.00     0.010 A 
ATOM     34  C   UNL A   1      36.799  33.593  29.516  1.00  0.00     0.010 A 
ATOM     35  C   UNL A   1      36.620  32.711  30.592  1.00  0.00    -0.014 A 
BRANCH  35  36
ATOM     36  C   UNL A   1      37.814  32.158  31.284  1.00  0.00     0.031 A 
ATOM     37  C   UNL A   1      38.596  31.035  30.653  1.00  0.00     0.074 A 
ATOM     38  C   UNL A   1      38.142  32.603  32.514  1.00  0.00     0.049 A 
ATOM     39  N   UNL A   1      39.579  30.328  31.148  1.00  0.00    -0.248 NA
ATOM     40  C   UNL A   1      38.189  30.631  29.298  1.00  0.00     0.031 C 
ATOM     41  C   UNL A   1      37.438  33.658  33.247  1.00  0.00     0.029 A 
ATOM     42  N   UNL A   1      39.141  32.216  33.372  1.00  0.00    -0.354 N 
ATOM     43  C   UNL A   1      39.893  29.383  30.176  1.00  0.00     0.074 A 
ATOM     44  C   UNL A   1      38.951  29.569  29.092  1.00  0.00     0.031 C 
ATOM     45  C   UNL A   1      38.041  33.849  34.431  1.00  0.00     0.029 A 
ATOM     46  C   UNL A   1      39.136  32.897  34.569  1.00  0.00     0.049 A 
ATOM     47  H   UNL A   1      39.798  31.517  33.153  1.00  0.00     0.167 HD
ATOM     48  C   UNL A   1      40.889  28.461  30.176  1.00  0.00     0.034 A 
ATOM     49  C   UNL A   1      39.915  32.756  35.661  1.00  0.00     0.034 A 
ATOM     50  C   UNL A   1      41.832  28.306  31.257  1.00  0.00     0.049 A 
ATOM     51  C   UNL A   1      40.999  31.708  35.650  1.00  0.00     0.074 A 
ATOM     52  C   UNL A   1      42.919  27.452  31.337  1.00  0.00     0.029 A 
ATOM     53  N   UNL A   1      41.797  29.014  32.452  1.00  0.00    -0.354 N 
ATOM     54  N   UNL A   1      41.313  30.854  34.703  1.00  0.00    -0.248 NA
ATOM     55  C   UNL A   1      41.835  31.608  36.852  1.00  0.00     0.031 C 
ATOM     56  C   UNL A   1      43.497  27.595  32.603  1.00  0.00     0.029 A 
ATOM     57  C   UNL A   1      42.821  28.592  33.287  1.00  0.00     0.049 A 
ATOM     58  H   UNL A   1      41.142  29.715  32.673  1.00  0.00     0.167 HD
ATOM     59  C   UNL A   1      42.401  30.134  35.188  1.00  0.00     0.074 A 
ATOM     60  C   UNL A   1      42.699  30.668  36.502  1.00  0.00     0.031 C 
ATOM     61  C   UNL A   1      43.093  29.124  34.602  1.00  0.00     0.034 A 
BRANCH  48  62
ATOM     62  C   UNL A   1      40.988  27.541  28.981  1.00  0.00     0.023 A 
ATOM     63  C   UNL A   1      41.985  27.705  28.002  1.00  0.00     0.031 A 
ATOM     64  C   UNL A   1      40.055  26.505  28.800  1.00  0.00     0.131 A 
ATOM     65  C   UNL A   1      41.976  26.904  26.850  1.00  0.00     0.055 A 
ATOM     66  C   UNL A   1      40.105  25.654  27.693  1.00  0.00     0.041 A 
ATOM     67  F   UNL A   1      39.069  26.310  29.689  1.00  0.00    -0.206 F 
ATOM     68  C   UNL A   1      41.059  25.862  26.702  1.00  0.00     0.022 A 
BRANCH  65  69
ATOM     69  S   UNL A   1      43.084  27.342  25.483  1.00  0.00     0.124 S 
ATOM     70  O   UNL A   1      44.189  27.981  26.195  1.00  0.00    -0.237 OA
ATOM     71  O   UNL A   1      43.374  26.045  24.884  1.00  0.00    -0.237 OA
ATOM     72  O   UNL A   1      42.278  28.243  24.663  1.00  0.00    -0.744 OA
ENDBRANCH  65  69
ENDBRANCH  48  62
BRANCH  49  73
ATOM     73  C   UNL A   1      39.693  33.610  36.864  1.00  0.00     0.023 A 
ATOM     74  C   UNL A   1      39.015  33.112  37.987  1.00  0.00     0.031 A 
ATOM     75  C   UNL A   1      40.119  34.950  36.893  1.00  0.00     0.131 A 
ATOM     76  C   UNL A   1      38.741  33.960  39.072  1.00  0.00     0.055 A 
ATOM     77  C   UNL A   1      39.893  35.774  37.996  1.00  0.00     0.041 A 
ATOM     78  F   UNL A   1      40.775  35.477  35.846  1.00  0.00    -0.206 F 
ATOM     79  C   UNL A   1      39.187  35.283  39.090  1.00  0.00     0.022 A 
BRANCH  76  80
ATOM     80  S   UNL A   1      37.710  33.330  40.426  1.00  0.00     0.124 S 
ATOM     81  O   UNL A   1      38.566  32.295  40.994  1.00  0.00    -0.237 OA
ATOM     82  O   UNL A   1      37.520  34.524  41.242  1.00  0.00    -0.237 OA
ATOM     83  O   UNL A   1      36.511  32.846  39.744  1.00  0.00    -0.744 OA
ENDBRANCH  76  80
ENDBRANCH  49  73
BRANCH  61  84
ATOM     84  C   UNL A   1      44.262  28.560  35.373  1.00  0.00     0.023 A 
ATOM     85  C   UNL A   1      44.095  27.534  36.319  1.00  0.00     0.031 A 
ATOM     86  C   UNL A   1      45.557  29.066  35.164  1.00  0.00     0.131 A 
ATOM     87  C   UNL A   1      45.197  27.084  37.061  1.00  0.00     0.055 A 
ATOM     88  C   UNL A   1      46.660  28.571  35.863  1.00  0.00     0.041 A 
ATOM     89  F   UNL A   1      45.773  30.048  34.275  1.00  0.00    -0.206 F 
ATOM     90  C   UNL A   1      46.481  27.583  36.827  1.00  0.00     0.022 A 
BRANCH  87  91
ATOM     91  S   UNL A   1      44.915  25.898  38.405  1.00  0.00     0.124 S 
ATOM     92  O   UNL A   1      44.052  26.658  39.305  1.00  0.00    -0.237 OA
ATOM     93  O   UNL A   1      44.284  24.781  37.709  1.00  0.00    -0.237 OA
ATOM     94  O   UNL A   1      46.259  25.630  38.914  1.00  0.00    -0.744 OA
ENDBRANCH  87  91
ENDBRANCH  61  84
ENDBRANCH  35  36
ENDBRANCH  27  30
ENDBRANCH  25  26
ENDBRANCH   1  25
TORSDOF 17
ENDMDL
MODEL 3
REMARK VINA RESULT:     -12.0      0.986      7.503
REMARK SMILES CS(=O)(=O)CC[C@@H](C(=O)NCCCNC(=O)c1ccc(-c2c3nc(c(-c4cc(S(=O)(=O)[O-])ccc4F)c4ccc([nH]4)c(-c4cc(S(=O)(=O)[O-])ccc4F)c4nc(c(-c5cc(S(=O)(=O)[O-])ccc5F)c5ccc2[nH]5)C=C4)C=C3)cc1)N1C(=O)c2ccccc2C1=O
REMARK SMILES IDX 12 1 11 2 10 3 8 4 9 5 7 7 6 8 5 9 2 10 1 11 3 12 4 13 80 14
REMARK SMILES IDX 81 15 89 16 82 17 83 18 88 19 90 20 84 21 87 22 85 23 86 24
REMARK SMILES IDX 13 25 14 26 15 27 16 29 17 30 18 31 79 32 19 33 78 34 20 35
REMARK SMILES IDX 21 36 22 37 72 38 23 39 77 40 71 41 73 42 24 43 76 44 70 45
REMARK SMILES IDX 69 46 25 48 57 49 37 50 56 51 38 52 41 53 55 54 74 55 39 56
REMARK SMILES IDX 40 57 54 59 75 60 42 61 26 62 27 63 35 64 28 65 34 66 36 67
REMARK SMILES IDX 33 68 29 69 30 70 31 71 32 72 58 73 59 74 67 75 60 76 66 77
REMARK SMILES IDX 68 78 65 79 61 80 62 81 63 82 64 83 43 84 44 85 52 86 45 87
REMARK SMILES IDX 51 88 53 89 50 90 46 91 47 92 48 93 49 94
REMARK H PARENT 10 6 14 28 73 47 41 58
REMARK Flexibility Score: inf
ROOT
ATOM      1  C   UNL A   1      35.987  22.035  24.390  1.00  0.00     0.042 C 
ENDROOT
BRANCH   1   2
ATOM      2  C   UNL A   1      34.490  21.766  24.484  1.00  0.00     0.117 C 
BRANCH   2   3
ATOM      3  N   UNL A   1      33.978  22.077  25.798  1.00  0.00    -0.354 N 
ATOM      4  C   UNL A   1      32.964  22.859  26.243  1.00  0.00     0.243 C 
ATOM      5  O   UNL A   1      32.734  22.730  27.454  1.00  0.00    -0.273 OA
ATOM      6  H   UNL A   1      34.468  21.625  26.522  1.00  0.00     0.163 HD
BRANCH   4   7
ATOM      7  C   UNL A   1      32.042  23.728  25.326  1.00  0.00     0.184 C 
BRANCH   7   8
ATOM      8  C   UNL A   1      32.122  23.708  23.783  1.00  0.00     0.052 C 
BRANCH   8   9
ATOM      9  C   UNL A   1      31.366  24.658  22.877  1.00  0.00     0.139 C 
BRANCH   9  10
ATOM     10  S   UNL A   1      32.249  25.856  21.900  1.00  0.00     0.147 S 
ATOM     11  C   UNL A   1      32.121  27.453  22.665  1.00  0.00     0.158 C 
ATOM     12  O   UNL A   1      31.532  25.953  20.642  1.00  0.00    -0.229 OA
ATOM     13  O   UNL A   1      33.653  25.495  21.925  1.00  0.00    -0.229 OA
ENDBRANCH   9  10
ENDBRANCH   8   9
ENDBRANCH   7   8
BRANCH   7  14
ATOM     14  N   UNL A   1      32.370  25.116  25.742  1.00  0.00    -0.262 N 
ATOM     15  C   UNL A   1      31.436  25.985  26.260  1.00  0.00     0.262 C 
ATOM     16  C   UNL A   1      33.583  25.725  25.592  1.00  0.00     0.262 C 
ATOM     17  O   UNL A   1      30.261  25.807  26.500  1.00  0.00    -0.269 OA
ATOM     18  C   UNL A   1      32.124  27.241  26.515  1.00  0.00     0.053 A 
ATOM     19  C   UNL A   1      33.435  27.092  26.107  1.00  0.00     0.053 A 
ATOM     20  O   UNL A   1      34.620  25.257  25.158  1.00  0.00    -0.269 OA
ATOM     21  C   UNL A   1      31.646  28.405  27.087  1.00  0.00     0.015 A 
ATOM     22  C   UNL A   1      34.350  28.117  26.252  1.00  0.00     0.015 A 
ATOM     23  C   UNL A   1      32.555  29.450  27.251  1.00  0.00     0.001 A 
ATOM     24  C   UNL A   1      33.896  29.308  26.836  1.00  0.00     0.001 A 
ENDBRANCH   7  14
ENDBRANCH   4   7
ENDBRANCH   2   3
ENDBRANCH   1   2
BRANCH   1  25
ATOM     25  C   UNL A   1      36.654  22.169  25.751  1.00  0.00     0.118 C 
BRANCH  25  26
ATOM     26  N   UNL A   1      37.760  21.234  25.906  1.00  0.00    -0.352 N 
ATOM     27  C   UNL A   1      39.086  21.464  26.188  1.00  0.00     0.251 C 
ATOM     28  H   UNL A   1      37.519  20.286  25.791  1.00  0.00     0.163 HD
ATOM     29  O   UNL A   1      39.892  20.549  26.038  1.00  0.00    -0.269 OA
BRANCH  27  30
ATOM     30  C   UNL A   1      39.544  22.796  26.645  1.00  0.00     0.039 A 
ATOM     31  C   UNL A   1      40.535  22.878  27.627  1.00  0.00     0.014 A 
ATOM     32  C   UNL A   1      38.986  23.966  26.126  1.00  0.00     0.014 A 
ATOM     33  C   UNL A   1      41.020  24.128  28.024  1.00  0.00     0.010 A 
ATOM     34  C   UNL A   1      39.537  25.202  26.447  1.00  0.00     0.010 A 
ATOM     35  C   UNL A   1      40.559  25.300  27.403  1.00  0.00    -0.014 A 
BRANCH  35  36
ATOM     36  C   UNL A   1      41.117  26.637  27.737  1.00  0.00     0.031 A 
ATOM     37  C   UNL A   1      42.548  26.961  27.396  1.00  0.00     0.074 A 
ATOM     38  C   UNL A   1      40.366  27.525  28.420  1.00  0.00     0.049 A 
ATOM     39  N   UNL A   1      43.261  28.011  27.717  1.00  0.00    -0.248 NA
ATOM     40  C   UNL A   1      43.285  25.948  26.624  1.00  0.00     0.031 C 
ATOM     41  C   UNL A   1      38.979  27.312  28.842  1.00  0.00     0.029 A 
ATOM     42  N   UNL A   1      40.666  28.778  28.894  1.00  0.00    -0.354 N 
ATOM     43  C   UNL A   1      44.533  27.775  27.206  1.00  0.00     0.074 A 
ATOM     44  C   UNL A   1      44.508  26.455  26.612  1.00  0.00     0.031 C 
ATOM     45  C   UNL A   1      38.543  28.404  29.489  1.00  0.00     0.029 A 
ATOM     46  C   UNL A   1      39.631  29.372  29.580  1.00  0.00     0.049 A 
ATOM     47  H   UNL A   1      41.540  29.210  28.757  1.00  0.00     0.167 HD
ATOM     48  C   UNL A   1      45.616  28.594  27.210  1.00  0.00     0.034 A 
ATOM     49  C   UNL A   1      39.571  30.554  30.225  1.00  0.00     0.034 A 
ATOM     50  C   UNL A   1      45.615  29.915  27.788  1.00  0.00     0.049 A 
ATOM     51  C   UNL A   1      40.794  31.437  30.240  1.00  0.00     0.074 A 
ATOM     52  C   UNL A   1      46.631  30.855  27.793  1.00  0.00     0.029 A 
ATOM     53  N   UNL A   1      44.547  30.484  28.472  1.00  0.00    -0.354 N 
ATOM     54  N   UNL A   1      41.976  31.220  29.710  1.00  0.00    -0.248 NA
ATOM     55  C   UNL A   1      40.673  32.724  30.935  1.00  0.00     0.031 C 
ATOM     56  C   UNL A   1      46.204  31.961  28.537  1.00  0.00     0.029 A 
ATOM     57  C   UNL A   1      44.894  31.746  28.933  1.00  0.00     0.049 A 
ATOM     58  H   UNL A   1      43.672  30.054  28.610  1.00  0.00     0.167 HD
ATOM     59  C   UNL A   1      42.729  32.357  29.987  1.00  0.00     0.074 A 
ATOM     60  C   UNL A   1      41.862  33.262  30.713  1.00  0.00     0.031 C 
ATOM     61  C   UNL A   1      44.021  32.629  29.670  1.00  0.00     0.034 A 
BRANCH  48  62
ATOM     62  C   UNL A   1      46.890  28.067  26.591  1.00  0.00     0.023 A 
ATOM     63  C   UNL A   1      47.140  28.174  25.211  1.00  0.00     0.031 A 
ATOM     64  C   UNL A   1      47.855  27.422  27.384  1.00  0.00     0.131 A 
ATOM     65  C   UNL A   1      48.280  27.573  24.656  1.00  0.00     0.055 A 
ATOM     66  C   UNL A   1      49.031  26.902  26.838  1.00  0.00     0.041 A 
ATOM     67  F   UNL A   1      47.665  27.271  28.704  1.00  0.00    -0.206 F 
ATOM     68  C   UNL A   1      49.241  26.962  25.463  1.00  0.00     0.022 A 
BRANCH  65  69
ATOM     69  S   UNL A   1      48.413  27.472  22.850  1.00  0.00     0.124 S 
ATOM     70  O   UNL A   1      49.690  28.143  22.612  1.00  0.00    -0.237 OA
ATOM     71  O   UNL A   1      48.391  26.034  22.611  1.00  0.00    -0.237 OA
ATOM     72  O   UNL A   1      47.238  28.203  22.379  1.00  0.00    -0.744 OA
ENDBRANCH  65  69
ENDBRANCH  48  62
BRANCH  49  73
ATOM     73  C   UNL A   1      38.323  30.972  30.927  1.00  0.00     0.023 A 
ATOM     74  C   UNL A   1      37.288  31.621  30.235  1.00  0.00     0.031 A 
ATOM     75  C   UNL A   1      38.162  30.766  32.309  1.00  0.00     0.131 A 
ATOM     76  C   UNL A   1      36.161  32.083  30.933  1.00  0.00     0.055 A 
ATOM     77  C   UNL A   1      37.016  31.178  32.990  1.00  0.00     0.041 A 
ATOM     78  F   UNL A   1      39.120  30.147  33.019  1.00  0.00    -0.206 F 
ATOM     79  C   UNL A   1      36.012  31.853  32.303  1.00  0.00     0.022 A 
BRANCH  76  80
ATOM     80  S   UNL A   1      34.931  33.070  30.038  1.00  0.00     0.124 S 
ATOM     81  O   UNL A   1      34.403  32.097  29.088  1.00  0.00    -0.237 OA
ATOM     82  O   UNL A   1      34.028  33.474  31.111  1.00  0.00    -0.237 OA
ATOM     83  O   UNL A   1      35.722  34.150  29.452  1.00  0.00    -0.744 OA
ENDBRANCH  76  80
ENDBRANCH  49  73
BRANCH  61  84
ATOM     84  C   UNL A   1      44.554  33.980  30.082  1.00  0.00     0.023 A 
ATOM     85  C   UNL A   1      44.410  35.112  29.262  1.00  0.00     0.031 A 
ATOM     86  C   UNL A   1      45.227  34.130  31.308  1.00  0.00     0.131 A 
ATOM     87  C   UNL A   1      44.979  36.333  29.653  1.00  0.00     0.055 A 
ATOM     88  C   UNL A   1      45.737  35.363  31.719  1.00  0.00     0.041 A 
ATOM     89  F   UNL A   1      45.396  33.082  32.129  1.00  0.00    -0.206 F 
ATOM     90  C   UNL A   1      45.626  36.470  30.884  1.00  0.00     0.022 A 
BRANCH  87  91
ATOM     91  S   UNL A   1      44.940  37.723  28.487  1.00  0.00     0.124 S 
ATOM     92  O   UNL A   1      45.817  38.691  29.139  1.00  0.00    -0.237 OA
ATOM     93  O   UNL A   1      45.456  37.119  27.263  1.00  0.00    -0.237 OA
ATOM     94  O   UNL A   1      43.527  38.096  28.444  1.00  0.00    -0.744 OA
ENDBRANCH  87  91
ENDBRANCH  61  84
ENDBRANCH  35  36
ENDBRANCH  27  30
ENDBRANCH  25  26
ENDBRANCH   1  25
TORSDOF 17
ENDMDL
