MODEL 1
REMARK VINA RESULT:     -10.6      0.000      0.000
REMARK SMILES COC(=O)[C@@H]([NH2+]CC(C)(C)C(=O)NCCCNC(=O)c1ccc(-c2c3nc(c(-c4cc(S(=O)(=O)[O-])ccc4F)c4ccc([nH]4)c(-c4cc(S(=O)(=O)[O-])ccc4F)c4nc(c(-c5cc(S(=O)(=O)[O-])ccc5F)c5ccc2[nH]5)C=C4)C=C3)cc1)c1ccccc1
REMARK SMILES IDX 14 1 13 2 11 3 12 4 8 6 9 7 10 8 7 9 6 10 5 13 3 14 4 15
REMARK SMILES IDX 2 16 1 17 83 18 84 19 88 20 85 21 87 22 86 23 15 24 16 25
REMARK SMILES IDX 17 26 18 27 19 29 20 30 21 31 82 32 22 33 81 34 23 35 24 36
REMARK SMILES IDX 25 37 75 38 26 39 80 40 74 41 76 42 27 43 79 44 73 45 72 46
REMARK SMILES IDX 28 48 60 49 40 50 59 51 41 52 44 53 58 54 77 55 42 56 43 57
REMARK SMILES IDX 57 59 78 60 45 61 29 62 30 63 38 64 31 65 37 66 39 67 36 68
REMARK SMILES IDX 32 69 33 70 34 71 35 72 61 73 62 74 70 75 63 76 69 77 71 78
REMARK SMILES IDX 68 79 64 80 65 81 66 82 67 83 46 84 47 85 55 86 48 87 54 88
REMARK SMILES IDX 56 89 53 90 49 91 50 92 51 93 52 94
REMARK H PARENT 13 5 6 11 6 12 17 28 76 47 44 58
REMARK Flexibility Score: inf
ROOT
ATOM      1  C   UNL A   1      31.312  30.881  25.794  1.00  0.00     0.117 C 
ENDROOT
BRANCH   1   2
ATOM      2  N   UNL A   1      32.687  30.434  25.688  1.00  0.00    -0.355 N 
ATOM      3  C   UNL A   1      33.200  29.198  25.909  1.00  0.00     0.231 C 
ATOM      4  O   UNL A   1      34.259  29.173  26.538  1.00  0.00    -0.274 OA
ATOM      5  H   UNL A   1      33.337  31.122  25.418  1.00  0.00     0.163 HD
BRANCH   3   6
ATOM      6  C   UNL A   1      32.501  27.917  25.428  1.00  0.00     0.092 C 
ATOM      7  C   UNL A   1      31.717  28.099  24.119  1.00  0.00     0.027 C 
ATOM      8  C   UNL A   1      31.563  27.448  26.560  1.00  0.00     0.027 C 
BRANCH   6   9
ATOM      9  C   UNL A   1      33.566  26.785  25.225  1.00  0.00     0.277 C 
BRANCH   9  10
ATOM     10  N   UNL A   1      33.528  25.559  26.051  1.00  0.00    -0.330 N 
ATOM     11  H   UNL A   1      34.319  25.590  26.696  1.00  0.00     0.347 HD
ATOM     12  H   UNL A   1      32.621  25.560  26.517  1.00  0.00     0.347 HD
BRANCH  10  13
ATOM     13  C   UNL A   1      33.603  24.276  25.294  1.00  0.00     0.324 C 
BRANCH  13  14
ATOM     14  C   UNL A   1      32.719  23.227  26.000  1.00  0.00     0.369 C 
ATOM     15  O   UNL A   1      32.264  23.401  27.130  1.00  0.00    -0.245 OA
BRANCH  14  16
ATOM     16  O   UNL A   1      32.555  22.083  25.281  1.00  0.00    -0.464 OA
ATOM     17  C   UNL A   1      31.831  22.266  24.064  1.00  0.00     0.282 C 
ENDBRANCH  14  16
ENDBRANCH  13  14
BRANCH  13  18
ATOM     18  C   UNL A   1      34.998  23.756  24.956  1.00  0.00     0.021 A 
ATOM     19  C   UNL A   1      35.378  23.336  23.672  1.00  0.00     0.010 A 
ATOM     20  C   UNL A   1      35.929  23.603  26.001  1.00  0.00     0.010 A 
ATOM     21  C   UNL A   1      36.596  22.685  23.462  1.00  0.00     0.001 A 
ATOM     22  C   UNL A   1      37.161  22.983  25.784  1.00  0.00     0.001 A 
ATOM     23  C   UNL A   1      37.483  22.501  24.518  1.00  0.00     0.000 A 
ENDBRANCH  13  18
ENDBRANCH  10  13
ENDBRANCH   9  10
ENDBRANCH   6   9
ENDBRANCH   3   6
ENDBRANCH   1   2
BRANCH   1  24
ATOM     24  C   UNL A   1      31.239  32.232  26.501  1.00  0.00     0.042 C 
BRANCH  24  25
ATOM     25  C   UNL A   1      32.522  32.619  27.233  1.00  0.00     0.118 C 
BRANCH  25  26
ATOM     26  N   UNL A   1      32.526  34.022  27.633  1.00  0.00    -0.352 N 
ATOM     27  C   UNL A   1      33.240  34.649  28.617  1.00  0.00     0.251 C 
ATOM     28  H   UNL A   1      31.922  34.605  27.118  1.00  0.00     0.163 HD
ATOM     29  O   UNL A   1      32.907  35.785  28.969  1.00  0.00    -0.269 OA
BRANCH  27  30
ATOM     30  C   UNL A   1      34.383  33.975  29.264  1.00  0.00     0.039 A 
ATOM     31  C   UNL A   1      35.683  34.353  28.916  1.00  0.00     0.014 A 
ATOM     32  C   UNL A   1      34.178  32.951  30.195  1.00  0.00     0.014 A 
ATOM     33  C   UNL A   1      36.772  33.748  29.546  1.00  0.00     0.010 A 
ATOM     34  C   UNL A   1      35.262  32.411  30.884  1.00  0.00     0.010 A 
ATOM     35  C   UNL A   1      36.570  32.797  30.561  1.00  0.00    -0.014 A 
BRANCH  35  36
ATOM     36  C   UNL A   1      37.717  32.184  31.281  1.00  0.00     0.031 A 
ATOM     37  C   UNL A   1      38.469  31.036  30.664  1.00  0.00     0.074 A 
ATOM     38  C   UNL A   1      38.042  32.626  32.512  1.00  0.00     0.049 A 
ATOM     39  N   UNL A   1      39.451  30.327  31.159  1.00  0.00    -0.248 NA
ATOM     40  C   UNL A   1      38.037  30.610  29.324  1.00  0.00     0.031 C 
ATOM     41  C   UNL A   1      37.359  33.704  33.232  1.00  0.00     0.029 A 
ATOM     42  N   UNL A   1      39.027  32.224  33.378  1.00  0.00    -0.354 N 
ATOM     43  C   UNL A   1      39.745  29.363  30.199  1.00  0.00     0.074 A 
ATOM     44  C   UNL A   1      38.791  29.540  29.125  1.00  0.00     0.031 C 
ATOM     45  C   UNL A   1      37.963  33.896  34.414  1.00  0.00     0.029 A 
ATOM     46  C   UNL A   1      39.046  32.929  34.560  1.00  0.00     0.049 A 
ATOM     47  H   UNL A   1      39.661  31.498  33.174  1.00  0.00     0.167 HD
ATOM     48  C   UNL A   1      40.736  28.436  30.201  1.00  0.00     0.034 A 
ATOM     49  C   UNL A   1      39.842  32.805  35.640  1.00  0.00     0.034 A 
ATOM     50  C   UNL A   1      41.686  28.283  31.276  1.00  0.00     0.049 A 
ATOM     51  C   UNL A   1      40.925  31.757  35.628  1.00  0.00     0.074 A 
ATOM     52  C   UNL A   1      42.757  27.412  31.364  1.00  0.00     0.029 A 
ATOM     53  N   UNL A   1      41.677  29.017  32.456  1.00  0.00    -0.354 N 
ATOM     54  N   UNL A   1      41.220  30.883  34.692  1.00  0.00    -0.248 NA
ATOM     55  C   UNL A   1      41.789  31.686  36.812  1.00  0.00     0.031 C 
ATOM     56  C   UNL A   1      43.355  27.573  32.619  1.00  0.00     0.029 A 
ATOM     57  C   UNL A   1      42.706  28.600  33.287  1.00  0.00     0.049 A 
ATOM     58  H   UNL A   1      41.033  29.731  32.671  1.00  0.00     0.167 HD
ATOM     59  C   UNL A   1      42.325  30.181  35.164  1.00  0.00     0.074 A 
ATOM     60  C   UNL A   1      42.652  30.746  36.457  1.00  0.00     0.031 C 
ATOM     61  C   UNL A   1      43.010  29.164  34.581  1.00  0.00     0.034 A 
BRANCH  48  62
ATOM     62  C   UNL A   1      40.818  27.507  29.012  1.00  0.00     0.023 A 
ATOM     63  C   UNL A   1      41.770  27.695  27.994  1.00  0.00     0.031 A 
ATOM     64  C   UNL A   1      39.913  26.439  28.874  1.00  0.00     0.131 A 
ATOM     65  C   UNL A   1      41.744  26.882  26.849  1.00  0.00     0.055 A 
ATOM     66  C   UNL A   1      39.948  25.581  27.773  1.00  0.00     0.041 A 
ATOM     67  F   UNL A   1      38.968  26.219  29.803  1.00  0.00    -0.206 F 
ATOM     68  C   UNL A   1      40.856  25.810  26.744  1.00  0.00     0.022 A 
BRANCH  65  69
ATOM     69  S   UNL A   1      42.786  27.343  25.438  1.00  0.00     0.124 S 
ATOM     70  O   UNL A   1      42.703  26.143  24.607  1.00  0.00    -0.237 OA
ATOM     71  O   UNL A   1      42.112  28.527  24.919  1.00  0.00    -0.237 OA
ATOM     72  O   UNL A   1      44.095  27.583  26.043  1.00  0.00    -0.744 OA
ENDBRANCH  65  69
ENDBRANCH  48  62
BRANCH  49  73
ATOM     73  C   UNL A   1      39.652  33.689  36.825  1.00  0.00     0.023 A 
ATOM     74  C   UNL A   1      39.026  33.213  37.989  1.00  0.00     0.031 A 
ATOM     75  C   UNL A   1      40.057  35.036  36.799  1.00  0.00     0.131 A 
ATOM     76  C   UNL A   1      38.780  34.087  39.058  1.00  0.00     0.055 A 
ATOM     77  C   UNL A   1      39.856  35.888  37.887  1.00  0.00     0.041 A 
ATOM     78  F   UNL A   1      40.666  35.541  35.714  1.00  0.00    -0.206 F 
ATOM     79  C   UNL A   1      39.202  35.418  39.021  1.00  0.00     0.022 A 
BRANCH  76  80
ATOM     80  S   UNL A   1      37.821  33.477  40.473  1.00  0.00     0.124 S 
ATOM     81  O   UNL A   1      36.583  33.052  39.831  1.00  0.00    -0.237 OA
ATOM     82  O   UNL A   1      38.679  32.413  40.984  1.00  0.00    -0.237 OA
ATOM     83  O   UNL A   1      37.706  34.651  41.336  1.00  0.00    -0.744 OA
ENDBRANCH  76  80
ENDBRANCH  49  73
BRANCH  61  84
ATOM     84  C   UNL A   1      44.210  28.633  35.328  1.00  0.00     0.023 A 
ATOM     85  C   UNL A   1      44.098  27.586  36.260  1.00  0.00     0.031 A 
ATOM     86  C   UNL A   1      45.479  29.202  35.122  1.00  0.00     0.131 A 
ATOM     87  C   UNL A   1      45.221  27.183  36.997  1.00  0.00     0.055 A 
ATOM     88  C   UNL A   1      46.607  28.753  35.812  1.00  0.00     0.041 A 
ATOM     89  F   UNL A   1      45.644  30.206  34.247  1.00  0.00    -0.206 F 
ATOM     90  C   UNL A   1      46.478  27.749  36.767  1.00  0.00     0.022 A 
BRANCH  87  91
ATOM     91  S   UNL A   1      44.998  25.981  38.337  1.00  0.00     0.124 S 
ATOM     92  O   UNL A   1      44.312  26.778  39.349  1.00  0.00    -0.237 OA
ATOM     93  O   UNL A   1      44.199  24.943  37.694  1.00  0.00    -0.237 OA
ATOM     94  O   UNL A   1      46.364  25.589  38.677  1.00  0.00    -0.744 OA
ENDBRANCH  87  91
ENDBRANCH  61  84
ENDBRANCH  35  36
ENDBRANCH  27  30
ENDBRANCH  25  26
ENDBRANCH  24  25
ENDBRANCH   1  24
TORSDOF 19
ENDMDL
MODEL 2
REMARK VINA RESULT:     -10.4      4.486     10.627
REMARK SMILES COC(=O)[C@@H]([NH2+]CC(C)(C)C(=O)NCCCNC(=O)c1ccc(-c2c3nc(c(-c4cc(S(=O)(=O)[O-])ccc4F)c4ccc([nH]4)c(-c4cc(S(=O)(=O)[O-])ccc4F)c4nc(c(-c5cc(S(=O)(=O)[O-])ccc5F)c5ccc2[nH]5)C=C4)C=C3)cc1)c1ccccc1
REMARK SMILES IDX 14 1 13 2 11 3 12 4 8 6 9 7 10 8 7 9 6 10 5 13 3 14 4 15
REMARK SMILES IDX 2 16 1 17 83 18 84 19 88 20 85 21 87 22 86 23 15 24 16 25
REMARK SMILES IDX 17 26 18 27 19 29 20 30 21 31 82 32 22 33 81 34 23 35 24 36
REMARK SMILES IDX 25 37 75 38 26 39 80 40 74 41 76 42 27 43 79 44 73 45 72 46
REMARK SMILES IDX 28 48 60 49 40 50 59 51 41 52 44 53 58 54 77 55 42 56 43 57
REMARK SMILES IDX 57 59 78 60 45 61 29 62 30 63 38 64 31 65 37 66 39 67 36 68
REMARK SMILES IDX 32 69 33 70 34 71 35 72 61 73 62 74 70 75 63 76 69 77 71 78
REMARK SMILES IDX 68 79 64 80 65 81 66 82 67 83 46 84 47 85 55 86 48 87 54 88
REMARK SMILES IDX 56 89 53 90 49 91 50 92 51 93 52 94
REMARK H PARENT 13 5 6 11 6 12 17 28 76 47 44 58
REMARK Flexibility Score: inf
ROOT
ATOM      1  C   UNL A   1      34.481  34.767  29.959  1.00  0.00     0.117 C 
ENDROOT
BRANCH   1   2
ATOM      2  N   UNL A   1      33.690  34.195  31.031  1.00  0.00    -0.355 N 
ATOM      3  C   UNL A   1      34.039  33.976  32.323  1.00  0.00     0.231 C 
ATOM      4  O   UNL A   1      33.681  32.893  32.789  1.00  0.00    -0.274 OA
ATOM      5  H   UNL A   1      32.774  33.930  30.788  1.00  0.00     0.163 HD
BRANCH   3   6
ATOM      6  C   UNL A   1      34.842  34.996  33.144  1.00  0.00     0.092 C 
ATOM      7  C   UNL A   1      35.058  34.576  34.606  1.00  0.00     0.027 C 
ATOM      8  C   UNL A   1      34.093  36.343  33.073  1.00  0.00     0.027 C 
BRANCH   6   9
ATOM      9  C   UNL A   1      36.241  35.222  32.474  1.00  0.00     0.277 C 
BRANCH   9  10
ATOM     10  N   UNL A   1      37.294  34.186  32.562  1.00  0.00    -0.330 N 
ATOM     11  H   UNL A   1      36.858  33.320  32.880  1.00  0.00     0.347 HD
ATOM     12  H   UNL A   1      37.704  34.121  31.631  1.00  0.00     0.347 HD
BRANCH  10  13
ATOM     13  C   UNL A   1      38.421  34.500  33.488  1.00  0.00     0.324 C 
BRANCH  13  14
ATOM     14  C   UNL A   1      39.748  34.421  32.704  1.00  0.00     0.369 C 
ATOM     15  O   UNL A   1      40.811  34.836  33.163  1.00  0.00    -0.245 OA
BRANCH  14  16
ATOM     16  O   UNL A   1      39.607  33.915  31.448  1.00  0.00    -0.464 OA
ATOM     17  C   UNL A   1      40.800  33.975  30.666  1.00  0.00     0.282 C 
ENDBRANCH  14  16
ENDBRANCH  13  14
BRANCH  13  18
ATOM     18  C   UNL A   1      38.459  33.737  34.810  1.00  0.00     0.021 A 
ATOM     19  C   UNL A   1      38.183  32.365  34.920  1.00  0.00     0.010 A 
ATOM     20  C   UNL A   1      38.693  34.458  35.996  1.00  0.00     0.010 A 
ATOM     21  C   UNL A   1      38.035  31.762  36.171  1.00  0.00     0.001 A 
ATOM     22  C   UNL A   1      38.579  33.847  37.247  1.00  0.00     0.001 A 
ATOM     23  C   UNL A   1      38.224  32.504  37.334  1.00  0.00     0.000 A 
ENDBRANCH  13  18
ENDBRANCH  10  13
ENDBRANCH   9  10
ENDBRANCH   6   9
ENDBRANCH   3   6
ENDBRANCH   1   2
BRANCH   1  24
ATOM     24  C   UNL A   1      35.551  33.779  29.497  1.00  0.00     0.042 C 
BRANCH  24  25
ATOM     25  C   UNL A   1      35.421  33.366  28.033  1.00  0.00     0.118 C 
BRANCH  25  26
ATOM     26  N   UNL A   1      34.415  32.327  27.841  1.00  0.00    -0.352 N 
ATOM     27  C   UNL A   1      34.554  30.967  27.820  1.00  0.00     0.251 C 
ATOM     28  H   UNL A   1      33.497  32.656  27.704  1.00  0.00     0.163 HD
ATOM     29  O   UNL A   1      33.629  30.275  27.382  1.00  0.00    -0.269 OA
BRANCH  27  30
ATOM     30  C   UNL A   1      35.798  30.330  28.298  1.00  0.00     0.039 A 
ATOM     31  C   UNL A   1      36.904  30.272  27.445  1.00  0.00     0.014 A 
ATOM     32  C   UNL A   1      35.870  29.765  29.575  1.00  0.00     0.014 A 
ATOM     33  C   UNL A   1      38.097  29.704  27.896  1.00  0.00     0.010 A 
ATOM     34  C   UNL A   1      37.084  29.278  30.052  1.00  0.00     0.010 A 
ATOM     35  C   UNL A   1      38.208  29.234  29.216  1.00  0.00    -0.014 A 
BRANCH  35  36
ATOM     36  C   UNL A   1      39.487  28.678  29.731  1.00  0.00     0.031 A 
ATOM     37  C   UNL A   1      40.129  29.273  30.955  1.00  0.00     0.074 A 
ATOM     38  C   UNL A   1      40.094  27.677  29.064  1.00  0.00     0.049 A 
ATOM     39  N   UNL A   1      41.271  28.974  31.520  1.00  0.00    -0.248 NA
ATOM     40  C   UNL A   1      39.404  30.371  31.612  1.00  0.00     0.031 C 
ATOM     41  C   UNL A   1      39.589  27.048  27.840  1.00  0.00     0.029 A 
ATOM     42  N   UNL A   1      41.267  27.013  29.316  1.00  0.00    -0.354 N 
ATOM     43  C   UNL A   1      41.408  29.855  32.589  1.00  0.00     0.074 A 
ATOM     44  C   UNL A   1      40.264  30.741  32.548  1.00  0.00     0.031 C 
ATOM     45  C   UNL A   1      40.431  26.073  27.467  1.00  0.00     0.029 A 
ATOM     46  C   UNL A   1      41.558  26.033  28.394  1.00  0.00     0.049 A 
ATOM     47  H   UNL A   1      41.848  27.219  30.084  1.00  0.00     0.167 HD
ATOM     48  C   UNL A   1      42.383  29.902  33.531  1.00  0.00     0.034 A 
ATOM     49  C   UNL A   1      42.615  25.203  28.303  1.00  0.00     0.034 A 
ATOM     50  C   UNL A   1      43.510  29.001  33.562  1.00  0.00     0.049 A 
ATOM     51  C   UNL A   1      43.694  25.284  29.351  1.00  0.00     0.074 A 
ATOM     52  C   UNL A   1      44.530  28.926  34.494  1.00  0.00     0.029 A 
ATOM     53  N   UNL A   1      43.769  28.019  32.614  1.00  0.00    -0.354 N 
ATOM     54  N   UNL A   1      43.786  26.092  30.383  1.00  0.00    -0.248 NA
ATOM     55  C   UNL A   1      44.806  24.334  29.230  1.00  0.00     0.031 C 
ATOM     56  C   UNL A   1      45.437  27.946  34.077  1.00  0.00     0.029 A 
ATOM     57  C   UNL A   1      44.946  27.354  32.925  1.00  0.00     0.049 A 
ATOM     58  H   UNL A   1      43.200  27.823  31.834  1.00  0.00     0.167 HD
ATOM     59  C   UNL A   1      44.951  25.724  31.050  1.00  0.00     0.074 A 
ATOM     60  C   UNL A   1      45.515  24.612  30.314  1.00  0.00     0.031 C 
ATOM     61  C   UNL A   1      45.503  26.254  32.172  1.00  0.00     0.034 A 
BRANCH  48  62
ATOM     62  C   UNL A   1      42.275  30.978  34.587  1.00  0.00     0.023 A 
ATOM     63  C   UNL A   1      42.834  32.255  34.398  1.00  0.00     0.031 A 
ATOM     64  C   UNL A   1      41.634  30.717  35.812  1.00  0.00     0.131 A 
ATOM     65  C   UNL A   1      42.815  33.191  35.444  1.00  0.00     0.055 A 
ATOM     66  C   UNL A   1      41.543  31.683  36.816  1.00  0.00     0.041 A 
ATOM     67  F   UNL A   1      41.098  29.511  36.060  1.00  0.00    -0.206 F 
ATOM     68  C   UNL A   1      42.150  32.923  36.642  1.00  0.00     0.022 A 
BRANCH  65  69
ATOM     69  S   UNL A   1      43.799  34.704  35.268  1.00  0.00     0.124 S 
ATOM     70  O   UNL A   1      42.799  35.738  35.526  1.00  0.00    -0.237 OA
ATOM     71  O   UNL A   1      44.824  34.536  36.292  1.00  0.00    -0.237 OA
ATOM     72  O   UNL A   1      44.279  34.643  33.889  1.00  0.00    -0.744 OA
ENDBRANCH  65  69
ENDBRANCH  48  62
BRANCH  49  73
ATOM     73  C   UNL A   1      42.713  24.223  27.183  1.00  0.00     0.023 A 
ATOM     74  C   UNL A   1      42.073  22.975  27.258  1.00  0.00     0.031 A 
ATOM     75  C   UNL A   1      43.480  24.503  26.039  1.00  0.00     0.131 A 
ATOM     76  C   UNL A   1      42.250  22.035  26.231  1.00  0.00     0.055 A 
ATOM     77  C   UNL A   1      43.611  23.583  24.996  1.00  0.00     0.041 A 
ATOM     78  F   UNL A   1      44.107  25.683  25.913  1.00  0.00    -0.206 F 
ATOM     79  C   UNL A   1      43.005  22.335  25.095  1.00  0.00     0.022 A 
BRANCH  76  80
ATOM     80  S   UNL A   1      41.546  20.377  26.443  1.00  0.00     0.124 S 
ATOM     81  O   UNL A   1      42.251  19.621  25.414  1.00  0.00    -0.237 OA
ATOM     82  O   UNL A   1      41.903  20.070  27.824  1.00  0.00    -0.237 OA
ATOM     83  O   UNL A   1      40.119  20.580  26.200  1.00  0.00    -0.744 OA
ENDBRANCH  76  80
ENDBRANCH  49  73
BRANCH  61  84
ATOM     84  C   UNL A   1      46.762  25.599  32.687  1.00  0.00     0.023 A 
ATOM     85  C   UNL A   1      48.025  25.897  32.148  1.00  0.00     0.031 A 
ATOM     86  C   UNL A   1      46.690  24.644  33.717  1.00  0.00     0.131 A 
ATOM     87  C   UNL A   1      49.158  25.201  32.595  1.00  0.00     0.055 A 
ATOM     88  C   UNL A   1      47.830  24.001  34.203  1.00  0.00     0.041 A 
ATOM     89  F   UNL A   1      45.509  24.319  34.267  1.00  0.00    -0.206 F 
ATOM     90  C   UNL A   1      49.070  24.267  33.631  1.00  0.00     0.022 A 
BRANCH  87  91
ATOM     91  S   UNL A   1      50.733  25.455  31.733  1.00  0.00     0.124 S 
ATOM     92  O   UNL A   1      50.674  24.440  30.686  1.00  0.00    -0.237 OA
ATOM     93  O   UNL A   1      50.623  26.840  31.286  1.00  0.00    -0.237 OA
ATOM     94  O   UNL A   1      51.735  25.218  32.771  1.00  0.00    -0.744 OA
ENDBRANCH  87  91
ENDBRANCH  61  84
ENDBRANCH  35  36
ENDBRANCH  27  30
ENDBRANCH  25  26
ENDBRANCH  24  25
ENDBRANCH   1  24
TORSDOF 19
ENDMDL
MODEL 3
REMARK VINA RESULT:     -10.3      2.333      8.057
REMARK SMILES COC(=O)[C@@H]([NH2+]CC(C)(C)C(=O)NCCCNC(=O)c1ccc(-c2c3nc(c(-c4cc(S(=O)(=O)[O-])ccc4F)c4ccc([nH]4)c(-c4cc(S(=O)(=O)[O-])ccc4F)c4nc(c(-c5cc(S(=O)(=O)[O-])ccc5F)c5ccc2[nH]5)C=C4)C=C3)cc1)c1ccccc1
REMARK SMILES IDX 14 1 13 2 11 3 12 4 8 6 9 7 10 8 7 9 6 10 5 13 3 14 4 15
REMARK SMILES IDX 2 16 1 17 83 18 84 19 88 20 85 21 87 22 86 23 15 24 16 25
REMARK SMILES IDX 17 26 18 27 19 29 20 30 21 31 82 32 22 33 81 34 23 35 24 36
REMARK SMILES IDX 25 37 75 38 26 39 80 40 74 41 76 42 27 43 79 44 73 45 72 46
REMARK SMILES IDX 28 48 60 49 40 50 59 51 41 52 44 53 58 54 77 55 42 56 43 57
REMARK SMILES IDX 57 59 78 60 45 61 29 62 30 63 38 64 31 65 37 66 39 67 36 68
REMARK SMILES IDX 32 69 33 70 34 71 35 72 61 73 62 74 70 75 63 76 69 77 71 78
REMARK SMILES IDX 68 79 64 80 65 81 66 82 67 83 46 84 47 85 55 86 48 87 54 88
REMARK SMILES IDX 56 89 53 90 49 91 50 92 51 93 52 94
REMARK H PARENT 13 5 6 11 6 12 17 28 76 47 44 58
REMARK Flexibility Score: inf
ROOT
ATOM      1  C   UNL A   1      31.609  31.087  26.619  1.00  0.00     0.117 C 
ENDROOT
BRANCH   1   2
ATOM      2  N   UNL A   1      32.984  30.634  26.540  1.00  0.00    -0.355 N 
ATOM      3  C   UNL A   1      33.475  29.376  26.670  1.00  0.00     0.231 C 
ATOM      4  O   UNL A   1      34.500  29.279  27.346  1.00  0.00    -0.274 OA
ATOM      5  H   UNL A   1      33.653  31.335  26.370  1.00  0.00     0.163 HD
BRANCH   3   6
ATOM      6  C   UNL A   1      32.790  28.155  26.036  1.00  0.00     0.092 C 
ATOM      7  C   UNL A   1      32.033  28.479  24.740  1.00  0.00     0.027 C 
ATOM      8  C   UNL A   1      31.832  27.562  27.090  1.00  0.00     0.027 C 
BRANCH   6   9
ATOM      9  C   UNL A   1      33.864  27.054  25.731  1.00  0.00     0.277 C 
BRANCH   9  10
ATOM     10  N   UNL A   1      34.029  26.525  24.360  1.00  0.00    -0.330 N 
ATOM     11  H   UNL A   1      33.299  26.931  23.774  1.00  0.00     0.347 HD
ATOM     12  H   UNL A   1      34.974  26.779  24.071  1.00  0.00     0.347 HD
BRANCH  10  13
ATOM     13  C   UNL A   1      33.945  25.040  24.235  1.00  0.00     0.324 C 
BRANCH  13  14
ATOM     14  C   UNL A   1      33.886  24.668  22.739  1.00  0.00     0.369 C 
ATOM     15  O   UNL A   1      34.079  23.522  22.336  1.00  0.00    -0.245 OA
BRANCH  14  16
ATOM     16  O   UNL A   1      33.670  25.735  21.922  1.00  0.00    -0.464 OA
ATOM     17  C   UNL A   1      32.535  25.586  21.068  1.00  0.00     0.282 C 
ENDBRANCH  14  16
ENDBRANCH  13  14
BRANCH  13  18
ATOM     18  C   UNL A   1      32.876  24.339  25.071  1.00  0.00     0.021 A 
ATOM     19  C   UNL A   1      31.500  24.452  24.820  1.00  0.00     0.010 A 
ATOM     20  C   UNL A   1      33.282  23.613  26.207  1.00  0.00     0.010 A 
ATOM     21  C   UNL A   1      30.563  23.956  25.730  1.00  0.00     0.001 A 
ATOM     22  C   UNL A   1      32.344  23.087  27.099  1.00  0.00     0.001 A 
ATOM     23  C   UNL A   1      30.985  23.282  26.873  1.00  0.00     0.000 A 
ENDBRANCH  13  18
ENDBRANCH  10  13
ENDBRANCH   9  10
ENDBRANCH   6   9
ENDBRANCH   3   6
ENDBRANCH   1   2
BRANCH   1  24
ATOM     24  C   UNL A   1      31.553  32.597  26.837  1.00  0.00     0.042 C 
BRANCH  24  25
ATOM     25  C   UNL A   1      32.908  33.232  27.136  1.00  0.00     0.118 C 
BRANCH  25  26
ATOM     26  N   UNL A   1      32.791  34.398  28.005  1.00  0.00    -0.352 N 
ATOM     27  C   UNL A   1      33.413  34.671  29.192  1.00  0.00     0.251 C 
ATOM     28  H   UNL A   1      32.168  35.093  27.689  1.00  0.00     0.163 HD
ATOM     29  O   UNL A   1      32.981  35.587  29.900  1.00  0.00    -0.269 OA
BRANCH  27  30
ATOM     30  C   UNL A   1      34.573  33.873  29.635  1.00  0.00     0.039 A 
ATOM     31  C   UNL A   1      35.847  34.204  29.164  1.00  0.00     0.014 A 
ATOM     32  C   UNL A   1      34.408  32.782  30.494  1.00  0.00     0.014 A 
ATOM     33  C   UNL A   1      36.958  33.480  29.602  1.00  0.00     0.010 A 
ATOM     34  C   UNL A   1      35.524  32.117  30.996  1.00  0.00     0.010 A 
ATOM     35  C   UNL A   1      36.810  32.453  30.549  1.00  0.00    -0.014 A 
BRANCH  35  36
ATOM     36  C   UNL A   1      37.987  31.709  31.069  1.00  0.00     0.031 A 
ATOM     37  C   UNL A   1      38.552  32.044  32.424  1.00  0.00     0.074 A 
ATOM     38  C   UNL A   1      38.577  30.775  30.299  1.00  0.00     0.049 A 
ATOM     39  N   UNL A   1      39.608  31.558  33.024  1.00  0.00    -0.248 NA
ATOM     40  C   UNL A   1      37.853  33.086  33.191  1.00  0.00     0.031 C 
ATOM     41  C   UNL A   1      38.146  30.394  28.951  1.00  0.00     0.029 A 
ATOM     42  N   UNL A   1      39.667  29.975  30.534  1.00  0.00    -0.354 N 
ATOM     43  C   UNL A   1      39.709  32.243  34.231  1.00  0.00     0.074 A 
ATOM     44  C   UNL A   1      38.645  33.225  34.243  1.00  0.00     0.031 C 
ATOM     45  C   UNL A   1      38.943  29.417  28.494  1.00  0.00     0.029 A 
ATOM     46  C   UNL A   1      39.969  29.131  29.491  1.00  0.00     0.049 A 
ATOM     47  H   UNL A   1      40.186  30.005  31.371  1.00  0.00     0.167 HD
ATOM     48  C   UNL A   1      40.589  32.053  35.246  1.00  0.00     0.034 A 
ATOM     49  C   UNL A   1      40.964  28.232  29.353  1.00  0.00     0.034 A 
ATOM     50  C   UNL A   1      41.636  31.060  35.221  1.00  0.00     0.049 A 
ATOM     51  C   UNL A   1      41.941  28.050  30.486  1.00  0.00     0.074 A 
ATOM     52  C   UNL A   1      42.553  30.748  36.209  1.00  0.00     0.029 A 
ATOM     53  N   UNL A   1      41.910  30.220  34.149  1.00  0.00    -0.354 N 
ATOM     54  N   UNL A   1      41.994  28.674  31.640  1.00  0.00    -0.248 NA
ATOM     55  C   UNL A   1      42.983  27.033  30.301  1.00  0.00     0.031 C 
ATOM     56  C   UNL A   1      43.419  29.767  35.713  1.00  0.00     0.029 A 
ATOM     57  C   UNL A   1      42.997  29.410  34.442  1.00  0.00     0.049 A 
ATOM     58  H   UNL A   1      41.405  30.202  33.303  1.00  0.00     0.167 HD
ATOM     59  C   UNL A   1      43.058  28.102  32.332  1.00  0.00     0.074 A 
ATOM     60  C   UNL A   1      43.604  27.072  31.471  1.00  0.00     0.031 C 
ATOM     61  C   UNL A   1      43.538  28.397  33.567  1.00  0.00     0.034 A 
BRANCH  48  62
ATOM     62  C   UNL A   1      40.462  32.956  36.451  1.00  0.00     0.023 A 
ATOM     63  C   UNL A   1      39.646  32.617  37.545  1.00  0.00     0.031 A 
ATOM     64  C   UNL A   1      41.140  34.188  36.496  1.00  0.00     0.131 A 
ATOM     65  C   UNL A   1      39.463  33.530  38.595  1.00  0.00     0.055 A 
ATOM     66  C   UNL A   1      41.021  35.055  37.584  1.00  0.00     0.041 A 
ATOM     67  F   UNL A   1      41.919  34.578  35.474  1.00  0.00    -0.206 F 
ATOM     68  C   UNL A   1      40.166  34.736  38.635  1.00  0.00     0.022 A 
BRANCH  65  69
ATOM     69  S   UNL A   1      38.181  33.183  39.829  1.00  0.00     0.124 S 
ATOM     70  O   UNL A   1      38.689  31.959  40.445  1.00  0.00    -0.237 OA
ATOM     71  O   UNL A   1      38.212  34.378  40.664  1.00  0.00    -0.237 OA
ATOM     72  O   UNL A   1      36.970  33.012  39.028  1.00  0.00    -0.744 OA
ENDBRANCH  65  69
ENDBRANCH  48  62
BRANCH  49  73
ATOM     73  C   UNL A   1      41.094  27.435  28.099  1.00  0.00     0.023 A 
ATOM     74  C   UNL A   1      40.732  26.079  28.065  1.00  0.00     0.031 A 
ATOM     75  C   UNL A   1      41.620  28.007  26.927  1.00  0.00     0.131 A 
ATOM     76  C   UNL A   1      40.945  25.328  26.899  1.00  0.00     0.055 A 
ATOM     77  C   UNL A   1      41.781  27.267  25.753  1.00  0.00     0.041 A 
ATOM     78  F   UNL A   1      41.976  29.301  26.903  1.00  0.00    -0.206 F 
ATOM     79  C   UNL A   1      41.455  25.915  25.739  1.00  0.00     0.022 A 
BRANCH  76  80
ATOM     80  S   UNL A   1      40.621  23.543  26.947  1.00  0.00     0.124 S 
ATOM     81  O   UNL A   1      41.611  23.036  26.004  1.00  0.00    -0.237 OA
ATOM     82  O   UNL A   1      40.854  23.231  28.353  1.00  0.00    -0.237 OA
ATOM     83  O   UNL A   1      39.230  23.438  26.509  1.00  0.00    -0.744 OA
ENDBRANCH  76  80
ENDBRANCH  49  73
BRANCH  61  84
ATOM     84  C   UNL A   1      44.688  27.557  34.070  1.00  0.00     0.023 A 
ATOM     85  C   UNL A   1      46.026  27.933  33.860  1.00  0.00     0.031 A 
ATOM     86  C   UNL A   1      44.438  26.351  34.748  1.00  0.00     0.131 A 
ATOM     87  C   UNL A   1      47.064  27.080  34.265  1.00  0.00     0.055 A 
ATOM     88  C   UNL A   1      45.476  25.537  35.207  1.00  0.00     0.041 A 
ATOM     89  F   UNL A   1      43.180  25.941  34.974  1.00  0.00    -0.206 F 
ATOM     90  C   UNL A   1      46.797  25.893  34.953  1.00  0.00     0.022 A 
BRANCH  87  91
ATOM     91  S   UNL A   1      48.765  27.492  33.791  1.00  0.00     0.124 S 
ATOM     92  O   UNL A   1      49.234  26.233  33.220  1.00  0.00    -0.237 OA
ATOM     93  O   UNL A   1      48.569  28.586  32.846  1.00  0.00    -0.237 OA
ATOM     94  O   UNL A   1      49.392  27.871  35.055  1.00  0.00    -0.744 OA
ENDBRANCH  87  91
ENDBRANCH  61  84
ENDBRANCH  35  36
ENDBRANCH  27  30
ENDBRANCH  25  26
ENDBRANCH  24  25
ENDBRANCH   1  24
TORSDOF 19
ENDMDL
