MODEL 1
REMARK VINA RESULT:     -12.2      0.000      0.000
REMARK SMILES O=C(CSc1ccnc(C(=O)NCCCNC(=O)c2ccc(-c3c4nc(c(-c5cc(S(=O)(=O)[O-])ccc5F)c5ccc([nH]5)c(-c5cc(S(=O)(=O)[O-])ccc5F)c5nc(c(-c6cc(S(=O)(=O)[O-])ccc6F)c6ccc3[nH]6)C=C5)C=C4)cc2)c1)NNc1ccccn1
REMARK SMILES IDX 13 1 12 2 10 3 11 4 9 6 5 7 6 8 82 9 7 10 8 11 4 12 3 13
REMARK SMILES IDX 2 14 1 15 83 16 84 18 85 20 86 21 90 22 87 23 89 24 88 25
REMARK SMILES IDX 14 26 15 27 16 28 17 29 18 31 19 32 20 33 81 34 21 35 80 36
REMARK SMILES IDX 22 37 23 38 24 39 74 40 25 41 79 42 73 43 75 44 26 45 78 46
REMARK SMILES IDX 72 47 71 48 27 50 59 51 39 52 58 53 40 54 43 55 57 56 76 57
REMARK SMILES IDX 41 58 42 59 56 61 77 62 44 63 28 64 29 65 37 66 30 67 36 68
REMARK SMILES IDX 38 69 35 70 31 71 32 72 33 73 34 74 60 75 61 76 69 77 62 78
REMARK SMILES IDX 68 79 70 80 67 81 63 82 64 83 65 84 66 85 45 86 46 87 54 88
REMARK SMILES IDX 47 89 53 90 55 91 52 92 48 93 49 94 50 95 51 96
REMARK H PARENT 12 5 83 17 84 19 16 30 75 49 43 60
REMARK Flexibility Score: inf
ROOT
ATOM      1  C   UNL A   1      35.332  21.055  25.774  1.00  0.00     0.118 C 
ENDROOT
BRANCH   1   2
ATOM      2  N   UNL A   1      34.146  20.268  25.494  1.00  0.00    -0.351 N 
ATOM      3  C   UNL A   1      32.810  20.576  25.366  1.00  0.00     0.269 C 
ATOM      4  O   UNL A   1      32.066  19.631  25.092  1.00  0.00    -0.268 OA
ATOM      5  H   UNL A   1      34.336  19.310  25.370  1.00  0.00     0.163 HD
BRANCH   3   6
ATOM      6  C   UNL A   1      32.238  21.966  25.493  1.00  0.00     0.129 A 
ATOM      7  C   UNL A   1      31.148  23.946  24.697  1.00  0.00     0.012 A 
ATOM      8  C   UNL A   1      31.110  24.428  26.000  1.00  0.00     0.035 A 
ATOM      9  C   UNL A   1      31.757  22.718  24.434  1.00  0.00     0.049 A 
ATOM     10  C   UNL A   1      31.681  23.654  26.991  1.00  0.00     0.113 A 
ATOM     11  N   UNL A   1      32.217  22.439  26.769  1.00  0.00    -0.251 NA
BRANCH   7  12
ATOM     12  S   UNL A   1      30.313  24.785  23.357  1.00  0.00    -0.116 SA
BRANCH  12  13
ATOM     13  C   UNL A   1      31.703  25.716  22.623  1.00  0.00     0.176 C 
BRANCH  13  14
ATOM     14  C   UNL A   1      31.668  27.180  23.015  1.00  0.00     0.248 C 
ATOM     15  O   UNL A   1      31.878  27.558  24.166  1.00  0.00    -0.272 OA
ATOM     16  N   UNL A   1      31.438  28.042  21.957  1.00  0.00    -0.268 N 
ATOM     17  H   UNL A   1      31.346  27.699  21.039  1.00  0.00     0.191 HD
BRANCH  16  18
ATOM     18  N   UNL A   1      31.337  29.399  22.220  1.00  0.00    -0.282 N 
ATOM     19  H   UNL A   1      32.146  29.952  22.315  1.00  0.00     0.190 HD
BRANCH  18  20
ATOM     20  C   UNL A   1      30.072  29.970  22.347  1.00  0.00     0.144 A 
ATOM     21  C   UNL A   1      29.587  30.440  23.568  1.00  0.00     0.048 A 
ATOM     22  N   UNL A   1      29.339  30.052  21.219  1.00  0.00    -0.238 NA
ATOM     23  C   UNL A   1      28.304  30.980  23.635  1.00  0.00     0.005 A 
ATOM     24  C   UNL A   1      28.095  30.573  21.307  1.00  0.00     0.113 A 
ATOM     25  C   UNL A   1      27.536  31.041  22.482  1.00  0.00     0.020 A 
ENDBRANCH  18  20
ENDBRANCH  16  18
ENDBRANCH  13  14
ENDBRANCH  12  13
ENDBRANCH   7  12
ENDBRANCH   3   6
ENDBRANCH   1   2
BRANCH   1  26
ATOM     26  C   UNL A   1      35.806  21.801  24.526  1.00  0.00     0.042 C 
BRANCH  26  27
ATOM     27  C   UNL A   1      37.329  21.871  24.410  1.00  0.00     0.118 C 
BRANCH  27  28
ATOM     28  N   UNL A   1      37.970  20.848  25.222  1.00  0.00    -0.352 N 
ATOM     29  C   UNL A   1      39.090  20.911  26.013  1.00  0.00     0.251 C 
ATOM     30  H   UNL A   1      37.529  19.968  25.201  1.00  0.00     0.163 HD
ATOM     31  O   UNL A   1      39.606  19.860  26.381  1.00  0.00    -0.269 OA
BRANCH  29  32
ATOM     32  C   UNL A   1      39.674  22.210  26.420  1.00  0.00     0.039 A 
ATOM     33  C   UNL A   1      38.977  23.381  26.107  1.00  0.00     0.014 A 
ATOM     34  C   UNL A   1      40.931  22.293  27.026  1.00  0.00     0.014 A 
ATOM     35  C   UNL A   1      39.525  24.628  26.420  1.00  0.00     0.010 A 
ATOM     36  C   UNL A   1      41.446  23.534  27.402  1.00  0.00     0.010 A 
ATOM     37  C   UNL A   1      40.759  24.715  27.086  1.00  0.00    -0.014 A 
BRANCH  37  38
ATOM     38  C   UNL A   1      41.356  26.035  27.418  1.00  0.00     0.031 A 
ATOM     39  C   UNL A   1      42.716  26.405  26.882  1.00  0.00     0.074 A 
ATOM     40  C   UNL A   1      40.695  26.881  28.233  1.00  0.00     0.049 A 
ATOM     41  N   UNL A   1      43.426  27.484  27.096  1.00  0.00    -0.248 NA
ATOM     42  C   UNL A   1      43.375  25.416  26.016  1.00  0.00     0.031 C 
ATOM     43  C   UNL A   1      39.388  26.617  28.840  1.00  0.00     0.029 A 
ATOM     44  N   UNL A   1      41.026  28.131  28.692  1.00  0.00    -0.354 N 
ATOM     45  C   UNL A   1      44.625  27.292  26.413  1.00  0.00     0.074 A 
ATOM     46  C   UNL A   1      44.561  25.973  25.822  1.00  0.00     0.031 C 
ATOM     47  C   UNL A   1      39.018  27.684  29.567  1.00  0.00     0.029 A 
ATOM     48  C   UNL A   1      40.074  28.690  29.512  1.00  0.00     0.049 A 
ATOM     49  H   UNL A   1      41.867  28.584  28.457  1.00  0.00     0.167 HD
ATOM     50  C   UNL A   1      45.670  28.147  26.277  1.00  0.00     0.034 A 
ATOM     51  C   UNL A   1      40.056  29.878  30.149  1.00  0.00     0.034 A 
ATOM     52  C   UNL A   1      45.702  29.471  26.850  1.00  0.00     0.049 A 
ATOM     53  C   UNL A   1      41.226  30.813  29.970  1.00  0.00     0.074 A 
ATOM     54  C   UNL A   1      46.680  30.442  26.725  1.00  0.00     0.029 A 
ATOM     55  N   UNL A   1      44.710  30.012  27.658  1.00  0.00    -0.354 N 
ATOM     56  N   UNL A   1      42.327  30.639  29.275  1.00  0.00    -0.248 NA
ATOM     57  C   UNL A   1      41.140  32.113  30.646  1.00  0.00     0.031 C 
ATOM     58  C   UNL A   1      46.310  31.544  27.505  1.00  0.00     0.029 A 
ATOM     59  C   UNL A   1      45.064  31.291  28.057  1.00  0.00     0.049 A 
ATOM     60  H   UNL A   1      43.876  29.552  27.912  1.00  0.00     0.167 HD
ATOM     61  C   UNL A   1      43.043  31.827  29.397  1.00  0.00     0.074 A 
ATOM     62  C   UNL A   1      42.241  32.711  30.218  1.00  0.00     0.031 C 
ATOM     63  C   UNL A   1      44.252  32.161  28.876  1.00  0.00     0.034 A 
BRANCH  50  64
ATOM     64  C   UNL A   1      46.874  27.659  25.504  1.00  0.00     0.023 A 
ATOM     65  C   UNL A   1      47.103  28.033  24.168  1.00  0.00     0.031 A 
ATOM     66  C   UNL A   1      47.798  26.787  26.108  1.00  0.00     0.131 A 
ATOM     67  C   UNL A   1      48.181  27.482  23.459  1.00  0.00     0.055 A 
ATOM     68  C   UNL A   1      48.915  26.305  25.422  1.00  0.00     0.041 A 
ATOM     69  F   UNL A   1      47.625  26.376  27.375  1.00  0.00    -0.206 F 
ATOM     70  C   UNL A   1      49.103  26.640  24.084  1.00  0.00     0.022 A 
BRANCH  67  71
ATOM     71  S   UNL A   1      48.283  27.771  21.672  1.00  0.00     0.124 S 
ATOM     72  O   UNL A   1      46.962  28.328  21.388  1.00  0.00    -0.237 OA
ATOM     73  O   UNL A   1      49.403  28.698  21.565  1.00  0.00    -0.237 OA
ATOM     74  O   UNL A   1      48.520  26.439  21.120  1.00  0.00    -0.744 OA
ENDBRANCH  67  71
ENDBRANCH  50  64
BRANCH  51  75
ATOM     75  C   UNL A   1      38.899  30.268  31.004  1.00  0.00     0.023 A 
ATOM     76  C   UNL A   1      37.907  31.135  30.520  1.00  0.00     0.031 A 
ATOM     77  C   UNL A   1      38.797  29.828  32.336  1.00  0.00     0.131 A 
ATOM     78  C   UNL A   1      36.890  31.586  31.376  1.00  0.00     0.055 A 
ATOM     79  C   UNL A   1      37.751  30.235  33.168  1.00  0.00     0.041 A 
ATOM     80  F   UNL A   1      39.712  28.991  32.847  1.00  0.00    -0.206 F 
ATOM     81  C   UNL A   1      36.799  31.132  32.694  1.00  0.00     0.022 A 
BRANCH  78  82
ATOM     82  S   UNL A   1      35.745  32.854  30.768  1.00  0.00     0.124 S 
ATOM     83  O   UNL A   1      36.295  34.064  31.369  1.00  0.00    -0.237 OA
ATOM     84  O   UNL A   1      35.896  32.728  29.322  1.00  0.00    -0.237 OA
ATOM     85  O   UNL A   1      34.451  32.425  31.297  1.00  0.00    -0.744 OA
ENDBRANCH  78  82
ENDBRANCH  51  75
BRANCH  63  86
ATOM     86  C   UNL A   1      44.739  33.567  29.132  1.00  0.00     0.023 A 
ATOM     87  C   UNL A   1      45.530  33.886  30.250  1.00  0.00     0.031 A 
ATOM     88  C   UNL A   1      44.371  34.609  28.263  1.00  0.00     0.131 A 
ATOM     89  C   UNL A   1      45.863  35.224  30.510  1.00  0.00     0.055 A 
ATOM     90  C   UNL A   1      44.763  35.928  28.490  1.00  0.00     0.041 A 
ATOM     91  F   UNL A   1      43.616  34.362  27.180  1.00  0.00    -0.206 F 
ATOM     92  C   UNL A   1      45.498  36.245  29.628  1.00  0.00     0.022 A 
BRANCH  89  93
ATOM     93  S   UNL A   1      46.677  35.628  32.080  1.00  0.00     0.124 S 
ATOM     94  O   UNL A   1      47.140  36.992  31.839  1.00  0.00    -0.237 OA
ATOM     95  O   UNL A   1      45.588  35.486  33.040  1.00  0.00    -0.237 OA
ATOM     96  O   UNL A   1      47.735  34.625  32.187  1.00  0.00    -0.744 OA
ENDBRANCH  89  93
ENDBRANCH  63  86
ENDBRANCH  37  38
ENDBRANCH  29  32
ENDBRANCH  27  28
ENDBRANCH  26  27
ENDBRANCH   1  26
TORSDOF 18
ENDMDL
MODEL 2
REMARK VINA RESULT:     -12.0      5.095      8.350
REMARK SMILES O=C(CSc1ccnc(C(=O)NCCCNC(=O)c2ccc(-c3c4nc(c(-c5cc(S(=O)(=O)[O-])ccc5F)c5ccc([nH]5)c(-c5cc(S(=O)(=O)[O-])ccc5F)c5nc(c(-c6cc(S(=O)(=O)[O-])ccc6F)c6ccc3[nH]6)C=C5)C=C4)cc2)c1)NNc1ccccn1
REMARK SMILES IDX 13 1 12 2 10 3 11 4 9 6 5 7 6 8 82 9 7 10 8 11 4 12 3 13
REMARK SMILES IDX 2 14 1 15 83 16 84 18 85 20 86 21 90 22 87 23 89 24 88 25
REMARK SMILES IDX 14 26 15 27 16 28 17 29 18 31 19 32 20 33 81 34 21 35 80 36
REMARK SMILES IDX 22 37 23 38 24 39 74 40 25 41 79 42 73 43 75 44 26 45 78 46
REMARK SMILES IDX 72 47 71 48 27 50 59 51 39 52 58 53 40 54 43 55 57 56 76 57
REMARK SMILES IDX 41 58 42 59 56 61 77 62 44 63 28 64 29 65 37 66 30 67 36 68
REMARK SMILES IDX 38 69 35 70 31 71 32 72 33 73 34 74 60 75 61 76 69 77 62 78
REMARK SMILES IDX 68 79 70 80 67 81 63 82 64 83 65 84 66 85 45 86 46 87 54 88
REMARK SMILES IDX 47 89 53 90 55 91 52 92 48 93 49 94 50 95 51 96
REMARK H PARENT 12 5 83 17 84 19 16 30 75 49 43 60
REMARK Flexibility Score: inf
ROOT
ATOM      1  C   UNL A   1      31.590  30.508  26.779  1.00  0.00     0.118 C 
ENDROOT
BRANCH   1   2
ATOM      2  N   UNL A   1      32.849  30.031  27.319  1.00  0.00    -0.351 N 
ATOM      3  C   UNL A   1      33.780  29.111  26.889  1.00  0.00     0.269 C 
ATOM      4  O   UNL A   1      34.771  28.975  27.610  1.00  0.00    -0.268 OA
ATOM      5  H   UNL A   1      33.089  30.454  28.175  1.00  0.00     0.163 HD
BRANCH   3   6
ATOM      6  C   UNL A   1      33.673  28.325  25.606  1.00  0.00     0.129 A 
ATOM      7  C   UNL A   1      33.299  26.357  24.291  1.00  0.00     0.012 A 
ATOM      8  C   UNL A   1      33.365  27.135  23.140  1.00  0.00     0.035 A 
ATOM      9  C   UNL A   1      33.498  26.953  25.537  1.00  0.00     0.049 A 
ATOM     10  C   UNL A   1      33.622  28.484  23.287  1.00  0.00     0.113 A 
ATOM     11  N   UNL A   1      33.753  29.089  24.482  1.00  0.00    -0.251 NA
BRANCH   7  12
ATOM     12  S   UNL A   1      32.827  24.635  24.238  1.00  0.00    -0.116 SA
BRANCH  12  13
ATOM     13  C   UNL A   1      31.809  24.515  25.750  1.00  0.00     0.176 C 
BRANCH  13  14
ATOM     14  C   UNL A   1      30.494  25.254  25.603  1.00  0.00     0.248 C 
ATOM     15  O   UNL A   1      29.970  25.858  26.537  1.00  0.00    -0.272 OA
ATOM     16  N   UNL A   1      29.976  25.232  24.320  1.00  0.00    -0.268 N 
ATOM     17  H   UNL A   1      30.466  24.796  23.586  1.00  0.00     0.191 HD
BRANCH  16  18
ATOM     18  N   UNL A   1      28.749  25.836  24.092  1.00  0.00    -0.282 N 
ATOM     19  H   UNL A   1      27.912  25.375  24.330  1.00  0.00     0.190 HD
BRANCH  18  20
ATOM     20  C   UNL A   1      28.718  27.108  23.523  1.00  0.00     0.144 A 
ATOM     21  C   UNL A   1      27.558  27.883  23.499  1.00  0.00     0.048 A 
ATOM     22  N   UNL A   1      29.876  27.556  23.001  1.00  0.00    -0.238 NA
ATOM     23  C   UNL A   1      27.584  29.139  22.895  1.00  0.00     0.005 A 
ATOM     24  C   UNL A   1      29.878  28.773  22.414  1.00  0.00     0.113 A 
ATOM     25  C   UNL A   1      28.767  29.593  22.332  1.00  0.00     0.020 A 
ENDBRANCH  18  20
ENDBRANCH  16  18
ENDBRANCH  13  14
ENDBRANCH  12  13
ENDBRANCH   7  12
ENDBRANCH   3   6
ENDBRANCH   1   2
BRANCH   1  26
ATOM     26  C   UNL A   1      31.492  32.031  26.872  1.00  0.00     0.042 C 
BRANCH  26  27
ATOM     27  C   UNL A   1      32.850  32.710  27.052  1.00  0.00     0.118 C 
BRANCH  27  28
ATOM     28  N   UNL A   1      32.712  34.017  27.675  1.00  0.00    -0.352 N 
ATOM     29  C   UNL A   1      33.293  34.529  28.808  1.00  0.00     0.251 C 
ATOM     30  H   UNL A   1      32.103  34.634  27.209  1.00  0.00     0.163 HD
ATOM     31  O   UNL A   1      32.819  35.550  29.299  1.00  0.00    -0.269 OA
BRANCH  29  32
ATOM     32  C   UNL A   1      34.466  33.877  29.435  1.00  0.00     0.039 A 
ATOM     33  C   UNL A   1      34.243  32.900  30.410  1.00  0.00     0.014 A 
ATOM     34  C   UNL A   1      35.773  34.274  29.139  1.00  0.00     0.014 A 
ATOM     35  C   UNL A   1      35.324  32.307  31.068  1.00  0.00     0.010 A 
ATOM     36  C   UNL A   1      36.854  33.633  29.744  1.00  0.00     0.010 A 
ATOM     37  C   UNL A   1      36.641  32.657  30.729  1.00  0.00    -0.014 A 
BRANCH  37  38
ATOM     38  C   UNL A   1      37.799  32.039  31.427  1.00  0.00     0.031 A 
ATOM     39  C   UNL A   1      38.584  30.939  30.760  1.00  0.00     0.074 A 
ATOM     40  C   UNL A   1      38.117  32.439  32.675  1.00  0.00     0.049 A 
ATOM     41  N   UNL A   1      39.592  30.242  31.220  1.00  0.00    -0.248 NA
ATOM     42  C   UNL A   1      38.158  30.552  29.406  1.00  0.00     0.031 C 
ATOM     43  C   UNL A   1      37.408  33.471  33.436  1.00  0.00     0.029 A 
ATOM     44  N   UNL A   1      39.114  32.029  33.524  1.00  0.00    -0.354 N 
ATOM     45  C   UNL A   1      39.903  29.318  30.226  1.00  0.00     0.074 A 
ATOM     46  C   UNL A   1      38.943  29.514  29.160  1.00  0.00     0.031 C 
ATOM     47  C   UNL A   1      38.011  33.632  34.625  1.00  0.00     0.029 A 
ATOM     48  C   UNL A   1      39.122  32.691  34.729  1.00  0.00     0.049 A 
ATOM     49  H   UNL A   1      39.763  31.327  33.291  1.00  0.00     0.167 HD
ATOM     50  C   UNL A   1      40.908  28.408  30.198  1.00  0.00     0.034 A 
ATOM     51  C   UNL A   1      39.931  32.553  35.798  1.00  0.00     0.034 A 
ATOM     52  C   UNL A   1      41.875  28.248  31.257  1.00  0.00     0.049 A 
ATOM     53  C   UNL A   1      41.048  31.540  35.735  1.00  0.00     0.074 A 
ATOM     54  C   UNL A   1      42.969  27.402  31.308  1.00  0.00     0.029 A 
ATOM     55  N   UNL A   1      41.864  28.951  32.456  1.00  0.00    -0.354 N 
ATOM     56  N   UNL A   1      41.363  30.714  34.764  1.00  0.00    -0.248 NA
ATOM     57  C   UNL A   1      41.931  31.459  36.905  1.00  0.00     0.031 C 
ATOM     58  C   UNL A   1      43.582  27.548  32.558  1.00  0.00     0.029 A 
ATOM     59  C   UNL A   1      42.916  28.540  33.260  1.00  0.00     0.049 A 
ATOM     60  H   UNL A   1      41.203  29.640  32.700  1.00  0.00     0.167 HD
ATOM     61  C   UNL A   1      42.507  30.045  35.192  1.00  0.00     0.074 A 
ATOM     62  C   UNL A   1      42.832  30.578  36.499  1.00  0.00     0.031 C 
ATOM     63  C   UNL A   1      43.227  29.081  34.562  1.00  0.00     0.034 A 
BRANCH  50  64
ATOM     64  C   UNL A   1      40.990  27.496  28.995  1.00  0.00     0.023 A 
ATOM     65  C   UNL A   1      41.986  27.644  28.014  1.00  0.00     0.031 A 
ATOM     66  C   UNL A   1      40.042  26.472  28.816  1.00  0.00     0.131 A 
ATOM     67  C   UNL A   1      41.968  26.837  26.867  1.00  0.00     0.055 A 
ATOM     68  C   UNL A   1      40.078  25.618  27.711  1.00  0.00     0.041 A 
ATOM     69  F   UNL A   1      39.054  26.291  29.707  1.00  0.00    -0.206 F 
ATOM     70  C   UNL A   1      41.036  25.808  26.720  1.00  0.00     0.022 A 
BRANCH  67  71
ATOM     71  S   UNL A   1      43.095  27.240  25.504  1.00  0.00     0.124 S 
ATOM     72  O   UNL A   1      44.181  27.917  26.210  1.00  0.00    -0.237 OA
ATOM     73  O   UNL A   1      43.411  25.927  24.955  1.00  0.00    -0.237 OA
ATOM     74  O   UNL A   1      42.293  28.102  24.637  1.00  0.00    -0.744 OA
ENDBRANCH  67  71
ENDBRANCH  50  64
BRANCH  51  75
ATOM     75  C   UNL A   1      39.736  33.390  37.016  1.00  0.00     0.023 A 
ATOM     76  C   UNL A   1      40.529  34.526  37.242  1.00  0.00     0.031 A 
ATOM     77  C   UNL A   1      38.798  33.036  38.001  1.00  0.00     0.131 A 
ATOM     78  C   UNL A   1      40.414  35.234  38.448  1.00  0.00     0.055 A 
ATOM     79  C   UNL A   1      38.647  33.776  39.176  1.00  0.00     0.041 A 
ATOM     80  F   UNL A   1      38.008  31.964  37.833  1.00  0.00    -0.206 F 
ATOM     81  C   UNL A   1      39.470  34.872  39.412  1.00  0.00     0.022 A 
BRANCH  78  82
ATOM     82  S   UNL A   1      41.589  36.575  38.782  1.00  0.00     0.124 S 
ATOM     83  O   UNL A   1      42.586  35.899  39.604  1.00  0.00    -0.237 OA
ATOM     84  O   UNL A   1      42.012  36.946  37.435  1.00  0.00    -0.237 OA
ATOM     85  O   UNL A   1      40.777  37.573  39.476  1.00  0.00    -0.744 OA
ENDBRANCH  78  82
ENDBRANCH  51  75
BRANCH  63  86
ATOM     86  C   UNL A   1      44.474  28.596  35.263  1.00  0.00     0.023 A 
ATOM     87  C   UNL A   1      44.444  27.524  36.171  1.00  0.00     0.031 A 
ATOM     88  C   UNL A   1      45.702  29.245  35.044  1.00  0.00     0.131 A 
ATOM     89  C   UNL A   1      45.602  27.182  36.884  1.00  0.00     0.055 A 
ATOM     90  C   UNL A   1      46.866  28.855  35.706  1.00  0.00     0.041 A 
ATOM     91  F   UNL A   1      45.788  30.275  34.188  1.00  0.00    -0.206 F 
ATOM     92  C   UNL A   1      46.818  27.830  36.646  1.00  0.00     0.022 A 
BRANCH  89  93
ATOM     93  S   UNL A   1      45.474  25.956  38.216  1.00  0.00     0.124 S 
ATOM     94  O   UNL A   1      45.915  24.735  37.549  1.00  0.00    -0.237 OA
ATOM     95  O   UNL A   1      46.382  26.495  39.223  1.00  0.00    -0.237 OA
ATOM     96  O   UNL A   1      44.058  25.987  38.577  1.00  0.00    -0.744 OA
ENDBRANCH  89  93
ENDBRANCH  63  86
ENDBRANCH  37  38
ENDBRANCH  29  32
ENDBRANCH  27  28
ENDBRANCH  26  27
ENDBRANCH   1  26
TORSDOF 18
ENDMDL
MODEL 3
REMARK VINA RESULT:     -11.8      5.218      8.206
REMARK SMILES O=C(CSc1ccnc(C(=O)NCCCNC(=O)c2ccc(-c3c4nc(c(-c5cc(S(=O)(=O)[O-])ccc5F)c5ccc([nH]5)c(-c5cc(S(=O)(=O)[O-])ccc5F)c5nc(c(-c6cc(S(=O)(=O)[O-])ccc6F)c6ccc3[nH]6)C=C5)C=C4)cc2)c1)NNc1ccccn1
REMARK SMILES IDX 13 1 12 2 10 3 11 4 9 6 5 7 6 8 82 9 7 10 8 11 4 12 3 13
REMARK SMILES IDX 2 14 1 15 83 16 84 18 85 20 86 21 90 22 87 23 89 24 88 25
REMARK SMILES IDX 14 26 15 27 16 28 17 29 18 31 19 32 20 33 81 34 21 35 80 36
REMARK SMILES IDX 22 37 23 38 24 39 74 40 25 41 79 42 73 43 75 44 26 45 78 46
REMARK SMILES IDX 72 47 71 48 27 50 59 51 39 52 58 53 40 54 43 55 57 56 76 57
REMARK SMILES IDX 41 58 42 59 56 61 77 62 44 63 28 64 29 65 37 66 30 67 36 68
REMARK SMILES IDX 38 69 35 70 31 71 32 72 33 73 34 74 60 75 61 76 69 77 62 78
REMARK SMILES IDX 68 79 70 80 67 81 63 82 64 83 65 84 66 85 45 86 46 87 54 88
REMARK SMILES IDX 47 89 53 90 55 91 52 92 48 93 49 94 50 95 51 96
REMARK H PARENT 12 5 83 17 84 19 16 30 75 49 43 60
REMARK Flexibility Score: inf
ROOT
ATOM      1  C   UNL A   1      31.564  30.239  26.932  1.00  0.00     0.118 C 
ENDROOT
BRANCH   1   2
ATOM      2  N   UNL A   1      32.854  29.878  27.490  1.00  0.00    -0.351 N 
ATOM      3  C   UNL A   1      33.843  29.000  27.106  1.00  0.00     0.269 C 
ATOM      4  O   UNL A   1      34.843  28.971  27.827  1.00  0.00    -0.268 OA
ATOM      5  H   UNL A   1      33.068  30.363  28.320  1.00  0.00     0.163 HD
BRANCH   3   6
ATOM      6  C   UNL A   1      33.786  28.139  25.869  1.00  0.00     0.129 A 
ATOM      7  C   UNL A   1      33.576  26.075  24.669  1.00  0.00     0.012 A 
ATOM      8  C   UNL A   1      33.542  26.792  23.478  1.00  0.00     0.035 A 
ATOM      9  C   UNL A   1      33.743  26.754  25.876  1.00  0.00     0.049 A 
ATOM     10  C   UNL A   1      33.670  28.164  23.547  1.00  0.00     0.113 A 
ATOM     11  N   UNL A   1      33.767  28.844  24.705  1.00  0.00    -0.251 NA
BRANCH   7  12
ATOM     12  S   UNL A   1      33.272  24.315  24.719  1.00  0.00    -0.116 SA
BRANCH  12  13
ATOM     13  C   UNL A   1      31.570  24.283  25.381  1.00  0.00     0.176 C 
BRANCH  13  14
ATOM     14  C   UNL A   1      30.556  24.729  24.346  1.00  0.00     0.248 C 
ATOM     15  O   UNL A   1      30.540  24.276  23.204  1.00  0.00    -0.272 OA
ATOM     16  N   UNL A   1      29.627  25.637  24.823  1.00  0.00    -0.268 N 
ATOM     17  H   UNL A   1      29.634  25.917  25.766  1.00  0.00     0.191 HD
BRANCH  16  18
ATOM     18  N   UNL A   1      28.686  26.145  23.939  1.00  0.00    -0.282 N 
ATOM     19  H   UNL A   1      27.988  25.562  23.562  1.00  0.00     0.190 HD
BRANCH  18  20
ATOM     20  C   UNL A   1      28.743  27.494  23.595  1.00  0.00     0.144 A 
ATOM     21  C   UNL A   1      27.608  28.215  23.223  1.00  0.00     0.048 A 
ATOM     22  N   UNL A   1      29.959  28.072  23.646  1.00  0.00    -0.238 NA
ATOM     23  C   UNL A   1      27.732  29.556  22.867  1.00  0.00     0.005 A 
ATOM     24  C   UNL A   1      30.059  29.372  23.289  1.00  0.00     0.113 A 
ATOM     25  C   UNL A   1      28.986  30.148  22.891  1.00  0.00     0.020 A 
ENDBRANCH  18  20
ENDBRANCH  16  18
ENDBRANCH  13  14
ENDBRANCH  12  13
ENDBRANCH   7  12
ENDBRANCH   3   6
ENDBRANCH   1   2
BRANCH   1  26
ATOM     26  C   UNL A   1      31.489  31.739  26.645  1.00  0.00     0.042 C 
BRANCH  26  27
ATOM     27  C   UNL A   1      32.830  32.452  26.819  1.00  0.00     0.118 C 
BRANCH  27  28
ATOM     28  N   UNL A   1      32.654  33.785  27.375  1.00  0.00    -0.352 N 
ATOM     29  C   UNL A   1      33.189  34.358  28.501  1.00  0.00     0.251 C 
ATOM     30  H   UNL A   1      32.055  34.372  26.858  1.00  0.00     0.163 HD
ATOM     31  O   UNL A   1      32.686  35.395  28.925  1.00  0.00    -0.269 OA
BRANCH  29  32
ATOM     32  C   UNL A   1      34.347  33.753  29.198  1.00  0.00     0.039 A 
ATOM     33  C   UNL A   1      35.632  34.184  28.855  1.00  0.00     0.014 A 
ATOM     34  C   UNL A   1      34.189  32.712  30.118  1.00  0.00     0.014 A 
ATOM     35  C   UNL A   1      36.752  33.593  29.447  1.00  0.00     0.010 A 
ATOM     36  C   UNL A   1      35.303  32.170  30.761  1.00  0.00     0.010 A 
ATOM     37  C   UNL A   1      36.596  32.591  30.418  1.00  0.00    -0.014 A 
BRANCH  37  38
ATOM     38  C   UNL A   1      37.779  31.949  31.049  1.00  0.00     0.031 A 
ATOM     39  C   UNL A   1      38.600  30.950  30.275  1.00  0.00     0.074 A 
ATOM     40  C   UNL A   1      38.088  32.233  32.330  1.00  0.00     0.049 A 
ATOM     41  N   UNL A   1      39.635  30.248  30.662  1.00  0.00    -0.248 NA
ATOM     42  C   UNL A   1      38.182  30.686  28.889  1.00  0.00     0.031 C 
ATOM     43  C   UNL A   1      37.345  33.157  33.192  1.00  0.00     0.029 A 
ATOM     44  N   UNL A   1      39.103  31.777  33.133  1.00  0.00    -0.354 N 
ATOM     45  C   UNL A   1      39.975  29.441  29.579  1.00  0.00     0.074 A 
ATOM     46  C   UNL A   1      39.003  29.707  28.540  1.00  0.00     0.031 C 
ATOM     47  C   UNL A   1      37.947  33.219  34.391  1.00  0.00     0.029 A 
ATOM     48  C   UNL A   1      39.092  32.314  34.399  1.00  0.00     0.049 A 
ATOM     49  H   UNL A   1      39.775  31.125  32.830  1.00  0.00     0.167 HD
ATOM     50  C   UNL A   1      41.012  28.575  29.459  1.00  0.00     0.034 A 
ATOM     51  C   UNL A   1      39.910  32.099  35.448  1.00  0.00     0.034 A 
ATOM     52  C   UNL A   1      41.988  28.345  30.496  1.00  0.00     0.049 A 
ATOM     53  C   UNL A   1      41.063  31.139  35.283  1.00  0.00     0.074 A 
ATOM     54  C   UNL A   1      43.113  27.538  30.461  1.00  0.00     0.029 A 
ATOM     55  N   UNL A   1      41.957  28.923  31.760  1.00  0.00    -0.354 N 
ATOM     56  N   UNL A   1      41.403  30.427  34.233  1.00  0.00    -0.248 NA
ATOM     57  C   UNL A   1      41.953  30.973  36.438  1.00  0.00     0.031 C 
ATOM     58  C   UNL A   1      43.725  27.581  31.719  1.00  0.00     0.029 A 
ATOM     59  C   UNL A   1      43.027  28.472  32.518  1.00  0.00     0.049 A 
ATOM     60  H   UNL A   1      41.273  29.560  32.072  1.00  0.00     0.167 HD
ATOM     61  C   UNL A   1      42.572  29.761  34.591  1.00  0.00     0.074 A 
ATOM     62  C   UNL A   1      42.884  30.171  35.945  1.00  0.00     0.031 C 
ATOM     63  C   UNL A   1      43.324  28.891  33.867  1.00  0.00     0.034 A 
BRANCH  50  64
ATOM     64  C   UNL A   1      41.121  27.792  28.171  1.00  0.00     0.023 A 
ATOM     65  C   UNL A   1      40.730  26.444  28.083  1.00  0.00     0.031 A 
ATOM     66  C   UNL A   1      41.645  28.398  27.014  1.00  0.00     0.131 A 
ATOM     67  C   UNL A   1      40.936  25.728  26.895  1.00  0.00     0.055 A 
ATOM     68  C   UNL A   1      41.772  27.703  25.810  1.00  0.00     0.041 A 
ATOM     69  F   UNL A   1      42.055  29.676  27.038  1.00  0.00    -0.206 F 
ATOM     70  C   UNL A   1      41.432  26.354  25.749  1.00  0.00     0.022 A 
BRANCH  67  71
ATOM     71  S   UNL A   1      40.678  23.933  26.906  1.00  0.00     0.124 S 
ATOM     72  O   UNL A   1      39.264  23.837  26.548  1.00  0.00    -0.237 OA
ATOM     73  O   UNL A   1      41.624  23.471  25.898  1.00  0.00    -0.237 OA
ATOM     74  O   UNL A   1      40.992  23.548  28.280  1.00  0.00    -0.744 OA
ENDBRANCH  67  71
ENDBRANCH  50  64
BRANCH  51  75
ATOM     75  C   UNL A   1      39.691  32.802  36.744  1.00  0.00     0.023 A 
ATOM     76  C   UNL A   1      38.901  32.225  37.751  1.00  0.00     0.031 A 
ATOM     77  C   UNL A   1      40.216  34.086  36.974  1.00  0.00     0.131 A 
ATOM     78  C   UNL A   1      38.607  32.951  38.915  1.00  0.00     0.055 A 
ATOM     79  C   UNL A   1      39.967  34.783  38.159  1.00  0.00     0.041 A 
ATOM     80  F   UNL A   1      40.985  34.682  36.049  1.00  0.00    -0.206 F 
ATOM     81  C   UNL A   1      39.144  34.222  39.130  1.00  0.00     0.022 A 
BRANCH  78  82
ATOM     82  S   UNL A   1      37.428  32.248  40.100  1.00  0.00     0.124 S 
ATOM     83  O   UNL A   1      36.608  31.404  39.239  1.00  0.00    -0.237 OA
ATOM     84  O   UNL A   1      38.313  31.552  41.029  1.00  0.00    -0.237 OA
ATOM     85  O   UNL A   1      36.755  33.424  40.648  1.00  0.00    -0.744 OA
ENDBRANCH  78  82
ENDBRANCH  51  75
BRANCH  63  86
ATOM     86  C   UNL A   1      44.591  28.384  34.514  1.00  0.00     0.023 A 
ATOM     87  C   UNL A   1      44.613  27.203  35.276  1.00  0.00     0.031 A 
ATOM     88  C   UNL A   1      45.784  29.118  34.397  1.00  0.00     0.131 A 
ATOM     89  C   UNL A   1      45.783  26.831  35.953  1.00  0.00     0.055 A 
ATOM     90  C   UNL A   1      46.964  28.706  35.018  1.00  0.00     0.041 A 
ATOM     91  F   UNL A   1      45.821  30.254  33.683  1.00  0.00    -0.206 F 
ATOM     92  C   UNL A   1      46.964  27.567  35.816  1.00  0.00     0.022 A 
BRANCH  89  93
ATOM     93  S   UNL A   1      45.712  25.438  37.113  1.00  0.00     0.124 S 
ATOM     94  O   UNL A   1      45.291  26.093  38.348  1.00  0.00    -0.237 OA
ATOM     95  O   UNL A   1      44.726  24.563  36.489  1.00  0.00    -0.237 OA
ATOM     96  O   UNL A   1      47.081  24.925  37.120  1.00  0.00    -0.744 OA
ENDBRANCH  89  93
ENDBRANCH  63  86
ENDBRANCH  37  38
ENDBRANCH  29  32
ENDBRANCH  27  28
ENDBRANCH  26  27
ENDBRANCH   1  26
TORSDOF 18
ENDMDL
