MODEL 1
REMARK VINA RESULT:     -13.4      0.000      0.000
REMARK SMILES Cc1ccc(N[C@](C)(C(=O)NCCCNC(=O)c2ccc(-c3c4nc(c(-c5cc(S(=O)(=O)[O-])ccc5F)c5ccc([nH]5)c(-c5cc(S(=O)(=O)[O-])ccc5F)c5nc(c(-c6cc(S(=O)(=O)[O-])ccc6F)c6ccc3[nH]6)C=C5)C=C4)cc2)c2cc(F)cc(F)c2)cc1
REMARK SMILES IDX 13 1 12 2 11 3 9 4 10 5 7 7 8 8 6 9 5 11 1 12 2 13 3 14
REMARK SMILES IDX 90 15 4 16 89 17 81 18 82 19 88 20 83 21 86 22 84 23 85 24
REMARK SMILES IDX 87 25 14 26 15 27 16 28 17 30 18 31 19 32 80 33 20 34 79 35
REMARK SMILES IDX 21 36 22 37 23 38 73 39 24 40 78 41 72 42 74 43 25 44 77 45
REMARK SMILES IDX 71 46 70 47 26 49 58 50 38 51 57 52 39 53 42 54 56 55 75 56
REMARK SMILES IDX 40 57 41 58 55 60 76 61 43 62 27 63 28 64 36 65 29 66 35 67
REMARK SMILES IDX 37 68 34 69 30 70 31 71 32 72 33 73 59 74 60 75 68 76 61 77
REMARK SMILES IDX 67 78 69 79 66 80 62 81 63 82 64 83 65 84 44 85 45 86 53 87
REMARK SMILES IDX 46 88 52 89 54 90 51 91 47 92 48 93 49 94 50 95
REMARK H PARENT 11 6 6 10 15 29 74 48 42 59
REMARK Flexibility Score: inf
ROOT
ATOM      1  C   UNL A   1      39.079  21.502  25.841  1.00  0.00     0.042 C 
ENDROOT
BRANCH   1   2
ATOM      2  C   UNL A   1      37.624  21.349  25.405  1.00  0.00     0.117 C 
BRANCH   2   3
ATOM      3  N   UNL A   1      37.324  22.175  24.246  1.00  0.00    -0.354 N 
ATOM      4  C   UNL A   1      36.240  22.898  23.866  1.00  0.00     0.250 C 
ATOM      5  O   UNL A   1      36.278  23.335  22.702  1.00  0.00    -0.272 OA
ATOM      6  H   UNL A   1      38.064  22.221  23.600  1.00  0.00     0.163 HD
BRANCH   4   7
ATOM      7  C   UNL A   1      34.933  23.131  24.743  1.00  0.00     0.139 C 
ATOM      8  C   UNL A   1      35.091  23.261  26.274  1.00  0.00     0.051 C 
BRANCH   7   9
ATOM      9  N   UNL A   1      34.331  24.428  24.265  1.00  0.00    -0.368 N 
ATOM     10  H   UNL A   1      34.484  24.668  23.322  1.00  0.00     0.161 HD
BRANCH   9  11
ATOM     11  C   UNL A   1      33.577  25.324  25.029  1.00  0.00     0.035 A 
ATOM     12  C   UNL A   1      31.529  28.207  27.550  1.00  0.00     0.044 C 
ATOM     13  C   UNL A   1      32.249  27.224  26.678  1.00  0.00    -0.051 A 
ATOM     14  C   UNL A   1      31.650  26.004  26.363  1.00  0.00     0.005 A 
ATOM     15  C   UNL A   1      33.519  27.494  26.166  1.00  0.00     0.005 A 
ATOM     16  C   UNL A   1      32.312  25.064  25.562  1.00  0.00     0.026 A 
ATOM     17  C   UNL A   1      34.167  26.555  25.354  1.00  0.00     0.026 A 
ENDBRANCH   9  11
ENDBRANCH   7   9
BRANCH   7  18
ATOM     18  C   UNL A   1      33.947  21.963  24.391  1.00  0.00    -0.008 A 
ATOM     19  C   UNL A   1      34.017  20.724  25.061  1.00  0.00     0.046 A 
ATOM     20  C   UNL A   1      33.044  22.032  23.310  1.00  0.00     0.046 A 
ATOM     21  C   UNL A   1      33.274  19.619  24.641  1.00  0.00     0.126 A 
ATOM     22  C   UNL A   1      32.286  20.921  22.925  1.00  0.00     0.126 A 
ATOM     23  F   UNL A   1      33.430  18.447  25.272  1.00  0.00    -0.207 F 
ATOM     24  C   UNL A   1      32.406  19.704  23.571  1.00  0.00     0.078 A 
ATOM     25  F   UNL A   1      31.441  21.031  21.891  1.00  0.00    -0.207 F 
ENDBRANCH   7  18
ENDBRANCH   4   7
ENDBRANCH   2   3
ENDBRANCH   1   2
BRANCH   1  26
ATOM     26  C   UNL A   1      39.405  22.897  26.358  1.00  0.00     0.118 C 
BRANCH  26  27
ATOM     27  N   UNL A   1      40.832  23.218  26.361  1.00  0.00    -0.352 N 
ATOM     28  C   UNL A   1      41.425  24.456  26.566  1.00  0.00     0.251 C 
ATOM     29  H   UNL A   1      41.445  22.466  26.197  1.00  0.00     0.163 HD
ATOM     30  O   UNL A   1      42.632  24.613  26.539  1.00  0.00    -0.269 OA
BRANCH  28  31
ATOM     31  C   UNL A   1      40.534  25.572  26.957  1.00  0.00     0.039 A 
ATOM     32  C   UNL A   1      40.774  26.809  26.352  1.00  0.00     0.014 A 
ATOM     33  C   UNL A   1      39.762  25.470  28.112  1.00  0.00     0.014 A 
ATOM     34  C   UNL A   1      40.455  27.969  27.048  1.00  0.00     0.010 A 
ATOM     35  C   UNL A   1      39.529  26.619  28.845  1.00  0.00     0.010 A 
ATOM     36  C   UNL A   1      39.943  27.859  28.346  1.00  0.00    -0.014 A 
BRANCH  36  37
ATOM     37  C   UNL A   1      39.980  28.978  29.282  1.00  0.00     0.031 A 
ATOM     38  C   UNL A   1      38.897  29.977  29.303  1.00  0.00     0.074 A 
ATOM     39  C   UNL A   1      41.041  29.152  30.102  1.00  0.00     0.049 A 
ATOM     40  N   UNL A   1      39.089  31.237  29.507  1.00  0.00    -0.248 NA
ATOM     41  C   UNL A   1      37.504  29.633  29.051  1.00  0.00     0.031 C 
ATOM     42  C   UNL A   1      41.173  30.131  31.178  1.00  0.00     0.029 A 
ATOM     43  N   UNL A   1      42.319  28.617  29.961  1.00  0.00    -0.354 N 
ATOM     44  C   UNL A   1      37.857  31.817  29.686  1.00  0.00     0.074 A 
ATOM     45  C   UNL A   1      36.900  30.795  29.321  1.00  0.00     0.031 C 
ATOM     46  C   UNL A   1      42.477  30.322  31.431  1.00  0.00     0.029 A 
ATOM     47  C   UNL A   1      43.234  29.558  30.456  1.00  0.00     0.049 A 
ATOM     48  H   UNL A   1      42.541  27.736  29.581  1.00  0.00     0.167 HD
ATOM     49  C   UNL A   1      37.754  33.047  30.261  1.00  0.00     0.034 A 
ATOM     50  C   UNL A   1      44.238  30.051  29.676  1.00  0.00     0.034 A 
ATOM     51  C   UNL A   1      39.054  33.581  30.653  1.00  0.00     0.049 A 
ATOM     52  C   UNL A   1      44.159  31.546  29.457  1.00  0.00     0.074 A 
ATOM     53  C   UNL A   1      39.714  33.625  31.871  1.00  0.00     0.029 A 
ATOM     54  N   UNL A   1      39.991  33.923  29.685  1.00  0.00    -0.354 N 
ATOM     55  N   UNL A   1      43.114  32.278  29.733  1.00  0.00    -0.248 NA
ATOM     56  C   UNL A   1      45.246  32.327  28.877  1.00  0.00     0.031 C 
ATOM     57  C   UNL A   1      41.068  33.962  31.625  1.00  0.00     0.029 A 
ATOM     58  C   UNL A   1      41.227  34.148  30.263  1.00  0.00     0.049 A 
ATOM     59  H   UNL A   1      39.800  33.995  28.722  1.00  0.00     0.167 HD
ATOM     60  C   UNL A   1      43.343  33.577  29.344  1.00  0.00     0.074 A 
ATOM     61  C   UNL A   1      44.708  33.558  28.849  1.00  0.00     0.031 C 
ATOM     62  C   UNL A   1      42.374  34.540  29.452  1.00  0.00     0.034 A 
BRANCH  49  63
ATOM     63  C   UNL A   1      36.440  33.603  30.754  1.00  0.00     0.023 A 
ATOM     64  C   UNL A   1      35.568  34.243  29.851  1.00  0.00     0.031 A 
ATOM     65  C   UNL A   1      36.011  33.561  32.094  1.00  0.00     0.131 A 
ATOM     66  C   UNL A   1      34.408  34.900  30.297  1.00  0.00     0.055 A 
ATOM     67  C   UNL A   1      34.888  34.266  32.550  1.00  0.00     0.041 A 
ATOM     68  F   UNL A   1      36.651  32.815  33.007  1.00  0.00    -0.206 F 
ATOM     69  C   UNL A   1      34.088  34.955  31.650  1.00  0.00     0.022 A 
BRANCH  66  70
ATOM     70  S   UNL A   1      33.318  35.680  29.074  1.00  0.00     0.124 S 
ATOM     71  O   UNL A   1      32.595  34.536  28.527  1.00  0.00    -0.237 OA
ATOM     72  O   UNL A   1      32.541  36.600  29.897  1.00  0.00    -0.237 OA
ATOM     73  O   UNL A   1      34.251  36.319  28.147  1.00  0.00    -0.744 OA
ENDBRANCH  66  70
ENDBRANCH  49  63
BRANCH  50  74
ATOM     74  C   UNL A   1      44.770  29.064  28.696  1.00  0.00     0.023 A 
ATOM     75  C   UNL A   1      45.607  28.035  29.183  1.00  0.00     0.031 A 
ATOM     76  C   UNL A   1      44.198  28.900  27.428  1.00  0.00     0.131 A 
ATOM     77  C   UNL A   1      45.751  26.838  28.465  1.00  0.00     0.055 A 
ATOM     78  C   UNL A   1      44.367  27.716  26.702  1.00  0.00     0.041 A 
ATOM     79  F   UNL A   1      43.368  29.828  26.929  1.00  0.00    -0.206 F 
ATOM     80  C   UNL A   1      45.112  26.663  27.236  1.00  0.00     0.022 A 
BRANCH  77  81
ATOM     81  S   UNL A   1      46.598  25.424  29.229  1.00  0.00     0.124 S 
ATOM     82  O   UNL A   1      47.999  25.714  28.953  1.00  0.00    -0.237 OA
ATOM     83  O   UNL A   1      46.197  25.510  30.632  1.00  0.00    -0.237 OA
ATOM     84  O   UNL A   1      46.034  24.276  28.519  1.00  0.00    -0.744 OA
ENDBRANCH  77  81
ENDBRANCH  50  74
BRANCH  62  85
ATOM     85  C   UNL A   1      42.427  35.957  28.897  1.00  0.00     0.023 A 
ATOM     86  C   UNL A   1      43.110  37.016  29.511  1.00  0.00     0.031 A 
ATOM     87  C   UNL A   1      41.810  36.281  27.659  1.00  0.00     0.131 A 
ATOM     88  C   UNL A   1      43.104  38.315  28.965  1.00  0.00     0.055 A 
ATOM     89  C   UNL A   1      41.866  37.552  27.079  1.00  0.00     0.041 A 
ATOM     90  F   UNL A   1      41.131  35.372  26.945  1.00  0.00    -0.206 F 
ATOM     91  C   UNL A   1      42.503  38.588  27.740  1.00  0.00     0.022 A 
BRANCH  88  92
ATOM     92  S   UNL A   1      43.850  39.655  29.928  1.00  0.00     0.124 S 
ATOM     93  O   UNL A   1      45.223  39.657  29.430  1.00  0.00    -0.237 OA
ATOM     94  O   UNL A   1      43.038  40.805  29.546  1.00  0.00    -0.237 OA
ATOM     95  O   UNL A   1      43.693  39.216  31.313  1.00  0.00    -0.744 OA
ENDBRANCH  88  92
ENDBRANCH  62  85
ENDBRANCH  36  37
ENDBRANCH  28  31
ENDBRANCH  26  27
ENDBRANCH   1  26
TORSDOF 16
ENDMDL
MODEL 2
REMARK VINA RESULT:     -13.4      4.255     10.684
REMARK SMILES Cc1ccc(N[C@](C)(C(=O)NCCCNC(=O)c2ccc(-c3c4nc(c(-c5cc(S(=O)(=O)[O-])ccc5F)c5ccc([nH]5)c(-c5cc(S(=O)(=O)[O-])ccc5F)c5nc(c(-c6cc(S(=O)(=O)[O-])ccc6F)c6ccc3[nH]6)C=C5)C=C4)cc2)c2cc(F)cc(F)c2)cc1
REMARK SMILES IDX 13 1 12 2 11 3 9 4 10 5 7 7 8 8 6 9 5 11 1 12 2 13 3 14
REMARK SMILES IDX 90 15 4 16 89 17 81 18 82 19 88 20 83 21 86 22 84 23 85 24
REMARK SMILES IDX 87 25 14 26 15 27 16 28 17 30 18 31 19 32 80 33 20 34 79 35
REMARK SMILES IDX 21 36 22 37 23 38 73 39 24 40 78 41 72 42 74 43 25 44 77 45
REMARK SMILES IDX 71 46 70 47 26 49 58 50 38 51 57 52 39 53 42 54 56 55 75 56
REMARK SMILES IDX 40 57 41 58 55 60 76 61 43 62 27 63 28 64 36 65 29 66 35 67
REMARK SMILES IDX 37 68 34 69 30 70 31 71 32 72 33 73 59 74 60 75 68 76 61 77
REMARK SMILES IDX 67 78 69 79 66 80 62 81 63 82 64 83 65 84 44 85 45 86 53 87
REMARK SMILES IDX 46 88 52 89 54 90 51 91 47 92 48 93 49 94 50 95
REMARK H PARENT 11 6 6 10 15 29 74 48 42 59
REMARK Flexibility Score: inf
ROOT
ATOM      1  C   UNL A   1      33.105  31.449  27.377  1.00  0.00     0.042 C 
ENDROOT
BRANCH   1   2
ATOM      2  C   UNL A   1      32.250  30.526  26.512  1.00  0.00     0.117 C 
BRANCH   2   3
ATOM      3  N   UNL A   1      31.929  29.288  27.204  1.00  0.00    -0.354 N 
ATOM      4  C   UNL A   1      31.935  27.981  26.839  1.00  0.00     0.250 C 
ATOM      5  O   UNL A   1      31.415  27.202  27.657  1.00  0.00    -0.272 OA
ATOM      6  H   UNL A   1      31.649  29.427  28.138  1.00  0.00     0.163 HD
BRANCH   4   7
ATOM      7  C   UNL A   1      32.455  27.415  25.446  1.00  0.00     0.139 C 
ATOM      8  C   UNL A   1      33.783  27.965  24.881  1.00  0.00     0.051 C 
BRANCH   7   9
ATOM      9  N   UNL A   1      32.657  25.934  25.643  1.00  0.00    -0.368 N 
ATOM     10  H   UNL A   1      31.983  25.462  26.185  1.00  0.00     0.161 HD
BRANCH   9  11
ATOM     11  C   UNL A   1      33.706  25.165  25.132  1.00  0.00     0.035 A 
ATOM     12  C   UNL A   1      36.732  22.595  23.370  1.00  0.00     0.044 C 
ATOM     13  C   UNL A   1      35.679  23.481  23.962  1.00  0.00    -0.051 A 
ATOM     14  C   UNL A   1      35.821  23.955  25.267  1.00  0.00     0.005 A 
ATOM     15  C   UNL A   1      34.544  23.852  23.239  1.00  0.00     0.005 A 
ATOM     16  C   UNL A   1      34.841  24.772  25.845  1.00  0.00     0.026 A 
ATOM     17  C   UNL A   1      33.577  24.682  23.820  1.00  0.00     0.026 A 
ENDBRANCH   9  11
ENDBRANCH   7   9
BRANCH   7  18
ATOM     18  C   UNL A   1      31.292  27.628  24.418  1.00  0.00    -0.008 A 
ATOM     19  C   UNL A   1      31.339  28.671  23.469  1.00  0.00     0.046 A 
ATOM     20  C   UNL A   1      30.088  26.894  24.469  1.00  0.00     0.046 A 
ATOM     21  C   UNL A   1      30.239  28.988  22.669  1.00  0.00     0.126 A 
ATOM     22  C   UNL A   1      29.009  27.208  23.636  1.00  0.00     0.126 A 
ATOM     23  F   UNL A   1      30.317  30.033  21.834  1.00  0.00    -0.207 F 
ATOM     24  C   UNL A   1      29.066  28.265  22.745  1.00  0.00     0.078 A 
ATOM     25  F   UNL A   1      27.885  26.484  23.719  1.00  0.00    -0.207 F 
ENDBRANCH   7  18
ENDBRANCH   4   7
ENDBRANCH   2   3
ENDBRANCH   1   2
BRANCH   1  26
ATOM     26  C   UNL A   1      34.314  30.750  27.982  1.00  0.00     0.118 C 
BRANCH  26  27
ATOM     27  N   UNL A   1      34.968  31.500  29.053  1.00  0.00    -0.352 N 
ATOM     28  C   UNL A   1      36.098  31.143  29.775  1.00  0.00     0.251 C 
ATOM     29  H   UNL A   1      34.556  32.362  29.292  1.00  0.00     0.163 HD
ATOM     30  O   UNL A   1      36.555  31.845  30.659  1.00  0.00    -0.269 OA
BRANCH  28  31
ATOM     31  C   UNL A   1      36.818  29.925  29.340  1.00  0.00     0.039 A 
ATOM     32  C   UNL A   1      37.199  29.028  30.341  1.00  0.00     0.014 A 
ATOM     33  C   UNL A   1      37.386  29.873  28.070  1.00  0.00     0.014 A 
ATOM     34  C   UNL A   1      38.333  28.248  30.147  1.00  0.00     0.010 A 
ATOM     35  C   UNL A   1      38.565  29.168  27.909  1.00  0.00     0.010 A 
ATOM     36  C   UNL A   1      39.076  28.417  28.974  1.00  0.00    -0.014 A 
BRANCH  36  37
ATOM     37  C   UNL A   1      40.462  27.973  28.874  1.00  0.00     0.031 A 
ATOM     38  C   UNL A   1      40.787  26.626  28.372  1.00  0.00     0.074 A 
ATOM     39  C   UNL A   1      41.470  28.768  29.301  1.00  0.00     0.049 A 
ATOM     40  N   UNL A   1      41.748  25.900  28.837  1.00  0.00    -0.248 NA
ATOM     41  C   UNL A   1      40.017  25.970  27.323  1.00  0.00     0.031 C 
ATOM     42  C   UNL A   1      42.903  28.531  29.150  1.00  0.00     0.029 A 
ATOM     43  N   UNL A   1      41.386  29.847  30.176  1.00  0.00    -0.354 N 
ATOM     44  C   UNL A   1      41.900  24.829  27.992  1.00  0.00     0.074 A 
ATOM     45  C   UNL A   1      40.755  24.877  27.109  1.00  0.00     0.031 C 
ATOM     46  C   UNL A   1      43.559  29.246  30.078  1.00  0.00     0.029 A 
ATOM     47  C   UNL A   1      42.569  29.882  30.929  1.00  0.00     0.049 A 
ATOM     48  H   UNL A   1      40.631  30.475  30.253  1.00  0.00     0.167 HD
ATOM     49  C   UNL A   1      43.043  24.089  28.019  1.00  0.00     0.034 A 
ATOM     50  C   UNL A   1      42.546  29.822  32.291  1.00  0.00     0.034 A 
ATOM     51  C   UNL A   1      44.008  24.605  28.984  1.00  0.00     0.049 A 
ATOM     52  C   UNL A   1      43.256  28.612  32.858  1.00  0.00     0.074 A 
ATOM     53  C   UNL A   1      45.130  25.407  28.844  1.00  0.00     0.029 A 
ATOM     54  N   UNL A   1      43.735  24.546  30.346  1.00  0.00    -0.354 N 
ATOM     55  N   UNL A   1      43.622  27.575  32.156  1.00  0.00    -0.248 NA
ATOM     56  C   UNL A   1      43.579  28.467  34.273  1.00  0.00     0.031 C 
ATOM     57  C   UNL A   1      45.510  25.861  30.131  1.00  0.00     0.029 A 
ATOM     58  C   UNL A   1      44.637  25.317  31.057  1.00  0.00     0.049 A 
ATOM     59  H   UNL A   1      43.001  24.028  30.748  1.00  0.00     0.167 HD
ATOM     60  C   UNL A   1      44.170  26.625  32.985  1.00  0.00     0.074 A 
ATOM     61  C   UNL A   1      44.152  27.251  34.295  1.00  0.00     0.031 C 
ATOM     62  C   UNL A   1      44.569  25.402  32.511  1.00  0.00     0.034 A 
BRANCH  49  63
ATOM     63  C   UNL A   1      43.396  23.103  26.932  1.00  0.00     0.023 A 
ATOM     64  C   UNL A   1      42.900  21.786  26.996  1.00  0.00     0.031 A 
ATOM     65  C   UNL A   1      44.232  23.390  25.838  1.00  0.00     0.131 A 
ATOM     66  C   UNL A   1      43.323  20.801  26.085  1.00  0.00     0.055 A 
ATOM     67  C   UNL A   1      44.702  22.398  24.966  1.00  0.00     0.041 A 
ATOM     68  F   UNL A   1      44.606  24.648  25.558  1.00  0.00    -0.206 F 
ATOM     69  C   UNL A   1      44.260  21.090  25.097  1.00  0.00     0.022 A 
BRANCH  66  70
ATOM     70  S   UNL A   1      42.623  19.132  26.210  1.00  0.00     0.124 S 
ATOM     71  O   UNL A   1      43.726  18.296  25.751  1.00  0.00    -0.237 OA
ATOM     72  O   UNL A   1      42.291  19.043  27.628  1.00  0.00    -0.237 OA
ATOM     73  O   UNL A   1      41.471  19.181  25.309  1.00  0.00    -0.744 OA
ENDBRANCH  66  70
ENDBRANCH  49  63
BRANCH  50  74
ATOM     74  C   UNL A   1      41.358  30.486  32.895  1.00  0.00     0.023 A 
ATOM     75  C   UNL A   1      41.345  31.898  32.948  1.00  0.00     0.031 A 
ATOM     76  C   UNL A   1      40.143  29.811  33.067  1.00  0.00     0.131 A 
ATOM     77  C   UNL A   1      40.130  32.593  33.041  1.00  0.00     0.055 A 
ATOM     78  C   UNL A   1      38.936  30.509  33.189  1.00  0.00     0.041 A 
ATOM     79  F   UNL A   1      40.089  28.473  32.995  1.00  0.00    -0.206 F 
ATOM     80  C   UNL A   1      38.920  31.903  33.136  1.00  0.00     0.022 A 
BRANCH  77  81
ATOM     81  S   UNL A   1      40.104  34.397  32.825  1.00  0.00     0.124 S 
ATOM     82  O   UNL A   1      39.865  34.869  34.182  1.00  0.00    -0.237 OA
ATOM     83  O   UNL A   1      41.425  34.689  32.274  1.00  0.00    -0.237 OA
ATOM     84  O   UNL A   1      39.007  34.602  31.879  1.00  0.00    -0.744 OA
ENDBRANCH  77  81
ENDBRANCH  50  74
BRANCH  62  85
ATOM     85  C   UNL A   1      45.014  24.202  33.336  1.00  0.00     0.023 A 
ATOM     86  C   UNL A   1      46.297  24.059  33.883  1.00  0.00     0.031 A 
ATOM     87  C   UNL A   1      44.108  23.154  33.649  1.00  0.00     0.131 A 
ATOM     88  C   UNL A   1      46.662  22.913  34.618  1.00  0.00     0.055 A 
ATOM     89  C   UNL A   1      44.449  22.051  34.440  1.00  0.00     0.041 A 
ATOM     90  F   UNL A   1      42.842  23.154  33.209  1.00  0.00    -0.206 F 
ATOM     91  C   UNL A   1      45.740  21.915  34.918  1.00  0.00     0.022 A 
BRANCH  88  92
ATOM     92  S   UNL A   1      48.394  22.730  35.119  1.00  0.00     0.124 S 
ATOM     93  O   UNL A   1      48.657  21.331  34.792  1.00  0.00    -0.237 OA
ATOM     94  O   UNL A   1      49.068  23.713  34.278  1.00  0.00    -0.237 OA
ATOM     95  O   UNL A   1      48.376  23.040  36.547  1.00  0.00    -0.744 OA
ENDBRANCH  88  92
ENDBRANCH  62  85
ENDBRANCH  36  37
ENDBRANCH  28  31
ENDBRANCH  26  27
ENDBRANCH   1  26
TORSDOF 16
ENDMDL
MODEL 3
REMARK VINA RESULT:     -13.1      1.477      3.224
REMARK SMILES Cc1ccc(N[C@](C)(C(=O)NCCCNC(=O)c2ccc(-c3c4nc(c(-c5cc(S(=O)(=O)[O-])ccc5F)c5ccc([nH]5)c(-c5cc(S(=O)(=O)[O-])ccc5F)c5nc(c(-c6cc(S(=O)(=O)[O-])ccc6F)c6ccc3[nH]6)C=C5)C=C4)cc2)c2cc(F)cc(F)c2)cc1
REMARK SMILES IDX 13 1 12 2 11 3 9 4 10 5 7 7 8 8 6 9 5 11 1 12 2 13 3 14
REMARK SMILES IDX 90 15 4 16 89 17 81 18 82 19 88 20 83 21 86 22 84 23 85 24
REMARK SMILES IDX 87 25 14 26 15 27 16 28 17 30 18 31 19 32 80 33 20 34 79 35
REMARK SMILES IDX 21 36 22 37 23 38 73 39 24 40 78 41 72 42 74 43 25 44 77 45
REMARK SMILES IDX 71 46 70 47 26 49 58 50 38 51 57 52 39 53 42 54 56 55 75 56
REMARK SMILES IDX 40 57 41 58 55 60 76 61 43 62 27 63 28 64 36 65 29 66 35 67
REMARK SMILES IDX 37 68 34 69 30 70 31 71 32 72 33 73 59 74 60 75 68 76 61 77
REMARK SMILES IDX 67 78 69 79 66 80 62 81 63 82 64 83 65 84 44 85 45 86 53 87
REMARK SMILES IDX 46 88 52 89 54 90 51 91 47 92 48 93 49 94 50 95
REMARK H PARENT 11 6 6 10 15 29 74 48 42 59
REMARK Flexibility Score: inf
ROOT
ATOM      1  C   UNL A   1      38.515  22.537  25.632  1.00  0.00     0.042 C 
ENDROOT
BRANCH   1   2
ATOM      2  C   UNL A   1      37.259  23.405  25.599  1.00  0.00     0.117 C 
BRANCH   2   3
ATOM      3  N   UNL A   1      36.257  22.932  26.541  1.00  0.00    -0.354 N 
ATOM      4  C   UNL A   1      34.905  22.821  26.494  1.00  0.00     0.250 C 
ATOM      5  O   UNL A   1      34.361  22.540  27.577  1.00  0.00    -0.272 OA
ATOM      6  H   UNL A   1      36.640  22.626  27.394  1.00  0.00     0.163 HD
BRANCH   4   7
ATOM      7  C   UNL A   1      33.999  23.111  25.219  1.00  0.00     0.139 C 
ATOM      8  C   UNL A   1      34.667  23.093  23.826  1.00  0.00     0.051 C 
BRANCH   7   9
ATOM      9  N   UNL A   1      32.944  22.034  25.199  1.00  0.00    -0.368 N 
ATOM     10  H   UNL A   1      32.067  22.264  25.583  1.00  0.00     0.161 HD
BRANCH   9  11
ATOM     11  C   UNL A   1      33.088  20.741  24.688  1.00  0.00     0.035 A 
ATOM     12  C   UNL A   1      33.878  16.768  23.121  1.00  0.00     0.044 C 
ATOM     13  C   UNL A   1      33.620  18.136  23.673  1.00  0.00    -0.051 A 
ATOM     14  C   UNL A   1      32.535  18.882  23.207  1.00  0.00     0.005 A 
ATOM     15  C   UNL A   1      34.442  18.697  24.651  1.00  0.00     0.005 A 
ATOM     16  C   UNL A   1      32.285  20.170  23.698  1.00  0.00     0.026 A 
ATOM     17  C   UNL A   1      34.174  19.980  25.148  1.00  0.00     0.026 A 
ENDBRANCH   9  11
ENDBRANCH   7   9
BRANCH   7  18
ATOM     18  C   UNL A   1      33.300  24.490  25.474  1.00  0.00    -0.008 A 
ATOM     19  C   UNL A   1      34.055  25.670  25.642  1.00  0.00     0.046 A 
ATOM     20  C   UNL A   1      31.911  24.610  25.688  1.00  0.00     0.046 A 
ATOM     21  C   UNL A   1      33.465  26.869  26.048  1.00  0.00     0.126 A 
ATOM     22  C   UNL A   1      31.336  25.828  26.065  1.00  0.00     0.126 A 
ATOM     23  F   UNL A   1      34.240  27.942  26.259  1.00  0.00    -0.207 F 
ATOM     24  C   UNL A   1      32.105  26.960  26.266  1.00  0.00     0.078 A 
ATOM     25  F   UNL A   1      30.012  25.896  26.258  1.00  0.00    -0.207 F 
ENDBRANCH   7  18
ENDBRANCH   4   7
ENDBRANCH   2   3
ENDBRANCH   1   2
BRANCH   1  26
ATOM     26  C   UNL A   1      39.389  22.797  26.851  1.00  0.00     0.118 C 
BRANCH  26  27
ATOM     27  N   UNL A   1      40.775  23.141  26.533  1.00  0.00    -0.352 N 
ATOM     28  C   UNL A   1      41.333  24.407  26.423  1.00  0.00     0.251 C 
ATOM     29  H   UNL A   1      41.384  22.384  26.379  1.00  0.00     0.163 HD
ATOM     30  O   UNL A   1      42.506  24.580  26.143  1.00  0.00    -0.269 OA
BRANCH  28  31
ATOM     31  C   UNL A   1      40.474  25.556  26.790  1.00  0.00     0.039 A 
ATOM     32  C   UNL A   1      40.792  26.788  26.213  1.00  0.00     0.014 A 
ATOM     33  C   UNL A   1      39.649  25.473  27.909  1.00  0.00     0.014 A 
ATOM     34  C   UNL A   1      40.493  27.952  26.911  1.00  0.00     0.010 A 
ATOM     35  C   UNL A   1      39.433  26.622  28.648  1.00  0.00     0.010 A 
ATOM     36  C   UNL A   1      39.921  27.849  28.184  1.00  0.00    -0.014 A 
BRANCH  36  37
ATOM     37  C   UNL A   1      39.964  28.954  29.136  1.00  0.00     0.031 A 
ATOM     38  C   UNL A   1      38.886  29.958  29.173  1.00  0.00     0.074 A 
ATOM     39  C   UNL A   1      41.027  29.111  29.957  1.00  0.00     0.049 A 
ATOM     40  N   UNL A   1      39.084  31.214  29.395  1.00  0.00    -0.248 NA
ATOM     41  C   UNL A   1      37.491  29.624  28.919  1.00  0.00     0.031 C 
ATOM     42  C   UNL A   1      41.165  30.075  31.046  1.00  0.00     0.029 A 
ATOM     43  N   UNL A   1      42.303  28.573  29.805  1.00  0.00    -0.354 N 
ATOM     44  C   UNL A   1      37.855  31.796  29.585  1.00  0.00     0.074 A 
ATOM     45  C   UNL A   1      36.893  30.784  29.206  1.00  0.00     0.031 C 
ATOM     46  C   UNL A   1      42.471  30.256  31.300  1.00  0.00     0.029 A 
ATOM     47  C   UNL A   1      43.223  29.503  30.313  1.00  0.00     0.049 A 
ATOM     48  H   UNL A   1      42.520  27.697  29.413  1.00  0.00     0.167 HD
ATOM     49  C   UNL A   1      37.758  33.019  30.177  1.00  0.00     0.034 A 
ATOM     50  C   UNL A   1      44.228  30.002  29.538  1.00  0.00     0.034 A 
ATOM     51  C   UNL A   1      39.061  33.541  30.575  1.00  0.00     0.049 A 
ATOM     52  C   UNL A   1      44.155  31.500  29.341  1.00  0.00     0.074 A 
ATOM     53  C   UNL A   1      39.724  33.565  31.792  1.00  0.00     0.029 A 
ATOM     54  N   UNL A   1      39.998  33.893  29.610  1.00  0.00    -0.354 N 
ATOM     55  N   UNL A   1      43.114  32.233  29.629  1.00  0.00    -0.248 NA
ATOM     56  C   UNL A   1      45.244  32.285  28.771  1.00  0.00     0.031 C 
ATOM     57  C   UNL A   1      41.079  33.899  31.549  1.00  0.00     0.029 A 
ATOM     58  C   UNL A   1      41.237  34.104  30.189  1.00  0.00     0.049 A 
ATOM     59  H   UNL A   1      39.807  33.979  28.649  1.00  0.00     0.167 HD
ATOM     60  C   UNL A   1      43.348  33.537  29.259  1.00  0.00     0.074 A 
ATOM     61  C   UNL A   1      44.713  33.518  28.761  1.00  0.00     0.031 C 
ATOM     62  C   UNL A   1      42.384  34.502  29.382  1.00  0.00     0.034 A 
BRANCH  49  63
ATOM     63  C   UNL A   1      36.448  33.573  30.681  1.00  0.00     0.023 A 
ATOM     64  C   UNL A   1      35.554  34.184  29.779  1.00  0.00     0.031 A 
ATOM     65  C   UNL A   1      36.043  33.558  32.028  1.00  0.00     0.131 A 
ATOM     66  C   UNL A   1      34.395  34.840  30.229  1.00  0.00     0.055 A 
ATOM     67  C   UNL A   1      34.921  34.263  32.487  1.00  0.00     0.041 A 
ATOM     68  F   UNL A   1      36.706  32.840  32.947  1.00  0.00    -0.206 F 
ATOM     69  C   UNL A   1      34.098  34.924  31.587  1.00  0.00     0.022 A 
BRANCH  66  70
ATOM     70  S   UNL A   1      33.276  35.581  29.009  1.00  0.00     0.124 S 
ATOM     71  O   UNL A   1      34.195  36.326  28.155  1.00  0.00    -0.237 OA
ATOM     72  O   UNL A   1      32.650  34.406  28.413  1.00  0.00    -0.237 OA
ATOM     73  O   UNL A   1      32.386  36.408  29.824  1.00  0.00    -0.744 OA
ENDBRANCH  66  70
ENDBRANCH  49  63
BRANCH  50  74
ATOM     74  C   UNL A   1      44.753  29.027  28.544  1.00  0.00     0.023 A 
ATOM     75  C   UNL A   1      45.605  28.000  29.011  1.00  0.00     0.031 A 
ATOM     76  C   UNL A   1      44.165  28.869  27.282  1.00  0.00     0.131 A 
ATOM     77  C   UNL A   1      45.748  26.811  28.281  1.00  0.00     0.055 A 
ATOM     78  C   UNL A   1      44.334  27.691  26.544  1.00  0.00     0.041 A 
ATOM     79  F   UNL A   1      43.322  29.795  26.801  1.00  0.00    -0.206 F 
ATOM     80  C   UNL A   1      45.094  26.641  27.059  1.00  0.00     0.022 A 
BRANCH  77  81
ATOM     81  S   UNL A   1      46.615  25.397  29.022  1.00  0.00     0.124 S 
ATOM     82  O   UNL A   1      45.942  24.261  28.407  1.00  0.00    -0.237 OA
ATOM     83  O   UNL A   1      48.004  25.605  28.618  1.00  0.00    -0.237 OA
ATOM     84  O   UNL A   1      46.380  25.575  30.455  1.00  0.00    -0.744 OA
ENDBRANCH  77  81
ENDBRANCH  50  74
BRANCH  62  85
ATOM     85  C   UNL A   1      42.442  35.927  28.847  1.00  0.00     0.023 A 
ATOM     86  C   UNL A   1      43.020  37.001  29.538  1.00  0.00     0.031 A 
ATOM     87  C   UNL A   1      41.945  36.244  27.555  1.00  0.00     0.131 A 
ATOM     88  C   UNL A   1      43.023  38.306  29.005  1.00  0.00     0.055 A 
ATOM     89  C   UNL A   1      42.013  37.524  26.995  1.00  0.00     0.041 A 
ATOM     90  F   UNL A   1      41.375  35.320  26.767  1.00  0.00    -0.206 F 
ATOM     91  C   UNL A   1      42.541  38.573  27.727  1.00  0.00     0.022 A 
BRANCH  88  92
ATOM     92  S   UNL A   1      43.618  39.660  30.052  1.00  0.00     0.124 S 
ATOM     93  O   UNL A   1      43.955  38.959  31.289  1.00  0.00    -0.237 OA
ATOM     94  O   UNL A   1      44.751  40.171  29.287  1.00  0.00    -0.237 OA
ATOM     95  O   UNL A   1      42.470  40.560  30.140  1.00  0.00    -0.744 OA
ENDBRANCH  88  92
ENDBRANCH  62  85
ENDBRANCH  36  37
ENDBRANCH  28  31
ENDBRANCH  26  27
ENDBRANCH   1  26
TORSDOF 16
ENDMDL
