MODEL 1
REMARK VINA RESULT:     -12.7      0.000      0.000
REMARK SMILES CCc1ccc(C[N@H+]2CC[C@@H](C(=O)NCCCNC(=O)c3ccc(-c4c5nc(c(-c6cc(S(=O)(=O)[O-])ccc6F)c6ccc([nH]6)c(-c6cc(S(=O)(=O)[O-])ccc6F)c6nc(c(-c7cc(S(=O)(=O)[O-])ccc7F)c7ccc4[nH]7)C=C6)C=C5)cc3)[C@@H]2C)cc1
REMARK SMILES IDX 16 1 15 2 14 3 12 4 13 5 11 7 8 8 9 9 84 10 10 12 85 13 7 14
REMARK SMILES IDX 6 15 3 16 4 17 87 18 5 19 86 20 2 21 1 22 17 23 18 24 19 25
REMARK SMILES IDX 20 27 21 28 22 29 83 30 23 31 82 32 24 33 25 34 26 35 76 36
REMARK SMILES IDX 27 37 81 38 75 39 77 40 28 41 80 42 74 43 73 44 29 46 61 47
REMARK SMILES IDX 41 48 60 49 42 50 45 51 59 52 78 53 43 54 44 55 58 57 79 58
REMARK SMILES IDX 46 59 30 60 31 61 39 62 32 63 38 64 40 65 37 66 33 67 34 68
REMARK SMILES IDX 35 69 36 70 62 71 63 72 71 73 64 74 70 75 72 76 69 77 65 78
REMARK SMILES IDX 66 79 67 80 68 81 47 82 48 83 56 84 49 85 55 86 57 87 54 88
REMARK SMILES IDX 50 89 51 90 52 91 53 92
REMARK H PARENT 14 6 8 11 18 26 77 45 45 56
REMARK Flexibility Score: inf
ROOT
ATOM      1  C   UNL A   1      32.660  28.293  26.605  1.00  0.00     0.042 C 
ENDROOT
BRANCH   1   2
ATOM      2  C   UNL A   1      32.583  26.147  26.191  1.00  0.00     0.117 C 
BRANCH   2   3
ATOM      3  N   UNL A   1      31.648  24.964  26.735  1.00  0.00    -0.356 N 
ATOM      4  C   UNL A   1      31.810  23.636  26.948  1.00  0.00     0.229 C 
ATOM      5  O   UNL A   1      30.861  23.054  27.492  1.00  0.00    -0.275 OA
ATOM      6  H   UNL A   1      30.743  25.275  26.967  1.00  0.00     0.163 HD
BRANCH   4   7
ATOM      7  C   UNL A   1      33.042  22.825  26.556  1.00  0.00     0.142 C 
ATOM      8  N   UNL A   1      33.668  22.226  24.303  1.00  0.00    -0.328 N 
ATOM      9  C   UNL A   1      34.672  23.170  24.788  1.00  0.00     0.263 C 
ATOM     10  C   UNL A   1      32.814  21.820  25.428  1.00  0.00     0.193 C 
ATOM     11  H   UNL A   1      34.159  21.404  23.953  1.00  0.00     0.348 HD
ATOM     12  C   UNL A   1      34.276  23.627  26.186  1.00  0.00     0.081 C 
ATOM     13  C   UNL A   1      33.229  20.404  25.842  1.00  0.00     0.076 C 
BRANCH   8  14
ATOM     14  C   UNL A   1      32.933  22.651  23.107  1.00  0.00     0.299 C 
BRANCH  14  15
ATOM     15  C   UNL A   1      32.398  24.055  23.174  1.00  0.00     0.006 A 
ATOM     16  C   UNL A   1      30.967  27.355  22.812  1.00  0.00    -0.048 A 
ATOM     17  C   UNL A   1      32.714  27.084  22.438  1.00  0.00     0.004 A 
ATOM     18  C   UNL A   1      29.950  25.985  23.416  1.00  0.00     0.004 A 
ATOM     19  C   UNL A   1      33.435  25.440  22.630  1.00  0.00     0.010 A 
ATOM     20  C   UNL A   1      30.661  24.336  23.590  1.00  0.00     0.010 A 
BRANCH  16  21
ATOM     21  C   UNL A   1      30.360  28.701  22.510  1.00  0.00     0.032 C 
ATOM     22  C   UNL A   1      30.245  29.572  23.749  1.00  0.00     0.009 C 
ENDBRANCH  16  21
ENDBRANCH  14  15
ENDBRANCH   8  14
ENDBRANCH   4   7
ENDBRANCH   2   3
ENDBRANCH   1   2
BRANCH   1  23
ATOM     23  C   UNL A   1      33.551  29.620  26.047  1.00  0.00     0.118 C 
BRANCH  23  24
ATOM     24  N   UNL A   1      33.240  30.901  26.674  1.00  0.00    -0.352 N 
ATOM     25  C   UNL A   1      34.009  31.637  27.535  1.00  0.00     0.251 C 
ATOM     26  H   UNL A   1      32.364  31.286  26.448  1.00  0.00     0.163 HD
ATOM     27  O   UNL A   1      33.620  32.729  27.935  1.00  0.00    -0.269 OA
BRANCH  25  28
ATOM     28  C   UNL A   1      35.244  31.034  28.063  1.00  0.00     0.039 A 
ATOM     29  C   UNL A   1      36.419  31.778  27.940  1.00  0.00     0.014 A 
ATOM     30  C   UNL A   1      35.230  29.819  28.753  1.00  0.00     0.014 A 
ATOM     31  C   UNL A   1      37.583  31.321  28.548  1.00  0.00     0.010 A 
ATOM     32  C   UNL A   1      36.374  29.404  29.422  1.00  0.00     0.010 A 
ATOM     33  C   UNL A   1      37.560  30.145  29.308  1.00  0.00    -0.014 A 
BRANCH  33  34
ATOM     34  C   UNL A   1      38.806  29.626  29.915  1.00  0.00     0.031 A 
ATOM     35  C   UNL A   1      39.218  30.151  31.259  1.00  0.00     0.074 A 
ATOM     36  C   UNL A   1      39.544  28.717  29.251  1.00  0.00     0.049 A 
ATOM     37  N   UNL A   1      40.290  29.892  31.957  1.00  0.00    -0.248 NA
ATOM     38  C   UNL A   1      38.311  31.125  31.887  1.00  0.00     0.031 C 
ATOM     39  C   UNL A   1      39.218  28.167  27.932  1.00  0.00     0.029 A 
ATOM     40  N   UNL A   1      40.715  28.093  29.589  1.00  0.00    -0.354 N 
ATOM     41  C   UNL A   1      40.195  30.684  33.096  1.00  0.00     0.074 A 
ATOM     42  C   UNL A   1      38.997  31.480  32.962  1.00  0.00     0.031 C 
ATOM     43  C   UNL A   1      40.156  27.270  27.587  1.00  0.00     0.029 A 
ATOM     44  C   UNL A   1      41.170  27.214  28.633  1.00  0.00     0.049 A 
ATOM     45  H   UNL A   1      41.188  28.259  30.437  1.00  0.00     0.167 HD
ATOM     46  C   UNL A   1      41.026  30.721  34.165  1.00  0.00     0.034 A 
ATOM     47  C   UNL A   1      42.288  26.460  28.611  1.00  0.00     0.034 A 
ATOM     48  C   UNL A   1      42.204  29.897  34.264  1.00  0.00     0.049 A 
ATOM     49  C   UNL A   1      43.209  26.532  29.803  1.00  0.00     0.074 A 
ATOM     50  C   UNL A   1      43.115  29.810  35.301  1.00  0.00     0.029 A 
ATOM     51  N   UNL A   1      42.634  29.014  33.278  1.00  0.00    -0.354 N 
ATOM     52  N   UNL A   1      43.095  27.262  30.891  1.00  0.00    -0.248 NA
ATOM     53  C   UNL A   1      44.401  25.675  29.776  1.00  0.00     0.031 C 
ATOM     54  C   UNL A   1      44.128  28.926  34.915  1.00  0.00     0.029 A 
ATOM     55  C   UNL A   1      43.810  28.399  33.673  1.00  0.00     0.049 A 
ATOM     56  H   UNL A   1      42.171  28.850  32.426  1.00  0.00     0.167 HD
ATOM     57  C   UNL A   1      44.183  26.928  31.691  1.00  0.00     0.074 A 
ATOM     58  C   UNL A   1      44.935  25.924  30.964  1.00  0.00     0.031 C 
ATOM     59  C   UNL A   1      44.528  27.399  32.917  1.00  0.00     0.034 A 
BRANCH  46  60
ATOM     60  C   UNL A   1      40.700  31.701  35.267  1.00  0.00     0.023 A 
ATOM     61  C   UNL A   1      39.626  31.494  36.151  1.00  0.00     0.031 A 
ATOM     62  C   UNL A   1      41.437  32.891  35.400  1.00  0.00     0.131 A 
ATOM     63  C   UNL A   1      39.263  32.496  37.064  1.00  0.00     0.055 A 
ATOM     64  C   UNL A   1      41.126  33.846  36.372  1.00  0.00     0.041 A 
ATOM     65  F   UNL A   1      42.458  33.160  34.571  1.00  0.00    -0.206 F 
ATOM     66  C   UNL A   1      40.023  33.659  37.199  1.00  0.00     0.022 A 
BRANCH  63  67
ATOM     67  S   UNL A   1      37.693  32.328  37.958  1.00  0.00     0.124 S 
ATOM     68  O   UNL A   1      37.455  30.890  37.866  1.00  0.00    -0.237 OA
ATOM     69  O   UNL A   1      38.029  32.837  39.283  1.00  0.00    -0.237 OA
ATOM     70  O   UNL A   1      36.769  33.157  37.187  1.00  0.00    -0.744 OA
ENDBRANCH  63  67
ENDBRANCH  46  60
BRANCH  47  71
ATOM     71  C   UNL A   1      42.597  25.594  27.437  1.00  0.00     0.023 A 
ATOM     72  C   UNL A   1      42.159  24.260  27.379  1.00  0.00     0.031 A 
ATOM     73  C   UNL A   1      43.358  26.080  26.357  1.00  0.00     0.131 A 
ATOM     74  C   UNL A   1      42.517  23.450  26.289  1.00  0.00     0.055 A 
ATOM     75  C   UNL A   1      43.668  25.285  25.250  1.00  0.00     0.041 A 
ATOM     76  F   UNL A   1      43.801  27.348  26.355  1.00  0.00    -0.206 F 
ATOM     77  C   UNL A   1      43.256  23.957  25.218  1.00  0.00     0.022 A 
BRANCH  74  78
ATOM     78  S   UNL A   1      42.072  21.692  26.326  1.00  0.00     0.124 S 
ATOM     79  O   UNL A   1      42.356  21.343  27.714  1.00  0.00    -0.237 OA
ATOM     80  O   UNL A   1      40.663  21.729  25.949  1.00  0.00    -0.237 OA
ATOM     81  O   UNL A   1      42.964  21.092  25.336  1.00  0.00    -0.744 OA
ENDBRANCH  74  78
ENDBRANCH  47  71
BRANCH  59  82
ATOM     82  C   UNL A   1      45.745  26.790  33.564  1.00  0.00     0.023 A 
ATOM     83  C   UNL A   1      45.659  25.635  34.357  1.00  0.00     0.031 A 
ATOM     84  C   UNL A   1      47.012  27.361  33.350  1.00  0.00     0.131 A 
ATOM     85  C   UNL A   1      46.818  25.108  34.943  1.00  0.00     0.055 A 
ATOM     86  C   UNL A   1      48.168  26.799  33.886  1.00  0.00     0.041 A 
ATOM     87  F   UNL A   1      47.144  28.466  32.599  1.00  0.00    -0.206 F 
ATOM     88  C   UNL A   1      48.074  25.671  34.696  1.00  0.00     0.022 A 
BRANCH  85  89
ATOM     89  S   UNL A   1      46.657  23.710  36.086  1.00  0.00     0.124 S 
ATOM     90  O   UNL A   1      48.033  23.231  36.174  1.00  0.00    -0.237 OA
ATOM     91  O   UNL A   1      46.124  24.346  37.287  1.00  0.00    -0.237 OA
ATOM     92  O   UNL A   1      45.731  22.811  35.399  1.00  0.00    -0.744 OA
ENDBRANCH  85  89
ENDBRANCH  59  82
ENDBRANCH  33  34
ENDBRANCH  25  28
ENDBRANCH  23  24
ENDBRANCH   1  23
TORSDOF 16
ENDMDL
MODEL 2
REMARK VINA RESULT:     -12.6      2.764      8.808
REMARK SMILES CCc1ccc(C[N@H+]2CC[C@@H](C(=O)NCCCNC(=O)c3ccc(-c4c5nc(c(-c6cc(S(=O)(=O)[O-])ccc6F)c6ccc([nH]6)c(-c6cc(S(=O)(=O)[O-])ccc6F)c6nc(c(-c7cc(S(=O)(=O)[O-])ccc7F)c7ccc4[nH]7)C=C6)C=C5)cc3)[C@@H]2C)cc1
REMARK SMILES IDX 16 1 15 2 14 3 12 4 13 5 11 7 8 8 9 9 84 10 10 12 85 13 7 14
REMARK SMILES IDX 6 15 3 16 4 17 87 18 5 19 86 20 2 21 1 22 17 23 18 24 19 25
REMARK SMILES IDX 20 27 21 28 22 29 83 30 23 31 82 32 24 33 25 34 26 35 76 36
REMARK SMILES IDX 27 37 81 38 75 39 77 40 28 41 80 42 74 43 73 44 29 46 61 47
REMARK SMILES IDX 41 48 60 49 42 50 45 51 59 52 78 53 43 54 44 55 58 57 79 58
REMARK SMILES IDX 46 59 30 60 31 61 39 62 32 63 38 64 40 65 37 66 33 67 34 68
REMARK SMILES IDX 35 69 36 70 62 71 63 72 71 73 64 74 70 75 72 76 69 77 65 78
REMARK SMILES IDX 66 79 67 80 68 81 47 82 48 83 56 84 49 85 55 86 57 87 54 88
REMARK SMILES IDX 50 89 51 90 52 91 53 92
REMARK H PARENT 14 6 8 11 18 26 77 45 45 56
REMARK Flexibility Score: inf
ROOT
ATOM      1  C   UNL A   1      31.426  31.906  26.789  1.00  0.00     0.042 C 
ENDROOT
BRANCH   1   2
ATOM      2  C   UNL A   1      30.260  31.558  24.972  1.00  0.00     0.117 C 
BRANCH   2   3
ATOM      3  N   UNL A   1      30.237  30.365  23.902  1.00  0.00    -0.356 N 
ATOM      4  C   UNL A   1      30.812  29.140  23.821  1.00  0.00     0.229 C 
ATOM      5  O   UNL A   1      30.464  28.441  22.858  1.00  0.00    -0.275 OA
ATOM      6  H   UNL A   1      29.676  30.571  23.119  1.00  0.00     0.163 HD
BRANCH   4   7
ATOM      7  C   UNL A   1      31.844  28.586  24.797  1.00  0.00     0.142 C 
ATOM      8  N   UNL A   1      31.891  26.331  25.657  1.00  0.00    -0.328 N 
ATOM      9  C   UNL A   1      33.061  26.483  24.795  1.00  0.00     0.263 C 
ATOM     10  C   UNL A   1      31.278  27.650  25.864  1.00  0.00     0.193 C 
ATOM     11  H   UNL A   1      32.213  25.976  26.558  1.00  0.00     0.348 HD
ATOM     12  C   UNL A   1      33.032  27.875  24.177  1.00  0.00     0.081 C 
ATOM     13  C   UNL A   1      31.642  28.118  27.277  1.00  0.00     0.076 C 
BRANCH   8  14
ATOM     14  C   UNL A   1      30.950  25.280  25.257  1.00  0.00     0.299 C 
BRANCH  14  15
ATOM     15  C   UNL A   1      31.549  23.902  25.194  1.00  0.00     0.006 A 
ATOM     16  C   UNL A   1      33.454  20.844  24.901  1.00  0.00    -0.048 A 
ATOM     17  C   UNL A   1      32.581  21.502  23.464  1.00  0.00     0.004 A 
ATOM     18  C   UNL A   1      33.332  21.688  26.498  1.00  0.00     0.004 A 
ATOM     19  C   UNL A   1      31.617  23.023  23.609  1.00  0.00     0.010 A 
ATOM     20  C   UNL A   1      32.388  23.219  26.643  1.00  0.00     0.010 A 
BRANCH  16  21
ATOM     21  C   UNL A   1      34.361  19.653  24.718  1.00  0.00     0.032 C 
ATOM     22  C   UNL A   1      33.594  18.343  24.698  1.00  0.00     0.009 C 
ENDBRANCH  16  21
ENDBRANCH  14  15
ENDBRANCH   8  14
ENDBRANCH   4   7
ENDBRANCH   2   3
ENDBRANCH   1   2
BRANCH   1  23
ATOM     23  C   UNL A   1      32.828  32.758  27.204  1.00  0.00     0.118 C 
BRANCH  23  24
ATOM     24  N   UNL A   1      32.622  34.111  27.713  1.00  0.00    -0.352 N 
ATOM     25  C   UNL A   1      33.382  34.808  28.612  1.00  0.00     0.251 C 
ATOM     26  H   UNL A   1      31.833  34.583  27.363  1.00  0.00     0.163 HD
ATOM     27  O   UNL A   1      33.098  35.967  28.898  1.00  0.00    -0.269 OA
BRANCH  25  28
ATOM     28  C   UNL A   1      34.464  34.099  29.316  1.00  0.00     0.039 A 
ATOM     29  C   UNL A   1      35.774  34.401  28.941  1.00  0.00     0.014 A 
ATOM     30  C   UNL A   1      34.201  33.239  30.385  1.00  0.00     0.014 A 
ATOM     31  C   UNL A   1      36.833  33.870  29.669  1.00  0.00     0.010 A 
ATOM     32  C   UNL A   1      35.257  32.770  31.157  1.00  0.00     0.010 A 
ATOM     33  C   UNL A   1      36.578  33.070  30.791  1.00  0.00    -0.014 A 
BRANCH  33  34
ATOM     34  C   UNL A   1      37.700  32.460  31.539  1.00  0.00     0.031 A 
ATOM     35  C   UNL A   1      38.447  31.324  30.905  1.00  0.00     0.074 A 
ATOM     36  C   UNL A   1      38.014  32.921  32.765  1.00  0.00     0.049 A 
ATOM     37  N   UNL A   1      39.419  30.599  31.388  1.00  0.00    -0.248 NA
ATOM     38  C   UNL A   1      38.018  30.933  29.553  1.00  0.00     0.031 C 
ATOM     39  C   UNL A   1      37.325  34.014  33.457  1.00  0.00     0.029 A 
ATOM     40  N   UNL A   1      38.988  32.534  33.646  1.00  0.00    -0.354 N 
ATOM     41  C   UNL A   1      39.704  29.655  30.408  1.00  0.00     0.074 A 
ATOM     42  C   UNL A   1      38.759  29.858  29.334  1.00  0.00     0.031 C 
ATOM     43  C   UNL A   1      37.917  34.223  34.644  1.00  0.00     0.029 A 
ATOM     44  C   UNL A   1      38.993  33.254  34.818  1.00  0.00     0.049 A 
ATOM     45  H   UNL A   1      39.626  31.807  33.457  1.00  0.00     0.167 HD
ATOM     46  C   UNL A   1      40.685  28.721  30.402  1.00  0.00     0.034 A 
ATOM     47  C   UNL A   1      39.776  33.131  35.908  1.00  0.00     0.034 A 
ATOM     48  C   UNL A   1      41.618  28.564  31.488  1.00  0.00     0.049 A 
ATOM     49  C   UNL A   1      40.849  32.070  35.887  1.00  0.00     0.074 A 
ATOM     50  C   UNL A   1      42.677  27.682  31.600  1.00  0.00     0.029 A 
ATOM     51  N   UNL A   1      41.596  29.313  32.661  1.00  0.00    -0.354 N 
ATOM     52  N   UNL A   1      41.131  31.201  34.942  1.00  0.00    -0.248 NA
ATOM     53  C   UNL A   1      41.716  31.977  37.068  1.00  0.00     0.031 C 
ATOM     54  C   UNL A   1      43.252  27.853  32.863  1.00  0.00     0.029 A 
ATOM     55  C   UNL A   1      42.606  28.896  33.510  1.00  0.00     0.049 A 
ATOM     56  H   UNL A   1      40.956  30.034  32.858  1.00  0.00     0.167 HD
ATOM     57  C   UNL A   1      42.229  30.480  35.401  1.00  0.00     0.074 A 
ATOM     58  C   UNL A   1      42.562  31.023  36.704  1.00  0.00     0.031 C 
ATOM     59  C   UNL A   1      42.907  29.467  34.802  1.00  0.00     0.034 A 
BRANCH  46  60
ATOM     60  C   UNL A   1      40.757  27.796  29.210  1.00  0.00     0.023 A 
ATOM     61  C   UNL A   1      41.707  27.976  28.187  1.00  0.00     0.031 A 
ATOM     62  C   UNL A   1      39.826  26.753  29.063  1.00  0.00     0.131 A 
ATOM     63  C   UNL A   1      41.648  27.189  27.027  1.00  0.00     0.055 A 
ATOM     64  C   UNL A   1      39.829  25.914  27.945  1.00  0.00     0.041 A 
ATOM     65  F   UNL A   1      38.880  26.545  29.990  1.00  0.00    -0.206 F 
ATOM     66  C   UNL A   1      40.732  26.141  26.910  1.00  0.00     0.022 A 
BRANCH  63  67
ATOM     67  S   UNL A   1      42.676  27.658  25.608  1.00  0.00     0.124 S 
ATOM     68  O   UNL A   1      43.953  27.951  26.254  1.00  0.00    -0.237 OA
ATOM     69  O   UNL A   1      42.640  26.456  24.781  1.00  0.00    -0.237 OA
ATOM     70  O   UNL A   1      41.985  28.819  25.052  1.00  0.00    -0.744 OA
ENDBRANCH  63  67
ENDBRANCH  46  60
BRANCH  47  71
ATOM     71  C   UNL A   1      39.575  34.013  37.093  1.00  0.00     0.023 A 
ATOM     72  C   UNL A   1      38.984  33.528  38.272  1.00  0.00     0.031 A 
ATOM     73  C   UNL A   1      39.952  35.369  37.061  1.00  0.00     0.131 A 
ATOM     74  C   UNL A   1      38.752  34.397  39.351  1.00  0.00     0.055 A 
ATOM     75  C   UNL A   1      39.765  36.217  38.155  1.00  0.00     0.041 A 
ATOM     76  F   UNL A   1      40.524  35.888  35.963  1.00  0.00    -0.206 F 
ATOM     77  C   UNL A   1      39.151  35.735  39.306  1.00  0.00     0.022 A 
BRANCH  74  78
ATOM     78  S   UNL A   1      37.841  33.774  40.791  1.00  0.00     0.124 S 
ATOM     79  O   UNL A   1      37.573  35.004  41.528  1.00  0.00    -0.237 OA
ATOM     80  O   UNL A   1      36.688  33.135  40.166  1.00  0.00    -0.237 OA
ATOM     81  O   UNL A   1      38.790  32.860  41.425  1.00  0.00    -0.744 OA
ENDBRANCH  74  78
ENDBRANCH  47  71
BRANCH  59  82
ATOM     82  C   UNL A   1      44.106  28.923  35.533  1.00  0.00     0.023 A 
ATOM     83  C   UNL A   1      43.994  27.868  36.453  1.00  0.00     0.031 A 
ATOM     84  C   UNL A   1      45.383  29.451  35.275  1.00  0.00     0.131 A 
ATOM     85  C   UNL A   1      45.138  27.399  37.113  1.00  0.00     0.055 A 
ATOM     86  C   UNL A   1      46.524  28.942  35.890  1.00  0.00     0.041 A 
ATOM     87  F   UNL A   1      45.540  30.460  34.403  1.00  0.00    -0.206 F 
ATOM     88  C   UNL A   1      46.405  27.915  36.822  1.00  0.00     0.022 A 
BRANCH  85  89
ATOM     89  S   UNL A   1      44.943  26.144  38.407  1.00  0.00     0.124 S 
ATOM     90  O   UNL A   1      44.615  26.960  39.572  1.00  0.00    -0.237 OA
ATOM     91  O   UNL A   1      43.860  25.318  37.882  1.00  0.00    -0.237 OA
ATOM     92  O   UNL A   1      46.251  25.493  38.453  1.00  0.00    -0.744 OA
ENDBRANCH  85  89
ENDBRANCH  59  82
ENDBRANCH  33  34
ENDBRANCH  25  28
ENDBRANCH  23  24
ENDBRANCH   1  23
TORSDOF 16
ENDMDL
MODEL 3
REMARK VINA RESULT:     -12.6      1.894      3.631
REMARK SMILES CCc1ccc(C[N@H+]2CC[C@@H](C(=O)NCCCNC(=O)c3ccc(-c4c5nc(c(-c6cc(S(=O)(=O)[O-])ccc6F)c6ccc([nH]6)c(-c6cc(S(=O)(=O)[O-])ccc6F)c6nc(c(-c7cc(S(=O)(=O)[O-])ccc7F)c7ccc4[nH]7)C=C6)C=C5)cc3)[C@@H]2C)cc1
REMARK SMILES IDX 16 1 15 2 14 3 12 4 13 5 11 7 8 8 9 9 84 10 10 12 85 13 7 14
REMARK SMILES IDX 6 15 3 16 4 17 87 18 5 19 86 20 2 21 1 22 17 23 18 24 19 25
REMARK SMILES IDX 20 27 21 28 22 29 83 30 23 31 82 32 24 33 25 34 26 35 76 36
REMARK SMILES IDX 27 37 81 38 75 39 77 40 28 41 80 42 74 43 73 44 29 46 61 47
REMARK SMILES IDX 41 48 60 49 42 50 45 51 59 52 78 53 43 54 44 55 58 57 79 58
REMARK SMILES IDX 46 59 30 60 31 61 39 62 32 63 38 64 40 65 37 66 33 67 34 68
REMARK SMILES IDX 35 69 36 70 62 71 63 72 71 73 64 74 70 75 72 76 69 77 65 78
REMARK SMILES IDX 66 79 67 80 68 81 47 82 48 83 56 84 49 85 55 86 57 87 54 88
REMARK SMILES IDX 50 89 51 90 52 91 53 92
REMARK H PARENT 14 6 8 11 18 26 77 45 45 56
REMARK Flexibility Score: inf
ROOT
ATOM      1  C   UNL A   1      31.194  31.765  26.524  1.00  0.00     0.042 C 
ENDROOT
BRANCH   1   2
ATOM      2  C   UNL A   1      30.268  31.116  24.652  1.00  0.00     0.117 C 
BRANCH   2   3
ATOM      3  N   UNL A   1      30.307  29.737  23.837  1.00  0.00    -0.356 N 
ATOM      4  C   UNL A   1      30.937  28.547  23.997  1.00  0.00     0.229 C 
ATOM      5  O   UNL A   1      30.628  27.658  23.191  1.00  0.00    -0.275 OA
ATOM      6  H   UNL A   1      29.744  29.760  23.030  1.00  0.00     0.163 HD
BRANCH   4   7
ATOM      7  C   UNL A   1      31.985  28.242  25.062  1.00  0.00     0.142 C 
ATOM      8  N   UNL A   1      32.175  26.173  26.292  1.00  0.00    -0.328 N 
ATOM      9  C   UNL A   1      33.348  26.264  25.426  1.00  0.00     0.263 C 
ATOM     10  C   UNL A   1      31.465  27.460  26.267  1.00  0.00     0.193 C 
ATOM     11  H   UNL A   1      32.502  26.000  27.242  1.00  0.00     0.348 HD
ATOM     12  C   UNL A   1      33.234  27.526  24.581  1.00  0.00     0.081 C 
ATOM     13  C   UNL A   1      31.766  28.185  27.583  1.00  0.00     0.076 C 
BRANCH   8  14
ATOM     14  C   UNL A   1      31.318  25.004  26.067  1.00  0.00     0.299 C 
BRANCH  14  15
ATOM     15  C   UNL A   1      32.063  23.756  25.677  1.00  0.00     0.006 A 
ATOM     16  C   UNL A   1      33.397  20.491  24.890  1.00  0.00    -0.048 A 
ATOM     17  C   UNL A   1      33.624  21.183  26.543  1.00  0.00     0.004 A 
ATOM     18  C   UNL A   1      32.546  21.455  23.616  1.00  0.00     0.004 A 
ATOM     19  C   UNL A   1      32.971  22.819  26.936  1.00  0.00     0.010 A 
ATOM     20  C   UNL A   1      31.872  23.082  24.010  1.00  0.00     0.010 A 
BRANCH  16  21
ATOM     21  C   UNL A   1      33.829  19.069  24.631  1.00  0.00     0.032 C 
ATOM     22  C   UNL A   1      32.727  18.069  24.935  1.00  0.00     0.009 C 
ENDBRANCH  16  21
ENDBRANCH  14  15
ENDBRANCH   8  14
ENDBRANCH   4   7
ENDBRANCH   2   3
ENDBRANCH   1   2
BRANCH   1  23
ATOM     23  C   UNL A   1      32.672  32.445  26.993  1.00  0.00     0.118 C 
BRANCH  23  24
ATOM     24  N   UNL A   1      32.595  33.758  27.624  1.00  0.00    -0.352 N 
ATOM     25  C   UNL A   1      33.489  34.349  28.476  1.00  0.00     0.251 C 
ATOM     26  H   UNL A   1      31.795  34.290  27.408  1.00  0.00     0.163 HD
ATOM     27  O   UNL A   1      33.299  35.490  28.881  1.00  0.00    -0.269 OA
BRANCH  25  28
ATOM     28  C   UNL A   1      34.607  33.540  28.989  1.00  0.00     0.039 A 
ATOM     29  C   UNL A   1      35.898  34.022  28.763  1.00  0.00     0.014 A 
ATOM     30  C   UNL A   1      34.390  32.396  29.761  1.00  0.00     0.014 A 
ATOM     31  C   UNL A   1      36.980  33.375  29.349  1.00  0.00     0.010 A 
ATOM     32  C   UNL A   1      35.465  31.797  30.407  1.00  0.00     0.010 A 
ATOM     33  C   UNL A   1      36.767  32.274  30.189  1.00  0.00    -0.014 A 
BRANCH  33  34
ATOM     34  C   UNL A   1      37.917  31.551  30.775  1.00  0.00     0.031 A 
ATOM     35  C   UNL A   1      38.314  31.865  32.187  1.00  0.00     0.074 A 
ATOM     36  C   UNL A   1      38.585  30.648  30.033  1.00  0.00     0.049 A 
ATOM     37  N   UNL A   1      39.316  31.406  32.888  1.00  0.00    -0.248 NA
ATOM     38  C   UNL A   1      37.487  32.855  32.895  1.00  0.00     0.031 C 
ATOM     39  C   UNL A   1      38.270  30.296  28.646  1.00  0.00     0.029 A 
ATOM     40  N   UNL A   1      39.664  29.860  30.336  1.00  0.00    -0.354 N 
ATOM     41  C   UNL A   1      39.249  32.065  34.111  1.00  0.00     0.074 A 
ATOM     42  C   UNL A   1      38.152  33.002  34.030  1.00  0.00     0.031 C 
ATOM     43  C   UNL A   1      39.121  29.345  28.229  1.00  0.00     0.029 A 
ATOM     44  C   UNL A   1      40.069  29.053  29.298  1.00  0.00     0.049 A 
ATOM     45  H   UNL A   1      40.108  29.871  31.216  1.00  0.00     0.167 HD
ATOM     46  C   UNL A   1      40.024  31.882  35.207  1.00  0.00     0.034 A 
ATOM     47  C   UNL A   1      41.098  28.185  29.226  1.00  0.00     0.034 A 
ATOM     48  C   UNL A   1      41.099  30.924  35.249  1.00  0.00     0.049 A 
ATOM     49  C   UNL A   1      41.961  28.012  30.452  1.00  0.00     0.074 A 
ATOM     50  C   UNL A   1      41.942  30.615  36.301  1.00  0.00     0.029 A 
ATOM     51  N   UNL A   1      41.481  30.120  34.180  1.00  0.00    -0.354 N 
ATOM     52  N   UNL A   1      41.871  28.619  31.615  1.00  0.00    -0.248 NA
ATOM     53  C   UNL A   1      43.053  27.035  30.366  1.00  0.00     0.031 C 
ATOM     54  C   UNL A   1      42.871  29.673  35.848  1.00  0.00     0.029 A 
ATOM     55  C   UNL A   1      42.562  29.334  34.540  1.00  0.00     0.049 A 
ATOM     56  H   UNL A   1      41.047  30.111  33.297  1.00  0.00     0.167 HD
ATOM     57  C   UNL A   1      42.874  28.072  32.410  1.00  0.00     0.074 A 
ATOM     58  C   UNL A   1      43.550  27.081  31.594  1.00  0.00     0.031 C 
ATOM     59  C   UNL A   1      43.206  28.354  33.696  1.00  0.00     0.034 A 
BRANCH  46  60
ATOM     60  C   UNL A   1      39.750  32.758  36.406  1.00  0.00     0.023 A 
ATOM     61  C   UNL A   1      38.954  32.319  37.479  1.00  0.00     0.031 A 
ATOM     62  C   UNL A   1      40.244  34.074  36.453  1.00  0.00     0.131 A 
ATOM     63  C   UNL A   1      38.601  33.210  38.504  1.00  0.00     0.055 A 
ATOM     64  C   UNL A   1      39.962  34.929  37.522  1.00  0.00     0.041 A 
ATOM     65  F   UNL A   1      40.988  34.561  35.449  1.00  0.00    -0.206 F 
ATOM     66  C   UNL A   1      39.121  34.505  38.546  1.00  0.00     0.022 A 
BRANCH  63  67
ATOM     67  S   UNL A   1      37.325  32.706  39.691  1.00  0.00     0.124 S 
ATOM     68  O   UNL A   1      37.423  33.763  40.695  1.00  0.00    -0.237 OA
ATOM     69  O   UNL A   1      36.115  32.710  38.876  1.00  0.00    -0.237 OA
ATOM     70  O   UNL A   1      37.772  31.388  40.137  1.00  0.00    -0.744 OA
ENDBRANCH  63  67
ENDBRANCH  46  60
BRANCH  47  71
ATOM     71  C   UNL A   1      41.372  27.432  27.968  1.00  0.00     0.023 A 
ATOM     72  C   UNL A   1      41.159  26.046  27.886  1.00  0.00     0.031 A 
ATOM     73  C   UNL A   1      41.872  28.085  26.826  1.00  0.00     0.131 A 
ATOM     74  C   UNL A   1      41.483  25.353  26.708  1.00  0.00     0.055 A 
ATOM     75  C   UNL A   1      42.144  27.400  25.639  1.00  0.00     0.041 A 
ATOM     76  F   UNL A   1      42.091  29.410  26.843  1.00  0.00    -0.206 F 
ATOM     77  C   UNL A   1      41.961  26.023  25.579  1.00  0.00     0.022 A 
BRANCH  74  78
ATOM     78  S   UNL A   1      41.349  23.544  26.695  1.00  0.00     0.124 S 
ATOM     79  O   UNL A   1      39.923  23.353  26.456  1.00  0.00    -0.237 OA
ATOM     80  O   UNL A   1      42.239  23.184  25.596  1.00  0.00    -0.237 OA
ATOM     81  O   UNL A   1      41.817  23.158  28.025  1.00  0.00    -0.744 OA
ENDBRANCH  74  78
ENDBRANCH  47  71
BRANCH  59  82
ATOM     82  C   UNL A   1      44.315  27.540  34.309  1.00  0.00     0.023 A 
ATOM     83  C   UNL A   1      44.076  26.281  34.883  1.00  0.00     0.031 A 
ATOM     84  C   UNL A   1      45.635  28.023  34.283  1.00  0.00     0.131 A 
ATOM     85  C   UNL A   1      45.140  25.562  35.446  1.00  0.00     0.055 A 
ATOM     86  C   UNL A   1      46.697  27.279  34.791  1.00  0.00     0.041 A 
ATOM     87  F   UNL A   1      45.912  29.221  33.744  1.00  0.00    -0.206 F 
ATOM     88  C   UNL A   1      46.451  26.044  35.386  1.00  0.00     0.022 A 
BRANCH  85  89
ATOM     89  S   UNL A   1      44.779  24.014  36.317  1.00  0.00     0.124 S 
ATOM     90  O   UNL A   1      43.698  23.458  35.509  1.00  0.00    -0.237 OA
ATOM     91  O   UNL A   1      46.055  23.310  36.248  1.00  0.00    -0.237 OA
ATOM     92  O   UNL A   1      44.389  24.457  37.655  1.00  0.00    -0.744 OA
ENDBRANCH  85  89
ENDBRANCH  59  82
ENDBRANCH  33  34
ENDBRANCH  25  28
ENDBRANCH  23  24
ENDBRANCH   1  23
TORSDOF 16
ENDMDL
