MODEL 1
REMARK VINA RESULT:     -11.5      0.000      0.000
REMARK SMILES Cc1nsc(N(C)C(=O)[C@@H](C)CCC[C@H](C)[NH3+])c1C(=O)NCCCNC(=O)c1ccc(-c2c3nc(c(-c4cc(S(=O)(=O)[O-])ccc4F)c4ccc([nH]4)c(-c4cc(S(=O)(=O)[O-])ccc4F)c4nc(c(-c5cc(S(=O)(=O)[O-])ccc5F)c5ccc2[nH]5)C=C4)C=C3)cc1
REMARK SMILES IDX 1 1 2 2 3 3 4 4 5 5 18 6 19 7 20 8 21 9 22 11 23 12 24 13
REMARK SMILES IDX 25 14 26 15 27 17 28 18 29 19 90 20 30 21 89 22 31 23 32 24
REMARK SMILES IDX 33 25 83 26 34 27 88 28 82 29 84 30 35 31 87 32 81 33 80 34
REMARK SMILES IDX 36 36 68 37 48 38 67 39 49 40 52 41 66 42 85 43 50 44 51 45
REMARK SMILES IDX 65 47 86 48 53 49 37 50 38 51 46 52 39 53 45 54 47 55 44 56
REMARK SMILES IDX 40 57 41 58 42 59 43 60 69 61 70 62 78 63 71 64 77 65 79 66
REMARK SMILES IDX 76 67 72 68 73 69 74 70 75 71 54 72 55 73 63 74 56 75 62 76
REMARK SMILES IDX 64 77 61 78 57 79 58 80 59 81 60 82 6 83 7 84 8 85 9 86
REMARK SMILES IDX 10 87 11 88 12 89 13 90 14 91 15 92 16 93 17 94
REMARK H PARENT 21 10 25 16 84 35 52 46 17 95 17 96 17 97
REMARK Flexibility Score: inf
ROOT
ATOM      1  C   UNL A   1      30.463  29.689  22.327  1.00  0.00     0.069 C 
ATOM      2  C   UNL A   1      30.768  28.419  23.053  1.00  0.00     0.066 A 
ATOM      3  N   UNL A   1      29.713  27.613  23.159  1.00  0.00    -0.195 NA
ATOM      4  S   UNL A   1      30.190  26.178  23.750  1.00  0.00    -0.017 S 
ATOM      5  C   UNL A   1      31.849  26.565  23.975  1.00  0.00     0.131 A 
ATOM      6  C   UNL A   1      32.034  27.916  23.606  1.00  0.00     0.097 A 
ENDROOT
BRANCH   6   7
ATOM      7  C   UNL A   1      33.357  28.564  23.602  1.00  0.00     0.256 C 
ATOM      8  O   UNL A   1      33.954  28.754  22.539  1.00  0.00    -0.269 OA
ATOM      9  N   UNL A   1      34.002  28.964  24.764  1.00  0.00    -0.352 N 
ATOM     10  H   UNL A   1      34.985  28.913  24.738  1.00  0.00     0.163 HD
BRANCH   9  11
ATOM     11  C   UNL A   1      33.441  29.444  26.008  1.00  0.00     0.118 C 
BRANCH  11  12
ATOM     12  C   UNL A   1      34.321  30.219  26.975  1.00  0.00     0.042 C 
BRANCH  12  13
ATOM     13  C   UNL A   1      35.233  29.380  27.843  1.00  0.00     0.118 C 
BRANCH  13  14
ATOM     14  N   UNL A   1      35.595  29.983  29.128  1.00  0.00    -0.352 N 
ATOM     15  C   UNL A   1      36.758  29.742  29.845  1.00  0.00     0.251 C 
ATOM     16  H   UNL A   1      34.952  30.620  29.519  1.00  0.00     0.163 HD
ATOM     17  O   UNL A   1      36.864  30.092  31.018  1.00  0.00    -0.269 OA
BRANCH  15  18
ATOM     18  C   UNL A   1      37.833  28.996  29.162  1.00  0.00     0.039 A 
ATOM     19  C   UNL A   1      38.449  29.521  28.028  1.00  0.00     0.014 A 
ATOM     20  C   UNL A   1      38.367  27.893  29.819  1.00  0.00     0.014 A 
ATOM     21  C   UNL A   1      39.696  29.019  27.655  1.00  0.00     0.010 A 
ATOM     22  C   UNL A   1      39.664  27.512  29.540  1.00  0.00     0.010 A 
ATOM     23  C   UNL A   1      40.348  28.059  28.455  1.00  0.00    -0.014 A 
BRANCH  23  24
ATOM     24  C   UNL A   1      41.766  27.743  28.213  1.00  0.00     0.031 A 
ATOM     25  C   UNL A   1      42.053  26.492  27.447  1.00  0.00     0.074 A 
ATOM     26  C   UNL A   1      42.824  28.538  28.490  1.00  0.00     0.049 A 
ATOM     27  N   UNL A   1      42.550  25.393  27.912  1.00  0.00    -0.248 NA
ATOM     28  C   UNL A   1      41.668  26.409  26.031  1.00  0.00     0.031 C 
ATOM     29  C   UNL A   1      42.846  29.910  29.005  1.00  0.00     0.029 A 
ATOM     30  N   UNL A   1      44.148  28.278  28.278  1.00  0.00    -0.354 N 
ATOM     31  C   UNL A   1      42.744  24.544  26.826  1.00  0.00     0.074 A 
ATOM     32  C   UNL A   1      42.046  25.163  25.727  1.00  0.00     0.031 C 
ATOM     33  C   UNL A   1      44.078  30.439  28.845  1.00  0.00     0.029 A 
ATOM     34  C   UNL A   1      44.974  29.385  28.409  1.00  0.00     0.049 A 
ATOM     35  H   UNL A   1      44.488  27.383  28.052  1.00  0.00     0.167 HD
ATOM     36  C   UNL A   1      43.610  23.491  26.893  1.00  0.00     0.034 A 
ATOM     37  C   UNL A   1      46.314  29.450  28.222  1.00  0.00     0.034 A 
ATOM     38  C   UNL A   1      43.975  23.204  28.265  1.00  0.00     0.049 A 
ATOM     39  C   UNL A   1      46.849  28.093  28.475  1.00  0.00     0.074 A 
ATOM     40  C   UNL A   1      43.269  22.904  29.416  1.00  0.00     0.029 A 
ATOM     41  N   UNL A   1      45.228  23.573  28.705  1.00  0.00    -0.354 N 
ATOM     42  N   UNL A   1      46.807  27.517  29.644  1.00  0.00    -0.248 NA
ATOM     43  C   UNL A   1      47.039  27.192  27.351  1.00  0.00     0.031 C 
ATOM     44  C   UNL A   1      43.936  23.629  30.451  1.00  0.00     0.029 A 
ATOM     45  C   UNL A   1      45.045  24.259  29.881  1.00  0.00     0.049 A 
ATOM     46  H   UNL A   1      46.086  23.383  28.262  1.00  0.00     0.167 HD
ATOM     47  C   UNL A   1      46.515  26.190  29.380  1.00  0.00     0.074 A 
ATOM     48  C   UNL A   1      46.796  26.025  27.956  1.00  0.00     0.031 C 
ATOM     49  C   UNL A   1      45.816  25.423  30.271  1.00  0.00     0.034 A 
BRANCH  36  50
ATOM     50  C   UNL A   1      44.386  22.897  25.733  1.00  0.00     0.023 A 
ATOM     51  C   UNL A   1      44.378  21.492  25.597  1.00  0.00     0.031 A 
ATOM     52  C   UNL A   1      45.338  23.577  24.946  1.00  0.00     0.131 A 
ATOM     53  C   UNL A   1      45.341  20.828  24.815  1.00  0.00     0.055 A 
ATOM     54  C   UNL A   1      46.247  22.917  24.110  1.00  0.00     0.041 A 
ATOM     55  F   UNL A   1      45.506  24.903  25.003  1.00  0.00    -0.206 F 
ATOM     56  C   UNL A   1      46.277  21.533  24.067  1.00  0.00     0.022 A 
BRANCH  53  57
ATOM     57  S   UNL A   1      45.472  19.025  24.957  1.00  0.00     0.124 S 
ATOM     58  O   UNL A   1      44.220  18.691  25.629  1.00  0.00    -0.237 OA
ATOM     59  O   UNL A   1      45.582  18.620  23.560  1.00  0.00    -0.237 OA
ATOM     60  O   UNL A   1      46.679  18.835  25.758  1.00  0.00    -0.744 OA
ENDBRANCH  53  57
ENDBRANCH  36  50
BRANCH  37  61
ATOM     61  C   UNL A   1      47.093  30.573  27.652  1.00  0.00     0.023 A 
ATOM     62  C   UNL A   1      46.479  31.668  27.017  1.00  0.00     0.031 A 
ATOM     63  C   UNL A   1      48.470  30.695  27.950  1.00  0.00     0.131 A 
ATOM     64  C   UNL A   1      47.230  32.825  26.716  1.00  0.00     0.055 A 
ATOM     65  C   UNL A   1      49.211  31.838  27.641  1.00  0.00     0.041 A 
ATOM     66  F   UNL A   1      49.122  29.742  28.634  1.00  0.00    -0.206 F 
ATOM     67  C   UNL A   1      48.588  32.915  27.033  1.00  0.00     0.022 A 
BRANCH  64  68
ATOM     68  S   UNL A   1      46.408  34.294  26.025  1.00  0.00     0.124 S 
ATOM     69  O   UNL A   1      45.793  34.888  27.205  1.00  0.00    -0.237 OA
ATOM     70  O   UNL A   1      47.519  35.029  25.431  1.00  0.00    -0.237 OA
ATOM     71  O   UNL A   1      45.467  33.729  25.057  1.00  0.00    -0.744 OA
ENDBRANCH  64  68
ENDBRANCH  37  61
BRANCH  49  72
ATOM     72  C   UNL A   1      45.622  25.941  31.685  1.00  0.00     0.023 A 
ATOM     73  C   UNL A   1      46.574  25.822  32.724  1.00  0.00     0.031 A 
ATOM     74  C   UNL A   1      44.459  26.684  31.959  1.00  0.00     0.131 A 
ATOM     75  C   UNL A   1      46.332  26.412  33.981  1.00  0.00     0.055 A 
ATOM     76  C   UNL A   1      44.232  27.288  33.196  1.00  0.00     0.041 A 
ATOM     77  F   UNL A   1      43.526  26.864  31.008  1.00  0.00    -0.206 F 
ATOM     78  C   UNL A   1      45.166  27.146  34.216  1.00  0.00     0.022 A 
BRANCH  75  79
ATOM     79  S   UNL A   1      47.526  26.214  35.344  1.00  0.00     0.124 S 
ATOM     80  O   UNL A   1      46.681  25.997  36.513  1.00  0.00    -0.237 OA
ATOM     81  O   UNL A   1      48.317  25.067  34.907  1.00  0.00    -0.237 OA
ATOM     82  O   UNL A   1      48.251  27.486  35.346  1.00  0.00    -0.744 OA
ENDBRANCH  75  79
ENDBRANCH  49  72
ENDBRANCH  23  24
ENDBRANCH  15  18
ENDBRANCH  13  14
ENDBRANCH  12  13
ENDBRANCH  11  12
ENDBRANCH   9  11
ENDBRANCH   6   7
BRANCH   5  83
ATOM     83  N   UNL A   1      32.679  25.505  24.457  1.00  0.00    -0.305 N 
ATOM     84  C   UNL A   1      32.977  25.371  25.887  1.00  0.00     0.154 C 
BRANCH  83  85
ATOM     85  C   UNL A   1      33.253  24.642  23.518  1.00  0.00     0.230 C 
ATOM     86  O   UNL A   1      33.837  25.079  22.518  1.00  0.00    -0.274 OA
BRANCH  85  87
ATOM     87  C   UNL A   1      33.310  23.106  23.760  1.00  0.00     0.076 C 
ATOM     88  C   UNL A   1      32.467  22.350  22.726  1.00  0.00     0.018 C 
BRANCH  87  89
ATOM     89  C   UNL A   1      34.677  22.419  23.967  1.00  0.00     0.013 C 
BRANCH  89  90
ATOM     90  C   UNL A   1      34.753  21.442  25.148  1.00  0.00     0.007 C 
BRANCH  90  91
ATOM     91  C   UNL A   1      34.715  19.962  24.745  1.00  0.00     0.064 C 
BRANCH  91  92
ATOM     92  C   UNL A   1      33.403  19.244  25.133  1.00  0.00     0.177 C 
ATOM     93  C   UNL A   1      32.601  18.844  23.895  1.00  0.00     0.075 C 
BRANCH  92  94
ATOM     94  N   UNL A   1      32.584  20.100  25.999  1.00  0.00    -0.355 N 
ATOM     95  H   UNL A   1      33.174  20.520  26.718  1.00  0.00     0.344 HD
ATOM     96  H   UNL A   1      31.856  19.539  26.440  1.00  0.00     0.344 HD
ATOM     97  H   UNL A   1      32.154  20.837  25.439  1.00  0.00     0.344 HD
ENDBRANCH  92  94
ENDBRANCH  91  92
ENDBRANCH  90  91
ENDBRANCH  89  90
ENDBRANCH  87  89
ENDBRANCH  85  87
ENDBRANCH  83  85
ENDBRANCH   5  83
TORSDOF 21
ENDMDL
MODEL 2
REMARK VINA RESULT:     -10.7      2.057      2.613
REMARK SMILES Cc1nsc(N(C)C(=O)[C@@H](C)CCC[C@H](C)[NH3+])c1C(=O)NCCCNC(=O)c1ccc(-c2c3nc(c(-c4cc(S(=O)(=O)[O-])ccc4F)c4ccc([nH]4)c(-c4cc(S(=O)(=O)[O-])ccc4F)c4nc(c(-c5cc(S(=O)(=O)[O-])ccc5F)c5ccc2[nH]5)C=C4)C=C3)cc1
REMARK SMILES IDX 1 1 2 2 3 3 4 4 5 5 18 6 19 7 20 8 21 9 22 11 23 12 24 13
REMARK SMILES IDX 25 14 26 15 27 17 28 18 29 19 90 20 30 21 89 22 31 23 32 24
REMARK SMILES IDX 33 25 83 26 34 27 88 28 82 29 84 30 35 31 87 32 81 33 80 34
REMARK SMILES IDX 36 36 68 37 48 38 67 39 49 40 52 41 66 42 85 43 50 44 51 45
REMARK SMILES IDX 65 47 86 48 53 49 37 50 38 51 46 52 39 53 45 54 47 55 44 56
REMARK SMILES IDX 40 57 41 58 42 59 43 60 69 61 70 62 78 63 71 64 77 65 79 66
REMARK SMILES IDX 76 67 72 68 73 69 74 70 75 71 54 72 55 73 63 74 56 75 62 76
REMARK SMILES IDX 64 77 61 78 57 79 58 80 59 81 60 82 6 83 7 84 8 85 9 86
REMARK SMILES IDX 10 87 11 88 12 89 13 90 14 91 15 92 16 93 17 94
REMARK H PARENT 21 10 25 16 84 35 52 46 17 95 17 96 17 97
REMARK Flexibility Score: inf
ROOT
ATOM      1  C   UNL A   1      31.408  31.322  26.151  1.00  0.00     0.069 C 
ATOM      2  C   UNL A   1      31.255  30.006  25.459  1.00  0.00     0.066 A 
ATOM      3  N   UNL A   1      30.944  30.128  24.170  1.00  0.00    -0.195 NA
ATOM      4  S   UNL A   1      31.025  28.671  23.456  1.00  0.00    -0.017 S 
ATOM      5  C   UNL A   1      31.418  27.755  24.856  1.00  0.00     0.131 A 
ATOM      6  C   UNL A   1      31.443  28.637  25.960  1.00  0.00     0.097 A 
ENDROOT
BRANCH   6   7
ATOM      7  C   UNL A   1      31.822  28.202  27.315  1.00  0.00     0.256 C 
ATOM      8  O   UNL A   1      31.070  27.475  27.970  1.00  0.00    -0.269 OA
ATOM      9  N   UNL A   1      33.005  28.594  27.927  1.00  0.00    -0.352 N 
ATOM     10  H   UNL A   1      32.960  28.690  28.906  1.00  0.00     0.163 HD
BRANCH   9  11
ATOM     11  C   UNL A   1      34.294  28.882  27.336  1.00  0.00     0.118 C 
BRANCH  11  12
ATOM     12  C   UNL A   1      34.696  30.326  27.086  1.00  0.00     0.042 C 
BRANCH  12  13
ATOM     13  C   UNL A   1      35.905  30.809  27.856  1.00  0.00     0.118 C 
BRANCH  13  14
ATOM     14  N   UNL A   1      35.871  30.541  29.296  1.00  0.00    -0.352 N 
ATOM     15  C   UNL A   1      36.641  29.605  29.971  1.00  0.00     0.251 C 
ATOM     16  H   UNL A   1      35.243  31.075  29.835  1.00  0.00     0.163 HD
ATOM     17  O   UNL A   1      36.373  29.273  31.122  1.00  0.00    -0.269 OA
BRANCH  15  18
ATOM     18  C   UNL A   1      37.755  28.981  29.229  1.00  0.00     0.039 A 
ATOM     19  C   UNL A   1      38.521  29.731  28.339  1.00  0.00     0.014 A 
ATOM     20  C   UNL A   1      38.159  27.711  29.624  1.00  0.00     0.014 A 
ATOM     21  C   UNL A   1      39.780  29.251  27.975  1.00  0.00     0.010 A 
ATOM     22  C   UNL A   1      39.462  27.320  29.388  1.00  0.00     0.010 A 
ATOM     23  C   UNL A   1      40.291  28.075  28.558  1.00  0.00    -0.014 A 
BRANCH  23  24
ATOM     24  C   UNL A   1      41.712  27.728  28.386  1.00  0.00     0.031 A 
ATOM     25  C   UNL A   1      42.013  26.524  27.551  1.00  0.00     0.074 A 
ATOM     26  C   UNL A   1      42.772  28.466  28.787  1.00  0.00     0.049 A 
ATOM     27  N   UNL A   1      42.446  25.380  27.967  1.00  0.00    -0.248 NA
ATOM     28  C   UNL A   1      41.721  26.554  26.112  1.00  0.00     0.031 C 
ATOM     29  C   UNL A   1      42.800  29.796  29.400  1.00  0.00     0.029 A 
ATOM     30  N   UNL A   1      44.100  28.176  28.643  1.00  0.00    -0.354 N 
ATOM     31  C   UNL A   1      42.686  24.603  26.837  1.00  0.00     0.074 A 
ATOM     32  C   UNL A   1      42.082  25.321  25.743  1.00  0.00     0.031 C 
ATOM     33  C   UNL A   1      44.055  30.293  29.358  1.00  0.00     0.029 A 
ATOM     34  C   UNL A   1      44.946  29.243  28.906  1.00  0.00     0.049 A 
ATOM     35  H   UNL A   1      44.427  27.288  28.375  1.00  0.00     0.167 HD
ATOM     36  C   UNL A   1      43.515  23.519  26.884  1.00  0.00     0.034 A 
ATOM     37  C   UNL A   1      46.297  29.275  28.811  1.00  0.00     0.034 A 
ATOM     38  C   UNL A   1      43.779  23.125  28.252  1.00  0.00     0.049 A 
ATOM     39  C   UNL A   1      46.775  27.887  28.999  1.00  0.00     0.074 A 
ATOM     40  C   UNL A   1      42.989  22.769  29.331  1.00  0.00     0.029 A 
ATOM     41  N   UNL A   1      45.010  23.419  28.797  1.00  0.00    -0.354 N 
ATOM     42  N   UNL A   1      46.638  27.231  30.119  1.00  0.00    -0.248 NA
ATOM     43  C   UNL A   1      47.013  27.060  27.828  1.00  0.00     0.031 C 
ATOM     44  C   UNL A   1      43.606  23.396  30.456  1.00  0.00     0.029 A 
ATOM     45  C   UNL A   1      44.769  24.026  30.006  1.00  0.00     0.049 A 
ATOM     46  H   UNL A   1      45.890  23.231  28.398  1.00  0.00     0.167 HD
ATOM     47  C   UNL A   1      46.325  25.937  29.742  1.00  0.00     0.074 A 
ATOM     48  C   UNL A   1      46.696  25.863  28.330  1.00  0.00     0.031 C 
ATOM     49  C   UNL A   1      45.546  25.134  30.528  1.00  0.00     0.034 A 
BRANCH  36  50
ATOM     50  C   UNL A   1      44.349  22.982  25.736  1.00  0.00     0.023 A 
ATOM     51  C   UNL A   1      44.331  21.587  25.517  1.00  0.00     0.031 A 
ATOM     52  C   UNL A   1      45.353  23.692  25.046  1.00  0.00     0.131 A 
ATOM     53  C   UNL A   1      45.330  20.955  24.753  1.00  0.00     0.055 A 
ATOM     54  C   UNL A   1      46.300  23.068  24.225  1.00  0.00     0.041 A 
ATOM     55  F   UNL A   1      45.534  25.009  25.191  1.00  0.00    -0.206 F 
ATOM     56  C   UNL A   1      46.316  21.688  24.103  1.00  0.00     0.022 A 
BRANCH  53  57
ATOM     57  S   UNL A   1      45.430  19.145  24.795  1.00  0.00     0.124 S 
ATOM     58  O   UNL A   1      46.426  18.930  25.840  1.00  0.00    -0.237 OA
ATOM     59  O   UNL A   1      44.059  18.775  25.127  1.00  0.00    -0.237 OA
ATOM     60  O   UNL A   1      45.860  18.798  23.443  1.00  0.00    -0.744 OA
ENDBRANCH  53  57
ENDBRANCH  36  50
BRANCH  37  61
ATOM     61  C   UNL A   1      47.146  30.408  28.376  1.00  0.00     0.023 A 
ATOM     62  C   UNL A   1      48.489  30.538  28.775  1.00  0.00     0.031 A 
ATOM     63  C   UNL A   1      46.698  31.265  27.344  1.00  0.00     0.131 A 
ATOM     64  C   UNL A   1      49.327  31.482  28.143  1.00  0.00     0.055 A 
ATOM     65  C   UNL A   1      47.528  32.205  26.730  1.00  0.00     0.041 A 
ATOM     66  F   UNL A   1      45.461  31.156  26.835  1.00  0.00    -0.206 F 
ATOM     67  C   UNL A   1      48.853  32.308  27.120  1.00  0.00     0.022 A 
BRANCH  64  68
ATOM     68  S   UNL A   1      51.097  31.555  28.558  1.00  0.00     0.124 S 
ATOM     69  O   UNL A   1      51.547  30.208  28.225  1.00  0.00    -0.237 OA
ATOM     70  O   UNL A   1      51.580  32.632  27.702  1.00  0.00    -0.237 OA
ATOM     71  O   UNL A   1      51.096  31.868  29.988  1.00  0.00    -0.744 OA
ENDBRANCH  64  68
ENDBRANCH  37  61
BRANCH  49  72
ATOM     72  C   UNL A   1      45.274  25.557  31.961  1.00  0.00     0.023 A 
ATOM     73  C   UNL A   1      46.132  25.299  33.054  1.00  0.00     0.031 A 
ATOM     74  C   UNL A   1      44.139  26.353  32.205  1.00  0.00     0.131 A 
ATOM     75  C   UNL A   1      45.828  25.810  34.332  1.00  0.00     0.055 A 
ATOM     76  C   UNL A   1      43.853  26.878  33.466  1.00  0.00     0.041 A 
ATOM     77  F   UNL A   1      43.296  26.664  31.205  1.00  0.00    -0.206 F 
ATOM     78  C   UNL A   1      44.694  26.600  34.538  1.00  0.00     0.022 A 
BRANCH  75  79
ATOM     79  S   UNL A   1      46.898  25.433  35.760  1.00  0.00     0.124 S 
ATOM     80  O   UNL A   1      47.449  26.731  36.130  1.00  0.00    -0.237 OA
ATOM     81  O   UNL A   1      45.960  24.842  36.710  1.00  0.00    -0.237 OA
ATOM     82  O   UNL A   1      47.876  24.492  35.209  1.00  0.00    -0.744 OA
ENDBRANCH  75  79
ENDBRANCH  49  72
ENDBRANCH  23  24
ENDBRANCH  15  18
ENDBRANCH  13  14
ENDBRANCH  12  13
ENDBRANCH  11  12
ENDBRANCH   9  11
ENDBRANCH   6   7
BRANCH   5  83
ATOM     83  N   UNL A   1      31.638  26.357  24.648  1.00  0.00    -0.305 N 
ATOM     84  C   UNL A   1      30.813  25.354  25.330  1.00  0.00     0.154 C 
BRANCH  83  85
ATOM     85  C   UNL A   1      32.705  25.976  23.829  1.00  0.00     0.230 C 
ATOM     86  O   UNL A   1      32.632  26.064  22.596  1.00  0.00    -0.274 OA
BRANCH  85  87
ATOM     87  C   UNL A   1      34.078  25.562  24.432  1.00  0.00     0.076 C 
ATOM     88  C   UNL A   1      34.030  25.547  25.965  1.00  0.00     0.018 C 
BRANCH  87  89
ATOM     89  C   UNL A   1      34.798  24.307  23.891  1.00  0.00     0.013 C 
BRANCH  89  90
ATOM     90  C   UNL A   1      35.518  23.454  24.944  1.00  0.00     0.007 C 
BRANCH  90  91
ATOM     91  C   UNL A   1      37.048  23.574  24.913  1.00  0.00     0.064 C 
BRANCH  91  92
ATOM     92  C   UNL A   1      37.710  23.452  26.304  1.00  0.00     0.177 C 
ATOM     93  C   UNL A   1      38.600  24.659  26.603  1.00  0.00     0.075 C 
BRANCH  92  94
ATOM     94  N   UNL A   1      38.501  22.220  26.392  1.00  0.00    -0.355 N 
ATOM     95  H   UNL A   1      39.493  22.448  26.329  1.00  0.00     0.344 HD
ATOM     96  H   UNL A   1      38.245  21.597  25.627  1.00  0.00     0.344 HD
ATOM     97  H   UNL A   1      38.314  21.759  27.283  1.00  0.00     0.344 HD
ENDBRANCH  92  94
ENDBRANCH  91  92
ENDBRANCH  90  91
ENDBRANCH  89  90
ENDBRANCH  87  89
ENDBRANCH  85  87
ENDBRANCH  83  85
ENDBRANCH   5  83
TORSDOF 21
ENDMDL
MODEL 3
REMARK VINA RESULT:     -10.5      4.589     10.432
REMARK SMILES Cc1nsc(N(C)C(=O)[C@@H](C)CCC[C@H](C)[NH3+])c1C(=O)NCCCNC(=O)c1ccc(-c2c3nc(c(-c4cc(S(=O)(=O)[O-])ccc4F)c4ccc([nH]4)c(-c4cc(S(=O)(=O)[O-])ccc4F)c4nc(c(-c5cc(S(=O)(=O)[O-])ccc5F)c5ccc2[nH]5)C=C4)C=C3)cc1
REMARK SMILES IDX 1 1 2 2 3 3 4 4 5 5 18 6 19 7 20 8 21 9 22 11 23 12 24 13
REMARK SMILES IDX 25 14 26 15 27 17 28 18 29 19 90 20 30 21 89 22 31 23 32 24
REMARK SMILES IDX 33 25 83 26 34 27 88 28 82 29 84 30 35 31 87 32 81 33 80 34
REMARK SMILES IDX 36 36 68 37 48 38 67 39 49 40 52 41 66 42 85 43 50 44 51 45
REMARK SMILES IDX 65 47 86 48 53 49 37 50 38 51 46 52 39 53 45 54 47 55 44 56
REMARK SMILES IDX 40 57 41 58 42 59 43 60 69 61 70 62 78 63 71 64 77 65 79 66
REMARK SMILES IDX 76 67 72 68 73 69 74 70 75 71 54 72 55 73 63 74 56 75 62 76
REMARK SMILES IDX 64 77 61 78 57 79 58 80 59 81 60 82 6 83 7 84 8 85 9 86
REMARK SMILES IDX 10 87 11 88 12 89 13 90 14 91 15 92 16 93 17 94
REMARK H PARENT 21 10 25 16 84 35 52 46 17 95 17 96 17 97
REMARK Flexibility Score: inf
ROOT
ATOM      1  C   UNL A   1      36.598  22.279  23.406  1.00  0.00     0.069 C 
ATOM      2  C   UNL A   1      35.599  23.332  23.762  1.00  0.00     0.066 A 
ATOM      3  N   UNL A   1      35.027  23.888  22.695  1.00  0.00    -0.195 NA
ATOM      4  S   UNL A   1      33.804  24.842  23.178  1.00  0.00    -0.017 S 
ATOM      5  C   UNL A   1      34.005  24.630  24.871  1.00  0.00     0.131 A 
ATOM      6  C   UNL A   1      35.127  23.795  25.075  1.00  0.00     0.097 A 
ENDROOT
BRANCH   6   7
ATOM      7  C   UNL A   1      35.546  23.340  26.411  1.00  0.00     0.256 C 
ATOM      8  O   UNL A   1      34.811  22.608  27.079  1.00  0.00    -0.269 OA
ATOM      9  N   UNL A   1      36.749  23.720  26.992  1.00  0.00    -0.352 N 
ATOM     10  H   UNL A   1      36.734  23.803  27.973  1.00  0.00     0.163 HD
BRANCH   9  11
ATOM     11  C   UNL A   1      38.020  24.011  26.366  1.00  0.00     0.118 C 
BRANCH  11  12
ATOM     12  C   UNL A   1      39.202  23.087  26.609  1.00  0.00     0.042 C 
BRANCH  12  13
ATOM     13  C   UNL A   1      40.464  23.760  27.102  1.00  0.00     0.118 C 
BRANCH  13  14
ATOM     14  N   UNL A   1      41.139  24.611  26.119  1.00  0.00    -0.352 N 
ATOM     15  C   UNL A   1      41.233  25.994  26.163  1.00  0.00     0.251 C 
ATOM     16  H   UNL A   1      41.566  24.158  25.355  1.00  0.00     0.163 HD
ATOM     17  O   UNL A   1      41.593  26.638  25.181  1.00  0.00    -0.269 OA
BRANCH  15  18
ATOM     18  C   UNL A   1      40.825  26.661  27.415  1.00  0.00     0.039 A 
ATOM     19  C   UNL A   1      41.601  26.545  28.566  1.00  0.00     0.014 A 
ATOM     20  C   UNL A   1      39.793  27.591  27.341  1.00  0.00     0.014 A 
ATOM     21  C   UNL A   1      41.430  27.484  29.583  1.00  0.00     0.010 A 
ATOM     22  C   UNL A   1      39.739  28.605  28.276  1.00  0.00     0.010 A 
ATOM     23  C   UNL A   1      40.547  28.569  29.412  1.00  0.00    -0.014 A 
BRANCH  23  24
ATOM     24  C   UNL A   1      40.577  29.696  30.360  1.00  0.00     0.031 A 
ATOM     25  C   UNL A   1      39.259  30.295  30.732  1.00  0.00     0.074 A 
ATOM     26  C   UNL A   1      41.659  30.150  31.032  1.00  0.00     0.049 A 
ATOM     27  N   UNL A   1      38.799  31.447  30.368  1.00  0.00    -0.248 NA
ATOM     28  C   UNL A   1      38.303  29.504  31.518  1.00  0.00     0.031 C 
ATOM     29  C   UNL A   1      43.023  29.615  31.069  1.00  0.00     0.029 A 
ATOM     30  N   UNL A   1      41.723  31.189  31.917  1.00  0.00    -0.354 N 
ATOM     31  C   UNL A   1      37.592  31.632  31.038  1.00  0.00     0.074 A 
ATOM     32  C   UNL A   1      37.270  30.347  31.607  1.00  0.00     0.031 C 
ATOM     33  C   UNL A   1      43.706  30.174  32.091  1.00  0.00     0.029 A 
ATOM     34  C   UNL A   1      42.901  31.244  32.647  1.00  0.00     0.049 A 
ATOM     35  H   UNL A   1      40.995  31.843  32.027  1.00  0.00     0.167 HD
ATOM     36  C   UNL A   1      37.057  32.876  31.206  1.00  0.00     0.034 A 
ATOM     37  C   UNL A   1      43.237  32.126  33.619  1.00  0.00     0.034 A 
ATOM     38  C   UNL A   1      37.693  33.839  30.331  1.00  0.00     0.049 A 
ATOM     39  C   UNL A   1      42.469  33.364  33.359  1.00  0.00     0.074 A 
ATOM     40  C   UNL A   1      37.887  33.931  28.964  1.00  0.00     0.029 A 
ATOM     41  N   UNL A   1      38.587  34.735  30.876  1.00  0.00    -0.354 N 
ATOM     42  N   UNL A   1      42.650  34.106  32.301  1.00  0.00    -0.248 NA
ATOM     43  C   UNL A   1      41.200  33.560  34.038  1.00  0.00     0.031 C 
ATOM     44  C   UNL A   1      39.217  34.431  28.819  1.00  0.00     0.029 A 
ATOM     45  C   UNL A   1      39.718  34.683  30.098  1.00  0.00     0.049 A 
ATOM     46  H   UNL A   1      38.443  35.301  31.668  1.00  0.00     0.167 HD
ATOM     47  C   UNL A   1      41.381  34.515  31.928  1.00  0.00     0.074 A 
ATOM     48  C   UNL A   1      40.549  34.257  33.102  1.00  0.00     0.031 C 
ATOM     49  C   UNL A   1      41.069  34.767  30.621  1.00  0.00     0.034 A 
BRANCH  36  50
ATOM     50  C   UNL A   1      36.178  33.323  32.358  1.00  0.00     0.023 A 
ATOM     51  C   UNL A   1      35.063  34.133  32.051  1.00  0.00     0.031 A 
ATOM     52  C   UNL A   1      36.513  33.245  33.726  1.00  0.00     0.131 A 
ATOM     53  C   UNL A   1      34.420  34.898  33.041  1.00  0.00     0.055 A 
ATOM     54  C   UNL A   1      35.823  33.950  34.720  1.00  0.00     0.041 A 
ATOM     55  F   UNL A   1      37.573  32.563  34.171  1.00  0.00    -0.206 F 
ATOM     56  C   UNL A   1      34.792  34.810  34.378  1.00  0.00     0.022 A 
BRANCH  53  57
ATOM     57  S   UNL A   1      33.227  36.158  32.518  1.00  0.00     0.124 S 
ATOM     58  O   UNL A   1      33.943  36.805  31.424  1.00  0.00    -0.237 OA
ATOM     59  O   UNL A   1      32.076  35.344  32.141  1.00  0.00    -0.237 OA
ATOM     60  O   UNL A   1      33.048  36.974  33.716  1.00  0.00    -0.744 OA
ENDBRANCH  53  57
ENDBRANCH  36  50
BRANCH  37  61
ATOM     61  C   UNL A   1      44.029  31.863  34.842  1.00  0.00     0.023 A 
ATOM     62  C   UNL A   1      43.949  30.645  35.543  1.00  0.00     0.031 A 
ATOM     63  C   UNL A   1      45.075  32.743  35.204  1.00  0.00     0.131 A 
ATOM     64  C   UNL A   1      44.895  30.342  36.545  1.00  0.00     0.055 A 
ATOM     65  C   UNL A   1      46.002  32.442  36.204  1.00  0.00     0.041 A 
ATOM     66  F   UNL A   1      45.287  33.887  34.534  1.00  0.00    -0.206 F 
ATOM     67  C   UNL A   1      45.922  31.231  36.872  1.00  0.00     0.022 A 
BRANCH  64  68
ATOM     68  S   UNL A   1      44.879  28.711  37.352  1.00  0.00     0.124 S 
ATOM     69  O   UNL A   1      43.784  28.037  36.665  1.00  0.00    -0.237 OA
ATOM     70  O   UNL A   1      46.222  28.210  37.083  1.00  0.00    -0.237 OA
ATOM     71  O   UNL A   1      44.620  29.033  38.757  1.00  0.00    -0.744 OA
ENDBRANCH  64  68
ENDBRANCH  37  61
BRANCH  49  72
ATOM     72  C   UNL A   1      42.196  34.892  29.612  1.00  0.00     0.023 A 
ATOM     73  C   UNL A   1      42.786  36.113  29.211  1.00  0.00     0.031 A 
ATOM     74  C   UNL A   1      42.768  33.705  29.116  1.00  0.00     0.131 A 
ATOM     75  C   UNL A   1      43.887  36.114  28.330  1.00  0.00     0.055 A 
ATOM     76  C   UNL A   1      43.872  33.709  28.264  1.00  0.00     0.041 A 
ATOM     77  F   UNL A   1      42.278  32.508  29.480  1.00  0.00    -0.206 F 
ATOM     78  C   UNL A   1      44.431  34.916  27.859  1.00  0.00     0.022 A 
BRANCH  75  79
ATOM     79  S   UNL A   1      44.616  37.685  27.760  1.00  0.00     0.124 S 
ATOM     80  O   UNL A   1      43.472  38.430  27.247  1.00  0.00    -0.237 OA
ATOM     81  O   UNL A   1      45.226  38.211  28.978  1.00  0.00    -0.237 OA
ATOM     82  O   UNL A   1      45.574  37.261  26.737  1.00  0.00    -0.744 OA
ENDBRANCH  75  79
ENDBRANCH  49  72
ENDBRANCH  23  24
ENDBRANCH  15  18
ENDBRANCH  13  14
ENDBRANCH  12  13
ENDBRANCH  11  12
ENDBRANCH   9  11
ENDBRANCH   6   7
BRANCH   5  83
ATOM     83  N   UNL A   1      33.050  25.295  25.703  1.00  0.00    -0.305 N 
ATOM     84  C   UNL A   1      33.240  26.694  26.099  1.00  0.00     0.154 C 
BRANCH  83  85
ATOM     85  C   UNL A   1      31.968  24.551  26.183  1.00  0.00     0.230 C 
ATOM     86  O   UNL A   1      31.816  24.346  27.395  1.00  0.00    -0.274 OA
BRANCH  85  87
ATOM     87  C   UNL A   1      30.833  24.071  25.233  1.00  0.00     0.076 C 
ATOM     88  C   UNL A   1      30.314  25.221  24.362  1.00  0.00     0.018 C 
BRANCH  87  89
ATOM     89  C   UNL A   1      31.035  22.790  24.394  1.00  0.00     0.013 C 
BRANCH  89  90
ATOM     90  C   UNL A   1      31.736  21.631  25.115  1.00  0.00     0.007 C 
BRANCH  90  91
ATOM     91  C   UNL A   1      32.887  21.000  24.322  1.00  0.00     0.064 C 
BRANCH  91  92
ATOM     92  C   UNL A   1      33.605  19.855  25.071  1.00  0.00     0.177 C 
ATOM     93  C   UNL A   1      33.134  18.487  24.577  1.00  0.00     0.075 C 
BRANCH  92  94
ATOM     94  N   UNL A   1      33.380  19.963  26.517  1.00  0.00    -0.355 N 
ATOM     95  H   UNL A   1      33.956  19.277  27.003  1.00  0.00     0.344 HD
ATOM     96  H   UNL A   1      32.396  19.789  26.721  1.00  0.00     0.344 HD
ATOM     97  H   UNL A   1      33.631  20.901  26.830  1.00  0.00     0.344 HD
ENDBRANCH  92  94
ENDBRANCH  91  92
ENDBRANCH  90  91
ENDBRANCH  89  90
ENDBRANCH  87  89
ENDBRANCH  85  87
ENDBRANCH  83  85
ENDBRANCH   5  83
TORSDOF 21
ENDMDL
