MODEL 1
REMARK VINA RESULT:     -13.4      0.000      0.000
REMARK SMILES NS(=O)(=O)c1ccc(-c2cc(Cl)cc3c2O[C@H](C(F)(F)F)C(C(=O)NCCCNC(=O)c2ccc(-c4c5nc(c(-c6cc(S(=O)(=O)[O-])ccc6F)c6ccc([nH]6)c(-c6cc(S(=O)(=O)[O-])ccc6F)c6nc(c(-c7cc(S(=O)(=O)[O-])ccc7F)c7ccc4[nH]7)C=C6)C=C5)cc2)=C3)cc1
REMARK SMILES IDX 27 1 26 2 25 3 23 4 24 5 22 7 9 8 10 9 15 10 11 11 14 12
REMARK SMILES IDX 16 13 12 14 13 15 95 16 17 17 8 18 5 19 6 20 97 21 7 22
REMARK SMILES IDX 96 23 2 24 3 25 4 26 1 27 18 30 19 31 20 32 21 33 28 34
REMARK SMILES IDX 29 35 30 36 31 38 32 39 33 40 94 41 34 42 93 43 35 44 36 45
REMARK SMILES IDX 37 46 87 47 38 48 92 49 86 50 88 51 39 52 91 53 85 54 84 55
REMARK SMILES IDX 40 57 72 58 52 59 71 60 53 61 56 62 70 63 89 64 54 65 55 66
REMARK SMILES IDX 69 68 90 69 57 70 41 71 42 72 50 73 43 74 49 75 51 76 48 77
REMARK SMILES IDX 44 78 45 79 46 80 47 81 73 82 74 83 82 84 75 85 81 86 83 87
REMARK SMILES IDX 80 88 76 89 77 90 78 91 79 92 58 93 59 94 67 95 60 96 66 97
REMARK SMILES IDX 68 98 65 99 61 100 62 101 63 102 64 103
REMARK H PARENT 25 6 1 28 1 29 29 37 88 56 56 67
REMARK Flexibility Score: inf
ROOT
ATOM      1  C   UNL A   1      36.080  21.148  25.153  1.00  0.00     0.042 C 
ENDROOT
BRANCH   1   2
ATOM      2  C   UNL A   1      35.181  21.608  26.303  1.00  0.00     0.118 C 
BRANCH   2   3
ATOM      3  N   UNL A   1      35.063  23.052  26.302  1.00  0.00    -0.352 N 
ATOM      4  C   UNL A   1      34.482  23.815  25.343  1.00  0.00     0.251 C 
ATOM      5  O   UNL A   1      35.008  24.865  24.992  1.00  0.00    -0.270 OA
ATOM      6  H   UNL A   1      35.444  23.528  27.076  1.00  0.00     0.163 HD
BRANCH   4   7
ATOM      7  C   UNL A   1      33.128  23.397  24.873  1.00  0.00     0.067 C 
ATOM      8  C   UNL A   1      31.503  27.066  24.217  1.00  0.00     0.026 A 
ATOM      9  C   UNL A   1      31.893  27.871  25.320  1.00  0.00     0.033 A 
ATOM     10  C   UNL A   1      31.702  25.681  24.360  1.00  0.00     0.135 A 
ATOM     11  C   UNL A   1      32.258  27.332  26.551  1.00  0.00     0.042 A 
ATOM     12  C   UNL A   1      31.954  25.151  25.651  1.00  0.00     0.019 A 
ATOM     13  O   UNL A   1      31.733  24.793  23.292  1.00  0.00    -0.475 OA
ATOM     14  Cl  UNL A   1      32.723  28.375  27.834  1.00  0.00    -0.084 Cl
ATOM     15  C   UNL A   1      32.209  25.967  26.749  1.00  0.00     0.032 A 
ATOM     16  C   UNL A   1      32.163  23.691  25.767  1.00  0.00     0.025 C 
ATOM     17  C   UNL A   1      32.805  23.751  23.427  1.00  0.00     0.314 C 
BRANCH   8  18
ATOM     18  C   UNL A   1      30.695  27.785  23.193  1.00  0.00    -0.015 A 
ATOM     19  C   UNL A   1      29.125  29.946  22.245  1.00  0.00     0.082 A 
ATOM     20  C   UNL A   1      30.498  29.916  21.990  1.00  0.00     0.022 A 
ATOM     21  C   UNL A   1      28.508  28.856  22.857  1.00  0.00     0.022 A 
ATOM     22  C   UNL A   1      31.269  28.832  22.436  1.00  0.00     0.010 A 
ATOM     23  C   UNL A   1      29.289  27.778  23.314  1.00  0.00     0.010 A 
BRANCH  19  24
ATOM     24  S   UNL A   1      28.252  31.446  21.881  1.00  0.00     0.238 S 
ATOM     25  O   UNL A   1      27.498  31.256  20.662  1.00  0.00    -0.207 OA
ATOM     26  O   UNL A   1      29.150  32.557  22.074  1.00  0.00    -0.207 OA
BRANCH  24  27
ATOM     27  N   UNL A   1      27.097  31.608  23.095  1.00  0.00    -0.225 NA
ATOM     28  H   UNL A   1      27.170  32.537  23.511  1.00  0.00     0.137 HD
ATOM     29  H   UNL A   1      27.256  30.901  23.813  1.00  0.00     0.137 HD
ENDBRANCH  24  27
ENDBRANCH  19  24
ENDBRANCH   8  18
BRANCH  17  30
ATOM     30  C   UNL A   1      32.442  22.441  22.689  1.00  0.00     0.429 C 
ATOM     31  F   UNL A   1      32.961  21.344  23.286  1.00  0.00    -0.167 F 
ATOM     32  F   UNL A   1      31.100  22.274  22.617  1.00  0.00    -0.167 F 
ATOM     33  F   UNL A   1      32.892  22.424  21.405  1.00  0.00    -0.167 F 
ENDBRANCH  17  30
ENDBRANCH   4   7
ENDBRANCH   2   3
ENDBRANCH   1   2
BRANCH   1  34
ATOM     34  C   UNL A   1      37.515  21.671  25.212  1.00  0.00     0.118 C 
BRANCH  34  35
ATOM     35  N   UNL A   1      38.458  20.690  25.719  1.00  0.00    -0.352 N 
ATOM     36  C   UNL A   1      39.658  20.880  26.361  1.00  0.00     0.251 C 
ATOM     37  H   UNL A   1      38.199  19.749  25.583  1.00  0.00     0.163 HD
ATOM     38  O   UNL A   1      40.392  19.916  26.559  1.00  0.00    -0.269 OA
BRANCH  36  39
ATOM     39  C   UNL A   1      40.074  22.237  26.777  1.00  0.00     0.039 A 
ATOM     40  C   UNL A   1      41.093  22.367  27.723  1.00  0.00     0.014 A 
ATOM     41  C   UNL A   1      39.465  23.379  26.248  1.00  0.00     0.014 A 
ATOM     42  C   UNL A   1      41.539  23.638  28.093  1.00  0.00     0.010 A 
ATOM     43  C   UNL A   1      39.971  24.642  26.551  1.00  0.00     0.010 A 
ATOM     44  C   UNL A   1      41.007  24.788  27.485  1.00  0.00    -0.014 A 
BRANCH  44  45
ATOM     45  C   UNL A   1      41.515  26.142  27.836  1.00  0.00     0.031 A 
ATOM     46  C   UNL A   1      42.907  26.556  27.436  1.00  0.00     0.074 A 
ATOM     47  C   UNL A   1      40.736  26.986  28.542  1.00  0.00     0.049 A 
ATOM     48  N   UNL A   1      43.535  27.681  27.668  1.00  0.00    -0.248 NA
ATOM     49  C   UNL A   1      43.711  25.563  26.709  1.00  0.00     0.031 C 
ATOM     50  C   UNL A   1      39.387  26.684  29.029  1.00  0.00     0.029 A 
ATOM     51  N   UNL A   1      40.958  28.272  28.971  1.00  0.00    -0.354 N 
ATOM     52  C   UNL A   1      44.806  27.527  27.123  1.00  0.00     0.074 A 
ATOM     53  C   UNL A   1      44.882  26.173  26.619  1.00  0.00     0.031 C 
ATOM     54  C   UNL A   1      38.890  27.764  29.651  1.00  0.00     0.029 A 
ATOM     55  C   UNL A   1      39.896  28.821  29.653  1.00  0.00     0.049 A 
ATOM     56  H   UNL A   1      41.800  28.755  28.806  1.00  0.00     0.167 HD
ATOM     57  C   UNL A   1      45.807  28.438  27.023  1.00  0.00     0.034 A 
ATOM     58  C   UNL A   1      39.751  30.035  30.220  1.00  0.00     0.034 A 
ATOM     59  C   UNL A   1      45.710  29.788  27.521  1.00  0.00     0.049 A 
ATOM     60  C   UNL A   1      40.886  31.023  30.119  1.00  0.00     0.074 A 
ATOM     61  C   UNL A   1      46.638  30.811  27.427  1.00  0.00     0.029 A 
ATOM     62  N   UNL A   1      44.623  30.305  28.217  1.00  0.00    -0.354 N 
ATOM     63  N   UNL A   1      42.057  30.880  29.543  1.00  0.00    -0.248 NA
ATOM     64  C   UNL A   1      40.672  32.340  30.731  1.00  0.00     0.031 C 
ATOM     65  C   UNL A   1      46.148  31.916  28.130  1.00  0.00     0.029 A 
ATOM     66  C   UNL A   1      44.875  31.619  28.589  1.00  0.00     0.049 A 
ATOM     67  H   UNL A   1      43.795  29.812  28.416  1.00  0.00     0.167 HD
ATOM     68  C   UNL A   1      42.708  32.102  29.700  1.00  0.00     0.074 A 
ATOM     69  C   UNL A   1      41.786  32.974  30.401  1.00  0.00     0.031 C 
ATOM     70  C   UNL A   1      43.954  32.472  29.302  1.00  0.00     0.034 A 
BRANCH  57  71
ATOM     71  C   UNL A   1      47.095  27.991  26.370  1.00  0.00     0.023 A 
ATOM     72  C   UNL A   1      47.297  28.101  24.983  1.00  0.00     0.031 A 
ATOM     73  C   UNL A   1      48.124  27.419  27.139  1.00  0.00     0.131 A 
ATOM     74  C   UNL A   1      48.460  27.576  24.400  1.00  0.00     0.055 A 
ATOM     75  C   UNL A   1      49.317  26.979  26.563  1.00  0.00     0.041 A 
ATOM     76  F   UNL A   1      47.982  27.265  28.465  1.00  0.00    -0.206 F 
ATOM     77  C   UNL A   1      49.485  27.040  25.183  1.00  0.00     0.022 A 
BRANCH  74  78
ATOM     78  S   UNL A   1      48.545  27.461  22.591  1.00  0.00     0.124 S 
ATOM     79  O   UNL A   1      47.379  28.246  22.192  1.00  0.00    -0.237 OA
ATOM     80  O   UNL A   1      49.845  28.053  22.297  1.00  0.00    -0.237 OA
ATOM     81  O   UNL A   1      48.438  26.027  22.332  1.00  0.00    -0.744 OA
ENDBRANCH  74  78
ENDBRANCH  57  71
BRANCH  58  82
ATOM     82  C   UNL A   1      38.492  30.392  30.941  1.00  0.00     0.023 A 
ATOM     83  C   UNL A   1      37.469  31.111  30.302  1.00  0.00     0.031 A 
ATOM     84  C   UNL A   1      38.317  30.065  32.297  1.00  0.00     0.131 A 
ATOM     85  C   UNL A   1      36.342  31.525  31.030  1.00  0.00     0.055 A 
ATOM     86  C   UNL A   1      37.167  30.427  33.003  1.00  0.00     0.041 A 
ATOM     87  F   UNL A   1      39.262  29.377  32.959  1.00  0.00    -0.206 F 
ATOM     88  C   UNL A   1      36.178  31.175  32.373  1.00  0.00     0.022 A 
BRANCH  85  89
ATOM     89  S   UNL A   1      35.138  32.616  30.224  1.00  0.00     0.124 S 
ATOM     90  O   UNL A   1      34.666  31.779  29.128  1.00  0.00    -0.237 OA
ATOM     91  O   UNL A   1      34.185  32.862  31.301  1.00  0.00    -0.237 OA
ATOM     92  O   UNL A   1      35.938  33.773  29.828  1.00  0.00    -0.744 OA
ENDBRANCH  85  89
ENDBRANCH  58  82
BRANCH  70  93
ATOM     93  C   UNL A   1      44.369  33.896  29.588  1.00  0.00     0.023 A 
ATOM     94  C   UNL A   1      44.101  34.940  28.684  1.00  0.00     0.031 A 
ATOM     95  C   UNL A   1      45.065  34.209  30.769  1.00  0.00     0.131 A 
ATOM     96  C   UNL A   1      44.587  36.230  28.942  1.00  0.00     0.055 A 
ATOM     97  C   UNL A   1      45.482  35.509  31.055  1.00  0.00     0.041 A 
ATOM     98  F   UNL A   1      45.354  33.253  31.667  1.00  0.00    -0.206 F 
ATOM     99  C   UNL A   1      45.259  36.526  30.131  1.00  0.00     0.022 A 
BRANCH  96 100
ATOM    100  S   UNL A   1      44.436  37.491  27.647  1.00  0.00     0.124 S 
ATOM    101  O   UNL A   1      44.420  38.725  28.426  1.00  0.00    -0.237 OA
ATOM    102  O   UNL A   1      45.634  37.259  26.846  1.00  0.00    -0.237 OA
ATOM    103  O   UNL A   1      43.175  37.157  26.988  1.00  0.00    -0.744 OA
ENDBRANCH  96 100
ENDBRANCH  70  93
ENDBRANCH  44  45
ENDBRANCH  36  39
ENDBRANCH  34  35
ENDBRANCH   1  34
TORSDOF 17
ENDMDL
MODEL 2
REMARK VINA RESULT:     -13.3      1.643      7.389
REMARK SMILES NS(=O)(=O)c1ccc(-c2cc(Cl)cc3c2O[C@H](C(F)(F)F)C(C(=O)NCCCNC(=O)c2ccc(-c4c5nc(c(-c6cc(S(=O)(=O)[O-])ccc6F)c6ccc([nH]6)c(-c6cc(S(=O)(=O)[O-])ccc6F)c6nc(c(-c7cc(S(=O)(=O)[O-])ccc7F)c7ccc4[nH]7)C=C6)C=C5)cc2)=C3)cc1
REMARK SMILES IDX 27 1 26 2 25 3 23 4 24 5 22 7 9 8 10 9 15 10 11 11 14 12
REMARK SMILES IDX 16 13 12 14 13 15 95 16 17 17 8 18 5 19 6 20 97 21 7 22
REMARK SMILES IDX 96 23 2 24 3 25 4 26 1 27 18 30 19 31 20 32 21 33 28 34
REMARK SMILES IDX 29 35 30 36 31 38 32 39 33 40 94 41 34 42 93 43 35 44 36 45
REMARK SMILES IDX 37 46 87 47 38 48 92 49 86 50 88 51 39 52 91 53 85 54 84 55
REMARK SMILES IDX 40 57 72 58 52 59 71 60 53 61 56 62 70 63 89 64 54 65 55 66
REMARK SMILES IDX 69 68 90 69 57 70 41 71 42 72 50 73 43 74 49 75 51 76 48 77
REMARK SMILES IDX 44 78 45 79 46 80 47 81 73 82 74 83 82 84 75 85 81 86 83 87
REMARK SMILES IDX 80 88 76 89 77 90 78 91 79 92 58 93 59 94 67 95 60 96 66 97
REMARK SMILES IDX 68 98 65 99 61 100 62 101 63 102 64 103
REMARK H PARENT 25 6 1 28 1 29 29 37 88 56 56 67
REMARK Flexibility Score: inf
ROOT
ATOM      1  C   UNL A   1      35.563  21.099  25.227  1.00  0.00     0.042 C 
ENDROOT
BRANCH   1   2
ATOM      2  C   UNL A   1      34.930  21.628  26.516  1.00  0.00     0.118 C 
BRANCH   2   3
ATOM      3  N   UNL A   1      34.776  23.068  26.446  1.00  0.00    -0.352 N 
ATOM      4  C   UNL A   1      34.273  23.778  25.406  1.00  0.00     0.251 C 
ATOM      5  O   UNL A   1      34.803  24.828  25.065  1.00  0.00    -0.270 OA
ATOM      6  H   UNL A   1      35.069  23.583  27.233  1.00  0.00     0.163 HD
BRANCH   4   7
ATOM      7  C   UNL A   1      32.980  23.304  24.827  1.00  0.00     0.067 C 
ATOM      8  C   UNL A   1      31.156  26.896  24.275  1.00  0.00     0.026 A 
ATOM      9  C   UNL A   1      31.424  27.656  25.444  1.00  0.00     0.033 A 
ATOM     10  C   UNL A   1      31.439  25.521  24.352  1.00  0.00     0.135 A 
ATOM     11  C   UNL A   1      31.748  27.068  26.664  1.00  0.00     0.042 A 
ATOM     12  C   UNL A   1      31.647  24.930  25.624  1.00  0.00     0.019 A 
ATOM     13  O   UNL A   1      31.594  24.703  23.239  1.00  0.00    -0.475 OA
ATOM     14  Cl  UNL A   1      32.063  28.058  28.031  1.00  0.00    -0.084 Cl
ATOM     15  C   UNL A   1      31.779  25.693  26.780  1.00  0.00     0.032 A 
ATOM     16  C   UNL A   1      31.945  23.482  25.671  1.00  0.00     0.025 C 
ATOM     17  C   UNL A   1      32.723  23.724  23.385  1.00  0.00     0.314 C 
BRANCH   8  18
ATOM     18  C   UNL A   1      30.367  27.624  23.242  1.00  0.00    -0.015 A 
ATOM     19  C   UNL A   1      28.862  29.818  22.266  1.00  0.00     0.082 A 
ATOM     20  C   UNL A   1      30.231  29.739  22.005  1.00  0.00     0.022 A 
ATOM     21  C   UNL A   1      28.213  28.758  22.900  1.00  0.00     0.022 A 
ATOM     22  C   UNL A   1      30.969  28.639  22.465  1.00  0.00     0.010 A 
ATOM     23  C   UNL A   1      28.962  27.664  23.370  1.00  0.00     0.010 A 
BRANCH  19  24
ATOM     24  S   UNL A   1      28.035  31.338  21.881  1.00  0.00     0.238 S 
ATOM     25  O   UNL A   1      27.130  31.658  22.964  1.00  0.00    -0.207 OA
ATOM     26  O   UNL A   1      27.613  31.294  20.503  1.00  0.00    -0.207 OA
BRANCH  24  27
ATOM     27  N   UNL A   1      29.223  32.530  21.930  1.00  0.00    -0.225 NA
ATOM     28  H   UNL A   1      30.094  32.157  21.553  1.00  0.00     0.137 HD
ATOM     29  H   UNL A   1      29.370  32.825  22.895  1.00  0.00     0.137 HD
ENDBRANCH  24  27
ENDBRANCH  19  24
ENDBRANCH   8  18
BRANCH  17  30
ATOM     30  C   UNL A   1      32.495  22.441  22.552  1.00  0.00     0.429 C 
ATOM     31  F   UNL A   1      33.142  21.367  23.059  1.00  0.00    -0.167 F 
ATOM     32  F   UNL A   1      31.178  22.131  22.480  1.00  0.00    -0.167 F 
ATOM     33  F   UNL A   1      32.921  22.571  21.267  1.00  0.00    -0.167 F 
ENDBRANCH  17  30
ENDBRANCH   4   7
ENDBRANCH   2   3
ENDBRANCH   1   2
BRANCH   1  34
ATOM     34  C   UNL A   1      37.027  21.490  25.024  1.00  0.00     0.118 C 
BRANCH  34  35
ATOM     35  N   UNL A   1      37.954  20.438  25.403  1.00  0.00    -0.352 N 
ATOM     36  C   UNL A   1      39.227  20.535  25.913  1.00  0.00     0.251 C 
ATOM     37  H   UNL A   1      37.622  19.519  25.277  1.00  0.00     0.163 HD
ATOM     38  O   UNL A   1      39.915  19.523  26.008  1.00  0.00    -0.269 OA
BRANCH  36  39
ATOM     39  C   UNL A   1      39.772  21.853  26.309  1.00  0.00     0.039 A 
ATOM     40  C   UNL A   1      40.982  21.897  27.006  1.00  0.00     0.014 A 
ATOM     41  C   UNL A   1      39.099  23.040  26.006  1.00  0.00     0.014 A 
ATOM     42  C   UNL A   1      41.543  23.130  27.345  1.00  0.00     0.010 A 
ATOM     43  C   UNL A   1      39.704  24.268  26.266  1.00  0.00     0.010 A 
ATOM     44  C   UNL A   1      40.927  24.329  26.948  1.00  0.00    -0.014 A 
BRANCH  44  45
ATOM     45  C   UNL A   1      41.548  25.646  27.260  1.00  0.00     0.031 A 
ATOM     46  C   UNL A   1      40.795  26.664  28.076  1.00  0.00     0.074 A 
ATOM     47  C   UNL A   1      42.774  25.938  26.781  1.00  0.00     0.049 A 
ATOM     48  N   UNL A   1      41.156  27.870  28.434  1.00  0.00    -0.248 NA
ATOM     49  C   UNL A   1      39.445  26.288  28.523  1.00  0.00     0.031 C 
ATOM     50  C   UNL A   1      43.583  25.054  25.938  1.00  0.00     0.029 A 
ATOM     51  N   UNL A   1      43.559  27.054  26.935  1.00  0.00    -0.354 N 
ATOM     52  C   UNL A   1      40.078  28.398  29.138  1.00  0.00     0.074 A 
ATOM     53  C   UNL A   1      39.024  27.408  29.089  1.00  0.00     0.031 C 
ATOM     54  C   UNL A   1      44.762  25.644  25.685  1.00  0.00     0.029 A 
ATOM     55  C   UNL A   1      44.779  26.965  26.303  1.00  0.00     0.049 A 
ATOM     56  H   UNL A   1      43.275  27.844  27.449  1.00  0.00     0.167 HD
ATOM     57  C   UNL A   1      39.985  29.583  29.791  1.00  0.00     0.034 A 
ATOM     58  C   UNL A   1      45.794  27.850  26.227  1.00  0.00     0.034 A 
ATOM     59  C   UNL A   1      41.051  30.554  29.839  1.00  0.00     0.049 A 
ATOM     60  C   UNL A   1      45.658  29.171  26.941  1.00  0.00     0.074 A 
ATOM     61  C   UNL A   1      41.087  31.762  30.515  1.00  0.00     0.029 A 
ATOM     62  N   UNL A   1      42.268  30.435  29.179  1.00  0.00    -0.354 N 
ATOM     63  N   UNL A   1      44.655  29.627  27.655  1.00  0.00    -0.248 NA
ATOM     64  C   UNL A   1      46.798  30.091  26.848  1.00  0.00     0.031 C 
ATOM     65  C   UNL A   1      42.288  32.406  30.200  1.00  0.00     0.029 A 
ATOM     66  C   UNL A   1      43.044  31.564  29.401  1.00  0.00     0.049 A 
ATOM     67  H   UNL A   1      42.539  29.663  28.632  1.00  0.00     0.167 HD
ATOM     68  C   UNL A   1      45.058  30.876  28.121  1.00  0.00     0.074 A 
ATOM     69  C   UNL A   1      46.404  31.087  27.627  1.00  0.00     0.031 C 
ATOM     70  C   UNL A   1      44.379  31.769  28.888  1.00  0.00     0.034 A 
BRANCH  57  71
ATOM     71  C   UNL A   1      38.679  29.897  30.484  1.00  0.00     0.023 A 
ATOM     72  C   UNL A   1      37.659  30.624  29.844  1.00  0.00     0.031 A 
ATOM     73  C   UNL A   1      38.458  29.489  31.810  1.00  0.00     0.131 A 
ATOM     74  C   UNL A   1      36.506  30.990  30.553  1.00  0.00     0.055 A 
ATOM     75  C   UNL A   1      37.269  29.779  32.484  1.00  0.00     0.041 A 
ATOM     76  F   UNL A   1      39.400  28.812  32.484  1.00  0.00    -0.206 F 
ATOM     77  C   UNL A   1      36.290  30.549  31.861  1.00  0.00     0.022 A 
BRANCH  74  78
ATOM     78  S   UNL A   1      35.364  32.180  29.796  1.00  0.00     0.124 S 
ATOM     79  O   UNL A   1      36.273  33.258  29.416  1.00  0.00    -0.237 OA
ATOM     80  O   UNL A   1      34.790  31.411  28.698  1.00  0.00    -0.237 OA
ATOM     81  O   UNL A   1      34.440  32.507  30.880  1.00  0.00    -0.744 OA
ENDBRANCH  74  78
ENDBRANCH  57  71
BRANCH  58  82
ATOM     82  C   UNL A   1      47.025  27.528  25.446  1.00  0.00     0.023 A 
ATOM     83  C   UNL A   1      47.143  27.894  24.095  1.00  0.00     0.031 A 
ATOM     84  C   UNL A   1      48.081  26.802  26.024  1.00  0.00     0.131 A 
ATOM     85  C   UNL A   1      48.265  27.488  23.354  1.00  0.00     0.055 A 
ATOM     86  C   UNL A   1      49.223  26.452  25.300  1.00  0.00     0.041 A 
ATOM     87  F   UNL A   1      48.024  26.427  27.312  1.00  0.00    -0.206 F 
ATOM     88  C   UNL A   1      49.312  26.783  23.951  1.00  0.00     0.022 A 
BRANCH  85  89
ATOM     89  S   UNL A   1      48.290  27.810  21.569  1.00  0.00     0.124 S 
ATOM     90  O   UNL A   1      49.337  28.819  21.464  1.00  0.00    -0.237 OA
ATOM     91  O   UNL A   1      48.612  26.492  21.030  1.00  0.00    -0.237 OA
ATOM     92  O   UNL A   1      46.936  28.280  21.288  1.00  0.00    -0.744 OA
ENDBRANCH  85  89
ENDBRANCH  58  82
BRANCH  70  93
ATOM     93  C   UNL A   1      45.106  33.039  29.266  1.00  0.00     0.023 A 
ATOM     94  C   UNL A   1      45.886  33.126  30.432  1.00  0.00     0.031 A 
ATOM     95  C   UNL A   1      44.995  34.186  28.459  1.00  0.00     0.131 A 
ATOM     96  C   UNL A   1      46.465  34.350  30.797  1.00  0.00     0.055 A 
ATOM     97  C   UNL A   1      45.635  35.381  28.789  1.00  0.00     0.041 A 
ATOM     98  F   UNL A   1      44.260  34.165  27.336  1.00  0.00    -0.206 F 
ATOM     99  C   UNL A   1      46.362  35.474  29.972  1.00  0.00     0.022 A 
BRANCH  96 100
ATOM    100  S   UNL A   1      47.256  34.488  32.423  1.00  0.00     0.124 S 
ATOM    101  O   UNL A   1      46.868  35.833  32.835  1.00  0.00    -0.237 OA
ATOM    102  O   UNL A   1      46.637  33.392  33.163  1.00  0.00    -0.237 OA
ATOM    103  O   UNL A   1      48.677  34.313  32.131  1.00  0.00    -0.744 OA
ENDBRANCH  96 100
ENDBRANCH  70  93
ENDBRANCH  44  45
ENDBRANCH  36  39
ENDBRANCH  34  35
ENDBRANCH   1  34
TORSDOF 17
ENDMDL
MODEL 3
REMARK VINA RESULT:     -13.3      5.284     10.275
REMARK SMILES NS(=O)(=O)c1ccc(-c2cc(Cl)cc3c2O[C@H](C(F)(F)F)C(C(=O)NCCCNC(=O)c2ccc(-c4c5nc(c(-c6cc(S(=O)(=O)[O-])ccc6F)c6ccc([nH]6)c(-c6cc(S(=O)(=O)[O-])ccc6F)c6nc(c(-c7cc(S(=O)(=O)[O-])ccc7F)c7ccc4[nH]7)C=C6)C=C5)cc2)=C3)cc1
REMARK SMILES IDX 27 1 26 2 25 3 23 4 24 5 22 7 9 8 10 9 15 10 11 11 14 12
REMARK SMILES IDX 16 13 12 14 13 15 95 16 17 17 8 18 5 19 6 20 97 21 7 22
REMARK SMILES IDX 96 23 2 24 3 25 4 26 1 27 18 30 19 31 20 32 21 33 28 34
REMARK SMILES IDX 29 35 30 36 31 38 32 39 33 40 94 41 34 42 93 43 35 44 36 45
REMARK SMILES IDX 37 46 87 47 38 48 92 49 86 50 88 51 39 52 91 53 85 54 84 55
REMARK SMILES IDX 40 57 72 58 52 59 71 60 53 61 56 62 70 63 89 64 54 65 55 66
REMARK SMILES IDX 69 68 90 69 57 70 41 71 42 72 50 73 43 74 49 75 51 76 48 77
REMARK SMILES IDX 44 78 45 79 46 80 47 81 73 82 74 83 82 84 75 85 81 86 83 87
REMARK SMILES IDX 80 88 76 89 77 90 78 91 79 92 58 93 59 94 67 95 60 96 66 97
REMARK SMILES IDX 68 98 65 99 61 100 62 101 63 102 64 103
REMARK H PARENT 25 6 1 28 1 29 29 37 88 56 56 67
REMARK Flexibility Score: inf
ROOT
ATOM      1  C   UNL A   1      32.464  29.621  25.703  1.00  0.00     0.042 C 
ENDROOT
BRANCH   1   2
ATOM      2  C   UNL A   1      33.141  29.121  24.424  1.00  0.00     0.118 C 
BRANCH   2   3
ATOM      3  N   UNL A   1      33.904  27.919  24.697  1.00  0.00    -0.352 N 
ATOM      4  C   UNL A   1      33.412  26.723  25.105  1.00  0.00     0.251 C 
ATOM      5  O   UNL A   1      33.997  26.081  25.969  1.00  0.00    -0.270 OA
ATOM      6  H   UNL A   1      34.880  27.978  24.575  1.00  0.00     0.163 HD
BRANCH   4   7
ATOM      7  C   UNL A   1      32.244  26.179  24.349  1.00  0.00     0.067 C 
ATOM      8  C   UNL A   1      33.295  22.252  24.264  1.00  0.00     0.026 A 
ATOM      9  C   UNL A   1      34.684  22.224  23.970  1.00  0.00     0.033 A 
ATOM     10  C   UNL A   1      32.645  23.482  24.063  1.00  0.00     0.135 A 
ATOM     11  C   UNL A   1      35.337  23.273  23.327  1.00  0.00     0.042 A 
ATOM     12  C   UNL A   1      33.292  24.488  23.300  1.00  0.00     0.019 A 
ATOM     13  O   UNL A   1      31.417  23.805  24.628  1.00  0.00    -0.475 OA
ATOM     14  Cl  UNL A   1      37.022  23.163  23.012  1.00  0.00    -0.084 Cl
ATOM     15  C   UNL A   1      34.623  24.379  22.912  1.00  0.00     0.032 A 
ATOM     16  C   UNL A   1      32.582  25.772  23.110  1.00  0.00     0.025 C 
ATOM     17  C   UNL A   1      31.357  25.218  25.131  1.00  0.00     0.314 C 
BRANCH   8  18
ATOM     18  C   UNL A   1      32.691  20.908  24.481  1.00  0.00    -0.015 A 
ATOM     19  C   UNL A   1      32.760  18.078  24.629  1.00  0.00     0.082 A 
ATOM     20  C   UNL A   1      32.914  18.842  25.787  1.00  0.00     0.022 A 
ATOM     21  C   UNL A   1      32.450  18.703  23.421  1.00  0.00     0.022 A 
ATOM     22  C   UNL A   1      32.852  20.242  25.717  1.00  0.00     0.010 A 
ATOM     23  C   UNL A   1      32.402  20.108  23.355  1.00  0.00     0.010 A 
BRANCH  19  24
ATOM     24  S   UNL A   1      33.094  16.341  24.736  1.00  0.00     0.238 S 
ATOM     25  O   UNL A   1      33.579  15.885  23.452  1.00  0.00    -0.207 OA
ATOM     26  O   UNL A   1      31.998  15.705  25.423  1.00  0.00    -0.207 OA
BRANCH  24  27
ATOM     27  N   UNL A   1      34.405  16.191  25.783  1.00  0.00    -0.225 NA
ATOM     28  H   UNL A   1      35.068  16.946  25.607  1.00  0.00     0.137 HD
ATOM     29  H   UNL A   1      34.863  15.293  25.628  1.00  0.00     0.137 HD
ENDBRANCH  24  27
ENDBRANCH  19  24
ENDBRANCH   8  18
BRANCH  17  30
ATOM     30  C   UNL A   1      29.918  25.784  25.113  1.00  0.00     0.429 C 
ATOM     31  F   UNL A   1      29.887  27.135  25.068  1.00  0.00    -0.167 F 
ATOM     32  F   UNL A   1      29.221  25.322  24.047  1.00  0.00    -0.167 F 
ATOM     33  F   UNL A   1      29.202  25.424  26.213  1.00  0.00    -0.167 F 
ENDBRANCH  17  30
ENDBRANCH   4   7
ENDBRANCH   2   3
ENDBRANCH   1   2
BRANCH   1  34
ATOM     34  C   UNL A   1      33.408  29.840  26.885  1.00  0.00     0.118 C 
BRANCH  34  35
ATOM     35  N   UNL A   1      33.400  31.208  27.373  1.00  0.00    -0.352 N 
ATOM     36  C   UNL A   1      34.285  31.843  28.212  1.00  0.00     0.251 C 
ATOM     37  H   UNL A   1      32.651  31.763  27.056  1.00  0.00     0.163 HD
ATOM     38  O   UNL A   1      34.007  32.958  28.643  1.00  0.00    -0.269 OA
BRANCH  36  39
ATOM     39  C   UNL A   1      35.541  31.172  28.615  1.00  0.00     0.039 A 
ATOM     40  C   UNL A   1      36.757  31.717  28.198  1.00  0.00     0.014 A 
ATOM     41  C   UNL A   1      35.528  30.012  29.395  1.00  0.00     0.014 A 
ATOM     42  C   UNL A   1      37.957  31.133  28.610  1.00  0.00     0.010 A 
ATOM     43  C   UNL A   1      36.724  29.485  29.877  1.00  0.00     0.010 A 
ATOM     44  C   UNL A   1      37.954  30.032  29.483  1.00  0.00    -0.014 A 
BRANCH  44  45
ATOM     45  C   UNL A   1      39.229  29.438  29.968  1.00  0.00     0.031 A 
ATOM     46  C   UNL A   1      39.908  29.996  31.191  1.00  0.00     0.074 A 
ATOM     47  C   UNL A   1      39.793  28.419  29.288  1.00  0.00     0.049 A 
ATOM     48  N   UNL A   1      41.032  29.630  31.755  1.00  0.00    -0.248 NA
ATOM     49  C   UNL A   1      39.255  31.137  31.849  1.00  0.00     0.031 C 
ATOM     50  C   UNL A   1      39.258  27.822  28.062  1.00  0.00     0.029 A 
ATOM     51  N   UNL A   1      40.937  27.698  29.531  1.00  0.00    -0.354 N 
ATOM     52  C   UNL A   1      41.222  30.499  32.825  1.00  0.00     0.074 A 
ATOM     53  C   UNL A   1      40.137  31.455  32.783  1.00  0.00     0.031 C 
ATOM     54  C   UNL A   1      40.047  26.804  27.685  1.00  0.00     0.029 A 
ATOM     55  C   UNL A   1      41.171  26.702  28.609  1.00  0.00     0.049 A 
ATOM     56  H   UNL A   1      41.534  27.877  30.293  1.00  0.00     0.167 HD
ATOM     57  C   UNL A   1      42.192  30.482  33.774  1.00  0.00     0.034 A 
ATOM     58  C   UNL A   1      42.179  25.811  28.518  1.00  0.00     0.034 A 
ATOM     59  C   UNL A   1      43.260  29.514  33.807  1.00  0.00     0.049 A 
ATOM     60  C   UNL A   1      43.259  25.828  29.570  1.00  0.00     0.074 A 
ATOM     61  C   UNL A   1      44.263  29.369  34.749  1.00  0.00     0.029 A 
ATOM     62  N   UNL A   1      43.471  28.527  32.852  1.00  0.00    -0.354 N 
ATOM     63  N   UNL A   1      43.388  26.617  30.611  1.00  0.00    -0.248 NA
ATOM     64  C   UNL A   1      44.322  24.824  29.440  1.00  0.00     0.031 C 
ATOM     65  C   UNL A   1      45.123  28.351  34.324  1.00  0.00     0.029 A 
ATOM     66  C   UNL A   1      44.609  27.796  33.163  1.00  0.00     0.049 A 
ATOM     67  H   UNL A   1      42.897  28.370  32.068  1.00  0.00     0.167 HD
ATOM     68  C   UNL A   1      44.532  26.184  31.277  1.00  0.00     0.074 A 
ATOM     69  C   UNL A   1      45.038  25.049  30.531  1.00  0.00     0.031 C 
ATOM     70  C   UNL A   1      45.113  26.677  32.402  1.00  0.00     0.034 A 
BRANCH  57  71
ATOM     71  C   UNL A   1      42.148  31.559  34.834  1.00  0.00     0.023 A 
ATOM     72  C   UNL A   1      41.169  31.563  35.843  1.00  0.00     0.031 A 
ATOM     73  C   UNL A   1      43.079  32.612  34.821  1.00  0.00     0.131 A 
ATOM     74  C   UNL A   1      41.093  32.636  36.744  1.00  0.00     0.055 A 
ATOM     75  C   UNL A   1      43.053  33.632  35.775  1.00  0.00     0.041 A 
ATOM     76  F   UNL A   1      44.024  32.678  33.870  1.00  0.00    -0.206 F 
ATOM     77  C   UNL A   1      42.046  33.657  36.735  1.00  0.00     0.022 A 
BRANCH  74  78
ATOM     78  S   UNL A   1      39.642  32.757  37.826  1.00  0.00     0.124 S 
ATOM     79  O   UNL A   1      39.158  34.101  37.518  1.00  0.00    -0.237 OA
ATOM     80  O   UNL A   1      38.808  31.655  37.360  1.00  0.00    -0.237 OA
ATOM     81  O   UNL A   1      40.198  32.596  39.167  1.00  0.00    -0.744 OA
ENDBRANCH  74  78
ENDBRANCH  57  71
BRANCH  58  82
ATOM     82  C   UNL A   1      42.226  24.831  27.391  1.00  0.00     0.023 A 
ATOM     83  C   UNL A   1      41.468  23.649  27.426  1.00  0.00     0.031 A 
ATOM     84  C   UNL A   1      43.073  25.037  26.288  1.00  0.00     0.131 A 
ATOM     85  C   UNL A   1      41.610  22.696  26.405  1.00  0.00     0.055 A 
ATOM     86  C   UNL A   1      43.167  24.113  25.245  1.00  0.00     0.041 A 
ATOM     87  F   UNL A   1      43.820  26.150  26.202  1.00  0.00    -0.206 F 
ATOM     88  C   UNL A   1      42.443  22.926  25.307  1.00  0.00     0.022 A 
BRANCH  85  89
ATOM     89  S   UNL A   1      40.765  21.100  26.582  1.00  0.00     0.124 S 
ATOM     90  O   UNL A   1      41.630  20.219  25.806  1.00  0.00    -0.237 OA
ATOM     91  O   UNL A   1      40.784  20.908  28.028  1.00  0.00    -0.237 OA
ATOM     92  O   UNL A   1      39.445  21.349  26.006  1.00  0.00    -0.744 OA
ENDBRANCH  85  89
ENDBRANCH  58  82
BRANCH  70  93
ATOM     93  C   UNL A   1      46.342  25.959  32.908  1.00  0.00     0.023 A 
ATOM     94  C   UNL A   1      46.252  24.874  33.798  1.00  0.00     0.031 A 
ATOM     95  C   UNL A   1      47.624  26.385  32.514  1.00  0.00     0.131 A 
ATOM     96  C   UNL A   1      47.420  24.298  34.318  1.00  0.00     0.055 A 
ATOM     97  C   UNL A   1      48.782  25.760  32.979  1.00  0.00     0.041 A 
ATOM     98  F   UNL A   1      47.773  27.419  31.671  1.00  0.00    -0.206 F 
ATOM     99  C   UNL A   1      48.685  24.720  33.900  1.00  0.00     0.022 A 
BRANCH  96 100
ATOM    100  S   UNL A   1      47.266  23.069  35.644  1.00  0.00     0.124 S 
ATOM    101  O   UNL A   1      47.476  23.882  36.837  1.00  0.00    -0.237 OA
ATOM    102  O   UNL A   1      45.910  22.566  35.446  1.00  0.00    -0.237 OA
ATOM    103  O   UNL A   1      48.331  22.112  35.350  1.00  0.00    -0.744 OA
ENDBRANCH  96 100
ENDBRANCH  70  93
ENDBRANCH  44  45
ENDBRANCH  36  39
ENDBRANCH  34  35
ENDBRANCH   1  34
TORSDOF 17
ENDMDL
