MODEL 1
REMARK VINA RESULT:     -11.0      0.000      0.000
REMARK SMILES CC(C)C[C@H](NC(=O)[C@@H](NC(=O)[C@H](C)NC(=O)CNC(=O)OCc1ccccc1)C(C)C)C(=O)NCCCNC(=O)c1ccc(-c2c3nc(c(-c4cc(S(=O)(=O)[O-])ccc4F)c4ccc([nH]4)c(-c4cc(S(=O)(=O)[O-])ccc4F)c4nc(c(-c5cc(S(=O)(=O)[O-])ccc5F)c5ccc2[nH]5)C=C4)C=C3)cc1
REMARK SMILES IDX 6 1 7 2 8 3 5 5 4 6 2 7 1 8 3 9 33 10 34 11 35 12 36 14
REMARK SMILES IDX 37 15 38 16 39 17 40 18 41 20 42 21 43 22 104 23 44 24
REMARK SMILES IDX 103 25 45 26 46 27 47 28 97 29 48 30 102 31 96 32 98 33
REMARK SMILES IDX 49 34 101 35 95 36 94 37 50 39 82 40 62 41 81 42 63 43 66 44
REMARK SMILES IDX 80 45 99 46 64 47 65 48 79 50 100 51 67 52 51 53 52 54 60 55
REMARK SMILES IDX 53 56 59 57 61 58 58 59 54 60 55 61 56 62 57 63 83 64 84 65
REMARK SMILES IDX 92 66 85 67 91 68 93 69 90 70 86 71 87 72 88 73 89 74 68 75
REMARK SMILES IDX 69 76 77 77 70 78 76 79 78 80 75 81 71 82 72 83 73 84 74 85
REMARK SMILES IDX 9 86 10 87 11 88 12 90 13 91 14 92 15 93 16 94 17 96 18 97
REMARK SMILES IDX 19 98 20 99 21 101 22 102 23 103 24 104 25 105 29 106 26 107
REMARK SMILES IDX 28 108 27 109 30 110 31 111 32 112
REMARK H PARENT 6 4 35 13 39 19 98 38 66 49 10 89 15 95 19 100
REMARK Flexibility Score: inf
ROOT
ATOM      1  N   UNL A   1      36.244  23.130  23.774  1.00  0.00    -0.343 N 
ATOM      2  C   UNL A   1      34.956  22.945  23.376  1.00  0.00     0.243 C 
ATOM      3  O   UNL A   1      34.681  23.388  22.253  1.00  0.00    -0.273 OA
ATOM      4  H   UNL A   1      36.808  23.610  23.125  1.00  0.00     0.164 HD
ENDROOT
BRANCH   1   5
ATOM      5  C   UNL A   1      36.926  22.740  24.994  1.00  0.00     0.171 C 
BRANCH   5   6
ATOM      6  C   UNL A   1      37.000  23.831  26.083  1.00  0.00     0.038 C 
BRANCH   6   7
ATOM      7  C   UNL A   1      38.409  24.360  26.415  1.00  0.00    -0.015 C 
ATOM      8  C   UNL A   1      38.413  25.197  27.690  1.00  0.00     0.007 C 
ATOM      9  C   UNL A   1      39.363  23.166  26.568  1.00  0.00     0.007 C 
ENDBRANCH   6   7
ENDBRANCH   5   6
BRANCH   5  10
ATOM     10  C   UNL A   1      36.264  21.485  25.580  1.00  0.00     0.242 C 
ATOM     11  O   UNL A   1      35.437  21.569  26.486  1.00  0.00    -0.273 OA
ATOM     12  N   UNL A   1      36.570  20.230  25.203  1.00  0.00    -0.354 N 
ATOM     13  H   UNL A   1      35.851  19.571  25.340  1.00  0.00     0.163 HD
BRANCH  12  14
ATOM     14  C   UNL A   1      37.781  19.691  24.631  1.00  0.00     0.117 C 
BRANCH  14  15
ATOM     15  C   UNL A   1      38.673  19.086  25.707  1.00  0.00     0.042 C 
BRANCH  15  16
ATOM     16  C   UNL A   1      39.961  19.867  25.957  1.00  0.00     0.118 C 
BRANCH  16  17
ATOM     17  N   UNL A   1      41.121  18.994  26.053  1.00  0.00    -0.352 N 
ATOM     18  C   UNL A   1      42.452  19.325  26.102  1.00  0.00     0.251 C 
ATOM     19  H   UNL A   1      40.924  18.029  26.088  1.00  0.00     0.163 HD
ATOM     20  O   UNL A   1      43.302  18.461  25.919  1.00  0.00    -0.269 OA
BRANCH  18  21
ATOM     21  C   UNL A   1      42.837  20.728  26.346  1.00  0.00     0.039 A 
ATOM     22  C   UNL A   1      42.747  21.240  27.639  1.00  0.00     0.014 A 
ATOM     23  C   UNL A   1      43.300  21.528  25.296  1.00  0.00     0.014 A 
ATOM     24  C   UNL A   1      43.176  22.544  27.893  1.00  0.00     0.010 A 
ATOM     25  C   UNL A   1      43.807  22.793  25.567  1.00  0.00     0.010 A 
ATOM     26  C   UNL A   1      43.741  23.320  26.866  1.00  0.00    -0.014 A 
BRANCH  26  27
ATOM     27  C   UNL A   1      44.240  24.695  27.127  1.00  0.00     0.031 A 
ATOM     28  C   UNL A   1      43.308  25.734  27.690  1.00  0.00     0.074 A 
ATOM     29  C   UNL A   1      45.510  25.020  26.812  1.00  0.00     0.049 A 
ATOM     30  N   UNL A   1      43.524  27.002  27.918  1.00  0.00    -0.248 NA
ATOM     31  C   UNL A   1      41.944  25.288  28.015  1.00  0.00     0.031 C 
ATOM     32  C   UNL A   1      46.498  24.105  26.236  1.00  0.00     0.029 A 
ATOM     33  N   UNL A   1      46.187  26.207  26.928  1.00  0.00    -0.354 N 
ATOM     34  C   UNL A   1      42.322  27.511  28.401  1.00  0.00     0.074 A 
ATOM     35  C   UNL A   1      41.365  26.426  28.367  1.00  0.00     0.031 C 
ATOM     36  C   UNL A   1      47.660  24.758  26.077  1.00  0.00     0.029 A 
ATOM     37  C   UNL A   1      47.487  26.149  26.483  1.00  0.00     0.049 A 
ATOM     38  H   UNL A   1      45.780  27.025  27.294  1.00  0.00     0.167 HD
ATOM     39  C   UNL A   1      42.050  28.759  28.853  1.00  0.00     0.034 A 
ATOM     40  C   UNL A   1      48.429  27.111  26.395  1.00  0.00     0.034 A 
ATOM     41  C   UNL A   1      43.019  29.827  28.884  1.00  0.00     0.049 A 
ATOM     42  C   UNL A   1      48.086  28.506  26.855  1.00  0.00     0.074 A 
ATOM     43  C   UNL A   1      42.865  31.117  29.362  1.00  0.00     0.029 A 
ATOM     44  N   UNL A   1      44.321  29.736  28.409  1.00  0.00    -0.354 N 
ATOM     45  N   UNL A   1      46.957  28.960  27.349  1.00  0.00    -0.248 NA
ATOM     46  C   UNL A   1      49.147  29.516  26.755  1.00  0.00     0.031 C 
ATOM     47  C   UNL A   1      44.040  31.826  29.099  1.00  0.00     0.029 A 
ATOM     48  C   UNL A   1      44.965  30.955  28.546  1.00  0.00     0.049 A 
ATOM     49  H   UNL A   1      44.728  28.923  28.029  1.00  0.00     0.167 HD
ATOM     50  C   UNL A   1      47.187  30.300  27.653  1.00  0.00     0.074 A 
ATOM     51  C   UNL A   1      48.565  30.573  27.299  1.00  0.00     0.031 C 
ATOM     52  C   UNL A   1      46.339  31.219  28.182  1.00  0.00     0.034 A 
BRANCH  39  53
ATOM     53  C   UNL A   1      40.640  29.039  29.320  1.00  0.00     0.023 A 
ATOM     54  C   UNL A   1      40.315  29.128  30.685  1.00  0.00     0.031 A 
ATOM     55  C   UNL A   1      39.599  29.195  28.387  1.00  0.00     0.131 A 
ATOM     56  C   UNL A   1      38.978  29.285  31.079  1.00  0.00     0.055 A 
ATOM     57  C   UNL A   1      38.284  29.442  28.784  1.00  0.00     0.041 A 
ATOM     58  F   UNL A   1      39.841  29.097  27.070  1.00  0.00    -0.206 F 
ATOM     59  C   UNL A   1      37.964  29.471  30.138  1.00  0.00     0.022 A 
BRANCH  56  60
ATOM     60  S   UNL A   1      38.565  29.084  32.834  1.00  0.00     0.124 S 
ATOM     61  O   UNL A   1      38.251  30.456  33.222  1.00  0.00    -0.237 OA
ATOM     62  O   UNL A   1      37.440  28.158  32.789  1.00  0.00    -0.237 OA
ATOM     63  O   UNL A   1      39.793  28.546  33.416  1.00  0.00    -0.744 OA
ENDBRANCH  56  60
ENDBRANCH  39  53
BRANCH  40  64
ATOM     64  C   UNL A   1      49.777  26.804  25.833  1.00  0.00     0.023 A 
ATOM     65  C   UNL A   1      50.122  27.187  24.527  1.00  0.00     0.031 A 
ATOM     66  C   UNL A   1      50.724  26.075  26.576  1.00  0.00     0.131 A 
ATOM     67  C   UNL A   1      51.356  26.793  23.984  1.00  0.00     0.055 A 
ATOM     68  C   UNL A   1      51.975  25.742  26.055  1.00  0.00     0.041 A 
ATOM     69  F   UNL A   1      50.448  25.683  27.830  1.00  0.00    -0.206 F 
ATOM     70  C   UNL A   1      52.291  26.088  24.745  1.00  0.00     0.022 A 
BRANCH  67  71
ATOM     71  S   UNL A   1      51.680  27.128  22.232  1.00  0.00     0.124 S 
ATOM     72  O   UNL A   1      52.744  26.176  21.940  1.00  0.00    -0.237 OA
ATOM     73  O   UNL A   1      50.383  26.848  21.625  1.00  0.00    -0.237 OA
ATOM     74  O   UNL A   1      52.080  28.534  22.222  1.00  0.00    -0.744 OA
ENDBRANCH  67  71
ENDBRANCH  40  64
BRANCH  52  75
ATOM     75  C   UNL A   1      46.898  32.595  28.463  1.00  0.00     0.023 A 
ATOM     76  C   UNL A   1      47.483  32.923  29.698  1.00  0.00     0.031 A 
ATOM     77  C   UNL A   1      46.836  33.595  27.476  1.00  0.00     0.131 A 
ATOM     78  C   UNL A   1      47.930  34.233  29.933  1.00  0.00     0.055 A 
ATOM     79  C   UNL A   1      47.347  34.875  27.690  1.00  0.00     0.041 A 
ATOM     80  F   UNL A   1      46.282  33.340  26.278  1.00  0.00    -0.206 F 
ATOM     81  C   UNL A   1      47.886  35.204  28.930  1.00  0.00     0.022 A 
BRANCH  78  82
ATOM     82  S   UNL A   1      48.475  34.680  31.604  1.00  0.00     0.124 S 
ATOM     83  O   UNL A   1      49.415  35.765  31.336  1.00  0.00    -0.237 OA
ATOM     84  O   UNL A   1      47.224  35.066  32.248  1.00  0.00    -0.237 OA
ATOM     85  O   UNL A   1      49.079  33.449  32.109  1.00  0.00    -0.744 OA
ENDBRANCH  78  82
ENDBRANCH  52  75
ENDBRANCH  26  27
ENDBRANCH  18  21
ENDBRANCH  16  17
ENDBRANCH  15  16
ENDBRANCH  14  15
ENDBRANCH  12  14
ENDBRANCH   5  10
ENDBRANCH   1   5
BRANCH   2  86
ATOM     86  C   UNL A   1      33.812  22.330  24.253  1.00  0.00     0.174 C 
BRANCH  86  87
ATOM     87  N   UNL A   1      33.141  23.382  25.096  1.00  0.00    -0.342 N 
ATOM     88  C   UNL A   1      32.426  24.530  25.134  1.00  0.00     0.242 C 
ATOM     89  H   UNL A   1      33.288  23.119  26.033  1.00  0.00     0.164 HD
ATOM     90  O   UNL A   1      32.445  25.068  26.257  1.00  0.00    -0.273 OA
BRANCH  88  91
ATOM     91  C   UNL A   1      31.689  25.305  23.998  1.00  0.00     0.168 C 
ATOM     92  C   UNL A   1      30.401  24.654  23.579  1.00  0.00     0.041 C 
BRANCH  91  93
ATOM     93  N   UNL A   1      32.604  25.614  22.896  1.00  0.00    -0.343 N 
ATOM     94  C   UNL A   1      33.406  26.669  22.603  1.00  0.00     0.240 C 
ATOM     95  H   UNL A   1      32.647  24.899  22.220  1.00  0.00     0.164 HD
ATOM     96  O   UNL A   1      33.877  26.715  21.458  1.00  0.00    -0.273 OA
BRANCH  94  97
ATOM     97  C   UNL A   1      33.824  27.707  23.640  1.00  0.00     0.219 C 
BRANCH  97  98
ATOM     98  N   UNL A   1      33.011  27.770  24.835  1.00  0.00    -0.312 N 
ATOM     99  C   UNL A   1      31.854  28.469  24.961  1.00  0.00     0.407 C 
ATOM    100  H   UNL A   1      33.322  27.265  25.621  1.00  0.00     0.167 HD
ATOM    101  O   UNL A   1      31.260  28.552  26.030  1.00  0.00    -0.225 OA
BRANCH  99 102
ATOM    102  O   UNL A   1      31.521  29.110  23.815  1.00  0.00    -0.445 OA
BRANCH 102 103
ATOM    103  C   UNL A   1      30.240  28.796  23.253  1.00  0.00     0.270 C 
BRANCH 103 104
ATOM    104  C   UNL A   1      29.483  30.026  22.846  1.00  0.00    -0.011 A 
ATOM    105  C   UNL A   1      28.845  30.107  21.600  1.00  0.00     0.007 A 
ATOM    106  C   UNL A   1      29.381  31.096  23.742  1.00  0.00     0.007 A 
ATOM    107  C   UNL A   1      28.052  31.205  21.288  1.00  0.00     0.000 A 
ATOM    108  C   UNL A   1      28.602  32.203  23.421  1.00  0.00     0.000 A 
ATOM    109  C   UNL A   1      27.926  32.249  22.202  1.00  0.00     0.000 A 
ENDBRANCH 103 104
ENDBRANCH 102 103
ENDBRANCH  99 102
ENDBRANCH  97  98
ENDBRANCH  94  97
ENDBRANCH  91  93
ENDBRANCH  88  91
ENDBRANCH  86  87
BRANCH  86 110
ATOM    110  C   UNL A   1      33.049  21.139  23.600  1.00  0.00     0.015 C 
ATOM    111  C   UNL A   1      32.345  20.197  24.589  1.00  0.00     0.010 C 
ATOM    112  C   UNL A   1      31.953  21.614  22.616  1.00  0.00     0.010 C 
ENDBRANCH  86 110
ENDBRANCH   2  86
TORSDOF 26
ENDMDL
MODEL 2
REMARK VINA RESULT:     -10.8      1.594      2.796
REMARK SMILES CC(C)C[C@H](NC(=O)[C@@H](NC(=O)[C@H](C)NC(=O)CNC(=O)OCc1ccccc1)C(C)C)C(=O)NCCCNC(=O)c1ccc(-c2c3nc(c(-c4cc(S(=O)(=O)[O-])ccc4F)c4ccc([nH]4)c(-c4cc(S(=O)(=O)[O-])ccc4F)c4nc(c(-c5cc(S(=O)(=O)[O-])ccc5F)c5ccc2[nH]5)C=C4)C=C3)cc1
REMARK SMILES IDX 6 1 7 2 8 3 5 5 4 6 2 7 1 8 3 9 33 10 34 11 35 12 36 14
REMARK SMILES IDX 37 15 38 16 39 17 40 18 41 20 42 21 43 22 104 23 44 24
REMARK SMILES IDX 103 25 45 26 46 27 47 28 97 29 48 30 102 31 96 32 98 33
REMARK SMILES IDX 49 34 101 35 95 36 94 37 50 39 82 40 62 41 81 42 63 43 66 44
REMARK SMILES IDX 80 45 99 46 64 47 65 48 79 50 100 51 67 52 51 53 52 54 60 55
REMARK SMILES IDX 53 56 59 57 61 58 58 59 54 60 55 61 56 62 57 63 83 64 84 65
REMARK SMILES IDX 92 66 85 67 91 68 93 69 90 70 86 71 87 72 88 73 89 74 68 75
REMARK SMILES IDX 69 76 77 77 70 78 76 79 78 80 75 81 71 82 72 83 73 84 74 85
REMARK SMILES IDX 9 86 10 87 11 88 12 90 13 91 14 92 15 93 16 94 17 96 18 97
REMARK SMILES IDX 19 98 20 99 21 101 22 102 23 103 24 104 25 105 29 106 26 107
REMARK SMILES IDX 28 108 27 109 30 110 31 111 32 112
REMARK H PARENT 6 4 35 13 39 19 98 38 66 49 10 89 15 95 19 100
REMARK Flexibility Score: inf
ROOT
ATOM      1  N   UNL A   1      36.130  23.048  23.729  1.00  0.00    -0.343 N 
ATOM      2  C   UNL A   1      34.792  23.095  23.481  1.00  0.00     0.243 C 
ATOM      3  O   UNL A   1      34.480  23.440  22.334  1.00  0.00    -0.273 OA
ATOM      4  H   UNL A   1      36.697  23.309  22.968  1.00  0.00     0.164 HD
ENDROOT
BRANCH   1   5
ATOM      5  C   UNL A   1      36.861  22.678  24.927  1.00  0.00     0.171 C 
BRANCH   5   6
ATOM      6  C   UNL A   1      36.925  23.766  26.020  1.00  0.00     0.038 C 
BRANCH   6   7
ATOM      7  C   UNL A   1      38.330  24.301  26.359  1.00  0.00    -0.015 C 
ATOM      8  C   UNL A   1      38.294  25.282  27.526  1.00  0.00     0.007 C 
ATOM      9  C   UNL A   1      39.242  23.114  26.700  1.00  0.00     0.007 C 
ENDBRANCH   6   7
ENDBRANCH   5   6
BRANCH   5  10
ATOM     10  C   UNL A   1      36.264  21.396  25.524  1.00  0.00     0.242 C 
ATOM     11  O   UNL A   1      35.437  21.446  26.433  1.00  0.00    -0.273 OA
ATOM     12  N   UNL A   1      36.630  20.155  25.155  1.00  0.00    -0.354 N 
ATOM     13  H   UNL A   1      35.945  19.462  25.300  1.00  0.00     0.163 HD
BRANCH  12  14
ATOM     14  C   UNL A   1      37.864  19.673  24.583  1.00  0.00     0.117 C 
BRANCH  14  15
ATOM     15  C   UNL A   1      38.765  19.066  25.651  1.00  0.00     0.042 C 
BRANCH  15  16
ATOM     16  C   UNL A   1      40.015  19.890  25.949  1.00  0.00     0.118 C 
BRANCH  16  17
ATOM     17  N   UNL A   1      41.211  19.063  26.018  1.00  0.00    -0.352 N 
ATOM     18  C   UNL A   1      42.527  19.448  26.066  1.00  0.00     0.251 C 
ATOM     19  H   UNL A   1      41.054  18.091  26.031  1.00  0.00     0.163 HD
ATOM     20  O   UNL A   1      43.411  18.624  25.858  1.00  0.00    -0.269 OA
BRANCH  18  21
ATOM     21  C   UNL A   1      42.856  20.859  26.340  1.00  0.00     0.039 A 
ATOM     22  C   UNL A   1      42.798  21.326  27.653  1.00  0.00     0.014 A 
ATOM     23  C   UNL A   1      43.235  21.714  25.299  1.00  0.00     0.014 A 
ATOM     24  C   UNL A   1      43.176  22.641  27.931  1.00  0.00     0.010 A 
ATOM     25  C   UNL A   1      43.693  22.993  25.591  1.00  0.00     0.010 A 
ATOM     26  C   UNL A   1      43.658  23.475  26.908  1.00  0.00    -0.014 A 
BRANCH  26  27
ATOM     27  C   UNL A   1      44.102  24.864  27.193  1.00  0.00     0.031 A 
ATOM     28  C   UNL A   1      43.118  25.868  27.729  1.00  0.00     0.074 A 
ATOM     29  C   UNL A   1      45.371  25.232  26.926  1.00  0.00     0.049 A 
ATOM     30  N   UNL A   1      43.285  27.142  27.971  1.00  0.00    -0.248 NA
ATOM     31  C   UNL A   1      41.759  25.377  28.002  1.00  0.00     0.031 C 
ATOM     32  C   UNL A   1      46.409  24.353  26.381  1.00  0.00     0.029 A 
ATOM     33  N   UNL A   1      46.005  26.440  27.071  1.00  0.00    -0.354 N 
ATOM     34  C   UNL A   1      42.050  27.608  28.413  1.00  0.00     0.074 A 
ATOM     35  C   UNL A   1      41.131  26.493  28.339  1.00  0.00     0.031 C 
ATOM     36  C   UNL A   1      47.554  25.044  26.266  1.00  0.00     0.029 A 
ATOM     37  C   UNL A   1      47.322  26.426  26.672  1.00  0.00     0.049 A 
ATOM     38  H   UNL A   1      45.559  27.242  27.427  1.00  0.00     0.167 HD
ATOM     39  C   UNL A   1      41.721  28.844  28.862  1.00  0.00     0.034 A 
ATOM     40  C   UNL A   1      48.234  27.419  26.623  1.00  0.00     0.034 A 
ATOM     41  C   UNL A   1      42.653  29.943  28.932  1.00  0.00     0.049 A 
ATOM     42  C   UNL A   1      47.830  28.800  27.078  1.00  0.00     0.074 A 
ATOM     43  C   UNL A   1      42.440  31.224  29.411  1.00  0.00     0.029 A 
ATOM     44  N   UNL A   1      43.974  29.896  28.503  1.00  0.00    -0.354 N 
ATOM     45  N   UNL A   1      46.669  29.214  27.534  1.00  0.00    -0.248 NA
ATOM     46  C   UNL A   1      48.860  29.844  27.020  1.00  0.00     0.031 C 
ATOM     47  C   UNL A   1      43.601  31.972  29.193  1.00  0.00     0.029 A 
ATOM     48  C   UNL A   1      44.573  31.136  28.669  1.00  0.00     0.049 A 
ATOM     49  H   UNL A   1      44.420  29.099  28.133  1.00  0.00     0.167 HD
ATOM     50  C   UNL A   1      46.845  30.558  27.852  1.00  0.00     0.074 A 
ATOM     51  C   UNL A   1      48.224  30.878  27.549  1.00  0.00     0.031 C 
ATOM     52  C   UNL A   1      45.949  31.446  28.356  1.00  0.00     0.034 A 
BRANCH  39  53
ATOM     53  C   UNL A   1      40.288  29.075  29.279  1.00  0.00     0.023 A 
ATOM     54  C   UNL A   1      39.895  29.046  30.629  1.00  0.00     0.031 A 
ATOM     55  C   UNL A   1      39.293  29.303  28.313  1.00  0.00     0.131 A 
ATOM     56  C   UNL A   1      38.539  29.161  30.968  1.00  0.00     0.055 A 
ATOM     57  C   UNL A   1      37.957  29.508  28.663  1.00  0.00     0.041 A 
ATOM     58  F   UNL A   1      39.599  29.319  27.006  1.00  0.00    -0.206 F 
ATOM     59  C   UNL A   1      37.570  29.421  29.997  1.00  0.00     0.022 A 
BRANCH  56  60
ATOM     60  S   UNL A   1      38.042  28.810  32.677  1.00  0.00     0.124 S 
ATOM     61  O   UNL A   1      36.702  29.388  32.719  1.00  0.00    -0.237 OA
ATOM     62  O   UNL A   1      38.113  27.355  32.733  1.00  0.00    -0.237 OA
ATOM     63  O   UNL A   1      39.042  29.515  33.477  1.00  0.00    -0.744 OA
ENDBRANCH  56  60
ENDBRANCH  39  53
BRANCH  40  64
ATOM     64  C   UNL A   1      49.610  27.159  26.107  1.00  0.00     0.023 A 
ATOM     65  C   UNL A   1      50.026  27.664  24.865  1.00  0.00     0.031 A 
ATOM     66  C   UNL A   1      50.514  26.357  26.827  1.00  0.00     0.131 A 
ATOM     67  C   UNL A   1      51.287  27.317  24.354  1.00  0.00     0.055 A 
ATOM     68  C   UNL A   1      51.792  26.068  26.344  1.00  0.00     0.041 A 
ATOM     69  F   UNL A   1      50.171  25.848  28.021  1.00  0.00    -0.206 F 
ATOM     70  C   UNL A   1      52.179  26.537  25.093  1.00  0.00     0.022 A 
BRANCH  67  71
ATOM     71  S   UNL A   1      51.706  27.817  22.662  1.00  0.00     0.124 S 
ATOM     72  O   UNL A   1      52.031  26.536  22.047  1.00  0.00    -0.237 OA
ATOM     73  O   UNL A   1      50.468  28.448  22.217  1.00  0.00    -0.237 OA
ATOM     74  O   UNL A   1      52.836  28.727  22.846  1.00  0.00    -0.744 OA
ENDBRANCH  67  71
ENDBRANCH  40  64
BRANCH  52  75
ATOM     75  C   UNL A   1      46.453  32.837  28.663  1.00  0.00     0.023 A 
ATOM     76  C   UNL A   1      46.979  33.178  29.921  1.00  0.00     0.031 A 
ATOM     77  C   UNL A   1      46.397  33.840  27.678  1.00  0.00     0.131 A 
ATOM     78  C   UNL A   1      47.374  34.500  30.178  1.00  0.00     0.055 A 
ATOM     79  C   UNL A   1      46.858  35.135  27.917  1.00  0.00     0.041 A 
ATOM     80  F   UNL A   1      45.898  33.574  26.459  1.00  0.00    -0.206 F 
ATOM     81  C   UNL A   1      47.338  35.474  29.178  1.00  0.00     0.022 A 
BRANCH  78  82
ATOM     82  S   UNL A   1      47.840  34.956  31.871  1.00  0.00     0.124 S 
ATOM     83  O   UNL A   1      46.830  34.258  32.661  1.00  0.00    -0.237 OA
ATOM     84  O   UNL A   1      49.199  34.436  31.972  1.00  0.00    -0.237 OA
ATOM     85  O   UNL A   1      47.732  36.414  31.875  1.00  0.00    -0.744 OA
ENDBRANCH  78  82
ENDBRANCH  52  75
ENDBRANCH  26  27
ENDBRANCH  18  21
ENDBRANCH  16  17
ENDBRANCH  15  16
ENDBRANCH  14  15
ENDBRANCH  12  14
ENDBRANCH   5  10
ENDBRANCH   1   5
BRANCH   2  86
ATOM     86  C   UNL A   1      33.662  22.856  24.540  1.00  0.00     0.174 C 
BRANCH  86  87
ATOM     87  N   UNL A   1      33.355  24.114  25.307  1.00  0.00    -0.342 N 
ATOM     88  C   UNL A   1      32.963  25.410  25.268  1.00  0.00     0.242 C 
ATOM     89  H   UNL A   1      33.506  23.902  26.256  1.00  0.00     0.164 HD
ATOM     90  O   UNL A   1      33.212  26.016  26.327  1.00  0.00    -0.273 OA
BRANCH  88  91
ATOM     91  C   UNL A   1      32.357  26.252  24.103  1.00  0.00     0.168 C 
ATOM     92  C   UNL A   1      31.627  25.418  23.089  1.00  0.00     0.041 C 
BRANCH  91  93
ATOM     93  N   UNL A   1      33.358  27.162  23.540  1.00  0.00    -0.343 N 
ATOM     94  C   UNL A   1      33.619  28.485  23.688  1.00  0.00     0.240 C 
ATOM     95  H   UNL A   1      33.977  26.715  22.918  1.00  0.00     0.164 HD
ATOM     96  O   UNL A   1      34.401  28.997  22.875  1.00  0.00    -0.273 OA
BRANCH  94  97
ATOM     97  C   UNL A   1      33.085  29.312  24.854  1.00  0.00     0.219 C 
BRANCH  97  98
ATOM     98  N   UNL A   1      33.372  28.799  26.176  1.00  0.00    -0.312 N 
ATOM     99  C   UNL A   1      33.962  29.500  27.178  1.00  0.00     0.407 C 
ATOM    100  H   UNL A   1      33.120  27.867  26.364  1.00  0.00     0.167 HD
ATOM    101  O   UNL A   1      34.258  28.977  28.247  1.00  0.00    -0.225 OA
BRANCH  99 102
ATOM    102  O   UNL A   1      34.250  30.771  26.808  1.00  0.00    -0.445 OA
BRANCH 102 103
ATOM    103  C   UNL A   1      33.868  31.808  27.722  1.00  0.00     0.270 C 
BRANCH 103 104
ATOM    104  C   UNL A   1      35.013  32.255  28.583  1.00  0.00    -0.011 A 
ATOM    105  C   UNL A   1      36.206  32.725  28.017  1.00  0.00     0.007 A 
ATOM    106  C   UNL A   1      34.870  32.239  29.974  1.00  0.00     0.007 A 
ATOM    107  C   UNL A   1      37.209  33.243  28.826  1.00  0.00     0.000 A 
ATOM    108  C   UNL A   1      35.883  32.742  30.785  1.00  0.00     0.000 A 
ATOM    109  C   UNL A   1      37.044  33.258  30.209  1.00  0.00     0.000 A 
ENDBRANCH 103 104
ENDBRANCH 102 103
ENDBRANCH  99 102
ENDBRANCH  97  98
ENDBRANCH  94  97
ENDBRANCH  91  93
ENDBRANCH  88  91
ENDBRANCH  86  87
BRANCH  86 110
ATOM    110  C   UNL A   1      32.576  21.820  24.122  1.00  0.00     0.015 C 
ATOM    111  C   UNL A   1      33.006  20.348  24.228  1.00  0.00     0.010 C 
ATOM    112  C   UNL A   1      31.288  21.946  24.970  1.00  0.00     0.010 C 
ENDBRANCH  86 110
ENDBRANCH   2  86
TORSDOF 26
ENDMDL
MODEL 3
REMARK VINA RESULT:     -10.6      2.008      7.681
REMARK SMILES CC(C)C[C@H](NC(=O)[C@@H](NC(=O)[C@H](C)NC(=O)CNC(=O)OCc1ccccc1)C(C)C)C(=O)NCCCNC(=O)c1ccc(-c2c3nc(c(-c4cc(S(=O)(=O)[O-])ccc4F)c4ccc([nH]4)c(-c4cc(S(=O)(=O)[O-])ccc4F)c4nc(c(-c5cc(S(=O)(=O)[O-])ccc5F)c5ccc2[nH]5)C=C4)C=C3)cc1
REMARK SMILES IDX 6 1 7 2 8 3 5 5 4 6 2 7 1 8 3 9 33 10 34 11 35 12 36 14
REMARK SMILES IDX 37 15 38 16 39 17 40 18 41 20 42 21 43 22 104 23 44 24
REMARK SMILES IDX 103 25 45 26 46 27 47 28 97 29 48 30 102 31 96 32 98 33
REMARK SMILES IDX 49 34 101 35 95 36 94 37 50 39 82 40 62 41 81 42 63 43 66 44
REMARK SMILES IDX 80 45 99 46 64 47 65 48 79 50 100 51 67 52 51 53 52 54 60 55
REMARK SMILES IDX 53 56 59 57 61 58 58 59 54 60 55 61 56 62 57 63 83 64 84 65
REMARK SMILES IDX 92 66 85 67 91 68 93 69 90 70 86 71 87 72 88 73 89 74 68 75
REMARK SMILES IDX 69 76 77 77 70 78 76 79 78 80 75 81 71 82 72 83 73 84 74 85
REMARK SMILES IDX 9 86 10 87 11 88 12 90 13 91 14 92 15 93 16 94 17 96 18 97
REMARK SMILES IDX 19 98 20 99 21 101 22 102 23 103 24 104 25 105 29 106 26 107
REMARK SMILES IDX 28 108 27 109 30 110 31 111 32 112
REMARK H PARENT 6 4 35 13 39 19 98 38 66 49 10 89 15 95 19 100
REMARK Flexibility Score: inf
ROOT
ATOM      1  N   UNL A   1      36.224  23.079  23.689  1.00  0.00    -0.343 N 
ATOM      2  C   UNL A   1      34.895  23.075  23.392  1.00  0.00     0.243 C 
ATOM      3  O   UNL A   1      34.615  23.368  22.222  1.00  0.00    -0.273 OA
ATOM      4  H   UNL A   1      36.810  23.330  22.939  1.00  0.00     0.164 HD
ENDROOT
BRANCH   1   5
ATOM      5  C   UNL A   1      36.921  22.777  24.926  1.00  0.00     0.171 C 
BRANCH   5   6
ATOM      6  C   UNL A   1      36.941  23.918  25.965  1.00  0.00     0.038 C 
BRANCH   6   7
ATOM      7  C   UNL A   1      38.327  24.310  26.512  1.00  0.00    -0.015 C 
ATOM      8  C   UNL A   1      38.249  24.788  27.958  1.00  0.00     0.007 C 
ATOM      9  C   UNL A   1      39.260  23.095  26.411  1.00  0.00     0.007 C 
ENDBRANCH   6   7
ENDBRANCH   5   6
BRANCH   5  10
ATOM     10  C   UNL A   1      36.319  21.520  25.567  1.00  0.00     0.242 C 
ATOM     11  O   UNL A   1      35.552  21.601  26.524  1.00  0.00    -0.273 OA
ATOM     12  N   UNL A   1      36.618  20.264  25.184  1.00  0.00    -0.354 N 
ATOM     13  H   UNL A   1      35.920  19.597  25.375  1.00  0.00     0.163 HD
BRANCH  12  14
ATOM     14  C   UNL A   1      37.798  19.737  24.540  1.00  0.00     0.117 C 
BRANCH  14  15
ATOM     15  C   UNL A   1      38.713  19.053  25.546  1.00  0.00     0.042 C 
BRANCH  15  16
ATOM     16  C   UNL A   1      39.931  19.884  25.943  1.00  0.00     0.118 C 
BRANCH  16  17
ATOM     17  N   UNL A   1      41.154  19.097  25.943  1.00  0.00    -0.352 N 
ATOM     18  C   UNL A   1      42.459  19.525  25.947  1.00  0.00     0.251 C 
ATOM     19  H   UNL A   1      41.030  18.120  25.939  1.00  0.00     0.163 HD
ATOM     20  O   UNL A   1      43.360  18.736  25.683  1.00  0.00    -0.269 OA
BRANCH  18  21
ATOM     21  C   UNL A   1      42.752  20.940  26.242  1.00  0.00     0.039 A 
ATOM     22  C   UNL A   1      42.882  21.342  27.571  1.00  0.00     0.014 A 
ATOM     23  C   UNL A   1      42.912  21.862  25.203  1.00  0.00     0.014 A 
ATOM     24  C   UNL A   1      43.230  22.664  27.857  1.00  0.00     0.010 A 
ATOM     25  C   UNL A   1      43.343  23.152  25.487  1.00  0.00     0.010 A 
ATOM     26  C   UNL A   1      43.496  23.571  26.818  1.00  0.00    -0.014 A 
BRANCH  26  27
ATOM     27  C   UNL A   1      43.906  24.970  27.104  1.00  0.00     0.031 A 
ATOM     28  C   UNL A   1      45.334  25.390  26.887  1.00  0.00     0.074 A 
ATOM     29  C   UNL A   1      43.008  25.845  27.602  1.00  0.00     0.049 A 
ATOM     30  N   UNL A   1      45.909  26.535  27.146  1.00  0.00    -0.248 NA
ATOM     31  C   UNL A   1      46.241  24.374  26.330  1.00  0.00     0.031 C 
ATOM     32  C   UNL A   1      41.602  25.546  27.879  1.00  0.00     0.029 A 
ATOM     33  N   UNL A   1      43.145  27.159  27.969  1.00  0.00    -0.354 N 
ATOM     34  C   UNL A   1      47.246  26.376  26.795  1.00  0.00     0.074 A 
ATOM     35  C   UNL A   1      47.406  25.002  26.370  1.00  0.00     0.031 C 
ATOM     36  C   UNL A   1      41.001  26.653  28.343  1.00  0.00     0.029 A 
ATOM     37  C   UNL A   1      41.987  27.723  28.453  1.00  0.00     0.049 A 
ATOM     38  H   UNL A   1      43.993  27.654  27.893  1.00  0.00     0.167 HD
ATOM     39  C   UNL A   1      48.241  27.297  26.804  1.00  0.00     0.034 A 
ATOM     40  C   UNL A   1      41.751  28.956  28.946  1.00  0.00     0.034 A 
ATOM     41  C   UNL A   1      48.060  28.664  27.226  1.00  0.00     0.049 A 
ATOM     42  C   UNL A   1      42.886  29.948  28.995  1.00  0.00     0.074 A 
ATOM     43  C   UNL A   1      48.986  29.692  27.234  1.00  0.00     0.029 A 
ATOM     44  N   UNL A   1      46.877  29.194  27.727  1.00  0.00    -0.354 N 
ATOM     45  N   UNL A   1      44.136  29.795  28.619  1.00  0.00    -0.248 NA
ATOM     46  C   UNL A   1      42.578  31.282  29.526  1.00  0.00     0.031 C 
ATOM     47  C   UNL A   1      48.390  30.815  27.816  1.00  0.00     0.029 A 
ATOM     48  C   UNL A   1      47.062  30.521  28.083  1.00  0.00     0.049 A 
ATOM     49  H   UNL A   1      46.030  28.699  27.817  1.00  0.00     0.167 HD
ATOM     50  C   UNL A   1      44.751  31.026  28.834  1.00  0.00     0.074 A 
ATOM     51  C   UNL A   1      43.731  31.911  29.358  1.00  0.00     0.031 C 
ATOM     52  C   UNL A   1      46.039  31.393  28.612  1.00  0.00     0.034 A 
BRANCH  39  53
ATOM     53  C   UNL A   1      49.615  26.842  26.371  1.00  0.00     0.023 A 
ATOM     54  C   UNL A   1      50.205  27.295  25.178  1.00  0.00     0.031 A 
ATOM     55  C   UNL A   1      50.338  25.921  27.150  1.00  0.00     0.131 A 
ATOM     56  C   UNL A   1      51.436  26.770  24.760  1.00  0.00     0.055 A 
ATOM     57  C   UNL A   1      51.604  25.470  26.774  1.00  0.00     0.041 A 
ATOM     58  F   UNL A   1      49.819  25.432  28.288  1.00  0.00    -0.206 F 
ATOM     59  C   UNL A   1      52.154  25.882  25.564  1.00  0.00     0.022 A 
BRANCH  56  60
ATOM     60  S   UNL A   1      52.010  27.143  23.080  1.00  0.00     0.124 S 
ATOM     61  O   UNL A   1      50.795  26.927  22.299  1.00  0.00    -0.237 OA
ATOM     62  O   UNL A   1      52.456  28.526  23.199  1.00  0.00    -0.237 OA
ATOM     63  O   UNL A   1      53.069  26.162  22.854  1.00  0.00    -0.744 OA
ENDBRANCH  56  60
ENDBRANCH  39  53
BRANCH  40  64
ATOM     64  C   UNL A   1      40.396  29.324  29.453  1.00  0.00     0.023 A 
ATOM     65  C   UNL A   1      40.125  29.368  30.830  1.00  0.00     0.031 A 
ATOM     66  C   UNL A   1      39.336  29.585  28.566  1.00  0.00     0.131 A 
ATOM     67  C   UNL A   1      38.817  29.611  31.280  1.00  0.00     0.055 A 
ATOM     68  C   UNL A   1      38.051  29.891  29.019  1.00  0.00     0.041 A 
ATOM     69  F   UNL A   1      39.538  29.558  27.239  1.00  0.00    -0.206 F 
ATOM     70  C   UNL A   1      37.783  29.890  30.383  1.00  0.00     0.022 A 
BRANCH  67  71
ATOM     71  S   UNL A   1      38.465  29.456  33.052  1.00  0.00     0.124 S 
ATOM     72  O   UNL A   1      38.146  30.833  33.411  1.00  0.00    -0.237 OA
ATOM     73  O   UNL A   1      37.351  28.516  33.059  1.00  0.00    -0.237 OA
ATOM     74  O   UNL A   1      39.717  28.941  33.603  1.00  0.00    -0.744 OA
ENDBRANCH  67  71
ENDBRANCH  40  64
BRANCH  52  75
ATOM     75  C   UNL A   1      46.404  32.834  28.884  1.00  0.00     0.023 A 
ATOM     76  C   UNL A   1      46.394  33.809  27.872  1.00  0.00     0.031 A 
ATOM     77  C   UNL A   1      46.774  33.235  30.181  1.00  0.00     0.131 A 
ATOM     78  C   UNL A   1      46.802  35.121  28.160  1.00  0.00     0.055 A 
ATOM     79  C   UNL A   1      47.110  34.555  30.477  1.00  0.00     0.041 A 
ATOM     80  F   UNL A   1      46.807  32.345  31.188  1.00  0.00    -0.206 F 
ATOM     81  C   UNL A   1      47.139  35.505  29.460  1.00  0.00     0.022 A 
BRANCH  78  82
ATOM     82  S   UNL A   1      46.990  36.296  26.792  1.00  0.00     0.124 S 
ATOM     83  O   UNL A   1      48.407  36.160  26.468  1.00  0.00    -0.237 OA
ATOM     84  O   UNL A   1      46.057  35.772  25.799  1.00  0.00    -0.237 OA
ATOM     85  O   UNL A   1      46.610  37.576  27.384  1.00  0.00    -0.744 OA
ENDBRANCH  78  82
ENDBRANCH  52  75
ENDBRANCH  26  27
ENDBRANCH  18  21
ENDBRANCH  16  17
ENDBRANCH  15  16
ENDBRANCH  14  15
ENDBRANCH  12  14
ENDBRANCH   5  10
ENDBRANCH   1   5
BRANCH   2  86
ATOM     86  C   UNL A   1      33.735  22.840  24.419  1.00  0.00     0.174 C 
BRANCH  86  87
ATOM     87  N   UNL A   1      33.342  24.121  25.105  1.00  0.00    -0.342 N 
ATOM     88  C   UNL A   1      32.875  25.386  24.983  1.00  0.00     0.242 C 
ATOM     89  H   UNL A   1      33.490  23.975  26.067  1.00  0.00     0.164 HD
ATOM     90  O   UNL A   1      33.071  26.068  26.006  1.00  0.00    -0.273 OA
BRANCH  88  91
ATOM     91  C   UNL A   1      32.240  26.120  23.762  1.00  0.00     0.168 C 
ATOM     92  C   UNL A   1      31.393  25.221  22.906  1.00  0.00     0.041 C 
BRANCH  91  93
ATOM     93  N   UNL A   1      33.251  26.886  23.028  1.00  0.00    -0.343 N 
ATOM     94  C   UNL A   1      33.704  28.164  23.101  1.00  0.00     0.240 C 
ATOM     95  H   UNL A   1      33.702  26.359  22.329  1.00  0.00     0.164 HD
ATOM     96  O   UNL A   1      34.410  28.563  22.165  1.00  0.00    -0.273 OA
BRANCH  94  97
ATOM     97  C   UNL A   1      33.472  29.059  24.315  1.00  0.00     0.219 C 
BRANCH  97  98
ATOM     98  N   UNL A   1      34.125  28.647  25.538  1.00  0.00    -0.312 N 
ATOM     99  C   UNL A   1      34.297  29.426  26.636  1.00  0.00     0.407 C 
ATOM    100  H   UNL A   1      34.474  27.727  25.577  1.00  0.00     0.167 HD
ATOM    101  O   UNL A   1      34.939  29.043  27.608  1.00  0.00    -0.225 OA
BRANCH  99 102
ATOM    102  O   UNL A   1      33.767  30.661  26.471  1.00  0.00    -0.445 OA
BRANCH 102 103
ATOM    103  C   UNL A   1      33.151  31.254  27.623  1.00  0.00     0.270 C 
BRANCH 103 104
ATOM    104  C   UNL A   1      33.969  32.379  28.186  1.00  0.00    -0.011 A 
ATOM    105  C   UNL A   1      35.092  32.130  28.987  1.00  0.00     0.007 A 
ATOM    106  C   UNL A   1      33.627  33.699  27.871  1.00  0.00     0.007 A 
ATOM    107  C   UNL A   1      35.904  33.178  29.403  1.00  0.00     0.000 A 
ATOM    108  C   UNL A   1      34.432  34.750  28.302  1.00  0.00     0.000 A 
ATOM    109  C   UNL A   1      35.577  34.486  29.054  1.00  0.00     0.000 A 
ENDBRANCH 103 104
ENDBRANCH 102 103
ENDBRANCH  99 102
ENDBRANCH  97  98
ENDBRANCH  94  97
ENDBRANCH  91  93
ENDBRANCH  88  91
ENDBRANCH  86  87
BRANCH  86 110
ATOM    110  C   UNL A   1      32.713  21.734  24.016  1.00  0.00     0.015 C 
ATOM    111  C   UNL A   1      32.993  20.344  24.608  1.00  0.00     0.010 C 
ATOM    112  C   UNL A   1      31.267  22.091  24.438  1.00  0.00     0.010 C 
ENDBRANCH  86 110
ENDBRANCH   2  86
TORSDOF 26
ENDMDL
