MODEL 1
REMARK VINA RESULT:     -11.9      0.000      0.000
REMARK SMILES C/C(=N/OCc1ccccc1Nc1c(Cl)cccc1Cl)C(=O)NCCCNC(=O)c1ccc(-c2c3nc(c(-c4cc(S(=O)(=O)[O-])ccc4F)c4ccc([nH]4)c(-c4cc(S(=O)(=O)[O-])ccc4F)c4nc(c(-c5cc(S(=O)(=O)[O-])ccc5F)c5ccc2[nH]5)C=C4)C=C3)cc1
REMARK SMILES IDX 24 1 23 2 21 3 22 4 2 6 1 7 3 8 4 9 5 10 6 11 7 12 11 13
REMARK SMILES IDX 8 14 10 15 9 16 12 17 13 19 14 20 19 21 15 22 16 23 18 24
REMARK SMILES IDX 20 25 17 26 25 27 26 28 27 29 28 30 29 32 30 33 31 34 92 35
REMARK SMILES IDX 32 36 91 37 33 38 34 39 35 40 85 41 36 42 90 43 84 44 86 45
REMARK SMILES IDX 37 46 89 47 83 48 82 49 38 51 70 52 50 53 69 54 51 55 54 56
REMARK SMILES IDX 68 57 87 58 52 59 53 60 67 62 88 63 55 64 39 65 40 66 48 67
REMARK SMILES IDX 41 68 47 69 49 70 46 71 42 72 43 73 44 74 45 75 71 76 72 77
REMARK SMILES IDX 80 78 73 79 79 80 81 81 78 82 74 83 75 84 76 85 77 86 56 87
REMARK SMILES IDX 57 88 65 89 58 90 64 91 66 92 63 93 59 94 60 95 61 96 62 97
REMARK H PARENT 23 5 12 18 27 31 86 50 54 61
REMARK Flexibility Score: inf
ROOT
ATOM      1  C   UNL A   1      33.233  26.274  25.768  1.00  0.00     0.118 C 
ENDROOT
BRANCH   1   2
ATOM      2  N   UNL A   1      33.748  26.005  24.440  1.00  0.00    -0.351 N 
ATOM      3  C   UNL A   1      33.294  25.228  23.403  1.00  0.00     0.268 C 
ATOM      4  O   UNL A   1      34.029  25.122  22.419  1.00  0.00    -0.268 OA
ATOM      5  H   UNL A   1      34.590  26.474  24.242  1.00  0.00     0.163 HD
BRANCH   3   6
ATOM      6  C   UNL A   1      31.919  24.583  23.287  1.00  0.00     0.141 C 
ATOM      7  C   UNL A   1      30.790  25.577  23.114  1.00  0.00     0.077 C 
ATOM      8  N   UNL A   1      31.567  23.335  23.247  1.00  0.00    -0.086 NA
BRANCH   8   9
ATOM      9  O   UNL A   1      32.607  22.430  23.383  1.00  0.00    -0.390 OA
BRANCH   9  10
ATOM     10  C   UNL A   1      32.255  21.411  24.330  1.00  0.00     0.302 C 
BRANCH  10  11
ATOM     11  C   UNL A   1      32.780  20.006  24.059  1.00  0.00     0.016 A 
ATOM     12  C   UNL A   1      32.204  19.166  23.087  1.00  0.00     0.009 A 
ATOM     13  C   UNL A   1      33.899  19.537  24.781  1.00  0.00     0.045 A 
ATOM     14  C   UNL A   1      32.731  17.905  22.812  1.00  0.00     0.001 A 
ATOM     15  C   UNL A   1      34.428  18.270  24.477  1.00  0.00     0.026 A 
ATOM     16  C   UNL A   1      33.849  17.459  23.501  1.00  0.00     0.002 A 
BRANCH  13  17
ATOM     17  N   UNL A   1      34.475  20.341  25.786  1.00  0.00    -0.353 N 
ATOM     18  H   UNL A   1      34.123  20.180  26.691  1.00  0.00     0.167 HD
BRANCH  17  19
ATOM     19  C   UNL A   1      35.473  21.341  25.711  1.00  0.00     0.076 A 
ATOM     20  C   UNL A   1      35.155  22.653  26.126  1.00  0.00     0.066 A 
ATOM     21  C   UNL A   1      36.794  21.100  25.283  1.00  0.00     0.066 A 
ATOM     22  Cl  UNL A   1      33.553  23.042  26.661  1.00  0.00    -0.082 Cl
ATOM     23  C   UNL A   1      36.108  23.674  26.128  1.00  0.00     0.023 A 
ATOM     24  C   UNL A   1      37.748  22.127  25.285  1.00  0.00     0.023 A 
ATOM     25  Cl  UNL A   1      37.301  19.578  24.628  1.00  0.00    -0.082 Cl
ATOM     26  C   UNL A   1      37.409  23.408  25.711  1.00  0.00     0.003 A 
ENDBRANCH  17  19
ENDBRANCH  13  17
ENDBRANCH  10  11
ENDBRANCH   9  10
ENDBRANCH   8   9
ENDBRANCH   3   6
ENDBRANCH   1   2
BRANCH   1  27
ATOM     27  C   UNL A   1      32.851  27.749  25.924  1.00  0.00     0.042 C 
BRANCH  27  28
ATOM     28  C   UNL A   1      34.014  28.711  25.709  1.00  0.00     0.118 C 
BRANCH  28  29
ATOM     29  N   UNL A   1      33.753  30.010  26.311  1.00  0.00    -0.352 N 
ATOM     30  C   UNL A   1      34.373  30.634  27.362  1.00  0.00     0.251 C 
ATOM     31  H   UNL A   1      33.016  30.519  25.900  1.00  0.00     0.163 HD
ATOM     32  O   UNL A   1      33.828  31.622  27.867  1.00  0.00    -0.269 OA
BRANCH  30  33
ATOM     33  C   UNL A   1      35.662  30.145  27.904  1.00  0.00     0.039 A 
ATOM     34  C   UNL A   1      35.673  29.522  29.156  1.00  0.00     0.014 A 
ATOM     35  C   UNL A   1      36.866  30.345  27.223  1.00  0.00     0.014 A 
ATOM     36  C   UNL A   1      36.875  29.060  29.700  1.00  0.00     0.010 A 
ATOM     37  C   UNL A   1      38.054  29.820  27.732  1.00  0.00     0.010 A 
ATOM     38  C   UNL A   1      38.074  29.181  28.981  1.00  0.00    -0.014 A 
BRANCH  38  39
ATOM     39  C   UNL A   1      39.359  28.663  29.523  1.00  0.00     0.031 A 
ATOM     40  C   UNL A   1      40.056  29.397  30.640  1.00  0.00     0.074 A 
ATOM     41  C   UNL A   1      39.927  27.573  28.970  1.00  0.00     0.049 A 
ATOM     42  N   UNL A   1      41.225  29.167  31.180  1.00  0.00    -0.248 NA
ATOM     43  C   UNL A   1      39.356  30.561  31.202  1.00  0.00     0.031 C 
ATOM     44  C   UNL A   1      39.364  26.798  27.862  1.00  0.00     0.029 A 
ATOM     45  N   UNL A   1      41.109  26.934  29.251  1.00  0.00    -0.354 N 
ATOM     46  C   UNL A   1      41.410  30.167  32.129  1.00  0.00     0.074 A 
ATOM     47  C   UNL A   1      40.254  31.035  32.053  1.00  0.00     0.031 C 
ATOM     48  C   UNL A   1      40.191  25.782  27.569  1.00  0.00     0.029 A 
ATOM     49  C   UNL A   1      41.365  25.858  28.431  1.00  0.00     0.049 A 
ATOM     50  H   UNL A   1      41.717  27.218  29.971  1.00  0.00     0.167 HD
ATOM     51  C   UNL A   1      42.441  30.336  32.994  1.00  0.00     0.034 A 
ATOM     52  C   UNL A   1      42.434  25.037  28.369  1.00  0.00     0.034 A 
ATOM     53  C   UNL A   1      43.574  29.448  33.072  1.00  0.00     0.049 A 
ATOM     54  C   UNL A   1      43.571  25.252  29.336  1.00  0.00     0.074 A 
ATOM     55  C   UNL A   1      44.643  29.489  33.952  1.00  0.00     0.029 A 
ATOM     56  N   UNL A   1      43.792  28.360  32.237  1.00  0.00    -0.354 N 
ATOM     57  N   UNL A   1      43.706  26.176  30.261  1.00  0.00    -0.248 NA
ATOM     58  C   UNL A   1      44.694  24.309  29.260  1.00  0.00     0.031 C 
ATOM     59  C   UNL A   1      45.535  28.468  33.607  1.00  0.00     0.029 A 
ATOM     60  C   UNL A   1      44.990  27.741  32.561  1.00  0.00     0.049 A 
ATOM     61  H   UNL A   1      43.185  28.071  31.518  1.00  0.00     0.167 HD
ATOM     62  C   UNL A   1      44.914  25.902  30.896  1.00  0.00     0.074 A 
ATOM     63  C   UNL A   1      45.458  24.720  30.261  1.00  0.00     0.031 C 
ATOM     64  C   UNL A   1      45.520  26.565  31.914  1.00  0.00     0.034 A 
BRANCH  51  65
ATOM     65  C   UNL A   1      42.400  31.539  33.908  1.00  0.00     0.023 A 
ATOM     66  C   UNL A   1      41.945  31.446  35.235  1.00  0.00     0.031 A 
ATOM     67  C   UNL A   1      42.816  32.799  33.443  1.00  0.00     0.131 A 
ATOM     68  C   UNL A   1      41.855  32.601  36.028  1.00  0.00     0.055 A 
ATOM     69  C   UNL A   1      42.797  33.930  34.262  1.00  0.00     0.041 A 
ATOM     70  F   UNL A   1      43.241  32.955  32.180  1.00  0.00    -0.206 F 
ATOM     71  C   UNL A   1      42.303  33.838  35.558  1.00  0.00     0.022 A 
BRANCH  68  72
ATOM     72  S   UNL A   1      41.030  32.486  37.638  1.00  0.00     0.124 S 
ATOM     73  O   UNL A   1      39.723  31.952  37.263  1.00  0.00    -0.237 OA
ATOM     74  O   UNL A   1      41.902  31.578  38.377  1.00  0.00    -0.237 OA
ATOM     75  O   UNL A   1      41.018  33.866  38.118  1.00  0.00    -0.744 OA
ENDBRANCH  68  72
ENDBRANCH  51  65
BRANCH  52  76
ATOM     76  C   UNL A   1      42.499  23.949  27.351  1.00  0.00     0.023 A 
ATOM     77  C   UNL A   1      41.880  22.708  27.575  1.00  0.00     0.031 A 
ATOM     78  C   UNL A   1      43.230  24.114  26.160  1.00  0.00     0.131 A 
ATOM     79  C   UNL A   1      42.049  21.664  26.652  1.00  0.00     0.055 A 
ATOM     80  C   UNL A   1      43.346  23.090  25.217  1.00  0.00     0.041 A 
ATOM     81  F   UNL A   1      43.838  25.280  25.891  1.00  0.00    -0.206 F 
ATOM     82  C   UNL A   1      42.767  21.851  25.469  1.00  0.00     0.022 A 
BRANCH  79  83
ATOM     83  S   UNL A   1      41.400  20.023  27.072  1.00  0.00     0.124 S 
ATOM     84  O   UNL A   1      40.473  19.780  25.971  1.00  0.00    -0.237 OA
ATOM     85  O   UNL A   1      42.612  19.212  27.081  1.00  0.00    -0.237 OA
ATOM     86  O   UNL A   1      40.778  20.226  28.378  1.00  0.00    -0.744 OA
ENDBRANCH  79  83
ENDBRANCH  52  76
BRANCH  64  87
ATOM     87  C   UNL A   1      46.815  25.990  32.431  1.00  0.00     0.023 A 
ATOM     88  C   UNL A   1      48.057  26.342  31.874  1.00  0.00     0.031 A 
ATOM     89  C   UNL A   1      46.803  25.065  33.490  1.00  0.00     0.131 A 
ATOM     90  C   UNL A   1      49.230  25.731  32.340  1.00  0.00     0.055 A 
ATOM     91  C   UNL A   1      47.979  24.506  33.990  1.00  0.00     0.041 A 
ATOM     92  F   UNL A   1      45.645  24.691  34.058  1.00  0.00    -0.206 F 
ATOM     93  C   UNL A   1      49.201  24.828  33.406  1.00  0.00     0.022 A 
BRANCH  90  94
ATOM     94  S   UNL A   1      50.789  26.065  31.476  1.00  0.00     0.124 S 
ATOM     95  O   UNL A   1      51.294  24.717  31.230  1.00  0.00    -0.237 OA
ATOM     96  O   UNL A   1      50.341  26.803  30.299  1.00  0.00    -0.237 OA
ATOM     97  O   UNL A   1      51.556  26.848  32.442  1.00  0.00    -0.744 OA
ENDBRANCH  90  94
ENDBRANCH  64  87
ENDBRANCH  38  39
ENDBRANCH  30  33
ENDBRANCH  28  29
ENDBRANCH  27  28
ENDBRANCH   1  27
TORSDOF 18
ENDMDL
MODEL 2
REMARK VINA RESULT:     -11.9      1.681      2.972
REMARK SMILES C/C(=N/OCc1ccccc1Nc1c(Cl)cccc1Cl)C(=O)NCCCNC(=O)c1ccc(-c2c3nc(c(-c4cc(S(=O)(=O)[O-])ccc4F)c4ccc([nH]4)c(-c4cc(S(=O)(=O)[O-])ccc4F)c4nc(c(-c5cc(S(=O)(=O)[O-])ccc5F)c5ccc2[nH]5)C=C4)C=C3)cc1
REMARK SMILES IDX 24 1 23 2 21 3 22 4 2 6 1 7 3 8 4 9 5 10 6 11 7 12 11 13
REMARK SMILES IDX 8 14 10 15 9 16 12 17 13 19 14 20 19 21 15 22 16 23 18 24
REMARK SMILES IDX 20 25 17 26 25 27 26 28 27 29 28 30 29 32 30 33 31 34 92 35
REMARK SMILES IDX 32 36 91 37 33 38 34 39 35 40 85 41 36 42 90 43 84 44 86 45
REMARK SMILES IDX 37 46 89 47 83 48 82 49 38 51 70 52 50 53 69 54 51 55 54 56
REMARK SMILES IDX 68 57 87 58 52 59 53 60 67 62 88 63 55 64 39 65 40 66 48 67
REMARK SMILES IDX 41 68 47 69 49 70 46 71 42 72 43 73 44 74 45 75 71 76 72 77
REMARK SMILES IDX 80 78 73 79 79 80 81 81 78 82 74 83 75 84 76 85 77 86 56 87
REMARK SMILES IDX 57 88 65 89 58 90 64 91 66 92 63 93 59 94 60 95 61 96 62 97
REMARK H PARENT 23 5 12 18 27 31 86 50 54 61
REMARK Flexibility Score: inf
ROOT
ATOM      1  C   UNL A   1      31.849  26.580  26.813  1.00  0.00     0.118 C 
ENDROOT
BRANCH   1   2
ATOM      2  N   UNL A   1      31.283  25.785  25.742  1.00  0.00    -0.351 N 
ATOM      3  C   UNL A   1      30.939  24.460  25.645  1.00  0.00     0.268 C 
ATOM      4  O   UNL A   1      30.572  24.055  24.540  1.00  0.00    -0.268 OA
ATOM      5  H   UNL A   1      31.109  26.299  24.920  1.00  0.00     0.163 HD
BRANCH   3   6
ATOM      6  C   UNL A   1      30.843  23.462  26.791  1.00  0.00     0.141 C 
ATOM      7  C   UNL A   1      29.431  23.000  27.084  1.00  0.00     0.077 C 
ATOM      8  N   UNL A   1      31.768  22.900  27.508  1.00  0.00    -0.086 NA
BRANCH   8   9
ATOM      9  O   UNL A   1      33.060  23.310  27.221  1.00  0.00    -0.390 OA
BRANCH   9  10
ATOM     10  C   UNL A   1      33.948  22.182  27.226  1.00  0.00     0.302 C 
BRANCH  10  11
ATOM     11  C   UNL A   1      35.140  22.239  26.279  1.00  0.00     0.016 A 
ATOM     12  C   UNL A   1      35.956  23.380  26.169  1.00  0.00     0.009 A 
ATOM     13  C   UNL A   1      35.459  21.102  25.504  1.00  0.00     0.045 A 
ATOM     14  C   UNL A   1      37.076  23.396  25.339  1.00  0.00     0.001 A 
ATOM     15  C   UNL A   1      36.603  21.130  24.685  1.00  0.00     0.026 A 
ATOM     16  C   UNL A   1      37.405  22.267  24.602  1.00  0.00     0.002 A 
BRANCH  13  17
ATOM     17  N   UNL A   1      34.638  19.957  25.564  1.00  0.00    -0.353 N 
ATOM     18  H   UNL A   1      34.520  19.584  26.467  1.00  0.00     0.167 HD
BRANCH  17  19
ATOM     19  C   UNL A   1      33.954  19.256  24.543  1.00  0.00     0.076 A 
ATOM     20  C   UNL A   1      34.343  17.931  24.249  1.00  0.00     0.066 A 
ATOM     21  C   UNL A   1      32.868  19.787  23.819  1.00  0.00     0.066 A 
ATOM     22  Cl  UNL A   1      35.674  17.199  25.085  1.00  0.00    -0.082 Cl
ATOM     23  C   UNL A   1      33.677  17.164  23.290  1.00  0.00     0.023 A 
ATOM     24  C   UNL A   1      32.201  19.016  22.857  1.00  0.00     0.023 A 
ATOM     25  Cl  UNL A   1      32.355  21.434  23.977  1.00  0.00    -0.082 Cl
ATOM     26  C   UNL A   1      32.600  17.707  22.597  1.00  0.00     0.003 A 
ENDBRANCH  17  19
ENDBRANCH  13  17
ENDBRANCH  10  11
ENDBRANCH   9  10
ENDBRANCH   8   9
ENDBRANCH   3   6
ENDBRANCH   1   2
BRANCH   1  27
ATOM     27  C   UNL A   1      32.202  27.990  26.328  1.00  0.00     0.042 C 
BRANCH  27  28
ATOM     28  C   UNL A   1      33.545  28.499  26.841  1.00  0.00     0.118 C 
BRANCH  28  29
ATOM     29  N   UNL A   1      33.536  29.942  27.023  1.00  0.00    -0.352 N 
ATOM     30  C   UNL A   1      34.398  30.747  27.722  1.00  0.00     0.251 C 
ATOM     31  H   UNL A   1      32.795  30.414  26.577  1.00  0.00     0.163 HD
ATOM     32  O   UNL A   1      34.062  31.914  27.952  1.00  0.00    -0.269 OA
BRANCH  30  33
ATOM     33  C   UNL A   1      35.705  30.247  28.208  1.00  0.00     0.039 A 
ATOM     34  C   UNL A   1      35.777  29.685  29.487  1.00  0.00     0.014 A 
ATOM     35  C   UNL A   1      36.869  30.376  27.445  1.00  0.00     0.014 A 
ATOM     36  C   UNL A   1      36.998  29.214  29.979  1.00  0.00     0.010 A 
ATOM     37  C   UNL A   1      38.072  29.841  27.907  1.00  0.00     0.010 A 
ATOM     38  C   UNL A   1      38.152  29.263  29.183  1.00  0.00    -0.014 A 
BRANCH  38  39
ATOM     39  C   UNL A   1      39.454  28.734  29.672  1.00  0.00     0.031 A 
ATOM     40  C   UNL A   1      40.190  29.448  30.777  1.00  0.00     0.074 A 
ATOM     41  C   UNL A   1      40.000  27.653  29.081  1.00  0.00     0.049 A 
ATOM     42  N   UNL A   1      41.377  29.206  31.272  1.00  0.00    -0.248 NA
ATOM     43  C   UNL A   1      39.512  30.603  31.383  1.00  0.00     0.031 C 
ATOM     44  C   UNL A   1      39.397  26.899  27.979  1.00  0.00     0.029 A 
ATOM     45  N   UNL A   1      41.190  27.007  29.309  1.00  0.00    -0.354 N 
ATOM     46  C   UNL A   1      41.597  30.189  32.232  1.00  0.00     0.074 A 
ATOM     47  C   UNL A   1      40.440  31.059  32.211  1.00  0.00     0.031 C 
ATOM     48  C   UNL A   1      40.212  25.887  27.640  1.00  0.00     0.029 A 
ATOM     49  C   UNL A   1      41.415  25.945  28.462  1.00  0.00     0.049 A 
ATOM     50  H   UNL A   1      41.823  27.278  30.013  1.00  0.00     0.167 HD
ATOM     51  C   UNL A   1      42.657  30.341  33.064  1.00  0.00     0.034 A 
ATOM     52  C   UNL A   1      42.479  25.124  28.350  1.00  0.00     0.034 A 
ATOM     53  C   UNL A   1      43.790  29.449  33.087  1.00  0.00     0.049 A 
ATOM     54  C   UNL A   1      43.650  25.320  29.281  1.00  0.00     0.074 A 
ATOM     55  C   UNL A   1      44.889  29.474  33.930  1.00  0.00     0.029 A 
ATOM     56  N   UNL A   1      43.977  28.376  32.226  1.00  0.00    -0.354 N 
ATOM     57  N   UNL A   1      43.818  26.227  30.217  1.00  0.00    -0.248 NA
ATOM     58  C   UNL A   1      44.767  24.377  29.150  1.00  0.00     0.031 C 
ATOM     59  C   UNL A   1      45.766  28.457  33.537  1.00  0.00     0.029 A 
ATOM     60  C   UNL A   1      45.184  27.750  32.498  1.00  0.00     0.049 A 
ATOM     61  H   UNL A   1      43.345  28.100  31.524  1.00  0.00     0.167 HD
ATOM     62  C   UNL A   1      45.047  25.940  30.805  1.00  0.00     0.074 A 
ATOM     63  C   UNL A   1      45.566  24.769  30.131  1.00  0.00     0.031 C 
ATOM     64  C   UNL A   1      45.688  26.584  31.812  1.00  0.00     0.034 A 
BRANCH  51  65
ATOM     65  C   UNL A   1      42.650  31.527  33.999  1.00  0.00     0.023 A 
ATOM     66  C   UNL A   1      42.048  31.467  35.268  1.00  0.00     0.031 A 
ATOM     67  C   UNL A   1      43.249  32.740  33.614  1.00  0.00     0.131 A 
ATOM     68  C   UNL A   1      42.000  32.613  36.078  1.00  0.00     0.055 A 
ATOM     69  C   UNL A   1      43.266  33.854  34.455  1.00  0.00     0.041 A 
ATOM     70  F   UNL A   1      43.822  32.865  32.407  1.00  0.00    -0.206 F 
ATOM     71  C   UNL A   1      42.629  33.799  35.690  1.00  0.00     0.022 A 
BRANCH  68  72
ATOM     72  S   UNL A   1      40.999  32.568  37.588  1.00  0.00     0.124 S 
ATOM     73  O   UNL A   1      41.867  31.823  38.496  1.00  0.00    -0.237 OA
ATOM     74  O   UNL A   1      40.821  33.984  37.893  1.00  0.00    -0.237 OA
ATOM     75  O   UNL A   1      39.787  31.862  37.177  1.00  0.00    -0.744 OA
ENDBRANCH  68  72
ENDBRANCH  51  65
BRANCH  52  76
ATOM     76  C   UNL A   1      42.506  24.054  27.311  1.00  0.00     0.023 A 
ATOM     77  C   UNL A   1      41.874  22.819  27.525  1.00  0.00     0.031 A 
ATOM     78  C   UNL A   1      43.215  24.230  26.108  1.00  0.00     0.131 A 
ATOM     79  C   UNL A   1      42.008  21.789  26.581  1.00  0.00     0.055 A 
ATOM     80  C   UNL A   1      43.297  23.222  25.144  1.00  0.00     0.041 A 
ATOM     81  F   UNL A   1      43.835  25.392  25.847  1.00  0.00    -0.206 F 
ATOM     82  C   UNL A   1      42.704  21.987  25.386  1.00  0.00     0.022 A 
BRANCH  79  83
ATOM     83  S   UNL A   1      41.344  20.150  26.984  1.00  0.00     0.124 S 
ATOM     84  O   UNL A   1      42.536  19.315  26.889  1.00  0.00    -0.237 OA
ATOM     85  O   UNL A   1      40.813  20.361  28.326  1.00  0.00    -0.237 OA
ATOM     86  O   UNL A   1      40.340  19.925  25.947  1.00  0.00    -0.744 OA
ENDBRANCH  79  83
ENDBRANCH  52  76
BRANCH  64  87
ATOM     87  C   UNL A   1      47.000  25.998  32.274  1.00  0.00     0.023 A 
ATOM     88  C   UNL A   1      47.063  25.043  33.304  1.00  0.00     0.031 A 
ATOM     89  C   UNL A   1      48.205  26.411  31.679  1.00  0.00     0.131 A 
ATOM     90  C   UNL A   1      48.309  24.576  33.747  1.00  0.00     0.055 A 
ATOM     91  C   UNL A   1      49.437  25.897  32.082  1.00  0.00     0.041 A 
ATOM     92  F   UNL A   1      48.203  27.322  30.691  1.00  0.00    -0.206 F 
ATOM     93  C   UNL A   1      49.496  24.984  33.132  1.00  0.00     0.022 A 
BRANCH  90  94
ATOM     94  S   UNL A   1      48.367  23.492  35.200  1.00  0.00     0.124 S 
ATOM     95  O   UNL A   1      49.791  23.184  35.293  1.00  0.00    -0.237 OA
ATOM     96  O   UNL A   1      47.830  24.351  36.251  1.00  0.00    -0.237 OA
ATOM     97  O   UNL A   1      47.512  22.368  34.823  1.00  0.00    -0.744 OA
ENDBRANCH  90  94
ENDBRANCH  64  87
ENDBRANCH  38  39
ENDBRANCH  30  33
ENDBRANCH  28  29
ENDBRANCH  27  28
ENDBRANCH   1  27
TORSDOF 18
ENDMDL
MODEL 3
REMARK VINA RESULT:     -11.6      4.263      9.372
REMARK SMILES C/C(=N/OCc1ccccc1Nc1c(Cl)cccc1Cl)C(=O)NCCCNC(=O)c1ccc(-c2c3nc(c(-c4cc(S(=O)(=O)[O-])ccc4F)c4ccc([nH]4)c(-c4cc(S(=O)(=O)[O-])ccc4F)c4nc(c(-c5cc(S(=O)(=O)[O-])ccc5F)c5ccc2[nH]5)C=C4)C=C3)cc1
REMARK SMILES IDX 24 1 23 2 21 3 22 4 2 6 1 7 3 8 4 9 5 10 6 11 7 12 11 13
REMARK SMILES IDX 8 14 10 15 9 16 12 17 13 19 14 20 19 21 15 22 16 23 18 24
REMARK SMILES IDX 20 25 17 26 25 27 26 28 27 29 28 30 29 32 30 33 31 34 92 35
REMARK SMILES IDX 32 36 91 37 33 38 34 39 35 40 85 41 36 42 90 43 84 44 86 45
REMARK SMILES IDX 37 46 89 47 83 48 82 49 38 51 70 52 50 53 69 54 51 55 54 56
REMARK SMILES IDX 68 57 87 58 52 59 53 60 67 62 88 63 55 64 39 65 40 66 48 67
REMARK SMILES IDX 41 68 47 69 49 70 46 71 42 72 43 73 44 74 45 75 71 76 72 77
REMARK SMILES IDX 80 78 73 79 79 80 81 81 78 82 74 83 75 84 76 85 77 86 56 87
REMARK SMILES IDX 57 88 65 89 58 90 64 91 66 92 63 93 59 94 60 95 61 96 62 97
REMARK H PARENT 23 5 12 18 27 31 86 50 54 61
REMARK Flexibility Score: inf
ROOT
ATOM      1  C   UNL A   1      31.617  30.807  26.002  1.00  0.00     0.118 C 
ENDROOT
BRANCH   1   2
ATOM      2  N   UNL A   1      31.445  29.738  26.966  1.00  0.00    -0.351 N 
ATOM      3  C   UNL A   1      32.259  28.711  27.376  1.00  0.00     0.268 C 
ATOM      4  O   UNL A   1      31.772  27.886  28.153  1.00  0.00    -0.268 OA
ATOM      5  H   UNL A   1      30.570  29.753  27.419  1.00  0.00     0.163 HD
BRANCH   3   6
ATOM      6  C   UNL A   1      33.741  28.551  27.068  1.00  0.00     0.141 C 
ATOM      7  C   UNL A   1      34.593  29.710  27.542  1.00  0.00     0.077 C 
ATOM      8  N   UNL A   1      34.396  27.567  26.531  1.00  0.00    -0.086 NA
BRANCH   8   9
ATOM      9  O   UNL A   1      33.614  26.500  26.120  1.00  0.00    -0.390 OA
BRANCH   9  10
ATOM     10  C   UNL A   1      33.450  26.528  24.694  1.00  0.00     0.302 C 
BRANCH  10  11
ATOM     11  C   UNL A   1      32.590  25.432  24.077  1.00  0.00     0.016 A 
ATOM     12  C   UNL A   1      33.125  24.188  23.693  1.00  0.00     0.009 A 
ATOM     13  C   UNL A   1      31.205  25.654  23.910  1.00  0.00     0.045 A 
ATOM     14  C   UNL A   1      32.314  23.175  23.182  1.00  0.00     0.001 A 
ATOM     15  C   UNL A   1      30.401  24.615  23.410  1.00  0.00     0.026 A 
ATOM     16  C   UNL A   1      30.949  23.385  23.047  1.00  0.00     0.002 A 
BRANCH  13  17
ATOM     17  N   UNL A   1      30.648  26.904  24.251  1.00  0.00    -0.353 N 
ATOM     18  H   UNL A   1      30.742  27.150  25.200  1.00  0.00     0.167 HD
BRANCH  17  19
ATOM     19  C   UNL A   1      29.977  27.863  23.458  1.00  0.00     0.076 A 
ATOM     20  C   UNL A   1      28.566  27.837  23.405  1.00  0.00     0.066 A 
ATOM     21  C   UNL A   1      30.631  28.884  22.740  1.00  0.00     0.066 A 
ATOM     22  Cl  UNL A   1      27.677  26.612  24.251  1.00  0.00    -0.082 Cl
ATOM     23  C   UNL A   1      27.839  28.786  22.683  1.00  0.00     0.023 A 
ATOM     24  C   UNL A   1      29.900  29.836  22.016  1.00  0.00     0.023 A 
ATOM     25  Cl  UNL A   1      32.357  28.973  22.606  1.00  0.00    -0.082 Cl
ATOM     26  C   UNL A   1      28.508  29.791  21.992  1.00  0.00     0.003 A 
ENDBRANCH  17  19
ENDBRANCH  13  17
ENDBRANCH  10  11
ENDBRANCH   9  10
ENDBRANCH   8   9
ENDBRANCH   3   6
ENDBRANCH   1   2
BRANCH   1  27
ATOM     27  C   UNL A   1      31.478  32.180  26.668  1.00  0.00     0.042 C 
BRANCH  27  28
ATOM     28  C   UNL A   1      32.800  32.764  27.153  1.00  0.00     0.118 C 
BRANCH  28  29
ATOM     29  N   UNL A   1      32.623  34.097  27.709  1.00  0.00    -0.352 N 
ATOM     30  C   UNL A   1      33.193  34.672  28.816  1.00  0.00     0.251 C 
ATOM     31  H   UNL A   1      31.997  34.675  27.215  1.00  0.00     0.163 HD
ATOM     32  O   UNL A   1      32.712  35.725  29.248  1.00  0.00    -0.269 OA
BRANCH  30  33
ATOM     33  C   UNL A   1      34.353  34.056  29.500  1.00  0.00     0.039 A 
ATOM     34  C   UNL A   1      35.641  34.359  29.047  1.00  0.00     0.014 A 
ATOM     35  C   UNL A   1      34.186  33.140  30.543  1.00  0.00     0.014 A 
ATOM     36  C   UNL A   1      36.756  33.784  29.665  1.00  0.00     0.010 A 
ATOM     37  C   UNL A   1      35.300  32.623  31.206  1.00  0.00     0.010 A 
ATOM     38  C   UNL A   1      36.597  32.931  30.768  1.00  0.00    -0.014 A 
BRANCH  38  39
ATOM     39  C   UNL A   1      37.771  32.338  31.464  1.00  0.00     0.031 A 
ATOM     40  C   UNL A   1      38.549  31.225  30.813  1.00  0.00     0.074 A 
ATOM     41  C   UNL A   1      38.093  32.757  32.704  1.00  0.00     0.049 A 
ATOM     42  N   UNL A   1      39.535  30.512  31.294  1.00  0.00    -0.248 NA
ATOM     43  C   UNL A   1      38.146  30.846  29.451  1.00  0.00     0.031 C 
ATOM     44  C   UNL A   1      37.392  33.804  33.451  1.00  0.00     0.029 A 
ATOM     45  N   UNL A   1      39.082  32.346  33.563  1.00  0.00    -0.354 N 
ATOM     46  C   UNL A   1      39.855  29.587  30.305  1.00  0.00     0.074 A 
ATOM     47  C   UNL A   1      38.924  29.800  29.217  1.00  0.00     0.031 C 
ATOM     48  C   UNL A   1      37.981  33.963  34.647  1.00  0.00     0.029 A 
ATOM     49  C   UNL A   1      39.070  33.000  34.775  1.00  0.00     0.049 A 
ATOM     50  H   UNL A   1      39.739  31.650  33.335  1.00  0.00     0.167 HD
ATOM     51  C   UNL A   1      40.845  28.660  30.298  1.00  0.00     0.034 A 
ATOM     52  C   UNL A   1      39.837  32.830  35.871  1.00  0.00     0.034 A 
ATOM     53  C   UNL A   1      41.779  28.478  31.381  1.00  0.00     0.049 A 
ATOM     54  C   UNL A   1      40.925  31.785  35.841  1.00  0.00     0.074 A 
ATOM     55  C   UNL A   1      42.858  27.612  31.453  1.00  0.00     0.029 A 
ATOM     56  N   UNL A   1      41.746  29.169  32.586  1.00  0.00    -0.354 N 
ATOM     57  N   UNL A   1      41.245  30.953  34.876  1.00  0.00    -0.248 NA
ATOM     58  C   UNL A   1      41.762  31.664  37.041  1.00  0.00     0.031 C 
ATOM     59  C   UNL A   1      43.435  27.735  32.722  1.00  0.00     0.029 A 
ATOM     60  C   UNL A   1      42.765  28.729  33.417  1.00  0.00     0.049 A 
ATOM     61  H   UNL A   1      41.094  29.869  32.816  1.00  0.00     0.167 HD
ATOM     62  C   UNL A   1      42.341  30.234  35.344  1.00  0.00     0.074 A 
ATOM     63  C   UNL A   1      42.636  30.742  36.668  1.00  0.00     0.031 C 
ATOM     64  C   UNL A   1      43.043  29.244  34.736  1.00  0.00     0.034 A 
BRANCH  51  65
ATOM     65  C   UNL A   1      40.951  27.757  29.092  1.00  0.00     0.023 A 
ATOM     66  C   UNL A   1      41.924  27.959  28.097  1.00  0.00     0.031 A 
ATOM     67  C   UNL A   1      40.062  26.679  28.930  1.00  0.00     0.131 A 
ATOM     68  C   UNL A   1      41.943  27.141  26.956  1.00  0.00     0.055 A 
ATOM     69  C   UNL A   1      40.135  25.821  27.831  1.00  0.00     0.041 A 
ATOM     70  F   UNL A   1      39.100  26.446  29.836  1.00  0.00    -0.206 F 
ATOM     71  C   UNL A   1      41.071  26.057  26.829  1.00  0.00     0.022 A 
BRANCH  68  72
ATOM     72  S   UNL A   1      43.040  27.590  25.584  1.00  0.00     0.124 S 
ATOM     73  O   UNL A   1      44.040  28.410  26.262  1.00  0.00    -0.237 OA
ATOM     74  O   UNL A   1      43.498  26.289  25.107  1.00  0.00    -0.237 OA
ATOM     75  O   UNL A   1      42.165  28.317  24.668  1.00  0.00    -0.744 OA
ENDBRANCH  68  72
ENDBRANCH  51  65
BRANCH  52  76
ATOM     76  C   UNL A   1      39.602  33.647  37.098  1.00  0.00     0.023 A 
ATOM     77  C   UNL A   1      38.899  33.122  38.194  1.00  0.00     0.031 A 
ATOM     78  C   UNL A   1      40.028  34.986  37.169  1.00  0.00     0.131 A 
ATOM     79  C   UNL A   1      38.595  33.945  39.290  1.00  0.00     0.055 A 
ATOM     80  C   UNL A   1      39.773  35.784  38.286  1.00  0.00     0.041 A 
ATOM     81  F   UNL A   1      40.709  35.538  36.151  1.00  0.00    -0.206 F 
ATOM     82  C   UNL A   1      39.038  35.268  39.349  1.00  0.00     0.022 A 
BRANCH  79  83
ATOM     83  S   UNL A   1      37.519  33.289  40.595  1.00  0.00     0.124 S 
ATOM     84  O   UNL A   1      38.338  32.210  41.139  1.00  0.00    -0.237 OA
ATOM     85  O   UNL A   1      37.340  34.455  41.453  1.00  0.00    -0.237 OA
ATOM     86  O   UNL A   1      36.326  32.862  39.870  1.00  0.00    -0.744 OA
ENDBRANCH  79  83
ENDBRANCH  52  76
BRANCH  64  87
ATOM     87  C   UNL A   1      44.228  28.687  35.484  1.00  0.00     0.023 A 
ATOM     88  C   UNL A   1      44.105  27.592  36.357  1.00  0.00     0.031 A 
ATOM     89  C   UNL A   1      45.498  29.270  35.328  1.00  0.00     0.131 A 
ATOM     90  C   UNL A   1      45.220  27.150  37.084  1.00  0.00     0.055 A 
ATOM     91  C   UNL A   1      46.616  28.787  36.008  1.00  0.00     0.041 A 
ATOM     92  F   UNL A   1      45.672  30.320  34.508  1.00  0.00    -0.206 F 
ATOM     93  C   UNL A   1      46.479  27.730  36.903  1.00  0.00     0.022 A 
BRANCH  90  94
ATOM     94  S   UNL A   1      44.987  25.861  38.339  1.00  0.00     0.124 S 
ATOM     95  O   UNL A   1      46.360  25.594  38.759  1.00  0.00    -0.237 OA
ATOM     96  O   UNL A   1      44.139  26.532  39.321  1.00  0.00    -0.237 OA
ATOM     97  O   UNL A   1      44.342  24.777  37.602  1.00  0.00    -0.744 OA
ENDBRANCH  90  94
ENDBRANCH  64  87
ENDBRANCH  38  39
ENDBRANCH  30  33
ENDBRANCH  28  29
ENDBRANCH  27  28
ENDBRANCH   1  27
TORSDOF 18
ENDMDL
