MODEL 1
REMARK VINA RESULT:     -11.1      0.000      0.000
REMARK SMILES C[NH+](C)CC[NH2+][C@@H](C(=O)NCCCNC(=O)c1ccc(-c2c3nc(c(-c4cc(S(=O)(=O)[O-])ccc4F)c4ccc([nH]4)c(-c4cc(S(=O)(=O)[O-])ccc4F)c4nc(c(-c5cc(S(=O)(=O)[O-])ccc5F)c5ccc2[nH]5)C=C4)C=C3)cc1)c1cccc(C2CC2)c1
REMARK SMILES IDX 11 1 10 2 8 3 9 4 7 6 6 7 5 10 4 11 2 12 1 13 3 14 80 16
REMARK SMILES IDX 81 17 88 18 82 19 84 20 83 21 85 22 86 23 87 24 12 25 13 26
REMARK SMILES IDX 14 27 15 28 16 30 17 31 18 32 79 33 19 34 78 35 20 36 21 37
REMARK SMILES IDX 22 38 72 39 23 40 77 41 71 42 73 43 24 44 76 45 70 46 69 47
REMARK SMILES IDX 25 49 57 50 37 51 56 52 38 53 41 54 55 55 74 56 39 57 40 58
REMARK SMILES IDX 54 60 75 61 42 62 26 63 27 64 35 65 28 66 34 67 36 68 33 69
REMARK SMILES IDX 29 70 30 71 31 72 32 73 58 74 59 75 67 76 60 77 66 78 68 79
REMARK SMILES IDX 65 80 61 81 62 82 63 83 64 84 43 85 44 86 52 87 45 88 51 89
REMARK SMILES IDX 53 90 50 91 46 92 47 93 48 94 49 95
REMARK H PARENT 10 5 6 8 6 9 2 15 14 29 73 48 41 59
REMARK Flexibility Score: inf
ROOT
ATOM      1  C   UNL A   1      31.760  30.071  26.182  1.00  0.00     0.118 C 
ENDROOT
BRANCH   1   2
ATOM      2  N   UNL A   1      32.390  30.012  24.869  1.00  0.00    -0.351 N 
ATOM      3  C   UNL A   1      32.314  29.123  23.834  1.00  0.00     0.283 C 
ATOM      4  O   UNL A   1      33.162  29.283  22.948  1.00  0.00    -0.268 OA
ATOM      5  H   UNL A   1      32.996  30.768  24.692  1.00  0.00     0.163 HD
BRANCH   3   6
ATOM      6  C   UNL A   1      31.243  27.976  23.784  1.00  0.00     0.304 C 
BRANCH   6   7
ATOM      7  N   UNL A   1      31.514  27.001  22.694  1.00  0.00    -0.328 N 
ATOM      8  H   UNL A   1      30.718  27.008  22.056  1.00  0.00     0.347 HD
ATOM      9  H   UNL A   1      32.384  27.295  22.252  1.00  0.00     0.347 HD
BRANCH   7  10
ATOM     10  C   UNL A   1      31.720  25.634  23.146  1.00  0.00     0.323 C 
BRANCH  10  11
ATOM     11  C   UNL A   1      33.165  25.304  23.585  1.00  0.00     0.323 C 
BRANCH  11  12
ATOM     12  N   UNL A   1      33.362  24.596  24.862  1.00  0.00    -0.335 N 
ATOM     13  C   UNL A   1      34.699  24.714  25.422  1.00  0.00     0.332 C 
ATOM     14  C   UNL A   1      32.336  24.866  25.865  1.00  0.00     0.332 C 
ATOM     15  H   UNL A   1      33.253  23.619  24.592  1.00  0.00     0.347 HD
ENDBRANCH  11  12
ENDBRANCH  10  11
ENDBRANCH   7  10
ENDBRANCH   6   7
BRANCH   6  16
ATOM     16  C   UNL A   1      29.838  28.562  23.539  1.00  0.00     0.019 A 
ATOM     17  C   UNL A   1      28.728  27.708  23.389  1.00  0.00     0.010 A 
ATOM     18  C   UNL A   1      29.617  29.951  23.474  1.00  0.00     0.014 A 
ATOM     19  C   UNL A   1      27.453  28.216  23.178  1.00  0.00     0.001 A 
ATOM     20  C   UNL A   1      28.333  30.497  23.251  1.00  0.00    -0.044 A 
ATOM     21  C   UNL A   1      27.265  29.591  23.107  1.00  0.00     0.004 A 
BRANCH  20  22
ATOM     22  C   UNL A   1      28.034  31.979  23.147  1.00  0.00     0.019 C 
ATOM     23  C   UNL A   1      29.077  33.050  22.963  1.00  0.00     0.009 C 
ATOM     24  C   UNL A   1      28.205  32.657  21.807  1.00  0.00     0.009 C 
ENDBRANCH  20  22
ENDBRANCH   6  16
ENDBRANCH   3   6
ENDBRANCH   1   2
BRANCH   1  25
ATOM     25  C   UNL A   1      31.622  31.504  26.725  1.00  0.00     0.042 C 
BRANCH  25  26
ATOM     26  C   UNL A   1      32.928  32.186  27.132  1.00  0.00     0.118 C 
BRANCH  26  27
ATOM     27  N   UNL A   1      32.714  33.568  27.519  1.00  0.00    -0.352 N 
ATOM     28  C   UNL A   1      33.236  34.262  28.584  1.00  0.00     0.251 C 
ATOM     29  H   UNL A   1      32.109  34.080  26.935  1.00  0.00     0.163 HD
ATOM     30  O   UNL A   1      32.718  35.327  28.907  1.00  0.00    -0.269 OA
BRANCH  28  31
ATOM     31  C   UNL A   1      34.398  33.739  29.351  1.00  0.00     0.039 A 
ATOM     32  C   UNL A   1      35.685  34.138  28.975  1.00  0.00     0.014 A 
ATOM     33  C   UNL A   1      34.240  32.804  30.378  1.00  0.00     0.014 A 
ATOM     34  C   UNL A   1      36.804  33.630  29.644  1.00  0.00     0.010 A 
ATOM     35  C   UNL A   1      35.355  32.340  31.084  1.00  0.00     0.010 A 
ATOM     36  C   UNL A   1      36.651  32.735  30.715  1.00  0.00    -0.014 A 
BRANCH  36  37
ATOM     37  C   UNL A   1      37.835  32.171  31.424  1.00  0.00     0.031 A 
ATOM     38  C   UNL A   1      38.648  31.076  30.783  1.00  0.00     0.074 A 
ATOM     39  C   UNL A   1      38.159  32.608  32.657  1.00  0.00     0.049 A 
ATOM     40  N   UNL A   1      39.664  30.404  31.265  1.00  0.00    -0.248 NA
ATOM     41  C   UNL A   1      38.249  30.668  29.428  1.00  0.00     0.031 C 
ATOM     42  C   UNL A   1      37.441  33.645  33.400  1.00  0.00     0.029 A 
ATOM     43  N   UNL A   1      39.167  32.229  33.508  1.00  0.00    -0.354 N 
ATOM     44  C   UNL A   1      40.012  29.482  30.281  1.00  0.00     0.074 A 
ATOM     45  C   UNL A   1      39.065  29.651  29.200  1.00  0.00     0.031 C 
ATOM     46  C   UNL A   1      38.039  33.828  34.589  1.00  0.00     0.029 A 
ATOM     47  C   UNL A   1      39.156  32.896  34.713  1.00  0.00     0.049 A 
ATOM     48  H   UNL A   1      39.835  31.543  33.279  1.00  0.00     0.167 HD
ATOM     49  C   UNL A   1      41.038  28.592  30.271  1.00  0.00     0.034 A 
ATOM     50  C   UNL A   1      39.944  32.763  35.798  1.00  0.00     0.034 A 
ATOM     51  C   UNL A   1      41.989  28.446  31.348  1.00  0.00     0.049 A 
ATOM     52  C   UNL A   1      41.064  31.753  35.775  1.00  0.00     0.074 A 
ATOM     53  C   UNL A   1      43.096  27.616  31.413  1.00  0.00     0.029 A 
ATOM     54  N   UNL A   1      41.944  29.140  32.550  1.00  0.00    -0.354 N 
ATOM     55  N   UNL A   1      41.403  30.916  34.821  1.00  0.00    -0.248 NA
ATOM     56  C   UNL A   1      41.913  31.675  36.972  1.00  0.00     0.031 C 
ATOM     57  C   UNL A   1      43.683  27.765  32.676  1.00  0.00     0.029 A 
ATOM     58  C   UNL A   1      42.984  28.737  33.373  1.00  0.00     0.049 A 
ATOM     59  H   UNL A   1      41.271  29.819  32.784  1.00  0.00     0.167 HD
ATOM     60  C   UNL A   1      42.522  30.235  35.294  1.00  0.00     0.074 A 
ATOM     61  C   UNL A   1      42.806  30.766  36.612  1.00  0.00     0.031 C 
ATOM     62  C   UNL A   1      43.252  29.265  34.689  1.00  0.00     0.034 A 
BRANCH  49  63
ATOM     63  C   UNL A   1      41.162  27.689  29.067  1.00  0.00     0.023 A 
ATOM     64  C   UNL A   1      42.166  27.880  28.100  1.00  0.00     0.031 A 
ATOM     65  C   UNL A   1      40.247  26.641  28.864  1.00  0.00     0.131 A 
ATOM     66  C   UNL A   1      42.183  27.089  26.942  1.00  0.00     0.055 A 
ATOM     67  C   UNL A   1      40.320  25.804  27.749  1.00  0.00     0.041 A 
ATOM     68  F   UNL A   1      39.256  26.420  29.742  1.00  0.00    -0.206 F 
ATOM     69  C   UNL A   1      41.281  26.037  26.770  1.00  0.00     0.022 A 
BRANCH  66  70
ATOM     70  S   UNL A   1      43.308  27.551  25.595  1.00  0.00     0.124 S 
ATOM     71  O   UNL A   1      44.120  28.585  26.231  1.00  0.00    -0.237 OA
ATOM     72  O   UNL A   1      43.986  26.293  25.305  1.00  0.00    -0.237 OA
ATOM     73  O   UNL A   1      42.410  28.032  24.548  1.00  0.00    -0.744 OA
ENDBRANCH  66  70
ENDBRANCH  49  63
BRANCH  50  74
ATOM     74  C   UNL A   1      39.699  33.593  37.013  1.00  0.00     0.023 A 
ATOM     75  C   UNL A   1      38.975  33.085  38.102  1.00  0.00     0.031 A 
ATOM     76  C   UNL A   1      40.153  34.921  37.082  1.00  0.00     0.131 A 
ATOM     77  C   UNL A   1      38.689  33.914  39.199  1.00  0.00     0.055 A 
ATOM     78  C   UNL A   1      39.908  35.727  38.195  1.00  0.00     0.041 A 
ATOM     79  F   UNL A   1      40.853  35.453  36.067  1.00  0.00    -0.206 F 
ATOM     80  C   UNL A   1      39.161  35.227  39.257  1.00  0.00     0.022 A 
BRANCH  77  81
ATOM     81  S   UNL A   1      37.627  33.271  40.520  1.00  0.00     0.124 S 
ATOM     82  O   UNL A   1      37.446  34.451  41.358  1.00  0.00    -0.237 OA
ATOM     83  O   UNL A   1      36.454  32.825  39.776  1.00  0.00    -0.237 OA
ATOM     84  O   UNL A   1      38.430  32.201  41.112  1.00  0.00    -0.744 OA
ENDBRANCH  77  81
ENDBRANCH  50  74
BRANCH  62  85
ATOM     85  C   UNL A   1      44.458  28.749  35.436  1.00  0.00     0.023 A 
ATOM     86  C   UNL A   1      44.372  27.656  36.316  1.00  0.00     0.031 A 
ATOM     87  C   UNL A   1      45.709  29.368  35.266  1.00  0.00     0.131 A 
ATOM     88  C   UNL A   1      45.508  27.246  37.032  1.00  0.00     0.055 A 
ATOM     89  C   UNL A   1      46.846  28.922  35.941  1.00  0.00     0.041 A 
ATOM     90  F   UNL A   1      45.846  30.416  34.438  1.00  0.00    -0.206 F 
ATOM     91  C   UNL A   1      46.747  27.863  36.838  1.00  0.00     0.022 A 
BRANCH  88  92
ATOM     92  S   UNL A   1      45.331  25.941  38.279  1.00  0.00     0.124 S 
ATOM     93  O   UNL A   1      46.596  25.224  38.149  1.00  0.00    -0.237 OA
ATOM     94  O   UNL A   1      45.155  26.705  39.509  1.00  0.00    -0.237 OA
ATOM     95  O   UNL A   1      44.150  25.201  37.837  1.00  0.00    -0.744 OA
ENDBRANCH  88  92
ENDBRANCH  62  85
ENDBRANCH  36  37
ENDBRANCH  28  31
ENDBRANCH  26  27
ENDBRANCH  25  26
ENDBRANCH   1  25
TORSDOF 19
ENDMDL
MODEL 2
REMARK VINA RESULT:     -11.1      6.363     10.988
REMARK SMILES C[NH+](C)CC[NH2+][C@@H](C(=O)NCCCNC(=O)c1ccc(-c2c3nc(c(-c4cc(S(=O)(=O)[O-])ccc4F)c4ccc([nH]4)c(-c4cc(S(=O)(=O)[O-])ccc4F)c4nc(c(-c5cc(S(=O)(=O)[O-])ccc5F)c5ccc2[nH]5)C=C4)C=C3)cc1)c1cccc(C2CC2)c1
REMARK SMILES IDX 11 1 10 2 8 3 9 4 7 6 6 7 5 10 4 11 2 12 1 13 3 14 80 16
REMARK SMILES IDX 81 17 88 18 82 19 84 20 83 21 85 22 86 23 87 24 12 25 13 26
REMARK SMILES IDX 14 27 15 28 16 30 17 31 18 32 79 33 19 34 78 35 20 36 21 37
REMARK SMILES IDX 22 38 72 39 23 40 77 41 71 42 73 43 24 44 76 45 70 46 69 47
REMARK SMILES IDX 25 49 57 50 37 51 56 52 38 53 41 54 55 55 74 56 39 57 40 58
REMARK SMILES IDX 54 60 75 61 42 62 26 63 27 64 35 65 28 66 34 67 36 68 33 69
REMARK SMILES IDX 29 70 30 71 31 72 32 73 58 74 59 75 67 76 60 77 66 78 68 79
REMARK SMILES IDX 65 80 61 81 62 82 63 83 64 84 43 85 44 86 52 87 45 88 51 89
REMARK SMILES IDX 53 90 50 91 46 92 47 93 48 94 49 95
REMARK H PARENT 10 5 6 8 6 9 2 15 14 29 73 48 41 59
REMARK Flexibility Score: inf
ROOT
ATOM      1  C   UNL A   1      42.754  22.795  26.735  1.00  0.00     0.118 C 
ENDROOT
BRANCH   1   2
ATOM      2  N   UNL A   1      43.265  23.753  25.765  1.00  0.00    -0.351 N 
ATOM      3  C   UNL A   1      44.517  24.221  25.481  1.00  0.00     0.283 C 
ATOM      4  O   UNL A   1      44.549  25.201  24.727  1.00  0.00    -0.268 OA
ATOM      5  H   UNL A   1      42.563  24.146  25.197  1.00  0.00     0.163 HD
BRANCH   3   6
ATOM      6  C   UNL A   1      45.816  23.574  26.083  1.00  0.00     0.304 C 
BRANCH   6   7
ATOM      7  N   UNL A   1      45.641  22.125  26.369  1.00  0.00    -0.328 N 
ATOM      8  H   UNL A   1      46.173  21.900  27.210  1.00  0.00     0.347 HD
ATOM      9  H   UNL A   1      44.639  21.970  26.476  1.00  0.00     0.347 HD
BRANCH   7  10
ATOM     10  C   UNL A   1      46.084  21.242  25.302  1.00  0.00     0.323 C 
BRANCH  10  11
ATOM     11  C   UNL A   1      44.956  20.457  24.596  1.00  0.00     0.323 C 
BRANCH  11  12
ATOM     12  N   UNL A   1      44.839  19.013  24.862  1.00  0.00    -0.335 N 
ATOM     13  C   UNL A   1      45.999  18.418  25.507  1.00  0.00     0.332 C 
ATOM     14  C   UNL A   1      43.598  18.622  25.526  1.00  0.00     0.332 C 
ATOM     15  H   UNL A   1      44.802  18.617  23.923  1.00  0.00     0.347 HD
ENDBRANCH  11  12
ENDBRANCH  10  11
ENDBRANCH   7  10
ENDBRANCH   6   7
BRANCH   6  16
ATOM     16  C   UNL A   1      46.194  24.262  27.410  1.00  0.00     0.019 A 
ATOM     17  C   UNL A   1      47.496  24.758  27.608  1.00  0.00     0.010 A 
ATOM     18  C   UNL A   1      45.257  24.431  28.448  1.00  0.00     0.014 A 
ATOM     19  C   UNL A   1      47.855  25.391  28.791  1.00  0.00     0.001 A 
ATOM     20  C   UNL A   1      45.594  25.063  29.667  1.00  0.00    -0.044 A 
ATOM     21  C   UNL A   1      46.914  25.536  29.804  1.00  0.00     0.004 A 
BRANCH  20  22
ATOM     22  C   UNL A   1      44.641  25.255  30.830  1.00  0.00     0.019 C 
ATOM     23  C   UNL A   1      44.781  26.323  31.882  1.00  0.00     0.009 C 
ATOM     24  C   UNL A   1      43.728  26.459  30.821  1.00  0.00     0.009 C 
ENDBRANCH  20  22
ENDBRANCH   6  16
ENDBRANCH   3   6
ENDBRANCH   1   2
BRANCH   1  25
ATOM     25  C   UNL A   1      41.865  21.708  26.106  1.00  0.00     0.042 C 
BRANCH  25  26
ATOM     26  C   UNL A   1      40.704  21.219  26.973  1.00  0.00     0.118 C 
BRANCH  26  27
ATOM     27  N   UNL A   1      39.424  21.436  26.327  1.00  0.00    -0.352 N 
ATOM     28  C   UNL A   1      38.642  22.567  26.310  1.00  0.00     0.251 C 
ATOM     29  H   UNL A   1      39.065  20.665  25.831  1.00  0.00     0.163 HD
ATOM     30  O   UNL A   1      37.471  22.469  25.955  1.00  0.00    -0.269 OA
BRANCH  28  31
ATOM     31  C   UNL A   1      39.186  23.887  26.722  1.00  0.00     0.039 A 
ATOM     32  C   UNL A   1      39.023  24.295  28.050  1.00  0.00     0.014 A 
ATOM     33  C   UNL A   1      39.781  24.757  25.803  1.00  0.00     0.014 A 
ATOM     34  C   UNL A   1      39.481  25.552  28.462  1.00  0.00     0.010 A 
ATOM     35  C   UNL A   1      40.289  25.989  26.228  1.00  0.00     0.010 A 
ATOM     36  C   UNL A   1      40.131  26.408  27.559  1.00  0.00    -0.014 A 
BRANCH  36  37
ATOM     37  C   UNL A   1      40.607  27.756  27.979  1.00  0.00     0.031 A 
ATOM     38  C   UNL A   1      42.068  28.111  27.868  1.00  0.00     0.074 A 
ATOM     39  C   UNL A   1      39.742  28.650  28.498  1.00  0.00     0.049 A 
ATOM     40  N   UNL A   1      42.691  29.198  28.248  1.00  0.00    -0.248 NA
ATOM     41  C   UNL A   1      42.947  27.094  27.271  1.00  0.00     0.031 C 
ATOM     42  C   UNL A   1      38.307  28.425  28.683  1.00  0.00     0.029 A 
ATOM     43  N   UNL A   1      39.942  29.921  28.975  1.00  0.00    -0.354 N 
ATOM     44  C   UNL A   1      44.036  28.990  27.954  1.00  0.00     0.074 A 
ATOM     45  C   UNL A   1      44.140  27.652  27.412  1.00  0.00     0.031 C 
ATOM     46  C   UNL A   1      37.755  29.526  29.221  1.00  0.00     0.029 A 
ATOM     47  C   UNL A   1      38.799  30.519  29.458  1.00  0.00     0.049 A 
ATOM     48  H   UNL A   1      40.821  30.365  28.973  1.00  0.00     0.167 HD
ATOM     49  C   UNL A   1      45.083  29.841  28.102  1.00  0.00     0.034 A 
ATOM     50  C   UNL A   1      38.614  31.721  30.039  1.00  0.00     0.034 A 
ATOM     51  C   UNL A   1      44.965  31.181  28.626  1.00  0.00     0.049 A 
ATOM     52  C   UNL A   1      39.795  32.643  30.215  1.00  0.00     0.074 A 
ATOM     53  C   UNL A   1      45.952  32.143  28.764  1.00  0.00     0.029 A 
ATOM     54  N   UNL A   1      43.791  31.749  29.103  1.00  0.00    -0.354 N 
ATOM     55  N   UNL A   1      41.053  32.445  29.895  1.00  0.00    -0.248 NA
ATOM     56  C   UNL A   1      39.528  33.954  30.822  1.00  0.00     0.031 C 
ATOM     57  C   UNL A   1      45.388  33.268  29.380  1.00  0.00     0.029 A 
ATOM     58  C   UNL A   1      44.035  33.034  29.563  1.00  0.00     0.049 A 
ATOM     59  H   UNL A   1      42.913  31.304  29.114  1.00  0.00     0.167 HD
ATOM     60  C   UNL A   1      41.720  33.618  30.236  1.00  0.00     0.074 A 
ATOM     61  C   UNL A   1      40.725  34.521  30.776  1.00  0.00     0.031 C 
ATOM     62  C   UNL A   1      43.036  33.923  30.108  1.00  0.00     0.034 A 
BRANCH  49  63
ATOM     63  C   UNL A   1      46.452  29.331  27.718  1.00  0.00     0.023 A 
ATOM     64  C   UNL A   1      46.765  28.980  26.391  1.00  0.00     0.031 A 
ATOM     65  C   UNL A   1      47.451  29.165  28.693  1.00  0.00     0.131 A 
ATOM     66  C   UNL A   1      48.011  28.410  26.093  1.00  0.00     0.055 A 
ATOM     67  C   UNL A   1      48.719  28.673  28.374  1.00  0.00     0.041 A 
ATOM     68  F   UNL A   1      47.208  29.466  29.979  1.00  0.00    -0.206 F 
ATOM     69  C   UNL A   1      48.999  28.276  27.070  1.00  0.00     0.022 A 
BRANCH  66  70
ATOM     70  S   UNL A   1      48.268  27.711  24.438  1.00  0.00     0.124 S 
ATOM     71  O   UNL A   1      49.687  27.981  24.221  1.00  0.00    -0.237 OA
ATOM     72  O   UNL A   1      47.905  26.311  24.628  1.00  0.00    -0.237 OA
ATOM     73  O   UNL A   1      47.358  28.483  23.595  1.00  0.00    -0.744 OA
ENDBRANCH  66  70
ENDBRANCH  49  63
BRANCH  50  74
ATOM     74  C   UNL A   1      37.261  32.126  30.517  1.00  0.00     0.023 A 
ATOM     75  C   UNL A   1      36.343  32.745  29.653  1.00  0.00     0.031 A 
ATOM     76  C   UNL A   1      36.882  31.935  31.857  1.00  0.00     0.131 A 
ATOM     77  C   UNL A   1      35.107  33.188  30.149  1.00  0.00     0.055 A 
ATOM     78  C   UNL A   1      35.633  32.334  32.335  1.00  0.00     0.041 A 
ATOM     79  F   UNL A   1      37.723  31.345  32.722  1.00  0.00    -0.206 F 
ATOM     80  C   UNL A   1      34.741  32.977  31.481  1.00  0.00     0.022 A 
BRANCH  77  81
ATOM     81  S   UNL A   1      34.009  34.114  29.042  1.00  0.00     0.124 S 
ATOM     82  O   UNL A   1      33.520  33.061  28.159  1.00  0.00    -0.237 OA
ATOM     83  O   UNL A   1      33.036  34.671  29.976  1.00  0.00    -0.237 OA
ATOM     84  O   UNL A   1      34.900  35.090  28.417  1.00  0.00    -0.744 OA
ENDBRANCH  77  81
ENDBRANCH  50  74
BRANCH  62  85
ATOM     85  C   UNL A   1      43.461  35.311  30.519  1.00  0.00     0.023 A 
ATOM     86  C   UNL A   1      43.767  35.627  31.855  1.00  0.00     0.031 A 
ATOM     87  C   UNL A   1      43.554  36.333  29.557  1.00  0.00     0.131 A 
ATOM     88  C   UNL A   1      44.104  36.945  32.200  1.00  0.00     0.055 A 
ATOM     89  C   UNL A   1      43.941  37.629  29.899  1.00  0.00     0.041 A 
ATOM     90  F   UNL A   1      43.272  36.085  28.268  1.00  0.00    -0.206 F 
ATOM     91  C   UNL A   1      44.207  37.944  31.228  1.00  0.00     0.022 A 
BRANCH  88  92
ATOM     92  S   UNL A   1      44.335  37.358  33.951  1.00  0.00     0.124 S 
ATOM     93  O   UNL A   1      44.908  38.698  33.874  1.00  0.00    -0.237 OA
ATOM     94  O   UNL A   1      42.974  37.276  34.473  1.00  0.00    -0.237 OA
ATOM     95  O   UNL A   1      45.245  36.321  34.432  1.00  0.00    -0.744 OA
ENDBRANCH  88  92
ENDBRANCH  62  85
ENDBRANCH  36  37
ENDBRANCH  28  31
ENDBRANCH  26  27
ENDBRANCH  25  26
ENDBRANCH   1  25
TORSDOF 19
ENDMDL
MODEL 3
REMARK VINA RESULT:     -11.0      3.574      9.243
REMARK SMILES C[NH+](C)CC[NH2+][C@@H](C(=O)NCCCNC(=O)c1ccc(-c2c3nc(c(-c4cc(S(=O)(=O)[O-])ccc4F)c4ccc([nH]4)c(-c4cc(S(=O)(=O)[O-])ccc4F)c4nc(c(-c5cc(S(=O)(=O)[O-])ccc5F)c5ccc2[nH]5)C=C4)C=C3)cc1)c1cccc(C2CC2)c1
REMARK SMILES IDX 11 1 10 2 8 3 9 4 7 6 6 7 5 10 4 11 2 12 1 13 3 14 80 16
REMARK SMILES IDX 81 17 88 18 82 19 84 20 83 21 85 22 86 23 87 24 12 25 13 26
REMARK SMILES IDX 14 27 15 28 16 30 17 31 18 32 79 33 19 34 78 35 20 36 21 37
REMARK SMILES IDX 22 38 72 39 23 40 77 41 71 42 73 43 24 44 76 45 70 46 69 47
REMARK SMILES IDX 25 49 57 50 37 51 56 52 38 53 41 54 55 55 74 56 39 57 40 58
REMARK SMILES IDX 54 60 75 61 42 62 26 63 27 64 35 65 28 66 34 67 36 68 33 69
REMARK SMILES IDX 29 70 30 71 31 72 32 73 58 74 59 75 67 76 60 77 66 78 68 79
REMARK SMILES IDX 65 80 61 81 62 82 63 83 64 84 43 85 44 86 52 87 45 88 51 89
REMARK SMILES IDX 53 90 50 91 46 92 47 93 48 94 49 95
REMARK H PARENT 10 5 6 8 6 9 2 15 14 29 73 48 41 59
REMARK Flexibility Score: inf
ROOT
ATOM      1  C   UNL A   1      31.578  28.277  27.185  1.00  0.00     0.118 C 
ENDROOT
BRANCH   1   2
ATOM      2  N   UNL A   1      30.955  26.995  26.884  1.00  0.00    -0.351 N 
ATOM      3  C   UNL A   1      30.844  26.253  25.741  1.00  0.00     0.283 C 
ATOM      4  O   UNL A   1      30.052  25.306  25.810  1.00  0.00    -0.268 OA
ATOM      5  H   UNL A   1      30.524  26.577  27.665  1.00  0.00     0.163 HD
BRANCH   3   6
ATOM      6  C   UNL A   1      31.646  26.593  24.434  1.00  0.00     0.304 C 
BRANCH   6   7
ATOM      7  N   UNL A   1      30.763  26.696  23.242  1.00  0.00    -0.328 N 
ATOM      8  H   UNL A   1      31.109  26.050  22.533  1.00  0.00     0.347 HD
ATOM      9  H   UNL A   1      29.820  26.473  23.560  1.00  0.00     0.347 HD
BRANCH   7  10
ATOM     10  C   UNL A   1      30.696  28.025  22.654  1.00  0.00     0.323 C 
BRANCH  10  11
ATOM     11  C   UNL A   1      29.315  28.711  22.750  1.00  0.00     0.323 C 
BRANCH  11  12
ATOM     12  N   UNL A   1      29.214  30.132  22.374  1.00  0.00    -0.335 N 
ATOM     13  C   UNL A   1      28.327  30.402  21.253  1.00  0.00     0.332 C 
ATOM     14  C   UNL A   1      28.953  31.033  23.492  1.00  0.00     0.332 C 
ATOM     15  H   UNL A   1      30.157  30.341  22.046  1.00  0.00     0.347 HD
ENDBRANCH  11  12
ENDBRANCH  10  11
ENDBRANCH   7  10
ENDBRANCH   6   7
BRANCH   6  16
ATOM     16  C   UNL A   1      32.687  25.494  24.142  1.00  0.00     0.019 A 
ATOM     17  C   UNL A   1      32.723  24.866  22.882  1.00  0.00     0.010 A 
ATOM     18  C   UNL A   1      33.634  25.096  25.105  1.00  0.00     0.014 A 
ATOM     19  C   UNL A   1      33.659  23.882  22.594  1.00  0.00     0.001 A 
ATOM     20  C   UNL A   1      34.593  24.090  24.845  1.00  0.00    -0.044 A 
ATOM     21  C   UNL A   1      34.576  23.501  23.567  1.00  0.00     0.004 A 
BRANCH  20  22
ATOM     22  C   UNL A   1      35.621  23.603  25.846  1.00  0.00     0.019 C 
ATOM     23  C   UNL A   1      36.721  22.624  25.532  1.00  0.00     0.009 C 
ATOM     24  C   UNL A   1      37.048  24.079  25.702  1.00  0.00     0.009 C 
ENDBRANCH  20  22
ENDBRANCH   6  16
ENDBRANCH   3   6
ENDBRANCH   1   2
BRANCH   1  25
ATOM     25  C   UNL A   1      33.114  28.240  27.101  1.00  0.00     0.042 C 
BRANCH  25  26
ATOM     26  C   UNL A   1      33.749  29.260  26.154  1.00  0.00     0.118 C 
BRANCH  26  27
ATOM     27  N   UNL A   1      33.668  30.607  26.686  1.00  0.00    -0.352 N 
ATOM     28  C   UNL A   1      34.418  31.195  27.677  1.00  0.00     0.251 C 
ATOM     29  H   UNL A   1      32.979  31.181  26.280  1.00  0.00     0.163 HD
ATOM     30  O   UNL A   1      34.016  32.239  28.182  1.00  0.00    -0.269 OA
BRANCH  28  31
ATOM     31  C   UNL A   1      35.689  30.583  28.148  1.00  0.00     0.039 A 
ATOM     32  C   UNL A   1      35.671  29.816  29.318  1.00  0.00     0.014 A 
ATOM     33  C   UNL A   1      36.904  30.820  27.500  1.00  0.00     0.014 A 
ATOM     34  C   UNL A   1      36.857  29.264  29.817  1.00  0.00     0.010 A 
ATOM     35  C   UNL A   1      38.080  30.221  27.966  1.00  0.00     0.010 A 
ATOM     36  C   UNL A   1      38.072  29.449  29.139  1.00  0.00    -0.014 A 
BRANCH  36  37
ATOM     37  C   UNL A   1      39.345  28.883  29.669  1.00  0.00     0.031 A 
ATOM     38  C   UNL A   1      40.041  29.545  30.831  1.00  0.00     0.074 A 
ATOM     39  C   UNL A   1      39.901  27.802  29.086  1.00  0.00     0.049 A 
ATOM     40  N   UNL A   1      41.189  29.253  31.389  1.00  0.00    -0.248 NA
ATOM     41  C   UNL A   1      39.362  30.704  31.429  1.00  0.00     0.031 C 
ATOM     42  C   UNL A   1      39.344  27.081  27.940  1.00  0.00     0.029 A 
ATOM     43  N   UNL A   1      41.063  27.128  29.369  1.00  0.00    -0.354 N 
ATOM     44  C   UNL A   1      41.380  30.203  32.388  1.00  0.00     0.074 A 
ATOM     45  C   UNL A   1      40.251  31.107  32.323  1.00  0.00     0.031 C 
ATOM     46  C   UNL A   1      40.157  26.059  27.627  1.00  0.00     0.029 A 
ATOM     47  C   UNL A   1      41.312  26.073  28.520  1.00  0.00     0.049 A 
ATOM     48  H   UNL A   1      41.662  27.375  30.110  1.00  0.00     0.167 HD
ATOM     49  C   UNL A   1      42.390  30.301  33.290  1.00  0.00     0.034 A 
ATOM     50  C   UNL A   1      42.358  25.224  28.457  1.00  0.00     0.034 A 
ATOM     51  C   UNL A   1      43.501  29.381  33.359  1.00  0.00     0.049 A 
ATOM     52  C   UNL A   1      43.481  25.363  29.454  1.00  0.00     0.074 A 
ATOM     53  C   UNL A   1      44.546  29.358  34.268  1.00  0.00     0.029 A 
ATOM     54  N   UNL A   1      43.717  28.326  32.482  1.00  0.00    -0.354 N 
ATOM     55  N   UNL A   1      43.625  26.244  30.418  1.00  0.00    -0.248 NA
ATOM     56  C   UNL A   1      44.577  24.389  29.359  1.00  0.00     0.031 C 
ATOM     57  C   UNL A   1      45.423  28.328  33.904  1.00  0.00     0.029 A 
ATOM     58  C   UNL A   1      44.891  27.666  32.810  1.00  0.00     0.049 A 
ATOM     59  H   UNL A   1      43.124  28.083  31.735  1.00  0.00     0.167 HD
ATOM     60  C   UNL A   1      44.814  25.909  31.061  1.00  0.00     0.074 A 
ATOM     61  C   UNL A   1      45.340  24.742  30.383  1.00  0.00     0.031 C 
ATOM     62  C   UNL A   1      45.412  26.509  32.121  1.00  0.00     0.034 A 
BRANCH  49  63
ATOM     63  C   UNL A   1      42.349  31.462  34.255  1.00  0.00     0.023 A 
ATOM     64  C   UNL A   1      41.518  31.451  35.391  1.00  0.00     0.031 A 
ATOM     65  C   UNL A   1      43.129  32.609  34.024  1.00  0.00     0.131 A 
ATOM     66  C   UNL A   1      41.427  32.591  36.203  1.00  0.00     0.055 A 
ATOM     67  C   UNL A   1      43.096  33.709  34.884  1.00  0.00     0.041 A 
ATOM     68  F   UNL A   1      43.929  32.686  32.949  1.00  0.00    -0.206 F 
ATOM     69  C   UNL A   1      42.228  33.711  35.972  1.00  0.00     0.022 A 
BRANCH  66  70
ATOM     70  S   UNL A   1      40.140  32.642  37.481  1.00  0.00     0.124 S 
ATOM     71  O   UNL A   1      39.215  31.615  37.008  1.00  0.00    -0.237 OA
ATOM     72  O   UNL A   1      40.885  32.323  38.693  1.00  0.00    -0.237 OA
ATOM     73  O   UNL A   1      39.633  34.010  37.401  1.00  0.00    -0.744 OA
ENDBRANCH  66  70
ENDBRANCH  49  63
BRANCH  50  74
ATOM     74  C   UNL A   1      42.409  24.171  27.402  1.00  0.00     0.023 A 
ATOM     75  C   UNL A   1      41.650  22.996  27.514  1.00  0.00     0.031 A 
ATOM     76  C   UNL A   1      43.252  24.310  26.285  1.00  0.00     0.131 A 
ATOM     77  C   UNL A   1      41.779  21.986  26.547  1.00  0.00     0.055 A 
ATOM     78  C   UNL A   1      43.341  23.324  25.301  1.00  0.00     0.041 A 
ATOM     79  F   UNL A   1      43.996  25.417  26.130  1.00  0.00    -0.206 F 
ATOM     80  C   UNL A   1      42.610  22.148  25.436  1.00  0.00     0.022 A 
BRANCH  77  81
ATOM     81  S   UNL A   1      40.896  20.423  26.801  1.00  0.00     0.124 S 
ATOM     82  O   UNL A   1      39.646  20.668  26.091  1.00  0.00    -0.237 OA
ATOM     83  O   UNL A   1      41.804  19.459  26.190  1.00  0.00    -0.237 OA
ATOM     84  O   UNL A   1      40.780  20.331  28.256  1.00  0.00    -0.744 OA
ENDBRANCH  77  81
ENDBRANCH  50  74
BRANCH  62  85
ATOM     85  C   UNL A   1      46.682  25.879  32.638  1.00  0.00     0.023 A 
ATOM     86  C   UNL A   1      47.923  26.090  32.010  1.00  0.00     0.031 A 
ATOM     87  C   UNL A   1      46.645  25.050  33.773  1.00  0.00     0.131 A 
ATOM     88  C   UNL A   1      49.069  25.440  32.493  1.00  0.00     0.055 A 
ATOM     89  C   UNL A   1      47.798  24.448  34.279  1.00  0.00     0.041 A 
ATOM     90  F   UNL A   1      45.487  24.814  34.409  1.00  0.00    -0.206 F 
ATOM     91  C   UNL A   1      49.016  24.632  33.633  1.00  0.00     0.022 A 
BRANCH  88  92
ATOM     92  S   UNL A   1      50.620  25.602  31.569  1.00  0.00     0.124 S 
ATOM     93  O   UNL A   1      50.173  26.241  30.335  1.00  0.00    -0.237 OA
ATOM     94  O   UNL A   1      51.429  26.431  32.458  1.00  0.00    -0.237 OA
ATOM     95  O   UNL A   1      51.080  24.222  31.422  1.00  0.00    -0.744 OA
ENDBRANCH  88  92
ENDBRANCH  62  85
ENDBRANCH  36  37
ENDBRANCH  28  31
ENDBRANCH  26  27
ENDBRANCH  25  26
ENDBRANCH   1  25
TORSDOF 19
ENDMDL
