MODEL 1
REMARK VINA RESULT:     -13.5      0.000      0.000
REMARK SMILES COc1ccc(-c2cc(CC3(C(=O)NCCCNC(=O)c4ccc(-c5c6nc(c(-c7cc(S(=O)(=O)[O-])ccc7F)c7ccc([nH]7)c(-c7cc(S(=O)(=O)[O-])ccc7F)c7nc(c(-c8cc(S(=O)(=O)[O-])ccc8F)c8ccc5[nH]8)C=C7)C=C6)cc4)CCN(C(=O)C4CCCC4)CC3)on2)cc1
REMARK SMILES IDX 15 1 14 2 12 3 13 4 11 6 84 7 95 8 85 9 94 10 86 11 87 12
REMARK SMILES IDX 88 13 10 14 9 15 7 16 8 17 97 18 96 19 6 20 3 21 4 22 99 23
REMARK SMILES IDX 5 24 98 25 2 26 1 27 89 28 90 29 93 30 91 31 92 32 16 33
REMARK SMILES IDX 17 34 18 35 19 36 20 38 21 39 22 40 83 41 23 42 82 43 24 44
REMARK SMILES IDX 25 45 26 46 76 47 27 48 81 49 75 50 77 51 28 52 80 53 74 54
REMARK SMILES IDX 73 55 29 57 61 58 41 59 60 60 42 61 45 62 59 63 78 64 43 65
REMARK SMILES IDX 44 66 58 68 79 69 46 70 30 71 31 72 39 73 32 74 38 75 40 76
REMARK SMILES IDX 37 77 33 78 34 79 35 80 36 81 62 82 63 83 71 84 64 85 70 86
REMARK SMILES IDX 72 87 69 88 65 89 66 90 67 91 68 92 47 93 48 94 56 95 49 96
REMARK SMILES IDX 55 97 57 98 54 99 50 100 51 101 52 102 53 103
REMARK H PARENT 14 5 18 37 77 56 45 67
REMARK Flexibility Score: inf
ROOT
ATOM      1  C   UNL A   1      36.646  20.697  24.879  1.00  0.00     0.117 C 
ENDROOT
BRANCH   1   2
ATOM      2  N   UNL A   1      36.894  22.095  25.169  1.00  0.00    -0.356 N 
ATOM      3  C   UNL A   1      36.065  23.095  25.551  1.00  0.00     0.226 C 
ATOM      4  O   UNL A   1      36.625  24.170  25.794  1.00  0.00    -0.274 OA
ATOM      5  H   UNL A   1      37.835  22.366  25.068  1.00  0.00     0.163 HD
BRANCH   3   6
ATOM      6  C   UNL A   1      34.526  22.922  25.682  1.00  0.00     0.060 C 
ATOM      7  C   UNL A   1      33.957  22.625  24.270  1.00  0.00     0.039 C 
ATOM      8  C   UNL A   1      34.230  21.838  26.763  1.00  0.00     0.039 C 
ATOM      9  C   UNL A   1      32.736  21.719  24.254  1.00  0.00     0.120 C 
ATOM     10  C   UNL A   1      33.175  20.769  26.445  1.00  0.00     0.120 C 
ATOM     11  N   UNL A   1      32.990  20.513  25.028  1.00  0.00    -0.342 N 
ATOM     12  C   UNL A   1      32.806  19.291  24.400  1.00  0.00     0.225 C 
ATOM     13  O   UNL A   1      32.353  19.239  23.248  1.00  0.00    -0.275 OA
BRANCH   6  14
ATOM     14  C   UNL A   1      34.057  24.331  26.159  1.00  0.00     0.095 C 
BRANCH  14  15
ATOM     15  C   UNL A   1      33.329  25.194  25.204  1.00  0.00     0.138 A 
ATOM     16  C   UNL A   1      32.021  26.623  24.159  1.00  0.00     0.114 A 
ATOM     17  C   UNL A   1      32.035  25.647  25.181  1.00  0.00     0.077 A 
ATOM     18  N   UNL A   1      33.210  26.692  23.546  1.00  0.00    -0.080 NA
ATOM     19  O   UNL A   1      34.041  25.830  24.242  1.00  0.00    -0.361 OA
BRANCH  16  20
ATOM     20  C   UNL A   1      30.923  27.508  23.824  1.00  0.00     0.004 A 
ATOM     21  C   UNL A   1      28.789  29.178  23.141  1.00  0.00     0.118 A 
ATOM     22  C   UNL A   1      30.036  29.724  23.450  1.00  0.00     0.047 A 
ATOM     23  C   UNL A   1      28.612  27.795  23.144  1.00  0.00     0.047 A 
ATOM     24  C   UNL A   1      31.100  28.893  23.810  1.00  0.00     0.014 A 
ATOM     25  C   UNL A   1      29.677  26.961  23.486  1.00  0.00     0.014 A 
BRANCH  21  26
ATOM     26  O   UNL A   1      27.809  30.069  22.799  1.00  0.00    -0.497 OA
ATOM     27  C   UNL A   1      28.288  31.177  22.041  1.00  0.00     0.278 C 
ENDBRANCH  21  26
ENDBRANCH  16  20
ENDBRANCH  14  15
ENDBRANCH   6  14
BRANCH  12  28
ATOM     28  C   UNL A   1      33.193  17.963  25.045  1.00  0.00     0.078 C 
ATOM     29  C   UNL A   1      32.155  16.854  24.945  1.00  0.00     0.013 C 
ATOM     30  C   UNL A   1      34.519  17.322  24.641  1.00  0.00     0.013 C 
ATOM     31  C   UNL A   1      32.926  15.634  25.413  1.00  0.00     0.001 C 
ATOM     32  C   UNL A   1      34.300  15.811  24.777  1.00  0.00     0.001 C 
ENDBRANCH  12  28
ENDBRANCH   3   6
ENDBRANCH   1   2
BRANCH   1  33
ATOM     33  C   UNL A   1      37.911  19.863  24.956  1.00  0.00     0.042 C 
BRANCH  33  34
ATOM     34  C   UNL A   1      39.131  20.659  25.398  1.00  0.00     0.118 C 
BRANCH  34  35
ATOM     35  N   UNL A   1      40.088  19.863  26.160  1.00  0.00    -0.352 N 
ATOM     36  C   UNL A   1      41.056  20.291  27.042  1.00  0.00     0.251 C 
ATOM     37  H   UNL A   1      40.036  18.890  26.024  1.00  0.00     0.163 HD
ATOM     38  O   UNL A   1      41.883  19.501  27.486  1.00  0.00    -0.269 OA
BRANCH  36  39
ATOM     39  C   UNL A   1      41.101  21.721  27.404  1.00  0.00     0.039 A 
ATOM     40  C   UNL A   1      41.911  22.133  28.464  1.00  0.00     0.014 A 
ATOM     41  C   UNL A   1      40.428  22.659  26.618  1.00  0.00     0.014 A 
ATOM     42  C   UNL A   1      42.135  23.497  28.664  1.00  0.00     0.010 A 
ATOM     43  C   UNL A   1      40.729  24.007  26.758  1.00  0.00     0.010 A 
ATOM     44  C   UNL A   1      41.599  24.441  27.772  1.00  0.00    -0.014 A 
BRANCH  44  45
ATOM     45  C   UNL A   1      41.943  25.885  27.853  1.00  0.00     0.031 A 
ATOM     46  C   UNL A   1      43.245  26.373  27.279  1.00  0.00     0.074 A 
ATOM     47  C   UNL A   1      41.144  26.729  28.535  1.00  0.00     0.049 A 
ATOM     48  N   UNL A   1      43.812  27.546  27.389  1.00  0.00    -0.248 NA
ATOM     49  C   UNL A   1      44.031  25.392  26.516  1.00  0.00     0.031 C 
ATOM     50  C   UNL A   1      39.876  26.368  29.177  1.00  0.00     0.029 A 
ATOM     51  N   UNL A   1      41.286  28.064  28.822  1.00  0.00    -0.354 N 
ATOM     52  C   UNL A   1      45.033  27.436  26.733  1.00  0.00     0.074 A 
ATOM     53  C   UNL A   1      45.147  26.064  26.286  1.00  0.00     0.031 C 
ATOM     54  C   UNL A   1      39.349  27.456  29.759  1.00  0.00     0.029 A 
ATOM     55  C   UNL A   1      40.262  28.581  29.583  1.00  0.00     0.049 A 
ATOM     56  H   UNL A   1      42.049  28.603  28.510  1.00  0.00     0.167 HD
ATOM     57  C   UNL A   1      45.961  28.398  26.501  1.00  0.00     0.034 A 
ATOM     58  C   UNL A   1      40.089  29.814  30.101  1.00  0.00     0.034 A 
ATOM     59  C   UNL A   1      45.817  29.767  26.930  1.00  0.00     0.049 A 
ATOM     60  C   UNL A   1      41.147  30.859  29.859  1.00  0.00     0.074 A 
ATOM     61  C   UNL A   1      46.655  30.840  26.687  1.00  0.00     0.029 A 
ATOM     62  N   UNL A   1      44.768  30.251  27.701  1.00  0.00    -0.354 N 
ATOM     63  N   UNL A   1      42.276  30.752  29.197  1.00  0.00    -0.248 NA
ATOM     64  C   UNL A   1      40.910  32.189  30.436  1.00  0.00     0.031 C 
ATOM     65  C   UNL A   1      46.144  31.958  27.357  1.00  0.00     0.029 A 
ATOM     66  C   UNL A   1      44.954  31.598  27.969  1.00  0.00     0.049 A 
ATOM     67  H   UNL A   1      44.002  29.715  28.011  1.00  0.00     0.167 HD
ATOM     68  C   UNL A   1      42.872  32.008  29.260  1.00  0.00     0.074 A 
ATOM     69  C   UNL A   1      41.974  32.857  30.014  1.00  0.00     0.031 C 
ATOM     70  C   UNL A   1      44.053  32.424  28.738  1.00  0.00     0.034 A 
BRANCH  57  71
ATOM     71  C   UNL A   1      47.215  27.986  25.768  1.00  0.00     0.023 A 
ATOM     72  C   UNL A   1      47.355  28.182  24.383  1.00  0.00     0.031 A 
ATOM     73  C   UNL A   1      48.262  27.344  26.451  1.00  0.00     0.131 A 
ATOM     74  C   UNL A   1      48.471  27.663  23.711  1.00  0.00     0.055 A 
ATOM     75  C   UNL A   1      49.411  26.906  25.789  1.00  0.00     0.041 A 
ATOM     76  F   UNL A   1      48.178  27.111  27.770  1.00  0.00    -0.206 F 
ATOM     77  C   UNL A   1      49.513  27.048  24.407  1.00  0.00     0.022 A 
BRANCH  74  78
ATOM     78  S   UNL A   1      48.462  27.662  21.897  1.00  0.00     0.124 S 
ATOM     79  O   UNL A   1      49.592  28.538  21.597  1.00  0.00    -0.237 OA
ATOM     80  O   UNL A   1      48.646  26.250  21.582  1.00  0.00    -0.237 OA
ATOM     81  O   UNL A   1      47.150  28.212  21.561  1.00  0.00    -0.744 OA
ENDBRANCH  74  78
ENDBRANCH  57  71
BRANCH  58  82
ATOM     82  C   UNL A   1      38.883  30.129  30.917  1.00  0.00     0.023 A 
ATOM     83  C   UNL A   1      37.839  30.903  30.388  1.00  0.00     0.031 A 
ATOM     84  C   UNL A   1      38.771  29.691  32.249  1.00  0.00     0.131 A 
ATOM     85  C   UNL A   1      36.745  31.249  31.197  1.00  0.00     0.055 A 
ATOM     86  C   UNL A   1      37.660  29.999  33.036  1.00  0.00     0.041 A 
ATOM     87  F   UNL A   1      39.741  28.944  32.801  1.00  0.00    -0.206 F 
ATOM     88  C   UNL A   1      36.642  30.793  32.513  1.00  0.00     0.022 A 
BRANCH  85  89
ATOM     89  S   UNL A   1      35.487  32.367  30.522  1.00  0.00     0.124 S 
ATOM     90  O   UNL A   1      34.400  32.205  31.479  1.00  0.00    -0.237 OA
ATOM     91  O   UNL A   1      36.179  33.652  30.548  1.00  0.00    -0.237 OA
ATOM     92  O   UNL A   1      35.231  31.828  29.189  1.00  0.00    -0.744 OA
ENDBRANCH  85  89
ENDBRANCH  58  82
BRANCH  70  93
ATOM     93  C   UNL A   1      44.418  33.871  28.940  1.00  0.00     0.023 A 
ATOM     94  C   UNL A   1      43.746  34.901  28.260  1.00  0.00     0.031 A 
ATOM     95  C   UNL A   1      45.450  34.222  29.828  1.00  0.00     0.131 A 
ATOM     96  C   UNL A   1      44.140  36.233  28.451  1.00  0.00     0.055 A 
ATOM     97  C   UNL A   1      45.804  35.552  30.051  1.00  0.00     0.041 A 
ATOM     98  F   UNL A   1      46.123  33.274  30.501  1.00  0.00    -0.206 F 
ATOM     99  C   UNL A   1      45.154  36.567  29.354  1.00  0.00     0.022 A 
BRANCH  96 100
ATOM    100  S   UNL A   1      43.346  37.529  27.460  1.00  0.00     0.124 S 
ATOM    101  O   UNL A   1      44.490  38.336  27.047  1.00  0.00    -0.237 OA
ATOM    102  O   UNL A   1      42.693  36.762  26.405  1.00  0.00    -0.237 OA
ATOM    103  O   UNL A   1      42.439  38.177  28.406  1.00  0.00    -0.744 OA
ENDBRANCH  96 100
ENDBRANCH  70  93
ENDBRANCH  44  45
ENDBRANCH  36  39
ENDBRANCH  34  35
ENDBRANCH  33  34
ENDBRANCH   1  33
TORSDOF 18
ENDMDL
MODEL 2
REMARK VINA RESULT:     -13.1      2.075      7.542
REMARK SMILES COc1ccc(-c2cc(CC3(C(=O)NCCCNC(=O)c4ccc(-c5c6nc(c(-c7cc(S(=O)(=O)[O-])ccc7F)c7ccc([nH]7)c(-c7cc(S(=O)(=O)[O-])ccc7F)c7nc(c(-c8cc(S(=O)(=O)[O-])ccc8F)c8ccc5[nH]8)C=C7)C=C6)cc4)CCN(C(=O)C4CCCC4)CC3)on2)cc1
REMARK SMILES IDX 15 1 14 2 12 3 13 4 11 6 84 7 95 8 85 9 94 10 86 11 87 12
REMARK SMILES IDX 88 13 10 14 9 15 7 16 8 17 97 18 96 19 6 20 3 21 4 22 99 23
REMARK SMILES IDX 5 24 98 25 2 26 1 27 89 28 90 29 93 30 91 31 92 32 16 33
REMARK SMILES IDX 17 34 18 35 19 36 20 38 21 39 22 40 83 41 23 42 82 43 24 44
REMARK SMILES IDX 25 45 26 46 76 47 27 48 81 49 75 50 77 51 28 52 80 53 74 54
REMARK SMILES IDX 73 55 29 57 61 58 41 59 60 60 42 61 45 62 59 63 78 64 43 65
REMARK SMILES IDX 44 66 58 68 79 69 46 70 30 71 31 72 39 73 32 74 38 75 40 76
REMARK SMILES IDX 37 77 33 78 34 79 35 80 36 81 62 82 63 83 71 84 64 85 70 86
REMARK SMILES IDX 72 87 69 88 65 89 66 90 67 91 68 92 47 93 48 94 56 95 49 96
REMARK SMILES IDX 55 97 57 98 54 99 50 100 51 101 52 102 53 103
REMARK H PARENT 14 5 18 37 77 56 45 67
REMARK Flexibility Score: inf
ROOT
ATOM      1  C   UNL A   1      38.170  22.215  25.915  1.00  0.00     0.117 C 
ENDROOT
BRANCH   1   2
ATOM      2  N   UNL A   1      37.854  22.495  24.528  1.00  0.00    -0.356 N 
ATOM      3  C   UNL A   1      36.679  22.750  23.907  1.00  0.00     0.226 C 
ATOM      4  O   UNL A   1      36.775  23.027  22.707  1.00  0.00    -0.274 OA
ATOM      5  H   UNL A   1      38.637  22.498  23.931  1.00  0.00     0.163 HD
BRANCH   3   6
ATOM      6  C   UNL A   1      35.305  22.705  24.633  1.00  0.00     0.060 C 
ATOM      7  C   UNL A   1      34.192  22.715  23.552  1.00  0.00     0.039 C 
ATOM      8  C   UNL A   1      35.285  21.482  25.600  1.00  0.00     0.039 C 
ATOM      9  C   UNL A   1      32.935  21.947  23.926  1.00  0.00     0.120 C 
ATOM     10  C   UNL A   1      34.035  20.590  25.614  1.00  0.00     0.120 C 
ATOM     11  N   UNL A   1      33.276  20.606  24.376  1.00  0.00    -0.342 N 
ATOM     12  C   UNL A   1      32.672  19.536  23.734  1.00  0.00     0.225 C 
ATOM     13  O   UNL A   1      31.805  19.730  22.871  1.00  0.00    -0.275 OA
BRANCH   6  14
ATOM     14  C   UNL A   1      35.288  24.046  25.427  1.00  0.00     0.095 C 
BRANCH  14  15
ATOM     15  C   UNL A   1      34.022  24.808  25.501  1.00  0.00     0.138 A 
ATOM     16  C   UNL A   1      32.156  25.922  25.152  1.00  0.00     0.114 A 
ATOM     17  C   UNL A   1      33.481  25.768  24.686  1.00  0.00     0.077 A 
ATOM     18  N   UNL A   1      31.939  25.165  26.236  1.00  0.00    -0.080 NA
ATOM     19  O   UNL A   1      33.098  24.429  26.418  1.00  0.00    -0.361 OA
BRANCH  16  20
ATOM     20  C   UNL A   1      31.111  26.718  24.539  1.00  0.00     0.004 A 
ATOM     21  C   UNL A   1      29.082  28.209  23.329  1.00  0.00     0.118 A 
ATOM     22  C   UNL A   1      30.319  28.798  23.600  1.00  0.00     0.047 A 
ATOM     23  C   UNL A   1      28.865  26.867  23.635  1.00  0.00     0.047 A 
ATOM     24  C   UNL A   1      31.329  28.060  24.222  1.00  0.00     0.014 A 
ATOM     25  C   UNL A   1      29.879  26.121  24.240  1.00  0.00     0.014 A 
BRANCH  21  26
ATOM     26  O   UNL A   1      28.155  29.008  22.717  1.00  0.00    -0.497 OA
ATOM     27  C   UNL A   1      28.730  29.991  21.860  1.00  0.00     0.278 C 
ENDBRANCH  21  26
ENDBRANCH  16  20
ENDBRANCH  14  15
ENDBRANCH   6  14
BRANCH  12  28
ATOM     28  C   UNL A   1      33.064  18.085  23.998  1.00  0.00     0.078 C 
ATOM     29  C   UNL A   1      34.560  17.805  24.046  1.00  0.00     0.013 C 
ATOM     30  C   UNL A   1      32.477  17.390  25.224  1.00  0.00     0.013 C 
ATOM     31  C   UNL A   1      34.616  16.389  24.587  1.00  0.00     0.001 C 
ATOM     32  C   UNL A   1      33.535  16.370  25.662  1.00  0.00     0.001 C 
ENDBRANCH  12  28
ENDBRANCH   3   6
ENDBRANCH   1   2
BRANCH   1  33
ATOM     33  C   UNL A   1      39.656  22.326  26.198  1.00  0.00     0.042 C 
BRANCH  33  34
ATOM     34  C   UNL A   1      40.182  21.215  27.097  1.00  0.00     0.118 C 
BRANCH  34  35
ATOM     35  N   UNL A   1      40.970  20.221  26.376  1.00  0.00    -0.352 N 
ATOM     36  C   UNL A   1      42.242  20.339  25.860  1.00  0.00     0.251 C 
ATOM     37  H   UNL A   1      40.535  19.349  26.240  1.00  0.00     0.163 HD
ATOM     38  O   UNL A   1      42.706  19.456  25.146  1.00  0.00    -0.269 OA
BRANCH  36  39
ATOM     39  C   UNL A   1      43.012  21.566  26.147  1.00  0.00     0.039 A 
ATOM     40  C   UNL A   1      43.156  22.532  25.149  1.00  0.00     0.014 A 
ATOM     41  C   UNL A   1      43.489  21.801  27.438  1.00  0.00     0.014 A 
ATOM     42  C   UNL A   1      43.680  23.783  25.479  1.00  0.00     0.010 A 
ATOM     43  C   UNL A   1      43.919  23.075  27.784  1.00  0.00     0.010 A 
ATOM     44  C   UNL A   1      44.004  24.086  26.812  1.00  0.00    -0.014 A 
BRANCH  44  45
ATOM     45  C   UNL A   1      44.411  25.453  27.233  1.00  0.00     0.031 A 
ATOM     46  C   UNL A   1      43.385  26.393  27.802  1.00  0.00     0.074 A 
ATOM     47  C   UNL A   1      45.668  25.881  27.000  1.00  0.00     0.049 A 
ATOM     48  N   UNL A   1      43.488  27.668  28.072  1.00  0.00    -0.248 NA
ATOM     49  C   UNL A   1      42.053  25.827  28.061  1.00  0.00     0.031 C 
ATOM     50  C   UNL A   1      46.744  25.078  26.411  1.00  0.00     0.029 A 
ATOM     51  N   UNL A   1      46.253  27.105  27.212  1.00  0.00    -0.354 N 
ATOM     52  C   UNL A   1      42.227  28.064  28.506  1.00  0.00     0.074 A 
ATOM     53  C   UNL A   1      41.365  26.906  28.400  1.00  0.00     0.031 C 
ATOM     54  C   UNL A   1      47.859  25.822  26.332  1.00  0.00     0.029 A 
ATOM     55  C   UNL A   1      47.568  27.170  26.810  1.00  0.00     0.049 A 
ATOM     56  H   UNL A   1      45.776  27.865  27.616  1.00  0.00     0.167 HD
ATOM     57  C   UNL A   1      41.832  29.274  28.974  1.00  0.00     0.034 A 
ATOM     58  C   UNL A   1      48.434  28.202  26.805  1.00  0.00     0.034 A 
ATOM     59  C   UNL A   1      42.712  30.409  29.098  1.00  0.00     0.049 A 
ATOM     60  C   UNL A   1      47.966  29.547  27.300  1.00  0.00     0.074 A 
ATOM     61  C   UNL A   1      42.441  31.658  29.628  1.00  0.00     0.029 A 
ATOM     62  N   UNL A   1      44.036  30.436  28.678  1.00  0.00    -0.354 N 
ATOM     63  N   UNL A   1      46.782  29.893  27.750  1.00  0.00    -0.248 NA
ATOM     64  C   UNL A   1      48.948  30.639  27.283  1.00  0.00     0.031 C 
ATOM     65  C   UNL A   1      43.580  32.457  29.476  1.00  0.00     0.029 A 
ATOM     66  C   UNL A   1      44.584  31.688  28.907  1.00  0.00     0.049 A 
ATOM     67  H   UNL A   1      44.516  29.676  28.276  1.00  0.00     0.167 HD
ATOM     68  C   UNL A   1      46.886  31.238  28.090  1.00  0.00     0.074 A 
ATOM     69  C   UNL A   1      48.248  31.636  27.804  1.00  0.00     0.031 C 
ATOM     70  C   UNL A   1      45.941  32.070  28.598  1.00  0.00     0.034 A 
BRANCH  57  71
ATOM     71  C   UNL A   1      40.381  29.424  29.364  1.00  0.00     0.023 A 
ATOM     72  C   UNL A   1      39.982  29.464  30.711  1.00  0.00     0.031 A 
ATOM     73  C   UNL A   1      39.380  29.477  28.379  1.00  0.00     0.131 A 
ATOM     74  C   UNL A   1      38.618  29.463  31.039  1.00  0.00     0.055 A 
ATOM     75  C   UNL A   1      38.026  29.563  28.712  1.00  0.00     0.041 A 
ATOM     76  F   UNL A   1      39.697  29.422  27.076  1.00  0.00    -0.206 F 
ATOM     77  C   UNL A   1      37.637  29.538  30.049  1.00  0.00     0.022 A 
BRANCH  74  78
ATOM     78  S   UNL A   1      38.148  29.199  32.770  1.00  0.00     0.124 S 
ATOM     79  O   UNL A   1      39.418  29.421  33.458  1.00  0.00    -0.237 OA
ATOM     80  O   UNL A   1      37.124  30.216  32.977  1.00  0.00    -0.237 OA
ATOM     81  O   UNL A   1      37.671  27.818  32.790  1.00  0.00    -0.744 OA
ENDBRANCH  74  78
ENDBRANCH  57  71
BRANCH  58  82
ATOM     82  C   UNL A   1      49.823  28.022  26.298  1.00  0.00     0.023 A 
ATOM     83  C   UNL A   1      50.136  28.274  24.953  1.00  0.00     0.031 A 
ATOM     84  C   UNL A   1      50.851  27.562  27.140  1.00  0.00     0.131 A 
ATOM     85  C   UNL A   1      51.434  28.029  24.479  1.00  0.00     0.055 A 
ATOM     86  C   UNL A   1      52.153  27.363  26.674  1.00  0.00     0.041 A 
ATOM     87  F   UNL A   1      50.605  27.310  28.436  1.00  0.00    -0.206 F 
ATOM     88  C   UNL A   1      52.448  27.587  25.333  1.00  0.00     0.022 A 
BRANCH  85  89
ATOM     89  S   UNL A   1      51.763  28.231  22.707  1.00  0.00     0.124 S 
ATOM     90  O   UNL A   1      50.571  28.943  22.261  1.00  0.00    -0.237 OA
ATOM     91  O   UNL A   1      53.004  28.998  22.714  1.00  0.00    -0.237 OA
ATOM     92  O   UNL A   1      51.886  26.857  22.224  1.00  0.00    -0.744 OA
ENDBRANCH  85  89
ENDBRANCH  58  82
BRANCH  70  93
ATOM     93  C   UNL A   1      46.368  33.482  28.905  1.00  0.00     0.023 A 
ATOM     94  C   UNL A   1      46.258  34.507  27.950  1.00  0.00     0.031 A 
ATOM     95  C   UNL A   1      46.888  33.803  30.171  1.00  0.00     0.131 A 
ATOM     96  C   UNL A   1      46.698  35.801  28.265  1.00  0.00     0.055 A 
ATOM     97  C   UNL A   1      47.278  35.102  30.494  1.00  0.00     0.041 A 
ATOM     98  F   UNL A   1      47.014  32.858  31.117  1.00  0.00    -0.206 F 
ATOM     99  C   UNL A   1      47.193  36.109  29.536  1.00  0.00     0.022 A 
BRANCH  96 100
ATOM    100  S   UNL A   1      46.669  37.071  26.971  1.00  0.00     0.124 S 
ATOM    101  O   UNL A   1      45.259  37.445  26.946  1.00  0.00    -0.237 OA
ATOM    102  O   UNL A   1      47.586  38.077  27.496  1.00  0.00    -0.237 OA
ATOM    103  O   UNL A   1      47.144  36.362  25.783  1.00  0.00    -0.744 OA
ENDBRANCH  96 100
ENDBRANCH  70  93
ENDBRANCH  44  45
ENDBRANCH  36  39
ENDBRANCH  34  35
ENDBRANCH  33  34
ENDBRANCH   1  33
TORSDOF 18
ENDMDL
MODEL 3
REMARK VINA RESULT:     -13.1      1.977      2.366
REMARK SMILES COc1ccc(-c2cc(CC3(C(=O)NCCCNC(=O)c4ccc(-c5c6nc(c(-c7cc(S(=O)(=O)[O-])ccc7F)c7ccc([nH]7)c(-c7cc(S(=O)(=O)[O-])ccc7F)c7nc(c(-c8cc(S(=O)(=O)[O-])ccc8F)c8ccc5[nH]8)C=C7)C=C6)cc4)CCN(C(=O)C4CCCC4)CC3)on2)cc1
REMARK SMILES IDX 15 1 14 2 12 3 13 4 11 6 84 7 95 8 85 9 94 10 86 11 87 12
REMARK SMILES IDX 88 13 10 14 9 15 7 16 8 17 97 18 96 19 6 20 3 21 4 22 99 23
REMARK SMILES IDX 5 24 98 25 2 26 1 27 89 28 90 29 93 30 91 31 92 32 16 33
REMARK SMILES IDX 17 34 18 35 19 36 20 38 21 39 22 40 83 41 23 42 82 43 24 44
REMARK SMILES IDX 25 45 26 46 76 47 27 48 81 49 75 50 77 51 28 52 80 53 74 54
REMARK SMILES IDX 73 55 29 57 61 58 41 59 60 60 42 61 45 62 59 63 78 64 43 65
REMARK SMILES IDX 44 66 58 68 79 69 46 70 30 71 31 72 39 73 32 74 38 75 40 76
REMARK SMILES IDX 37 77 33 78 34 79 35 80 36 81 62 82 63 83 71 84 64 85 70 86
REMARK SMILES IDX 72 87 69 88 65 89 66 90 67 91 68 92 47 93 48 94 56 95 49 96
REMARK SMILES IDX 55 97 57 98 54 99 50 100 51 101 52 102 53 103
REMARK H PARENT 14 5 18 37 77 56 45 67
REMARK Flexibility Score: inf
ROOT
ATOM      1  C   UNL A   1      36.817  20.886  25.233  1.00  0.00     0.117 C 
ENDROOT
BRANCH   1   2
ATOM      2  N   UNL A   1      37.034  22.314  25.356  1.00  0.00    -0.356 N 
ATOM      3  C   UNL A   1      36.177  23.338  25.583  1.00  0.00     0.226 C 
ATOM      4  O   UNL A   1      36.712  24.444  25.710  1.00  0.00    -0.274 OA
ATOM      5  H   UNL A   1      37.974  22.588  25.255  1.00  0.00     0.163 HD
BRANCH   3   6
ATOM      6  C   UNL A   1      34.637  23.153  25.682  1.00  0.00     0.060 C 
ATOM      7  C   UNL A   1      34.101  22.839  24.260  1.00  0.00     0.039 C 
ATOM      8  C   UNL A   1      34.326  22.076  26.766  1.00  0.00     0.039 C 
ATOM      9  C   UNL A   1      32.888  21.923  24.226  1.00  0.00     0.120 C 
ATOM     10  C   UNL A   1      33.287  20.995  26.435  1.00  0.00     0.120 C 
ATOM     11  N   UNL A   1      33.136  20.726  25.016  1.00  0.00    -0.342 N 
ATOM     12  C   UNL A   1      32.975  19.497  24.394  1.00  0.00     0.225 C 
ATOM     13  O   UNL A   1      32.548  19.432  23.234  1.00  0.00    -0.275 OA
BRANCH   6  14
ATOM     14  C   UNL A   1      34.146  24.562  26.136  1.00  0.00     0.095 C 
BRANCH  14  15
ATOM     15  C   UNL A   1      33.395  25.393  25.172  1.00  0.00     0.138 A 
ATOM     16  C   UNL A   1      32.089  26.816  24.115  1.00  0.00     0.114 A 
ATOM     17  C   UNL A   1      32.129  25.920  25.207  1.00  0.00     0.077 A 
ATOM     18  N   UNL A   1      33.230  26.768  23.414  1.00  0.00    -0.080 NA
ATOM     19  O   UNL A   1      34.064  25.912  24.113  1.00  0.00    -0.361 OA
BRANCH  16  20
ATOM     20  C   UNL A   1      31.018  27.738  23.792  1.00  0.00     0.004 A 
ATOM     21  C   UNL A   1      28.946  29.488  23.122  1.00  0.00     0.118 A 
ATOM     22  C   UNL A   1      30.073  29.960  23.798  1.00  0.00     0.047 A 
ATOM     23  C   UNL A   1      28.865  28.147  22.752  1.00  0.00     0.047 A 
ATOM     24  C   UNL A   1      31.102  29.085  24.151  1.00  0.00     0.014 A 
ATOM     25  C   UNL A   1      29.899  27.272  23.087  1.00  0.00     0.014 A 
BRANCH  21  26
ATOM     26  O   UNL A   1      27.991  30.420  22.816  1.00  0.00    -0.497 OA
ATOM     27  C   UNL A   1      27.846  31.431  23.811  1.00  0.00     0.278 C 
ENDBRANCH  21  26
ENDBRANCH  16  20
ENDBRANCH  14  15
ENDBRANCH   6  14
BRANCH  12  28
ATOM     28  C   UNL A   1      33.359  18.178  25.060  1.00  0.00     0.078 C 
ATOM     29  C   UNL A   1      32.258  17.127  25.124  1.00  0.00     0.013 C 
ATOM     30  C   UNL A   1      34.597  17.445  24.550  1.00  0.00     0.013 C 
ATOM     31  C   UNL A   1      33.009  15.886  25.567  1.00  0.00     0.001 C 
ATOM     32  C   UNL A   1      34.315  15.955  24.782  1.00  0.00     0.001 C 
ENDBRANCH  12  28
ENDBRANCH   3   6
ENDBRANCH   1   2
BRANCH   1  33
ATOM     33  C   UNL A   1      38.091  20.142  24.882  1.00  0.00     0.042 C 
BRANCH  33  34
ATOM     34  C   UNL A   1      39.231  20.407  25.856  1.00  0.00     0.118 C 
BRANCH  34  35
ATOM     35  N   UNL A   1      40.166  19.291  25.960  1.00  0.00    -0.352 N 
ATOM     36  C   UNL A   1      41.531  19.325  26.141  1.00  0.00     0.251 C 
ATOM     37  H   UNL A   1      39.767  18.394  25.892  1.00  0.00     0.163 HD
ATOM     38  O   UNL A   1      42.193  18.296  26.056  1.00  0.00    -0.269 OA
BRANCH  36  39
ATOM     39  C   UNL A   1      42.180  20.627  26.394  1.00  0.00     0.039 A 
ATOM     40  C   UNL A   1      42.649  21.377  25.314  1.00  0.00     0.014 A 
ATOM     41  C   UNL A   1      42.218  21.145  27.690  1.00  0.00     0.014 A 
ATOM     42  C   UNL A   1      43.053  22.698  25.523  1.00  0.00     0.010 A 
ATOM     43  C   UNL A   1      42.527  22.486  27.878  1.00  0.00     0.010 A 
ATOM     44  C   UNL A   1      42.932  23.282  26.795  1.00  0.00    -0.014 A 
BRANCH  44  45
ATOM     45  C   UNL A   1      43.197  24.727  27.026  1.00  0.00     0.031 A 
ATOM     46  C   UNL A   1      44.563  25.287  26.741  1.00  0.00     0.074 A 
ATOM     47  C   UNL A   1      42.250  25.502  27.591  1.00  0.00     0.049 A 
ATOM     48  N   UNL A   1      45.053  26.465  27.026  1.00  0.00    -0.248 NA
ATOM     49  C   UNL A   1      45.517  24.380  26.084  1.00  0.00     0.031 C 
ATOM     50  C   UNL A   1      40.900  25.065  27.956  1.00  0.00     0.029 A 
ATOM     51  N   UNL A   1      42.283  26.819  27.978  1.00  0.00    -0.354 N 
ATOM     52  C   UNL A   1      46.379  26.433  26.609  1.00  0.00     0.074 A 
ATOM     53  C   UNL A   1      46.629  25.097  26.112  1.00  0.00     0.031 C 
ATOM     54  C   UNL A   1      40.230  26.098  28.490  1.00  0.00     0.029 A 
ATOM     55  C   UNL A   1      41.115  27.256  28.559  1.00  0.00     0.049 A 
ATOM     56  H   UNL A   1      43.069  27.398  27.850  1.00  0.00     0.167 HD
ATOM     57  C   UNL A   1      47.295  27.433  26.616  1.00  0.00     0.034 A 
ATOM     58  C   UNL A   1      40.798  28.447  29.107  1.00  0.00     0.034 A 
ATOM     59  C   UNL A   1      47.019  28.766  27.090  1.00  0.00     0.049 A 
ATOM     60  C   UNL A   1      41.841  29.535  29.133  1.00  0.00     0.074 A 
ATOM     61  C   UNL A   1      47.845  29.876  27.075  1.00  0.00     0.029 A 
ATOM     62  N   UNL A   1      45.825  29.169  27.673  1.00  0.00    -0.354 N 
ATOM     63  N   UNL A   1      43.078  29.502  28.693  1.00  0.00    -0.248 NA
ATOM     64  C   UNL A   1      41.447  30.817  29.732  1.00  0.00     0.031 C 
ATOM     65  C   UNL A   1      47.173  30.932  27.700  1.00  0.00     0.029 A 
ATOM     66  C   UNL A   1      45.904  30.501  28.051  1.00  0.00     0.049 A 
ATOM     67  H   UNL A   1      45.036  28.594  27.800  1.00  0.00     0.167 HD
ATOM     68  C   UNL A   1      43.601  30.768  28.944  1.00  0.00     0.074 A 
ATOM     69  C   UNL A   1      42.544  31.541  29.561  1.00  0.00     0.031 C 
ATOM     70  C   UNL A   1      44.843  31.249  28.682  1.00  0.00     0.034 A 
BRANCH  57  71
ATOM     71  C   UNL A   1      48.680  27.104  26.113  1.00  0.00     0.023 A 
ATOM     72  C   UNL A   1      49.720  26.758  26.995  1.00  0.00     0.031 A 
ATOM     73  C   UNL A   1      48.979  27.184  24.743  1.00  0.00     0.131 A 
ATOM     74  C   UNL A   1      51.025  26.595  26.508  1.00  0.00     0.055 A 
ATOM     75  C   UNL A   1      50.264  26.935  24.255  1.00  0.00     0.041 A 
ATOM     76  F   UNL A   1      48.033  27.529  23.855  1.00  0.00    -0.206 F 
ATOM     77  C   UNL A   1      51.301  26.656  25.142  1.00  0.00     0.022 A 
BRANCH  74  78
ATOM     78  S   UNL A   1      52.381  26.462  27.706  1.00  0.00     0.124 S 
ATOM     79  O   UNL A   1      52.888  27.832  27.731  1.00  0.00    -0.237 OA
ATOM     80  O   UNL A   1      51.693  26.013  28.911  1.00  0.00    -0.237 OA
ATOM     81  O   UNL A   1      53.280  25.484  27.099  1.00  0.00    -0.744 OA
ENDBRANCH  74  78
ENDBRANCH  57  71
BRANCH  58  82
ATOM     82  C   UNL A   1      39.448  28.675  29.695  1.00  0.00     0.023 A 
ATOM     83  C   UNL A   1      38.413  29.228  28.926  1.00  0.00     0.031 A 
ATOM     84  C   UNL A   1      39.183  28.376  31.043  1.00  0.00     0.131 A 
ATOM     85  C   UNL A   1      37.171  29.501  29.518  1.00  0.00     0.055 A 
ATOM     86  C   UNL A   1      37.931  28.607  31.617  1.00  0.00     0.041 A 
ATOM     87  F   UNL A   1      40.138  27.841  31.821  1.00  0.00    -0.206 F 
ATOM     88  C   UNL A   1      36.918  29.184  30.855  1.00  0.00     0.022 A 
BRANCH  85  89
ATOM     89  S   UNL A   1      35.906  30.347  28.531  1.00  0.00     0.124 S 
ATOM     90  O   UNL A   1      35.465  31.394  29.445  1.00  0.00    -0.237 OA
ATOM     91  O   UNL A   1      36.673  30.788  27.371  1.00  0.00    -0.237 OA
ATOM     92  O   UNL A   1      34.925  29.298  28.263  1.00  0.00    -0.744 OA
ENDBRANCH  85  89
ENDBRANCH  58  82
BRANCH  70  93
ATOM     93  C   UNL A   1      45.105  32.689  29.036  1.00  0.00     0.023 A 
ATOM     94  C   UNL A   1      44.990  33.714  28.080  1.00  0.00     0.031 A 
ATOM     95  C   UNL A   1      45.473  33.039  30.346  1.00  0.00     0.131 A 
ATOM     96  C   UNL A   1      45.277  35.038  28.443  1.00  0.00     0.055 A 
ATOM     97  C   UNL A   1      45.710  34.364  30.713  1.00  0.00     0.041 A 
ATOM     98  F   UNL A   1      45.599  32.096  31.295  1.00  0.00    -0.206 F 
ATOM     99  C   UNL A   1      45.620  35.372  29.756  1.00  0.00     0.022 A 
BRANCH  96 100
ATOM    100  S   UNL A   1      45.250  36.320  27.159  1.00  0.00     0.124 S 
ATOM    101  O   UNL A   1      43.847  36.722  27.164  1.00  0.00    -0.237 OA
ATOM    102  O   UNL A   1      46.197  37.302  27.675  1.00  0.00    -0.237 OA
ATOM    103  O   UNL A   1      45.688  35.610  25.957  1.00  0.00    -0.744 OA
ENDBRANCH  96 100
ENDBRANCH  70  93
ENDBRANCH  44  45
ENDBRANCH  36  39
ENDBRANCH  34  35
ENDBRANCH  33  34
ENDBRANCH   1  33
TORSDOF 18
ENDMDL
