MODEL 1
REMARK VINA RESULT:     -12.5      0.000      0.000
REMARK SMILES O=C(C[C@@H]1C(=O)NCC[N@@H+]1Cc1ccc(F)c(F)c1)NCCCNC(=O)c1ccc(-c2c3nc(c(-c4cc(S(=O)(=O)[O-])ccc4F)c4ccc([nH]4)c(-c4cc(S(=O)(=O)[O-])ccc4F)c4nc(c(-c5cc(S(=O)(=O)[O-])ccc5F)c5ccc2[nH]5)C=C4)C=C3)cc1
REMARK SMILES IDX 22 1 21 2 20 3 1 4 2 5 3 7 4 8 5 9 10 10 6 11 7 12 9 13 8 15
REMARK SMILES IDX 11 17 12 18 13 19 19 20 14 21 17 22 15 23 18 24 16 25 23 26
REMARK SMILES IDX 24 27 25 28 26 30 27 31 28 32 89 33 29 34 88 35 30 36 31 37
REMARK SMILES IDX 32 38 82 39 33 40 87 41 81 42 83 43 34 44 86 45 80 46 79 47
REMARK SMILES IDX 35 49 67 50 47 51 66 52 48 53 51 54 65 55 84 56 49 57 50 58
REMARK SMILES IDX 64 60 85 61 52 62 36 63 37 64 45 65 38 66 44 67 46 68 43 69
REMARK SMILES IDX 39 70 40 71 41 72 42 73 68 74 69 75 77 76 70 77 76 78 78 79
REMARK SMILES IDX 75 80 71 81 72 82 73 83 74 84 53 85 54 86 62 87 55 88 61 89
REMARK SMILES IDX 63 90 60 91 56 92 57 93 58 94 59 95
REMARK H PARENT 20 6 10 14 7 16 24 29 83 48 51 59
REMARK Flexibility Score: inf
ROOT
ATOM      1  C   UNL A   1      31.806  31.682  26.828  1.00  0.00     0.042 C 
ENDROOT
BRANCH   1   2
ATOM      2  C   UNL A   1      32.096  30.190  26.984  1.00  0.00     0.117 C 
BRANCH   2   3
ATOM      3  N   UNL A   1      32.325  29.484  25.740  1.00  0.00    -0.356 N 
ATOM      4  O   UNL A   1      34.250  28.464  26.475  1.00  0.00    -0.275 OA
ATOM      5  C   UNL A   1      33.377  28.589  25.622  1.00  0.00     0.226 C 
ATOM      6  H   UNL A   1      31.729  29.640  24.972  1.00  0.00     0.163 HD
BRANCH   5   7
ATOM      7  C   UNL A   1      33.340  27.746  24.371  1.00  0.00     0.175 C 
BRANCH   7   8
ATOM      8  C   UNL A   1      32.338  26.562  24.386  1.00  0.00     0.283 C 
ATOM      9  C   UNL A   1      32.954  25.334  23.653  1.00  0.00     0.279 C 
ATOM     10  N   UNL A   1      30.907  26.748  24.039  1.00  0.00    -0.319 N 
ATOM     11  O   UNL A   1      34.161  25.223  23.437  1.00  0.00    -0.268 OA
ATOM     12  N   UNL A   1      32.126  24.291  23.322  1.00  0.00    -0.345 N 
ATOM     13  C   UNL A   1      30.157  25.500  24.235  1.00  0.00     0.284 C 
ATOM     14  H   UNL A   1      30.643  27.457  24.723  1.00  0.00     0.349 HD
ATOM     15  C   UNL A   1      30.680  24.351  23.372  1.00  0.00     0.177 C 
ATOM     16  H   UNL A   1      32.542  23.447  23.031  1.00  0.00     0.163 HD
BRANCH  10  17
ATOM     17  C   UNL A   1      30.491  27.512  22.864  1.00  0.00     0.299 C 
BRANCH  17  18
ATOM     18  C   UNL A   1      29.570  28.702  23.011  1.00  0.00     0.009 A 
ATOM     19  C   UNL A   1      28.190  28.540  22.780  1.00  0.00     0.013 A 
ATOM     20  C   UNL A   1      30.008  29.940  23.500  1.00  0.00     0.052 A 
ATOM     21  C   UNL A   1      27.291  29.588  23.008  1.00  0.00     0.043 A 
ATOM     22  C   UNL A   1      29.112  30.982  23.717  1.00  0.00     0.159 A 
ATOM     23  C   UNL A   1      27.761  30.809  23.472  1.00  0.00     0.158 A 
ATOM     24  F   UNL A   1      29.572  32.142  24.206  1.00  0.00    -0.204 F 
ATOM     25  F   UNL A   1      26.900  31.805  23.714  1.00  0.00    -0.204 F 
ENDBRANCH  17  18
ENDBRANCH  10  17
ENDBRANCH   7   8
ENDBRANCH   5   7
ENDBRANCH   2   3
ENDBRANCH   1   2
BRANCH   1  26
ATOM     26  C   UNL A   1      32.955  32.646  27.125  1.00  0.00     0.118 C 
BRANCH  26  27
ATOM     27  N   UNL A   1      32.545  33.946  27.624  1.00  0.00    -0.352 N 
ATOM     28  C   UNL A   1      33.111  34.735  28.603  1.00  0.00     0.251 C 
ATOM     29  H   UNL A   1      31.741  34.323  27.198  1.00  0.00     0.163 HD
ATOM     30  O   UNL A   1      32.582  35.813  28.872  1.00  0.00    -0.269 OA
BRANCH  28  31
ATOM     31  C   UNL A   1      34.307  34.290  29.367  1.00  0.00     0.039 A 
ATOM     32  C   UNL A   1      34.115  33.762  30.650  1.00  0.00     0.014 A 
ATOM     33  C   UNL A   1      35.605  34.394  28.860  1.00  0.00     0.014 A 
ATOM     34  C   UNL A   1      35.202  33.261  31.377  1.00  0.00     0.010 A 
ATOM     35  C   UNL A   1      36.685  33.854  29.568  1.00  0.00     0.010 A 
ATOM     36  C   UNL A   1      36.494  33.262  30.825  1.00  0.00    -0.014 A 
BRANCH  36  37
ATOM     37  C   UNL A   1      37.619  32.577  31.521  1.00  0.00     0.031 A 
ATOM     38  C   UNL A   1      38.339  31.414  30.895  1.00  0.00     0.074 A 
ATOM     39  C   UNL A   1      37.958  32.975  32.765  1.00  0.00     0.049 A 
ATOM     40  N   UNL A   1      39.339  30.710  31.366  1.00  0.00    -0.248 NA
ATOM     41  C   UNL A   1      37.859  30.972  29.579  1.00  0.00     0.031 C 
ATOM     42  C   UNL A   1      37.300  34.048  33.514  1.00  0.00     0.029 A 
ATOM     43  N   UNL A   1      38.930  32.521  33.622  1.00  0.00    -0.354 N 
ATOM     44  C   UNL A   1      39.613  29.741  30.405  1.00  0.00     0.074 A 
ATOM     45  C   UNL A   1      38.634  29.922  29.350  1.00  0.00     0.031 C 
ATOM     46  C   UNL A   1      37.899  34.182  34.708  1.00  0.00     0.029 A 
ATOM     47  C   UNL A   1      38.963  33.189  34.825  1.00  0.00     0.049 A 
ATOM     48  H   UNL A   1      39.546  31.787  33.397  1.00  0.00     0.167 HD
ATOM     49  C   UNL A   1      40.595  28.804  30.395  1.00  0.00     0.034 A 
ATOM     50  C   UNL A   1      39.756  33.026  35.901  1.00  0.00     0.034 A 
ATOM     51  C   UNL A   1      41.561  28.625  31.456  1.00  0.00     0.049 A 
ATOM     52  C   UNL A   1      40.840  31.982  35.867  1.00  0.00     0.074 A 
ATOM     53  C   UNL A   1      42.626  27.740  31.514  1.00  0.00     0.029 A 
ATOM     54  N   UNL A   1      41.573  29.330  32.653  1.00  0.00    -0.354 N 
ATOM     55  N   UNL A   1      41.132  31.123  34.917  1.00  0.00    -0.248 NA
ATOM     56  C   UNL A   1      41.716  31.900  37.043  1.00  0.00     0.031 C 
ATOM     57  C   UNL A   1      43.243  27.868  32.765  1.00  0.00     0.029 A 
ATOM     58  C   UNL A   1      42.608  28.882  33.464  1.00  0.00     0.049 A 
ATOM     59  H   UNL A   1      40.939  30.044  32.892  1.00  0.00     0.167 HD
ATOM     60  C   UNL A   1      42.242  30.420  35.373  1.00  0.00     0.074 A 
ATOM     61  C   UNL A   1      42.578  30.967  36.672  1.00  0.00     0.031 C 
ATOM     62  C   UNL A   1      42.926  29.414  34.768  1.00  0.00     0.034 A 
BRANCH  49  63
ATOM     63  C   UNL A   1      40.656  27.881  29.201  1.00  0.00     0.023 A 
ATOM     64  C   UNL A   1      41.590  28.076  28.167  1.00  0.00     0.031 A 
ATOM     65  C   UNL A   1      39.764  26.800  29.085  1.00  0.00     0.131 A 
ATOM     66  C   UNL A   1      41.564  27.249  27.033  1.00  0.00     0.055 A 
ATOM     67  C   UNL A   1      39.792  25.936  27.988  1.00  0.00     0.041 A 
ATOM     68  F   UNL A   1      38.840  26.571  30.032  1.00  0.00    -0.206 F 
ATOM     69  C   UNL A   1      40.686  26.167  26.947  1.00  0.00     0.022 A 
BRANCH  66  70
ATOM     70  S   UNL A   1      42.606  27.690  25.615  1.00  0.00     0.124 S 
ATOM     71  O   UNL A   1      43.873  28.013  26.269  1.00  0.00    -0.237 OA
ATOM     72  O   UNL A   1      42.592  26.467  24.822  1.00  0.00    -0.237 OA
ATOM     73  O   UNL A   1      41.913  28.829  25.020  1.00  0.00    -0.744 OA
ENDBRANCH  66  70
ENDBRANCH  49  63
BRANCH  50  74
ATOM     74  C   UNL A   1      39.566  33.876  37.109  1.00  0.00     0.023 A 
ATOM     75  C   UNL A   1      38.908  33.379  38.244  1.00  0.00     0.031 A 
ATOM     76  C   UNL A   1      40.007  35.210  37.130  1.00  0.00     0.131 A 
ATOM     77  C   UNL A   1      38.667  34.224  39.338  1.00  0.00     0.055 A 
ATOM     78  C   UNL A   1      39.806  36.034  38.238  1.00  0.00     0.041 A 
ATOM     79  F   UNL A   1      40.652  35.729  36.072  1.00  0.00    -0.206 F 
ATOM     80  C   UNL A   1      39.120  35.545  39.347  1.00  0.00     0.022 A 
BRANCH  77  81
ATOM     81  S   UNL A   1      37.687  33.589  40.725  1.00  0.00     0.124 S 
ATOM     82  O   UNL A   1      38.638  32.696  41.378  1.00  0.00    -0.237 OA
ATOM     83  O   UNL A   1      37.357  34.814  41.447  1.00  0.00    -0.237 OA
ATOM     84  O   UNL A   1      36.558  32.930  40.072  1.00  0.00    -0.744 OA
ENDBRANCH  77  81
ENDBRANCH  50  74
BRANCH  62  85
ATOM     85  C   UNL A   1      44.131  28.874  35.502  1.00  0.00     0.023 A 
ATOM     86  C   UNL A   1      44.034  27.775  36.376  1.00  0.00     0.031 A 
ATOM     87  C   UNL A   1      45.383  29.497  35.363  1.00  0.00     0.131 A 
ATOM     88  C   UNL A   1      45.152  27.377  37.126  1.00  0.00     0.055 A 
ATOM     89  C   UNL A   1      46.505  29.059  36.067  1.00  0.00     0.041 A 
ATOM     90  F   UNL A   1      45.535  30.552  34.546  1.00  0.00    -0.206 F 
ATOM     91  C   UNL A   1      46.390  28.005  36.969  1.00  0.00     0.022 A 
BRANCH  88  92
ATOM     92  S   UNL A   1      44.938  26.101  38.398  1.00  0.00     0.124 S 
ATOM     93  O   UNL A   1      44.150  25.096  37.693  1.00  0.00    -0.237 OA
ATOM     94  O   UNL A   1      46.317  25.731  38.703  1.00  0.00    -0.237 OA
ATOM     95  O   UNL A   1      44.233  26.800  39.471  1.00  0.00    -0.744 OA
ENDBRANCH  88  92
ENDBRANCH  62  85
ENDBRANCH  36  37
ENDBRANCH  28  31
ENDBRANCH  26  27
ENDBRANCH   1  26
TORSDOF 16
ENDMDL
MODEL 2
REMARK VINA RESULT:     -12.4      6.372     12.281
REMARK SMILES O=C(C[C@@H]1C(=O)NCC[N@@H+]1Cc1ccc(F)c(F)c1)NCCCNC(=O)c1ccc(-c2c3nc(c(-c4cc(S(=O)(=O)[O-])ccc4F)c4ccc([nH]4)c(-c4cc(S(=O)(=O)[O-])ccc4F)c4nc(c(-c5cc(S(=O)(=O)[O-])ccc5F)c5ccc2[nH]5)C=C4)C=C3)cc1
REMARK SMILES IDX 22 1 21 2 20 3 1 4 2 5 3 7 4 8 5 9 10 10 6 11 7 12 9 13 8 15
REMARK SMILES IDX 11 17 12 18 13 19 19 20 14 21 17 22 15 23 18 24 16 25 23 26
REMARK SMILES IDX 24 27 25 28 26 30 27 31 28 32 89 33 29 34 88 35 30 36 31 37
REMARK SMILES IDX 32 38 82 39 33 40 87 41 81 42 83 43 34 44 86 45 80 46 79 47
REMARK SMILES IDX 35 49 67 50 47 51 66 52 48 53 51 54 65 55 84 56 49 57 50 58
REMARK SMILES IDX 64 60 85 61 52 62 36 63 37 64 45 65 38 66 44 67 46 68 43 69
REMARK SMILES IDX 39 70 40 71 41 72 42 73 68 74 69 75 77 76 70 77 76 78 78 79
REMARK SMILES IDX 75 80 71 81 72 82 73 83 74 84 53 85 54 86 62 87 55 88 61 89
REMARK SMILES IDX 63 90 60 91 56 92 57 93 58 94 59 95
REMARK H PARENT 20 6 10 14 7 16 24 29 83 48 51 59
REMARK Flexibility Score: inf
ROOT
ATOM      1  C   UNL A   1      38.020  20.204  25.038  1.00  0.00     0.042 C 
ENDROOT
BRANCH   1   2
ATOM      2  C   UNL A   1      37.292  21.463  24.571  1.00  0.00     0.117 C 
BRANCH   2   3
ATOM      3  N   UNL A   1      36.013  21.696  25.210  1.00  0.00    -0.356 N 
ATOM      4  O   UNL A   1      36.512  23.858  25.809  1.00  0.00    -0.275 OA
ATOM      5  C   UNL A   1      35.698  22.946  25.720  1.00  0.00     0.226 C 
ATOM      6  H   UNL A   1      35.362  20.961  25.283  1.00  0.00     0.163 HD
BRANCH   5   7
ATOM      7  C   UNL A   1      34.251  23.108  26.121  1.00  0.00     0.175 C 
BRANCH   7   8
ATOM      8  C   UNL A   1      33.259  23.385  24.961  1.00  0.00     0.283 C 
ATOM      9  C   UNL A   1      32.134  24.349  25.443  1.00  0.00     0.279 C 
ATOM     10  N   UNL A   1      32.719  22.290  24.119  1.00  0.00    -0.319 N 
ATOM     11  O   UNL A   1      32.241  25.047  26.452  1.00  0.00    -0.268 OA
ATOM     12  N   UNL A   1      31.020  24.494  24.656  1.00  0.00    -0.345 N 
ATOM     13  C   UNL A   1      31.890  22.828  23.032  1.00  0.00     0.284 C 
ATOM     14  H   UNL A   1      33.587  21.885  23.765  1.00  0.00     0.349 HD
ATOM     15  C   UNL A   1      30.693  23.631  23.541  1.00  0.00     0.177 C 
ATOM     16  H   UNL A   1      30.403  25.232  24.863  1.00  0.00     0.163 HD
BRANCH  10  17
ATOM     17  C   UNL A   1      32.204  21.051  24.700  1.00  0.00     0.299 C 
BRANCH  17  18
ATOM     18  C   UNL A   1      32.739  19.711  24.249  1.00  0.00     0.009 A 
ATOM     19  C   UNL A   1      32.140  19.061  23.153  1.00  0.00     0.013 A 
ATOM     20  C   UNL A   1      33.901  19.142  24.789  1.00  0.00     0.052 A 
ATOM     21  C   UNL A   1      32.672  17.873  22.637  1.00  0.00     0.043 A 
ATOM     22  C   UNL A   1      34.421  17.957  24.279  1.00  0.00     0.159 A 
ATOM     23  C   UNL A   1      33.810  17.324  23.210  1.00  0.00     0.158 A 
ATOM     24  F   UNL A   1      35.546  17.460  24.813  1.00  0.00    -0.204 F 
ATOM     25  F   UNL A   1      34.335  16.202  22.704  1.00  0.00    -0.204 F 
ENDBRANCH  17  18
ENDBRANCH  10  17
ENDBRANCH   7   8
ENDBRANCH   5   7
ENDBRANCH   2   3
ENDBRANCH   1   2
BRANCH   1  26
ATOM     26  C   UNL A   1      39.189  20.399  26.004  1.00  0.00     0.118 C 
BRANCH  26  27
ATOM     27  N   UNL A   1      40.210  19.368  25.940  1.00  0.00    -0.352 N 
ATOM     28  C   UNL A   1      41.571  19.459  26.144  1.00  0.00     0.251 C 
ATOM     29  H   UNL A   1      39.881  18.467  25.717  1.00  0.00     0.163 HD
ATOM     30  O   UNL A   1      42.254  18.443  26.027  1.00  0.00    -0.269 OA
BRANCH  28  31
ATOM     31  C   UNL A   1      42.227  20.758  26.451  1.00  0.00     0.039 A 
ATOM     32  C   UNL A   1      42.690  21.535  25.381  1.00  0.00     0.014 A 
ATOM     33  C   UNL A   1      42.410  21.218  27.758  1.00  0.00     0.014 A 
ATOM     34  C   UNL A   1      43.248  22.798  25.616  1.00  0.00     0.010 A 
ATOM     35  C   UNL A   1      42.926  22.499  27.989  1.00  0.00     0.010 A 
ATOM     36  C   UNL A   1      43.331  23.312  26.920  1.00  0.00    -0.014 A 
BRANCH  36  37
ATOM     37  C   UNL A   1      43.762  24.718  27.157  1.00  0.00     0.031 A 
ATOM     38  C   UNL A   1      42.805  25.758  27.672  1.00  0.00     0.074 A 
ATOM     39  C   UNL A   1      45.026  25.076  26.847  1.00  0.00     0.049 A 
ATOM     40  N   UNL A   1      43.020  27.024  27.934  1.00  0.00    -0.248 NA
ATOM     41  C   UNL A   1      41.420  25.323  27.901  1.00  0.00     0.031 C 
ATOM     42  C   UNL A   1      46.039  24.183  26.282  1.00  0.00     0.029 A 
ATOM     43  N   UNL A   1      45.672  26.283  26.954  1.00  0.00    -0.354 N 
ATOM     44  C   UNL A   1      41.801  27.540  28.362  1.00  0.00     0.074 A 
ATOM     45  C   UNL A   1      40.841  26.457  28.271  1.00  0.00     0.031 C 
ATOM     46  C   UNL A   1      47.182  24.866  26.109  1.00  0.00     0.029 A 
ATOM     47  C   UNL A   1      46.978  26.251  26.524  1.00  0.00     0.049 A 
ATOM     48  H   UNL A   1      45.241  27.095  27.306  1.00  0.00     0.167 HD
ATOM     49  C   UNL A   1      41.513  28.791  28.803  1.00  0.00     0.034 A 
ATOM     50  C   UNL A   1      47.911  27.222  26.468  1.00  0.00     0.034 A 
ATOM     51  C   UNL A   1      42.475  29.869  28.882  1.00  0.00     0.049 A 
ATOM     52  C   UNL A   1      47.570  28.602  26.965  1.00  0.00     0.074 A 
ATOM     53  C   UNL A   1      42.293  31.155  29.366  1.00  0.00     0.029 A 
ATOM     54  N   UNL A   1      43.793  29.796  28.451  1.00  0.00    -0.354 N 
ATOM     55  N   UNL A   1      46.431  29.053  27.436  1.00  0.00    -0.248 NA
ATOM     56  C   UNL A   1      48.650  29.597  26.942  1.00  0.00     0.031 C 
ATOM     57  C   UNL A   1      43.480  31.874  29.174  1.00  0.00     0.029 A 
ATOM     58  C   UNL A   1      44.427  31.019  28.634  1.00  0.00     0.049 A 
ATOM     59  H   UNL A   1      44.218  28.993  28.072  1.00  0.00     0.167 HD
ATOM     60  C   UNL A   1      46.668  30.377  27.791  1.00  0.00     0.074 A 
ATOM     61  C   UNL A   1      48.061  30.645  27.498  1.00  0.00     0.031 C 
ATOM     62  C   UNL A   1      45.810  31.289  28.319  1.00  0.00     0.034 A 
BRANCH  49  63
ATOM     63  C   UNL A   1      40.086  29.067  29.216  1.00  0.00     0.023 A 
ATOM     64  C   UNL A   1      39.713  29.139  30.570  1.00  0.00     0.031 A 
ATOM     65  C   UNL A   1      39.083  29.247  28.248  1.00  0.00     0.131 A 
ATOM     66  C   UNL A   1      38.365  29.314  30.918  1.00  0.00     0.055 A 
ATOM     67  C   UNL A   1      37.755  29.494  28.600  1.00  0.00     0.041 A 
ATOM     68  F   UNL A   1      39.375  29.174  26.939  1.00  0.00    -0.206 F 
ATOM     69  C   UNL A   1      37.386  29.514  29.942  1.00  0.00     0.022 A 
BRANCH  66  70
ATOM     70  S   UNL A   1      37.889  29.144  32.660  1.00  0.00     0.124 S 
ATOM     71  O   UNL A   1      39.033  29.750  33.340  1.00  0.00    -0.237 OA
ATOM     72  O   UNL A   1      36.641  29.895  32.720  1.00  0.00    -0.237 OA
ATOM     73  O   UNL A   1      37.760  27.701  32.843  1.00  0.00    -0.744 OA
ENDBRANCH  66  70
ENDBRANCH  49  63
BRANCH  50  74
ATOM     74  C   UNL A   1      49.266  26.930  25.925  1.00  0.00     0.023 A 
ATOM     75  C   UNL A   1      49.648  27.385  24.654  1.00  0.00     0.031 A 
ATOM     76  C   UNL A   1      50.185  26.158  26.657  1.00  0.00     0.131 A 
ATOM     77  C   UNL A   1      50.899  27.026  24.131  1.00  0.00     0.055 A 
ATOM     78  C   UNL A   1      51.447  25.842  26.150  1.00  0.00     0.041 A 
ATOM     79  F   UNL A   1      49.871  25.708  27.882  1.00  0.00    -0.206 F 
ATOM     80  C   UNL A   1      51.805  26.266  24.874  1.00  0.00     0.022 A 
BRANCH  77  81
ATOM     81  S   UNL A   1      51.299  27.510  22.430  1.00  0.00     0.124 S 
ATOM     82  O   UNL A   1      50.408  26.650  21.658  1.00  0.00    -0.237 OA
ATOM     83  O   UNL A   1      50.971  28.932  22.435  1.00  0.00    -0.237 OA
ATOM     84  O   UNL A   1      52.722  27.201  22.313  1.00  0.00    -0.744 OA
ENDBRANCH  77  81
ENDBRANCH  50  74
BRANCH  62  85
ATOM     85  C   UNL A   1      46.379  32.650  28.643  1.00  0.00     0.023 A 
ATOM     86  C   UNL A   1      46.419  33.682  27.687  1.00  0.00     0.031 A 
ATOM     87  C   UNL A   1      46.934  32.902  29.909  1.00  0.00     0.131 A 
ATOM     88  C   UNL A   1      47.060  34.893  27.991  1.00  0.00     0.055 A 
ATOM     89  C   UNL A   1      47.518  34.130  30.225  1.00  0.00     0.041 A 
ATOM     90  F   UNL A   1      46.927  31.954  30.860  1.00  0.00    -0.206 F 
ATOM     91  C   UNL A   1      47.600  35.128  29.259  1.00  0.00     0.022 A 
BRANCH  88  92
ATOM     92  S   UNL A   1      47.284  36.118  26.671  1.00  0.00     0.124 S 
ATOM     93  O   UNL A   1      45.997  36.806  26.672  1.00  0.00    -0.237 OA
ATOM     94  O   UNL A   1      48.422  36.893  27.154  1.00  0.00    -0.237 OA
ATOM     95  O   UNL A   1      47.548  35.302  25.487  1.00  0.00    -0.744 OA
ENDBRANCH  88  92
ENDBRANCH  62  85
ENDBRANCH  36  37
ENDBRANCH  28  31
ENDBRANCH  26  27
ENDBRANCH   1  26
TORSDOF 16
ENDMDL
MODEL 3
REMARK VINA RESULT:     -12.1      3.310      8.739
REMARK SMILES O=C(C[C@@H]1C(=O)NCC[N@@H+]1Cc1ccc(F)c(F)c1)NCCCNC(=O)c1ccc(-c2c3nc(c(-c4cc(S(=O)(=O)[O-])ccc4F)c4ccc([nH]4)c(-c4cc(S(=O)(=O)[O-])ccc4F)c4nc(c(-c5cc(S(=O)(=O)[O-])ccc5F)c5ccc2[nH]5)C=C4)C=C3)cc1
REMARK SMILES IDX 22 1 21 2 20 3 1 4 2 5 3 7 4 8 5 9 10 10 6 11 7 12 9 13 8 15
REMARK SMILES IDX 11 17 12 18 13 19 19 20 14 21 17 22 15 23 18 24 16 25 23 26
REMARK SMILES IDX 24 27 25 28 26 30 27 31 28 32 89 33 29 34 88 35 30 36 31 37
REMARK SMILES IDX 32 38 82 39 33 40 87 41 81 42 83 43 34 44 86 45 80 46 79 47
REMARK SMILES IDX 35 49 67 50 47 51 66 52 48 53 51 54 65 55 84 56 49 57 50 58
REMARK SMILES IDX 64 60 85 61 52 62 36 63 37 64 45 65 38 66 44 67 46 68 43 69
REMARK SMILES IDX 39 70 40 71 41 72 42 73 68 74 69 75 77 76 70 77 76 78 78 79
REMARK SMILES IDX 75 80 71 81 72 82 73 83 74 84 53 85 54 86 62 87 55 88 61 89
REMARK SMILES IDX 63 90 60 91 56 92 57 93 58 94 59 95
REMARK H PARENT 20 6 10 14 7 16 24 29 83 48 51 59
REMARK Flexibility Score: inf
ROOT
ATOM      1  C   UNL A   1      31.203  30.249  24.971  1.00  0.00     0.042 C 
ENDROOT
BRANCH   1   2
ATOM      2  C   UNL A   1      31.549  28.979  24.197  1.00  0.00     0.117 C 
BRANCH   2   3
ATOM      3  N   UNL A   1      31.141  27.747  24.841  1.00  0.00    -0.356 N 
ATOM      4  O   UNL A   1      33.273  27.177  25.484  1.00  0.00    -0.275 OA
ATOM      5  C   UNL A   1      32.065  26.969  25.521  1.00  0.00     0.226 C 
ATOM      6  H   UNL A   1      30.200  27.460  24.795  1.00  0.00     0.163 HD
BRANCH   5   7
ATOM      7  C   UNL A   1      31.457  25.863  26.349  1.00  0.00     0.175 C 
BRANCH   7   8
ATOM      8  C   UNL A   1      31.498  24.447  25.716  1.00  0.00     0.283 C 
ATOM      9  C   UNL A   1      30.556  23.487  26.500  1.00  0.00     0.279 C 
ATOM     10  N   UNL A   1      32.780  23.790  25.360  1.00  0.00    -0.319 N 
ATOM     11  O   UNL A   1      29.666  23.889  27.250  1.00  0.00    -0.268 OA
ATOM     12  N   UNL A   1      30.664  22.138  26.270  1.00  0.00    -0.345 N 
ATOM     13  C   UNL A   1      32.538  22.510  24.683  1.00  0.00     0.284 C 
ATOM     14  H   UNL A   1      33.172  24.485  24.724  1.00  0.00     0.349 HD
ATOM     15  C   UNL A   1      31.754  21.520  25.545  1.00  0.00     0.177 C 
ATOM     16  H   UNL A   1      29.953  21.553  26.619  1.00  0.00     0.163 HD
BRANCH  10  17
ATOM     17  C   UNL A   1      33.918  23.770  26.278  1.00  0.00     0.299 C 
BRANCH  17  18
ATOM     18  C   UNL A   1      35.222  23.123  25.868  1.00  0.00     0.009 A 
ATOM     19  C   UNL A   1      36.403  23.889  25.868  1.00  0.00     0.013 A 
ATOM     20  C   UNL A   1      35.335  21.749  25.617  1.00  0.00     0.052 A 
ATOM     21  C   UNL A   1      37.645  23.303  25.599  1.00  0.00     0.043 A 
ATOM     22  C   UNL A   1      36.571  21.171  25.342  1.00  0.00     0.159 A 
ATOM     23  C   UNL A   1      37.720  21.943  25.332  1.00  0.00     0.158 A 
ATOM     24  F   UNL A   1      36.637  19.850  25.128  1.00  0.00    -0.204 F 
ATOM     25  F   UNL A   1      38.910  21.376  25.099  1.00  0.00    -0.204 F 
ENDBRANCH  17  18
ENDBRANCH  10  17
ENDBRANCH   7   8
ENDBRANCH   5   7
ENDBRANCH   2   3
ENDBRANCH   1   2
BRANCH   1  26
ATOM     26  C   UNL A   1      32.065  30.572  26.192  1.00  0.00     0.118 C 
BRANCH  26  27
ATOM     27  N   UNL A   1      31.943  31.934  26.681  1.00  0.00    -0.352 N 
ATOM     28  C   UNL A   1      32.818  32.682  27.439  1.00  0.00     0.251 C 
ATOM     29  H   UNL A   1      31.108  32.394  26.433  1.00  0.00     0.163 HD
ATOM     30  O   UNL A   1      32.500  33.829  27.750  1.00  0.00    -0.269 OA
BRANCH  28  31
ATOM     31  C   UNL A   1      34.105  32.117  27.927  1.00  0.00     0.039 A 
ATOM     32  C   UNL A   1      35.191  32.986  28.090  1.00  0.00     0.014 A 
ATOM     33  C   UNL A   1      34.269  30.759  28.212  1.00  0.00     0.014 A 
ATOM     34  C   UNL A   1      36.399  32.515  28.617  1.00  0.00     0.010 A 
ATOM     35  C   UNL A   1      35.462  30.297  28.780  1.00  0.00     0.010 A 
ATOM     36  C   UNL A   1      36.534  31.172  29.009  1.00  0.00    -0.014 A 
BRANCH  36  37
ATOM     37  C   UNL A   1      37.754  30.708  29.727  1.00  0.00     0.031 A 
ATOM     38  C   UNL A   1      38.061  31.160  31.128  1.00  0.00     0.074 A 
ATOM     39  C   UNL A   1      38.630  29.910  29.080  1.00  0.00     0.049 A 
ATOM     40  N   UNL A   1      39.079  30.848  31.894  1.00  0.00    -0.248 NA
ATOM     41  C   UNL A   1      37.115  32.102  31.741  1.00  0.00     0.031 C 
ATOM     42  C   UNL A   1      38.485  29.448  27.698  1.00  0.00     0.029 A 
ATOM     43  N   UNL A   1      39.815  29.354  29.493  1.00  0.00    -0.354 N 
ATOM     44  C   UNL A   1      38.897  31.551  33.080  1.00  0.00     0.074 A 
ATOM     45  C   UNL A   1      37.696  32.346  32.907  1.00  0.00     0.031 C 
ATOM     46  C   UNL A   1      39.529  28.665  27.384  1.00  0.00     0.029 A 
ATOM     47  C   UNL A   1      40.432  28.591  28.529  1.00  0.00     0.049 A 
ATOM     48  H   UNL A   1      40.188  29.488  30.394  1.00  0.00     0.167 HD
ATOM     49  C   UNL A   1      39.647  31.524  34.211  1.00  0.00     0.034 A 
ATOM     50  C   UNL A   1      41.592  27.905  28.557  1.00  0.00     0.034 A 
ATOM     51  C   UNL A   1      40.849  30.735  34.373  1.00  0.00     0.049 A 
ATOM     52  C   UNL A   1      42.407  27.887  29.823  1.00  0.00     0.074 A 
ATOM     53  C   UNL A   1      41.647  30.599  35.497  1.00  0.00     0.029 A 
ATOM     54  N   UNL A   1      41.436  29.961  33.380  1.00  0.00    -0.354 N 
ATOM     55  N   UNL A   1      42.180  28.500  30.961  1.00  0.00    -0.248 NA
ATOM     56  C   UNL A   1      43.625  27.067  29.812  1.00  0.00     0.031 C 
ATOM     57  C   UNL A   1      42.745  29.793  35.167  1.00  0.00     0.029 A 
ATOM     58  C   UNL A   1      42.598  29.369  33.857  1.00  0.00     0.049 A 
ATOM     59  H   UNL A   1      41.080  29.849  32.469  1.00  0.00     0.167 HD
ATOM     60  C   UNL A   1      43.214  28.115  31.810  1.00  0.00     0.074 A 
ATOM     61  C   UNL A   1      44.052  27.203  31.058  1.00  0.00     0.031 C 
ATOM     62  C   UNL A   1      43.444  28.478  33.098  1.00  0.00     0.034 A 
BRANCH  49  63
ATOM     63  C   UNL A   1      39.197  32.396  35.360  1.00  0.00     0.023 A 
ATOM     64  C   UNL A   1      39.654  33.719  35.501  1.00  0.00     0.031 A 
ATOM     65  C   UNL A   1      38.312  31.899  36.332  1.00  0.00     0.131 A 
ATOM     66  C   UNL A   1      39.281  34.473  36.625  1.00  0.00     0.055 A 
ATOM     67  C   UNL A   1      37.886  32.680  37.409  1.00  0.00     0.041 A 
ATOM     68  F   UNL A   1      37.853  30.639  36.259  1.00  0.00    -0.206 F 
ATOM     69  C   UNL A   1      38.382  33.970  37.568  1.00  0.00     0.022 A 
BRANCH  66  70
ATOM     70  S   UNL A   1      40.090  36.073  36.903  1.00  0.00     0.124 S 
ATOM     71  O   UNL A   1      39.818  36.765  35.644  1.00  0.00    -0.237 OA
ATOM     72  O   UNL A   1      39.388  36.581  38.075  1.00  0.00    -0.237 OA
ATOM     73  O   UNL A   1      41.490  35.717  37.118  1.00  0.00    -0.744 OA
ENDBRANCH  66  70
ENDBRANCH  49  63
BRANCH  50  74
ATOM     74  C   UNL A   1      42.058  27.169  27.350  1.00  0.00     0.023 A 
ATOM     75  C   UNL A   1      41.970  25.770  27.279  1.00  0.00     0.031 A 
ATOM     76  C   UNL A   1      42.633  27.852  26.265  1.00  0.00     0.131 A 
ATOM     77  C   UNL A   1      42.491  25.093  26.167  1.00  0.00     0.055 A 
ATOM     78  C   UNL A   1      43.110  27.177  25.140  1.00  0.00     0.041 A 
ATOM     79  F   UNL A   1      42.730  29.191  26.280  1.00  0.00    -0.206 F 
ATOM     80  C   UNL A   1      43.052  25.787  25.093  1.00  0.00     0.022 A 
BRANCH  77  81
ATOM     81  S   UNL A   1      42.491  23.279  26.177  1.00  0.00     0.124 S 
ATOM     82  O   UNL A   1      43.462  22.987  27.225  1.00  0.00    -0.237 OA
ATOM     83  O   UNL A   1      41.098  22.980  26.493  1.00  0.00    -0.237 OA
ATOM     84  O   UNL A   1      42.910  22.931  24.822  1.00  0.00    -0.744 OA
ENDBRANCH  77  81
ENDBRANCH  50  74
BRANCH  62  85
ATOM     85  C   UNL A   1      44.638  27.851  33.778  1.00  0.00     0.023 A 
ATOM     86  C   UNL A   1      44.533  26.641  34.490  1.00  0.00     0.031 A 
ATOM     87  C   UNL A   1      45.887  28.495  33.754  1.00  0.00     0.131 A 
ATOM     88  C   UNL A   1      45.638  26.151  35.204  1.00  0.00     0.055 A 
ATOM     89  C   UNL A   1      46.998  27.972  34.417  1.00  0.00     0.041 A 
ATOM     90  F   UNL A   1      46.046  29.653  33.093  1.00  0.00    -0.206 F 
ATOM     91  C   UNL A   1      46.873  26.802  35.162  1.00  0.00     0.022 A 
BRANCH  88  92
ATOM     92  S   UNL A   1      45.409  24.711  36.284  1.00  0.00     0.124 S 
ATOM     93  O   UNL A   1      46.182  25.087  37.463  1.00  0.00    -0.237 OA
ATOM     94  O   UNL A   1      43.960  24.678  36.456  1.00  0.00    -0.237 OA
ATOM     95  O   UNL A   1      45.965  23.606  35.505  1.00  0.00    -0.744 OA
ENDBRANCH  88  92
ENDBRANCH  62  85
ENDBRANCH  36  37
ENDBRANCH  28  31
ENDBRANCH  26  27
ENDBRANCH   1  26
TORSDOF 16
ENDMDL
