MODEL 1
REMARK VINA RESULT:     -11.9      0.000      0.000
REMARK SMILES O=C(C[C@@H]1C[N@@H+]([C@H]2CCCc3sccc32)CCO1)NCCCNC(=O)c1ccc(-c2c3nc(c(-c4cc(S(=O)(=O)[O-])ccc4F)c4ccc([nH]4)c(-c4cc(S(=O)(=O)[O-])ccc4F)c4nc(c(-c5cc(S(=O)(=O)[O-])ccc5F)c5ccc2[nH]5)C=C4)C=C3)cc1
REMARK SMILES IDX 21 1 20 2 19 3 1 4 2 5 3 7 4 8 5 9 18 10 6 11 17 12 16 13
REMARK SMILES IDX 7 15 8 16 15 17 9 18 11 19 14 20 10 21 12 22 13 23 22 24
REMARK SMILES IDX 23 25 24 26 25 28 26 29 27 30 88 31 28 32 87 33 29 34 30 35
REMARK SMILES IDX 31 36 81 37 32 38 86 39 80 40 82 41 33 42 85 43 79 44 78 45
REMARK SMILES IDX 34 47 66 48 46 49 65 50 47 51 50 52 64 53 83 54 48 55 49 56
REMARK SMILES IDX 63 58 84 59 51 60 35 61 36 62 44 63 37 64 43 65 45 66 42 67
REMARK SMILES IDX 38 68 39 69 40 70 41 71 67 72 68 73 76 74 69 75 75 76 77 77
REMARK SMILES IDX 74 78 70 79 71 80 72 81 73 82 52 83 53 84 61 85 54 86 60 87
REMARK SMILES IDX 62 88 59 89 55 90 56 91 57 92 58 93
REMARK H PARENT 19 6 6 14 23 27 82 46 50 57
REMARK Flexibility Score: inf
ROOT
ATOM      1  C   UNL A   1      31.679  31.198  26.881  1.00  0.00     0.042 C 
ENDROOT
BRANCH   1   2
ATOM      2  C   UNL A   1      31.504  30.500  25.535  1.00  0.00     0.117 C 
BRANCH   2   3
ATOM      3  N   UNL A   1      32.670  29.713  25.174  1.00  0.00    -0.356 N 
ATOM      4  O   UNL A   1      31.891  29.060  23.113  1.00  0.00    -0.275 OA
ATOM      5  C   UNL A   1      32.754  29.024  23.984  1.00  0.00     0.222 C 
ATOM      6  H   UNL A   1      33.427  29.670  25.801  1.00  0.00     0.163 HD
BRANCH   5   7
ATOM      7  C   UNL A   1      33.985  28.163  23.845  1.00  0.00     0.138 C 
BRANCH   7   8
ATOM      8  C   UNL A   1      33.764  26.704  24.227  1.00  0.00     0.182 C 
ATOM      9  C   UNL A   1      33.222  25.844  23.062  1.00  0.00     0.295 C 
ATOM     10  O   UNL A   1      32.816  26.721  25.313  1.00  0.00    -0.366 OA
ATOM     11  N   UNL A   1      32.849  24.463  23.445  1.00  0.00    -0.325 N 
ATOM     12  C   UNL A   1      32.560  25.396  25.783  1.00  0.00     0.222 C 
ATOM     13  C   UNL A   1      32.023  24.491  24.660  1.00  0.00     0.291 C 
ATOM     14  H   UNL A   1      32.242  24.071  22.726  1.00  0.00     0.348 HD
BRANCH  11  15
ATOM     15  C   UNL A   1      33.932  23.471  23.353  1.00  0.00     0.216 C 
ATOM     16  C   UNL A   1      35.339  23.793  23.920  1.00  0.00     0.071 C 
ATOM     17  C   UNL A   1      33.450  22.166  23.963  1.00  0.00     0.023 A 
ATOM     18  C   UNL A   1      35.488  23.644  25.443  1.00  0.00     0.012 C 
ATOM     19  C   UNL A   1      33.940  21.678  25.162  1.00  0.00     0.014 A 
ATOM     20  C   UNL A   1      32.543  21.231  23.367  1.00  0.00     0.022 A 
ATOM     21  C   UNL A   1      34.994  22.309  26.013  1.00  0.00     0.047 C 
ATOM     22  S   UNL A   1      33.277  20.165  25.583  1.00  0.00    -0.148 S 
ATOM     23  C   UNL A   1      32.377  20.096  24.132  1.00  0.00     0.065 A 
ENDBRANCH  11  15
ENDBRANCH   7   8
ENDBRANCH   5   7
ENDBRANCH   2   3
ENDBRANCH   1   2
BRANCH   1  24
ATOM     24  C   UNL A   1      32.918  32.085  26.984  1.00  0.00     0.118 C 
BRANCH  24  25
ATOM     25  N   UNL A   1      32.608  33.450  27.384  1.00  0.00    -0.352 N 
ATOM     26  C   UNL A   1      33.135  34.221  28.391  1.00  0.00     0.251 C 
ATOM     27  H   UNL A   1      31.911  33.890  26.847  1.00  0.00     0.163 HD
ATOM     28  O   UNL A   1      32.600  35.300  28.653  1.00  0.00    -0.269 OA
BRANCH  26  29
ATOM     29  C   UNL A   1      34.304  33.765  29.176  1.00  0.00     0.039 A 
ATOM     30  C   UNL A   1      34.097  32.870  30.231  1.00  0.00     0.014 A 
ATOM     31  C   UNL A   1      35.595  34.224  28.903  1.00  0.00     0.014 A 
ATOM     32  C   UNL A   1      35.187  32.382  30.958  1.00  0.00     0.010 A 
ATOM     33  C   UNL A   1      36.688  33.678  29.578  1.00  0.00     0.010 A 
ATOM     34  C   UNL A   1      36.498  32.747  30.611  1.00  0.00    -0.014 A 
BRANCH  34  35
ATOM     35  C   UNL A   1      37.672  32.152  31.306  1.00  0.00     0.031 A 
ATOM     36  C   UNL A   1      38.438  31.017  30.679  1.00  0.00     0.074 A 
ATOM     37  C   UNL A   1      38.019  32.600  32.530  1.00  0.00     0.049 A 
ATOM     38  N   UNL A   1      39.441  30.328  31.162  1.00  0.00    -0.248 NA
ATOM     39  C   UNL A   1      37.999  30.585  29.344  1.00  0.00     0.031 C 
ATOM     40  C   UNL A   1      37.339  33.673  33.260  1.00  0.00     0.029 A 
ATOM     41  N   UNL A   1      39.023  32.208  33.383  1.00  0.00    -0.354 N 
ATOM     42  C   UNL A   1      39.749  29.375  30.195  1.00  0.00     0.074 A 
ATOM     43  C   UNL A   1      38.784  29.539  29.129  1.00  0.00     0.031 C 
ATOM     44  C   UNL A   1      37.961  33.870  34.433  1.00  0.00     0.029 A 
ATOM     45  C   UNL A   1      39.047  32.906  34.569  1.00  0.00     0.049 A 
ATOM     46  H   UNL A   1      39.665  31.494  33.165  1.00  0.00     0.167 HD
ATOM     47  C   UNL A   1      40.756  28.465  30.190  1.00  0.00     0.034 A 
ATOM     48  C   UNL A   1      39.839  32.773  35.652  1.00  0.00     0.034 A 
ATOM     49  C   UNL A   1      41.714  28.318  31.259  1.00  0.00     0.049 A 
ATOM     50  C   UNL A   1      40.919  31.720  35.642  1.00  0.00     0.074 A 
ATOM     51  C   UNL A   1      42.801  27.465  31.329  1.00  0.00     0.029 A 
ATOM     52  N   UNL A   1      41.693  29.027  32.454  1.00  0.00    -0.354 N 
ATOM     53  N   UNL A   1      41.228  30.862  34.697  1.00  0.00    -0.248 NA
ATOM     54  C   UNL A   1      41.760  31.623  36.842  1.00  0.00     0.031 C 
ATOM     55  C   UNL A   1      43.387  27.600  32.592  1.00  0.00     0.029 A 
ATOM     56  C   UNL A   1      42.722  28.601  33.281  1.00  0.00     0.049 A 
ATOM     57  H   UNL A   1      41.043  29.731  32.680  1.00  0.00     0.167 HD
ATOM     58  C   UNL A   1      42.321  30.145  35.181  1.00  0.00     0.074 A 
ATOM     59  C   UNL A   1      42.626  30.685  36.489  1.00  0.00     0.031 C 
ATOM     60  C   UNL A   1      43.010  29.134  34.593  1.00  0.00     0.034 A 
BRANCH  47  61
ATOM     61  C   UNL A   1      40.851  27.540  28.998  1.00  0.00     0.023 A 
ATOM     62  C   UNL A   1      41.815  27.726  27.991  1.00  0.00     0.031 A 
ATOM     63  C   UNL A   1      39.958  26.463  28.857  1.00  0.00     0.131 A 
ATOM     64  C   UNL A   1      41.812  26.904  26.855  1.00  0.00     0.055 A 
ATOM     65  C   UNL A   1      40.016  25.593  27.766  1.00  0.00     0.041 A 
ATOM     66  F   UNL A   1      39.001  26.243  29.773  1.00  0.00    -0.206 F 
ATOM     67  C   UNL A   1      40.938  25.820  26.749  1.00  0.00     0.022 A 
BRANCH  64  68
ATOM     68  S   UNL A   1      42.863  27.364  25.451  1.00  0.00     0.124 S 
ATOM     69  O   UNL A   1      44.077  27.817  26.128  1.00  0.00    -0.237 OA
ATOM     70  O   UNL A   1      42.972  26.112  24.713  1.00  0.00    -0.237 OA
ATOM     71  O   UNL A   1      42.103  28.420  24.784  1.00  0.00    -0.744 OA
ENDBRANCH  64  68
ENDBRANCH  47  61
BRANCH  48  72
ATOM     72  C   UNL A   1      39.636  33.640  36.850  1.00  0.00     0.023 A 
ATOM     73  C   UNL A   1      39.021  33.142  38.009  1.00  0.00     0.031 A 
ATOM     74  C   UNL A   1      40.007  34.998  36.833  1.00  0.00     0.131 A 
ATOM     75  C   UNL A   1      38.749  34.005  39.084  1.00  0.00     0.055 A 
ATOM     76  C   UNL A   1      39.790  35.837  37.928  1.00  0.00     0.041 A 
ATOM     77  F   UNL A   1      40.598  35.528  35.751  1.00  0.00    -0.206 F 
ATOM     78  C   UNL A   1      39.144  35.344  39.057  1.00  0.00     0.022 A 
BRANCH  75  79
ATOM     79  S   UNL A   1      37.779  33.373  40.480  1.00  0.00     0.124 S 
ATOM     80  O   UNL A   1      37.718  34.541  41.351  1.00  0.00    -0.237 OA
ATOM     81  O   UNL A   1      36.530  32.989  39.831  1.00  0.00    -0.237 OA
ATOM     82  O   UNL A   1      38.587  32.262  40.980  1.00  0.00    -0.744 OA
ENDBRANCH  75  79
ENDBRANCH  48  72
BRANCH  60  83
ATOM     83  C   UNL A   1      44.191  28.574  35.351  1.00  0.00     0.023 A 
ATOM     84  C   UNL A   1      44.045  27.542  36.295  1.00  0.00     0.031 A 
ATOM     85  C   UNL A   1      45.482  29.090  35.133  1.00  0.00     0.131 A 
ATOM     86  C   UNL A   1      45.157  27.101  37.028  1.00  0.00     0.055 A 
ATOM     87  C   UNL A   1      46.595  28.599  35.816  1.00  0.00     0.041 A 
ATOM     88  F   UNL A   1      45.683  30.079  34.249  1.00  0.00    -0.206 F 
ATOM     89  C   UNL A   1      46.435  27.609  36.780  1.00  0.00     0.022 A 
BRANCH  86  90
ATOM     90  S   UNL A   1      44.896  25.924  38.384  1.00  0.00     0.124 S 
ATOM     91  O   UNL A   1      46.253  25.734  38.885  1.00  0.00    -0.237 OA
ATOM     92  O   UNL A   1      43.988  26.656  39.261  1.00  0.00    -0.237 OA
ATOM     93  O   UNL A   1      44.312  24.760  37.721  1.00  0.00    -0.744 OA
ENDBRANCH  86  90
ENDBRANCH  60  83
ENDBRANCH  34  35
ENDBRANCH  26  29
ENDBRANCH  24  25
ENDBRANCH   1  24
TORSDOF 15
ENDMDL
MODEL 2
REMARK VINA RESULT:     -11.9      0.944      1.617
REMARK SMILES O=C(C[C@@H]1C[N@@H+]([C@H]2CCCc3sccc32)CCO1)NCCCNC(=O)c1ccc(-c2c3nc(c(-c4cc(S(=O)(=O)[O-])ccc4F)c4ccc([nH]4)c(-c4cc(S(=O)(=O)[O-])ccc4F)c4nc(c(-c5cc(S(=O)(=O)[O-])ccc5F)c5ccc2[nH]5)C=C4)C=C3)cc1
REMARK SMILES IDX 21 1 20 2 19 3 1 4 2 5 3 7 4 8 5 9 18 10 6 11 17 12 16 13
REMARK SMILES IDX 7 15 8 16 15 17 9 18 11 19 14 20 10 21 12 22 13 23 22 24
REMARK SMILES IDX 23 25 24 26 25 28 26 29 27 30 88 31 28 32 87 33 29 34 30 35
REMARK SMILES IDX 31 36 81 37 32 38 86 39 80 40 82 41 33 42 85 43 79 44 78 45
REMARK SMILES IDX 34 47 66 48 46 49 65 50 47 51 50 52 64 53 83 54 48 55 49 56
REMARK SMILES IDX 63 58 84 59 51 60 35 61 36 62 44 63 37 64 43 65 45 66 42 67
REMARK SMILES IDX 38 68 39 69 40 70 41 71 67 72 68 73 76 74 69 75 75 76 77 77
REMARK SMILES IDX 74 78 70 79 71 80 72 81 73 82 52 83 53 84 61 85 54 86 60 87
REMARK SMILES IDX 62 88 59 89 55 90 56 91 57 92 58 93
REMARK H PARENT 19 6 6 14 23 27 82 46 50 57
REMARK Flexibility Score: inf
ROOT
ATOM      1  C   UNL A   1      31.392  32.071  26.866  1.00  0.00     0.042 C 
ENDROOT
BRANCH   1   2
ATOM      2  C   UNL A   1      31.438  30.850  25.951  1.00  0.00     0.117 C 
BRANCH   2   3
ATOM      3  N   UNL A   1      32.427  29.880  26.385  1.00  0.00    -0.356 N 
ATOM      4  O   UNL A   1      33.191  29.356  24.282  1.00  0.00    -0.275 OA
ATOM      5  C   UNL A   1      33.214  29.182  25.496  1.00  0.00     0.222 C 
ATOM      6  H   UNL A   1      32.540  29.716  27.348  1.00  0.00     0.163 HD
BRANCH   5   7
ATOM      7  C   UNL A   1      34.090  28.129  26.129  1.00  0.00     0.138 C 
BRANCH   7   8
ATOM      8  C   UNL A   1      33.453  26.744  26.178  1.00  0.00     0.182 C 
ATOM      9  C   UNL A   1      34.145  25.722  25.247  1.00  0.00     0.295 C 
ATOM     10  O   UNL A   1      32.081  26.929  25.779  1.00  0.00    -0.366 OA
ATOM     11  N   UNL A   1      33.453  24.417  25.154  1.00  0.00    -0.325 N 
ATOM     12  C   UNL A   1      31.368  25.691  25.826  1.00  0.00     0.222 C 
ATOM     13  C   UNL A   1      32.018  24.630  24.919  1.00  0.00     0.291 C 
ATOM     14  H   UNL A   1      33.783  23.923  24.324  1.00  0.00     0.348 HD
BRANCH  11  15
ATOM     15  C   UNL A   1      33.861  23.417  26.154  1.00  0.00     0.216 C 
ATOM     16  C   UNL A   1      32.941  22.212  26.478  1.00  0.00     0.071 C 
ATOM     17  C   UNL A   1      35.237  22.890  25.783  1.00  0.00     0.023 A 
ATOM     18  C   UNL A   1      32.990  21.053  25.469  1.00  0.00     0.012 C 
ATOM     19  C   UNL A   1      35.442  21.602  25.318  1.00  0.00     0.014 A 
ATOM     20  C   UNL A   1      36.486  23.572  25.955  1.00  0.00     0.022 A 
ATOM     21  C   UNL A   1      34.398  20.550  25.129  1.00  0.00     0.047 C 
ATOM     22  S   UNL A   1      37.087  21.251  25.039  1.00  0.00    -0.148 S 
ATOM     23  C   UNL A   1      37.566  22.790  25.608  1.00  0.00     0.065 A 
ENDBRANCH  11  15
ENDBRANCH   7   8
ENDBRANCH   5   7
ENDBRANCH   2   3
ENDBRANCH   1   2
BRANCH   1  24
ATOM     24  C   UNL A   1      32.738  32.761  27.077  1.00  0.00     0.118 C 
BRANCH  24  25
ATOM     25  N   UNL A   1      32.618  34.056  27.730  1.00  0.00    -0.352 N 
ATOM     26  C   UNL A   1      33.296  34.574  28.806  1.00  0.00     0.251 C 
ATOM     27  H   UNL A   1      31.943  34.655  27.339  1.00  0.00     0.163 HD
ATOM     28  O   UNL A   1      32.909  35.637  29.294  1.00  0.00    -0.269 OA
BRANCH  26  29
ATOM     29  C   UNL A   1      34.453  33.865  29.399  1.00  0.00     0.039 A 
ATOM     30  C   UNL A   1      35.743  34.288  29.065  1.00  0.00     0.014 A 
ATOM     31  C   UNL A   1      34.283  32.776  30.258  1.00  0.00     0.014 A 
ATOM     32  C   UNL A   1      36.854  33.670  29.648  1.00  0.00     0.010 A 
ATOM     33  C   UNL A   1      35.387  32.211  30.897  1.00  0.00     0.010 A 
ATOM     34  C   UNL A   1      36.687  32.655  30.604  1.00  0.00    -0.014 A 
BRANCH  34  35
ATOM     35  C   UNL A   1      37.855  32.063  31.311  1.00  0.00     0.031 A 
ATOM     36  C   UNL A   1      38.663  30.967  30.668  1.00  0.00     0.074 A 
ATOM     37  C   UNL A   1      38.158  32.475  32.559  1.00  0.00     0.049 A 
ATOM     38  N   UNL A   1      39.668  30.283  31.155  1.00  0.00    -0.248 NA
ATOM     39  C   UNL A   1      38.271  30.571  29.307  1.00  0.00     0.031 C 
ATOM     40  C   UNL A   1      37.435  33.508  33.305  1.00  0.00     0.029 A 
ATOM     41  N   UNL A   1      39.147  32.076  33.425  1.00  0.00    -0.354 N 
ATOM     42  C   UNL A   1      40.025  29.371  30.166  1.00  0.00     0.074 A 
ATOM     43  C   UNL A   1      39.086  29.550  29.079  1.00  0.00     0.031 C 
ATOM     44  C   UNL A   1      38.019  33.678  34.501  1.00  0.00     0.029 A 
ATOM     45  C   UNL A   1      39.123  32.734  34.635  1.00  0.00     0.049 A 
ATOM     46  H   UNL A   1      39.811  31.384  33.202  1.00  0.00     0.167 HD
ATOM     47  C   UNL A   1      41.052  28.485  30.158  1.00  0.00     0.034 A 
ATOM     48  C   UNL A   1      39.888  32.581  35.735  1.00  0.00     0.034 A 
ATOM     49  C   UNL A   1      41.983  28.322  31.248  1.00  0.00     0.049 A 
ATOM     50  C   UNL A   1      40.991  31.553  35.719  1.00  0.00     0.074 A 
ATOM     51  C   UNL A   1      43.088  27.491  31.320  1.00  0.00     0.029 A 
ATOM     52  N   UNL A   1      41.914  28.989  32.465  1.00  0.00    -0.354 N 
ATOM     53  N   UNL A   1      41.346  30.735  34.755  1.00  0.00    -0.248 NA
ATOM     54  C   UNL A   1      41.801  31.433  36.939  1.00  0.00     0.031 C 
ATOM     55  C   UNL A   1      43.636  27.595  32.603  1.00  0.00     0.029 A 
ATOM     56  C   UNL A   1      42.929  28.557  33.306  1.00  0.00     0.049 A 
ATOM     57  H   UNL A   1      41.242  29.670  32.697  1.00  0.00     0.167 HD
ATOM     58  C   UNL A   1      42.441  30.026  35.244  1.00  0.00     0.074 A 
ATOM     59  C   UNL A   1      42.698  30.527  36.578  1.00  0.00     0.031 C 
ATOM     60  C   UNL A   1      43.169  29.051  34.642  1.00  0.00     0.034 A 
BRANCH  47  61
ATOM     61  C   UNL A   1      41.201  27.603  28.939  1.00  0.00     0.023 A 
ATOM     62  C   UNL A   1      42.213  27.821  27.987  1.00  0.00     0.031 A 
ATOM     63  C   UNL A   1      40.311  26.537  28.716  1.00  0.00     0.131 A 
ATOM     64  C   UNL A   1      42.261  27.041  26.822  1.00  0.00     0.055 A 
ATOM     65  C   UNL A   1      40.419  25.708  27.597  1.00  0.00     0.041 A 
ATOM     66  F   UNL A   1      39.311  26.289  29.576  1.00  0.00    -0.206 F 
ATOM     67  C   UNL A   1      41.389  25.966  26.634  1.00  0.00     0.022 A 
BRANCH  64  68
ATOM     68  S   UNL A   1      43.380  27.546  25.488  1.00  0.00     0.124 S 
ATOM     69  O   UNL A   1      42.441  27.811  24.399  1.00  0.00    -0.237 OA
ATOM     70  O   UNL A   1      44.044  28.713  26.057  1.00  0.00    -0.237 OA
ATOM     71  O   UNL A   1      44.233  26.374  25.292  1.00  0.00    -0.744 OA
ENDBRANCH  64  68
ENDBRANCH  47  61
BRANCH  48  72
ATOM     72  C   UNL A   1      39.632  33.402  36.954  1.00  0.00     0.023 A 
ATOM     73  C   UNL A   1      38.930  32.874  38.049  1.00  0.00     0.031 A 
ATOM     74  C   UNL A   1      40.042  34.747  37.023  1.00  0.00     0.131 A 
ATOM     75  C   UNL A   1      38.613  33.698  39.142  1.00  0.00     0.055 A 
ATOM     76  C   UNL A   1      39.779  35.545  38.138  1.00  0.00     0.041 A 
ATOM     77  F   UNL A   1      40.717  35.304  36.005  1.00  0.00    -0.206 F 
ATOM     78  C   UNL A   1      39.047  35.024  39.201  1.00  0.00     0.022 A 
BRANCH  75  79
ATOM     79  S   UNL A   1      37.537  33.037  40.444  1.00  0.00     0.124 S 
ATOM     80  O   UNL A   1      36.302  32.788  39.709  1.00  0.00    -0.237 OA
ATOM     81  O   UNL A   1      38.276  31.856  40.876  1.00  0.00    -0.237 OA
ATOM     82  O   UNL A   1      37.476  34.124  41.418  1.00  0.00    -0.744 OA
ENDBRANCH  75  79
ENDBRANCH  48  72
BRANCH  60  83
ATOM     83  C   UNL A   1      44.341  28.492  35.414  1.00  0.00     0.023 A 
ATOM     84  C   UNL A   1      44.184  27.461  36.358  1.00  0.00     0.031 A 
ATOM     85  C   UNL A   1      45.635  29.006  35.209  1.00  0.00     0.131 A 
ATOM     86  C   UNL A   1      45.288  27.020  37.103  1.00  0.00     0.055 A 
ATOM     87  C   UNL A   1      46.741  28.516  35.905  1.00  0.00     0.041 A 
ATOM     88  F   UNL A   1      45.846  29.994  34.326  1.00  0.00    -0.206 F 
ATOM     89  C   UNL A   1      46.569  27.527  36.869  1.00  0.00     0.022 A 
BRANCH  86  90
ATOM     90  S   UNL A   1      45.012  25.845  38.458  1.00  0.00     0.124 S 
ATOM     91  O   UNL A   1      46.376  25.526  38.865  1.00  0.00    -0.237 OA
ATOM     92  O   UNL A   1      44.232  26.638  39.404  1.00  0.00    -0.237 OA
ATOM     93  O   UNL A   1      44.283  24.750  37.820  1.00  0.00    -0.744 OA
ENDBRANCH  86  90
ENDBRANCH  60  83
ENDBRANCH  34  35
ENDBRANCH  26  29
ENDBRANCH  24  25
ENDBRANCH   1  24
TORSDOF 15
ENDMDL
MODEL 3
REMARK VINA RESULT:     -11.8      2.297      7.875
REMARK SMILES O=C(C[C@@H]1C[N@@H+]([C@H]2CCCc3sccc32)CCO1)NCCCNC(=O)c1ccc(-c2c3nc(c(-c4cc(S(=O)(=O)[O-])ccc4F)c4ccc([nH]4)c(-c4cc(S(=O)(=O)[O-])ccc4F)c4nc(c(-c5cc(S(=O)(=O)[O-])ccc5F)c5ccc2[nH]5)C=C4)C=C3)cc1
REMARK SMILES IDX 21 1 20 2 19 3 1 4 2 5 3 7 4 8 5 9 18 10 6 11 17 12 16 13
REMARK SMILES IDX 7 15 8 16 15 17 9 18 11 19 14 20 10 21 12 22 13 23 22 24
REMARK SMILES IDX 23 25 24 26 25 28 26 29 27 30 88 31 28 32 87 33 29 34 30 35
REMARK SMILES IDX 31 36 81 37 32 38 86 39 80 40 82 41 33 42 85 43 79 44 78 45
REMARK SMILES IDX 34 47 66 48 46 49 65 50 47 51 50 52 64 53 83 54 48 55 49 56
REMARK SMILES IDX 63 58 84 59 51 60 35 61 36 62 44 63 37 64 43 65 45 66 42 67
REMARK SMILES IDX 38 68 39 69 40 70 41 71 67 72 68 73 76 74 69 75 75 76 77 77
REMARK SMILES IDX 74 78 70 79 71 80 72 81 73 82 52 83 53 84 61 85 54 86 60 87
REMARK SMILES IDX 62 88 59 89 55 90 56 91 57 92 58 93
REMARK H PARENT 19 6 6 14 23 27 82 46 50 57
REMARK Flexibility Score: inf
ROOT
ATOM      1  C   UNL A   1      32.281  29.854  25.347  1.00  0.00     0.042 C 
ENDROOT
BRANCH   1   2
ATOM      2  C   UNL A   1      31.136  29.535  24.390  1.00  0.00     0.117 C 
BRANCH   2   3
ATOM      3  N   UNL A   1      30.816  28.119  24.375  1.00  0.00    -0.356 N 
ATOM      4  O   UNL A   1      30.185  28.038  22.166  1.00  0.00    -0.275 OA
ATOM      5  C   UNL A   1      30.332  27.486  23.252  1.00  0.00     0.222 C 
ATOM      6  H   UNL A   1      30.950  27.594  25.195  1.00  0.00     0.163 HD
BRANCH   5   7
ATOM      7  C   UNL A   1      29.938  26.045  23.467  1.00  0.00     0.138 C 
BRANCH   7   8
ATOM      8  C   UNL A   1      31.117  25.118  23.748  1.00  0.00     0.182 C 
ATOM      9  C   UNL A   1      32.369  25.453  22.905  1.00  0.00     0.295 C 
ATOM     10  O   UNL A   1      30.653  23.789  23.442  1.00  0.00    -0.366 OA
ATOM     11  N   UNL A   1      33.474  24.476  23.040  1.00  0.00    -0.325 N 
ATOM     12  C   UNL A   1      31.672  22.823  23.708  1.00  0.00     0.222 C 
ATOM     13  C   UNL A   1      32.950  23.110  22.898  1.00  0.00     0.291 C 
ATOM     14  H   UNL A   1      34.118  24.591  22.258  1.00  0.00     0.348 HD
BRANCH  11  15
ATOM     15  C   UNL A   1      34.428  24.753  24.125  1.00  0.00     0.216 C 
ATOM     16  C   UNL A   1      33.923  25.246  25.506  1.00  0.00     0.071 C 
ATOM     17  C   UNL A   1      35.296  23.524  24.337  1.00  0.00     0.023 A 
ATOM     18  C   UNL A   1      33.363  24.155  26.433  1.00  0.00     0.012 C 
ATOM     19  C   UNL A   1      35.195  22.726  25.463  1.00  0.00     0.014 A 
ATOM     20  C   UNL A   1      36.374  23.088  23.500  1.00  0.00     0.022 A 
ATOM     21  C   UNL A   1      34.275  22.937  26.622  1.00  0.00     0.047 C 
ATOM     22  S   UNL A   1      36.329  21.452  25.477  1.00  0.00    -0.148 S 
ATOM     23  C   UNL A   1      37.028  21.988  24.013  1.00  0.00     0.065 A 
ENDBRANCH  11  15
ENDBRANCH   7   8
ENDBRANCH   5   7
ENDBRANCH   2   3
ENDBRANCH   1   2
BRANCH   1  24
ATOM     24  C   UNL A   1      31.843  30.382  26.712  1.00  0.00     0.118 C 
BRANCH  24  25
ATOM     25  N   UNL A   1      31.932  31.831  26.817  1.00  0.00    -0.352 N 
ATOM     26  C   UNL A   1      32.871  32.620  27.435  1.00  0.00     0.251 C 
ATOM     27  H   UNL A   1      31.204  32.323  26.374  1.00  0.00     0.163 HD
ATOM     28  O   UNL A   1      32.654  33.829  27.538  1.00  0.00    -0.269 OA
BRANCH  26  29
ATOM     29  C   UNL A   1      34.111  32.040  27.998  1.00  0.00     0.039 A 
ATOM     30  C   UNL A   1      35.180  32.894  28.290  1.00  0.00     0.014 A 
ATOM     31  C   UNL A   1      34.243  30.667  28.220  1.00  0.00     0.014 A 
ATOM     32  C   UNL A   1      36.345  32.382  28.870  1.00  0.00     0.010 A 
ATOM     33  C   UNL A   1      35.374  30.169  28.868  1.00  0.00     0.010 A 
ATOM     34  C   UNL A   1      36.438  31.022  29.206  1.00  0.00    -0.014 A 
BRANCH  34  35
ATOM     35  C   UNL A   1      37.628  30.484  29.921  1.00  0.00     0.031 A 
ATOM     36  C   UNL A   1      37.931  30.915  31.332  1.00  0.00     0.074 A 
ATOM     37  C   UNL A   1      38.468  29.647  29.280  1.00  0.00     0.049 A 
ATOM     38  N   UNL A   1      38.954  30.609  32.089  1.00  0.00    -0.248 NA
ATOM     39  C   UNL A   1      36.968  31.829  31.963  1.00  0.00     0.031 C 
ATOM     40  C   UNL A   1      38.303  29.178  27.902  1.00  0.00     0.029 A 
ATOM     41  N   UNL A   1      39.632  29.045  29.694  1.00  0.00    -0.354 N 
ATOM     42  C   UNL A   1      38.765  31.299  33.283  1.00  0.00     0.074 A 
ATOM     43  C   UNL A   1      37.561  32.086  33.120  1.00  0.00     0.031 C 
ATOM     44  C   UNL A   1      39.310  28.344  27.597  1.00  0.00     0.029 A 
ATOM     45  C   UNL A   1      40.222  28.258  28.732  1.00  0.00     0.049 A 
ATOM     46  H   UNL A   1      40.008  29.166  30.597  1.00  0.00     0.167 HD
ATOM     47  C   UNL A   1      39.513  31.262  34.414  1.00  0.00     0.034 A 
ATOM     48  C   UNL A   1      41.377  27.561  28.751  1.00  0.00     0.034 A 
ATOM     49  C   UNL A   1      40.709  30.467  34.562  1.00  0.00     0.049 A 
ATOM     50  C   UNL A   1      42.217  27.577  30.004  1.00  0.00     0.074 A 
ATOM     51  C   UNL A   1      41.510  30.318  35.681  1.00  0.00     0.029 A 
ATOM     52  N   UNL A   1      41.288  29.701  33.559  1.00  0.00    -0.354 N 
ATOM     53  N   UNL A   1      41.995  28.194  31.141  1.00  0.00    -0.248 NA
ATOM     54  C   UNL A   1      43.460  26.794  29.976  1.00  0.00     0.031 C 
ATOM     55  C   UNL A   1      42.612  29.530  35.333  1.00  0.00     0.029 A 
ATOM     56  C   UNL A   1      42.456  29.111  34.021  1.00  0.00     0.049 A 
ATOM     57  H   UNL A   1      40.923  29.591  32.652  1.00  0.00     0.167 HD
ATOM     58  C   UNL A   1      43.058  27.848  31.973  1.00  0.00     0.074 A 
ATOM     59  C   UNL A   1      43.906  26.954  31.213  1.00  0.00     0.031 C 
ATOM     60  C   UNL A   1      43.307  28.233  33.251  1.00  0.00     0.034 A 
BRANCH  47  61
ATOM     61  C   UNL A   1      39.071  32.129  35.571  1.00  0.00     0.023 A 
ATOM     62  C   UNL A   1      39.495  33.464  35.699  1.00  0.00     0.031 A 
ATOM     63  C   UNL A   1      38.226  31.613  36.569  1.00  0.00     0.131 A 
ATOM     64  C   UNL A   1      39.141  34.208  36.834  1.00  0.00     0.055 A 
ATOM     65  C   UNL A   1      37.805  32.386  37.653  1.00  0.00     0.041 A 
ATOM     66  F   UNL A   1      37.804  30.339  36.516  1.00  0.00    -0.206 F 
ATOM     67  C   UNL A   1      38.275  33.687  37.799  1.00  0.00     0.022 A 
BRANCH  64  68
ATOM     68  S   UNL A   1      39.951  35.807  37.109  1.00  0.00     0.124 S 
ATOM     69  O   UNL A   1      39.262  36.284  38.307  1.00  0.00    -0.237 OA
ATOM     70  O   UNL A   1      41.348  35.429  37.283  1.00  0.00    -0.237 OA
ATOM     71  O   UNL A   1      39.652  36.556  35.889  1.00  0.00    -0.744 OA
ENDBRANCH  64  68
ENDBRANCH  47  61
BRANCH  48  72
ATOM     72  C   UNL A   1      41.826  26.806  27.545  1.00  0.00     0.023 A 
ATOM     73  C   UNL A   1      41.629  25.420  27.444  1.00  0.00     0.031 A 
ATOM     74  C   UNL A   1      42.506  27.452  26.496  1.00  0.00     0.131 A 
ATOM     75  C   UNL A   1      42.151  24.716  26.346  1.00  0.00     0.055 A 
ATOM     76  C   UNL A   1      42.970  26.757  25.377  1.00  0.00     0.041 A 
ATOM     77  F   UNL A   1      42.722  28.776  26.540  1.00  0.00    -0.206 F 
ATOM     78  C   UNL A   1      42.805  25.378  25.304  1.00  0.00     0.022 A 
BRANCH  75  79
ATOM     79  S   UNL A   1      42.050  22.905  26.348  1.00  0.00     0.124 S 
ATOM     80  O   UNL A   1      40.612  22.689  26.461  1.00  0.00    -0.237 OA
ATOM     81  O   UNL A   1      42.651  22.567  25.062  1.00  0.00    -0.237 OA
ATOM     82  O   UNL A   1      42.834  22.522  27.520  1.00  0.00    -0.744 OA
ENDBRANCH  75  79
ENDBRANCH  48  72
BRANCH  60  83
ATOM     83  C   UNL A   1      44.530  27.652  33.919  1.00  0.00     0.023 A 
ATOM     84  C   UNL A   1      44.483  26.435  34.623  1.00  0.00     0.031 A 
ATOM     85  C   UNL A   1      45.761  28.331  33.860  1.00  0.00     0.131 A 
ATOM     86  C   UNL A   1      45.626  25.967  35.289  1.00  0.00     0.055 A 
ATOM     87  C   UNL A   1      46.911  27.826  34.467  1.00  0.00     0.041 A 
ATOM     88  F   UNL A   1      45.866  29.500  33.208  1.00  0.00    -0.206 F 
ATOM     89  C   UNL A   1      46.845  26.644  35.199  1.00  0.00     0.022 A 
BRANCH  86  90
ATOM     90  S   UNL A   1      45.475  24.511  36.362  1.00  0.00     0.124 S 
ATOM     91  O   UNL A   1      46.008  23.452  35.511  1.00  0.00    -0.237 OA
ATOM     92  O   UNL A   1      46.297  24.883  37.509  1.00  0.00    -0.237 OA
ATOM     93  O   UNL A   1      44.040  24.429  36.629  1.00  0.00    -0.744 OA
ENDBRANCH  86  90
ENDBRANCH  60  83
ENDBRANCH  34  35
ENDBRANCH  26  29
ENDBRANCH  24  25
ENDBRANCH   1  24
TORSDOF 15
ENDMDL
