MODEL 1
REMARK VINA RESULT:     -14.0      0.000      0.000
REMARK SMILES O=C(NCCCNC(=O)c1ccccc1C(=O)Nc1ccc(N2C(=O)[C@H]3[C@@H]4CC[C@@H](C4)[C@@H]3C2=O)cc1)c1ccc(-c2c3nc(c(-c4cc(S(=O)(=O)[O-])ccc4F)c4ccc([nH]4)c(-c4cc(S(=O)(=O)[O-])ccc4F)c4nc(c(-c5cc(S(=O)(=O)[O-])ccc5F)c5ccc2[nH]5)C=C4)C=C3)cc1
REMARK SMILES IDX 5 1 4 2 3 3 1 4 2 5 37 7 38 8 99 9 39 10 98 11 40 12 41 13
REMARK SMILES IDX 42 14 92 15 43 16 97 17 91 18 93 19 44 20 96 21 90 22 89 23
REMARK SMILES IDX 45 25 77 26 57 27 76 28 58 29 61 30 75 31 94 32 59 33 60 34
REMARK SMILES IDX 74 36 95 37 62 38 46 39 47 40 55 41 48 42 54 43 56 44 53 45
REMARK SMILES IDX 49 46 50 47 51 48 52 49 78 50 79 51 87 52 80 53 86 54 88 55
REMARK SMILES IDX 85 56 81 57 82 58 83 59 84 60 63 61 64 62 72 63 65 64 71 65
REMARK SMILES IDX 73 66 70 67 66 68 67 69 68 70 69 71 6 72 7 73 8 74 9 76
REMARK SMILES IDX 10 77 11 78 15 79 12 80 14 81 13 82 16 83 17 84 18 85 19 87
REMARK SMILES IDX 20 88 36 89 21 90 35 91 22 92 23 93 24 94 33 95 25 96 26 97
REMARK SMILES IDX 32 98 34 99 27 100 30 101 28 102 31 103 29 104
REMARK H PARENT 3 6 93 24 61 35 7 75 18 86
REMARK Flexibility Score: inf
ROOT
ATOM      1  C   UNL A   1      32.493  31.405  27.421  1.00  0.00     0.042 C 
ENDROOT
BRANCH   1   2
ATOM      2  C   UNL A   1      33.417  32.599  27.214  1.00  0.00     0.118 C 
BRANCH   2   3
ATOM      3  N   UNL A   1      32.855  33.865  27.674  1.00  0.00    -0.352 N 
ATOM      4  O   UNL A   1      32.621  35.636  29.066  1.00  0.00    -0.269 OA
ATOM      5  C   UNL A   1      33.237  34.621  28.761  1.00  0.00     0.251 C 
ATOM      6  H   UNL A   1      32.110  34.223  27.140  1.00  0.00     0.163 HD
BRANCH   5   7
ATOM      7  C   UNL A   1      34.377  34.154  29.578  1.00  0.00     0.039 A 
ATOM      8  C   UNL A   1      35.683  34.425  29.169  1.00  0.00     0.014 A 
ATOM      9  C   UNL A   1      34.134  33.345  30.690  1.00  0.00     0.014 A 
ATOM     10  C   UNL A   1      36.735  33.733  29.752  1.00  0.00     0.010 A 
ATOM     11  C   UNL A   1      35.208  32.735  31.344  1.00  0.00     0.010 A 
ATOM     12  C   UNL A   1      36.514  32.887  30.852  1.00  0.00    -0.014 A 
BRANCH  12  13
ATOM     13  C   UNL A   1      37.674  32.213  31.493  1.00  0.00     0.031 A 
ATOM     14  C   UNL A   1      38.430  31.116  30.791  1.00  0.00     0.074 A 
ATOM     15  C   UNL A   1      38.060  32.630  32.715  1.00  0.00     0.049 A 
ATOM     16  N   UNL A   1      39.447  30.412  31.220  1.00  0.00    -0.248 NA
ATOM     17  C   UNL A   1      37.984  30.754  29.437  1.00  0.00     0.031 C 
ATOM     18  C   UNL A   1      37.400  33.688  33.487  1.00  0.00     0.029 A 
ATOM     19  N   UNL A   1      39.102  32.239  33.515  1.00  0.00    -0.354 N 
ATOM     20  C   UNL A   1      39.746  29.507  30.207  1.00  0.00     0.074 A 
ATOM     21  C   UNL A   1      38.789  29.740  29.145  1.00  0.00     0.031 C 
ATOM     22  C   UNL A   1      38.082  33.897  34.621  1.00  0.00     0.029 A 
ATOM     23  C   UNL A   1      39.172  32.933  34.701  1.00  0.00     0.049 A 
ATOM     24  H   UNL A   1      39.738  31.531  33.266  1.00  0.00     0.167 HD
ATOM     25  C   UNL A   1      40.730  28.572  30.169  1.00  0.00     0.034 A 
ATOM     26  C   UNL A   1      39.999  32.792  35.754  1.00  0.00     0.034 A 
ATOM     27  C   UNL A   1      41.687  28.368  31.233  1.00  0.00     0.049 A 
ATOM     28  C   UNL A   1      41.063  31.732  35.693  1.00  0.00     0.074 A 
ATOM     29  C   UNL A   1      42.742  27.473  31.285  1.00  0.00     0.029 A 
ATOM     30  N   UNL A   1      41.704  29.066  32.435  1.00  0.00    -0.354 N 
ATOM     31  N   UNL A   1      41.327  30.885  34.726  1.00  0.00    -0.248 NA
ATOM     32  C   UNL A   1      41.937  31.609  36.865  1.00  0.00     0.031 C 
ATOM     33  C   UNL A   1      43.357  27.586  32.537  1.00  0.00     0.029 A 
ATOM     34  C   UNL A   1      42.731  28.600  33.243  1.00  0.00     0.049 A 
ATOM     35  H   UNL A   1      41.078  29.785  32.677  1.00  0.00     0.167 HD
ATOM     36  C   UNL A   1      42.410  30.135  35.170  1.00  0.00     0.074 A 
ATOM     37  C   UNL A   1      42.762  30.649  36.479  1.00  0.00     0.031 C 
ATOM     38  C   UNL A   1      43.054  29.111  34.555  1.00  0.00     0.034 A 
BRANCH  25  39
ATOM     39  C   UNL A   1      40.793  27.663  28.963  1.00  0.00     0.023 A 
ATOM     40  C   UNL A   1      41.733  27.849  27.935  1.00  0.00     0.031 A 
ATOM     41  C   UNL A   1      39.898  26.582  28.849  1.00  0.00     0.131 A 
ATOM     42  C   UNL A   1      41.724  27.002  26.815  1.00  0.00     0.055 A 
ATOM     43  C   UNL A   1      39.938  25.703  27.765  1.00  0.00     0.041 A 
ATOM     44  F   UNL A   1      38.967  26.365  29.790  1.00  0.00    -0.206 F 
ATOM     45  C   UNL A   1      40.847  25.916  26.734  1.00  0.00     0.022 A 
BRANCH  42  46
ATOM     46  S   UNL A   1      42.800  27.401  25.410  1.00  0.00     0.124 S 
ATOM     47  O   UNL A   1      42.786  26.148  24.660  1.00  0.00    -0.237 OA
ATOM     48  O   UNL A   1      42.106  28.524  24.790  1.00  0.00    -0.237 OA
ATOM     49  O   UNL A   1      44.078  27.729  26.037  1.00  0.00    -0.744 OA
ENDBRANCH  42  46
ENDBRANCH  25  39
BRANCH  26  50
ATOM     50  C   UNL A   1      39.821  33.643  36.963  1.00  0.00     0.023 A 
ATOM     51  C   UNL A   1      39.243  33.129  38.133  1.00  0.00     0.031 A 
ATOM     52  C   UNL A   1      40.212  34.994  36.956  1.00  0.00     0.131 A 
ATOM     53  C   UNL A   1      39.040  33.971  39.236  1.00  0.00     0.055 A 
ATOM     54  C   UNL A   1      40.059  35.812  38.075  1.00  0.00     0.041 A 
ATOM     55  F   UNL A   1      40.774  35.533  35.862  1.00  0.00    -0.206 F 
ATOM     56  C   UNL A   1      39.456  35.304  39.221  1.00  0.00     0.022 A 
BRANCH  53  57
ATOM     57  S   UNL A   1      38.142  33.318  40.671  1.00  0.00     0.124 S 
ATOM     58  O   UNL A   1      36.826  33.049  40.102  1.00  0.00    -0.237 OA
ATOM     59  O   UNL A   1      38.941  32.147  41.019  1.00  0.00    -0.237 OA
ATOM     60  O   UNL A   1      38.195  34.415  41.634  1.00  0.00    -0.744 OA
ENDBRANCH  53  57
ENDBRANCH  26  50
BRANCH  38  61
ATOM     61  C   UNL A   1      44.224  28.514  35.292  1.00  0.00     0.023 A 
ATOM     62  C   UNL A   1      44.055  27.472  36.219  1.00  0.00     0.031 A 
ATOM     63  C   UNL A   1      45.520  29.022  35.093  1.00  0.00     0.131 A 
ATOM     64  C   UNL A   1      45.153  27.010  36.959  1.00  0.00     0.055 A 
ATOM     65  C   UNL A   1      46.619  28.519  35.790  1.00  0.00     0.041 A 
ATOM     66  F   UNL A   1      45.736  30.020  34.221  1.00  0.00    -0.206 F 
ATOM     67  C   UNL A   1      46.436  27.518  36.740  1.00  0.00     0.022 A 
BRANCH  64  68
ATOM     68  S   UNL A   1      44.866  25.802  38.281  1.00  0.00     0.124 S 
ATOM     69  O   UNL A   1      43.725  26.385  38.981  1.00  0.00    -0.237 OA
ATOM     70  O   UNL A   1      44.599  24.579  37.533  1.00  0.00    -0.237 OA
ATOM     71  O   UNL A   1      46.121  25.809  39.030  1.00  0.00    -0.744 OA
ENDBRANCH  64  68
ENDBRANCH  38  61
ENDBRANCH  12  13
ENDBRANCH   5   7
ENDBRANCH   2   3
ENDBRANCH   1   2
BRANCH   1  72
ATOM     72  C   UNL A   1      32.030  30.776  26.122  1.00  0.00     0.118 C 
BRANCH  72  73
ATOM     73  N   UNL A   1      33.092  30.035  25.464  1.00  0.00    -0.352 N 
ATOM     74  C   UNL A   1      33.006  28.940  24.656  1.00  0.00     0.252 C 
ATOM     75  H   UNL A   1      34.003  30.370  25.626  1.00  0.00     0.163 HD
ATOM     76  O   UNL A   1      34.027  28.377  24.264  1.00  0.00    -0.269 OA
BRANCH  74  77
ATOM     77  C   UNL A   1      31.705  28.328  24.348  1.00  0.00     0.052 A 
ATOM     78  C   UNL A   1      31.242  28.691  23.064  1.00  0.00     0.014 A 
ATOM     79  C   UNL A   1      30.966  27.441  25.147  1.00  0.00     0.052 A 
ATOM     80  C   UNL A   1      30.089  28.132  22.528  1.00  0.00     0.001 A 
ATOM     81  C   UNL A   1      29.804  26.878  24.569  1.00  0.00     0.014 A 
ATOM     82  C   UNL A   1      29.376  27.209  23.278  1.00  0.00     0.001 A 
BRANCH  79  83
ATOM     83  C   UNL A   1      31.315  26.871  26.486  1.00  0.00     0.256 C 
ATOM     84  O   UNL A   1      31.306  27.647  27.449  1.00  0.00    -0.269 OA
ATOM     85  N   UNL A   1      31.541  25.546  26.779  1.00  0.00    -0.322 N 
ATOM     86  H   UNL A   1      31.543  25.345  27.742  1.00  0.00     0.170 HD
BRANCH  85  87
ATOM     87  C   UNL A   1      31.767  24.439  25.966  1.00  0.00     0.041 A 
ATOM     88  C   UNL A   1      32.960  24.427  25.237  1.00  0.00     0.028 A 
ATOM     89  C   UNL A   1      30.899  23.355  25.910  1.00  0.00     0.028 A 
ATOM     90  C   UNL A   1      33.396  23.238  24.655  1.00  0.00     0.029 A 
ATOM     91  C   UNL A   1      31.287  22.202  25.224  1.00  0.00     0.029 A 
ATOM     92  C   UNL A   1      32.580  22.104  24.686  1.00  0.00     0.052 A 
BRANCH  92  93
ATOM     93  N   UNL A   1      33.099  20.838  24.354  1.00  0.00    -0.250 N 
ATOM     94  C   UNL A   1      32.542  19.990  23.388  1.00  0.00     0.237 C 
ATOM     95  C   UNL A   1      34.069  20.181  25.142  1.00  0.00     0.237 C 
ATOM     96  O   UNL A   1      31.821  20.237  22.438  1.00  0.00    -0.274 OA
ATOM     97  C   UNL A   1      32.899  18.637  23.898  1.00  0.00     0.095 C 
ATOM     98  C   UNL A   1      34.309  18.908  24.390  1.00  0.00     0.095 C 
ATOM     99  O   UNL A   1      34.661  20.544  26.138  1.00  0.00    -0.274 OA
ATOM    100  C   UNL A   1      33.028  17.237  23.296  1.00  0.00     0.002 C 
ATOM    101  C   UNL A   1      34.769  17.496  24.724  1.00  0.00     0.002 C 
ATOM    102  C   UNL A   1      32.641  16.300  24.463  1.00  0.00     0.005 C 
ATOM    103  C   UNL A   1      34.545  16.932  23.298  1.00  0.00     0.009 C 
ATOM    104  C   UNL A   1      33.737  16.642  25.516  1.00  0.00     0.005 C 
ENDBRANCH  92  93
ENDBRANCH  85  87
ENDBRANCH  79  83
ENDBRANCH  74  77
ENDBRANCH  72  73
ENDBRANCH   1  72
TORSDOF 16
ENDMDL
MODEL 2
REMARK VINA RESULT:     -13.7      2.637      9.128
REMARK SMILES O=C(NCCCNC(=O)c1ccccc1C(=O)Nc1ccc(N2C(=O)[C@H]3[C@@H]4CC[C@@H](C4)[C@@H]3C2=O)cc1)c1ccc(-c2c3nc(c(-c4cc(S(=O)(=O)[O-])ccc4F)c4ccc([nH]4)c(-c4cc(S(=O)(=O)[O-])ccc4F)c4nc(c(-c5cc(S(=O)(=O)[O-])ccc5F)c5ccc2[nH]5)C=C4)C=C3)cc1
REMARK SMILES IDX 5 1 4 2 3 3 1 4 2 5 37 7 38 8 99 9 39 10 98 11 40 12 41 13
REMARK SMILES IDX 42 14 92 15 43 16 97 17 91 18 93 19 44 20 96 21 90 22 89 23
REMARK SMILES IDX 45 25 77 26 57 27 76 28 58 29 61 30 75 31 94 32 59 33 60 34
REMARK SMILES IDX 74 36 95 37 62 38 46 39 47 40 55 41 48 42 54 43 56 44 53 45
REMARK SMILES IDX 49 46 50 47 51 48 52 49 78 50 79 51 87 52 80 53 86 54 88 55
REMARK SMILES IDX 85 56 81 57 82 58 83 59 84 60 63 61 64 62 72 63 65 64 71 65
REMARK SMILES IDX 73 66 70 67 66 68 67 69 68 70 69 71 6 72 7 73 8 74 9 76
REMARK SMILES IDX 10 77 11 78 15 79 12 80 14 81 13 82 16 83 17 84 18 85 19 87
REMARK SMILES IDX 20 88 36 89 21 90 35 91 22 92 23 93 24 94 33 95 25 96 26 97
REMARK SMILES IDX 32 98 34 99 27 100 30 101 28 102 31 103 29 104
REMARK H PARENT 3 6 93 24 61 35 7 75 18 86
REMARK Flexibility Score: inf
ROOT
ATOM      1  C   UNL A   1      32.702  27.737  25.868  1.00  0.00     0.042 C 
ENDROOT
BRANCH   1   2
ATOM      2  C   UNL A   1      33.261  29.035  25.297  1.00  0.00     0.118 C 
BRANCH   2   3
ATOM      3  N   UNL A   1      32.682  30.236  25.890  1.00  0.00    -0.352 N 
ATOM      4  O   UNL A   1      32.563  31.973  27.339  1.00  0.00    -0.269 OA
ATOM      5  C   UNL A   1      33.202  31.026  26.893  1.00  0.00     0.251 C 
ATOM      6  H   UNL A   1      31.812  30.518  25.527  1.00  0.00     0.163 HD
BRANCH   5   7
ATOM      7  C   UNL A   1      34.526  30.677  27.450  1.00  0.00     0.039 A 
ATOM      8  C   UNL A   1      34.767  29.383  27.912  1.00  0.00     0.014 A 
ATOM      9  C   UNL A   1      35.483  31.681  27.614  1.00  0.00     0.014 A 
ATOM     10  C   UNL A   1      35.879  29.142  28.708  1.00  0.00     0.010 A 
ATOM     11  C   UNL A   1      36.656  31.403  28.324  1.00  0.00     0.010 A 
ATOM     12  C   UNL A   1      36.842  30.144  28.916  1.00  0.00    -0.014 A 
BRANCH  12  13
ATOM     13  C   UNL A   1      38.053  29.830  29.718  1.00  0.00     0.031 A 
ATOM     14  C   UNL A   1      38.206  30.322  31.134  1.00  0.00     0.074 A 
ATOM     15  C   UNL A   1      39.008  29.060  29.160  1.00  0.00     0.049 A 
ATOM     16  N   UNL A   1      39.208  30.156  31.959  1.00  0.00    -0.248 NA
ATOM     17  C   UNL A   1      37.096  31.109  31.694  1.00  0.00     0.031 C 
ATOM     18  C   UNL A   1      38.962  28.526  27.795  1.00  0.00     0.029 A 
ATOM     19  N   UNL A   1      40.186  28.575  29.664  1.00  0.00    -0.354 N 
ATOM     20  C   UNL A   1      38.868  30.838  33.124  1.00  0.00     0.074 A 
ATOM     21  C   UNL A   1      37.570  31.437  32.890  1.00  0.00     0.031 C 
ATOM     22  C   UNL A   1      40.032  27.747  27.590  1.00  0.00     0.029 A 
ATOM     23  C   UNL A   1      40.884  27.795  28.771  1.00  0.00     0.049 A 
ATOM     24  H   UNL A   1      40.502  28.766  30.576  1.00  0.00     0.167 HD
ATOM     25  C   UNL A   1      39.575  30.950  34.277  1.00  0.00     0.034 A 
ATOM     26  C   UNL A   1      42.091  27.208  28.873  1.00  0.00     0.034 A 
ATOM     27  C   UNL A   1      40.861  30.329  34.496  1.00  0.00     0.049 A 
ATOM     28  C   UNL A   1      42.861  27.370  30.154  1.00  0.00     0.074 A 
ATOM     29  C   UNL A   1      41.648  30.351  35.635  1.00  0.00     0.029 A 
ATOM     30  N   UNL A   1      41.554  29.577  33.554  1.00  0.00    -0.354 N 
ATOM     31  N   UNL A   1      42.522  28.022  31.242  1.00  0.00    -0.248 NA
ATOM     32  C   UNL A   1      44.174  26.720  30.220  1.00  0.00     0.031 C 
ATOM     33  C   UNL A   1      42.838  29.666  35.364  1.00  0.00     0.029 A 
ATOM     34  C   UNL A   1      42.768  29.157  34.078  1.00  0.00     0.049 A 
ATOM     35  H   UNL A   1      41.230  29.372  32.648  1.00  0.00     0.167 HD
ATOM     36  C   UNL A   1      43.579  27.848  32.129  1.00  0.00     0.074 A 
ATOM     37  C   UNL A   1      44.551  27.009  31.455  1.00  0.00     0.031 C 
ATOM     38  C   UNL A   1      43.734  28.338  33.384  1.00  0.00     0.034 A 
BRANCH  25  39
ATOM     39  C   UNL A   1      38.999  31.815  35.375  1.00  0.00     0.023 A 
ATOM     40  C   UNL A   1      38.432  31.267  36.538  1.00  0.00     0.031 A 
ATOM     41  C   UNL A   1      39.031  33.217  35.256  1.00  0.00     0.131 A 
ATOM     42  C   UNL A   1      37.873  32.113  37.510  1.00  0.00     0.055 A 
ATOM     43  C   UNL A   1      38.535  34.055  36.257  1.00  0.00     0.041 A 
ATOM     44  F   UNL A   1      39.545  33.797  34.160  1.00  0.00    -0.206 F 
ATOM     45  C   UNL A   1      37.941  33.503  37.388  1.00  0.00     0.022 A 
BRANCH  42  46
ATOM     46  S   UNL A   1      36.956  31.371  38.889  1.00  0.00     0.124 S 
ATOM     47  O   UNL A   1      37.897  31.535  39.994  1.00  0.00    -0.237 OA
ATOM     48  O   UNL A   1      35.754  32.194  38.947  1.00  0.00    -0.237 OA
ATOM     49  O   UNL A   1      36.746  29.990  38.460  1.00  0.00    -0.744 OA
ENDBRANCH  42  46
ENDBRANCH  25  39
BRANCH  26  50
ATOM     50  C   UNL A   1      42.658  26.459  27.718  1.00  0.00     0.023 A 
ATOM     51  C   UNL A   1      42.265  25.142  27.444  1.00  0.00     0.031 A 
ATOM     52  C   UNL A   1      43.621  27.050  26.880  1.00  0.00     0.131 A 
ATOM     53  C   UNL A   1      42.858  24.445  26.381  1.00  0.00     0.055 A 
ATOM     54  C   UNL A   1      44.167  26.373  25.790  1.00  0.00     0.041 A 
ATOM     55  F   UNL A   1      44.029  28.311  27.097  1.00  0.00    -0.206 F 
ATOM     56  C   UNL A   1      43.795  25.055  25.544  1.00  0.00     0.022 A 
BRANCH  53  57
ATOM     57  S   UNL A   1      42.448  22.692  26.156  1.00  0.00     0.124 S 
ATOM     58  O   UNL A   1      41.000  22.700  26.335  1.00  0.00    -0.237 OA
ATOM     59  O   UNL A   1      42.925  22.443  24.800  1.00  0.00    -0.237 OA
ATOM     60  O   UNL A   1      43.205  22.028  27.214  1.00  0.00    -0.744 OA
ENDBRANCH  53  57
ENDBRANCH  26  50
BRANCH  38  61
ATOM     61  C   UNL A   1      44.995  27.942  34.108  1.00  0.00     0.023 A 
ATOM     62  C   UNL A   1      45.067  26.759  34.863  1.00  0.00     0.031 A 
ATOM     63  C   UNL A   1      46.124  28.779  34.075  1.00  0.00     0.131 A 
ATOM     64  C   UNL A   1      46.223  26.473  35.604  1.00  0.00     0.055 A 
ATOM     65  C   UNL A   1      47.292  28.461  34.769  1.00  0.00     0.041 A 
ATOM     66  F   UNL A   1      46.105  29.923  33.372  1.00  0.00    -0.206 F 
ATOM     67  C   UNL A   1      47.341  27.310  35.551  1.00  0.00     0.022 A 
BRANCH  64  68
ATOM     68  S   UNL A   1      46.212  25.041  36.717  1.00  0.00     0.124 S 
ATOM     69  O   UNL A   1      47.542  25.112  37.315  1.00  0.00    -0.237 OA
ATOM     70  O   UNL A   1      45.096  25.347  37.606  1.00  0.00    -0.237 OA
ATOM     71  O   UNL A   1      45.996  23.909  35.818  1.00  0.00    -0.744 OA
ENDBRANCH  64  68
ENDBRANCH  38  61
ENDBRANCH  12  13
ENDBRANCH   5   7
ENDBRANCH   2   3
ENDBRANCH   1   2
BRANCH   1  72
ATOM     72  C   UNL A   1      33.634  26.555  25.687  1.00  0.00     0.118 C 
BRANCH  72  73
ATOM     73  N   UNL A   1      33.218  25.406  26.471  1.00  0.00    -0.352 N 
ATOM     74  C   UNL A   1      33.611  24.103  26.366  1.00  0.00     0.252 C 
ATOM     75  H   UNL A   1      32.559  25.593  27.177  1.00  0.00     0.163 HD
ATOM     76  O   UNL A   1      33.074  23.238  27.054  1.00  0.00    -0.269 OA
BRANCH  74  77
ATOM     77  C   UNL A   1      34.578  23.686  25.341  1.00  0.00     0.052 A 
ATOM     78  C   UNL A   1      35.892  24.098  25.657  1.00  0.00     0.014 A 
ATOM     79  C   UNL A   1      34.328  22.928  24.186  1.00  0.00     0.052 A 
ATOM     80  C   UNL A   1      36.976  23.708  24.881  1.00  0.00     0.001 A 
ATOM     81  C   UNL A   1      35.453  22.535  23.425  1.00  0.00     0.014 A 
ATOM     82  C   UNL A   1      36.757  22.909  23.769  1.00  0.00     0.001 A 
BRANCH  79  83
ATOM     83  C   UNL A   1      33.038  22.329  23.718  1.00  0.00     0.256 C 
ATOM     84  O   UNL A   1      33.024  21.109  23.518  1.00  0.00    -0.269 OA
ATOM     85  N   UNL A   1      31.833  22.978  23.589  1.00  0.00    -0.322 N 
ATOM     86  H   UNL A   1      31.064  22.373  23.477  1.00  0.00     0.170 HD
BRANCH  85  87
ATOM     87  C   UNL A   1      31.498  24.329  23.588  1.00  0.00     0.041 A 
ATOM     88  C   UNL A   1      32.173  25.144  22.675  1.00  0.00     0.028 A 
ATOM     89  C   UNL A   1      30.502  24.859  24.399  1.00  0.00     0.028 A 
ATOM     90  C   UNL A   1      31.685  26.420  22.403  1.00  0.00     0.029 A 
ATOM     91  C   UNL A   1      30.091  26.180  24.205  1.00  0.00     0.029 A 
ATOM     92  C   UNL A   1      30.609  26.928  23.135  1.00  0.00     0.052 A 
BRANCH  92  93
ATOM     93  N   UNL A   1      29.930  28.084  22.705  1.00  0.00    -0.250 N 
ATOM     94  C   UNL A   1      30.567  29.256  22.279  1.00  0.00     0.237 C 
ATOM     95  C   UNL A   1      28.546  28.276  22.910  1.00  0.00     0.237 C 
ATOM     96  O   UNL A   1      31.692  29.435  21.847  1.00  0.00    -0.274 OA
ATOM     97  C   UNL A   1      29.586  30.313  22.650  1.00  0.00     0.095 C 
ATOM     98  C   UNL A   1      28.293  29.610  22.278  1.00  0.00     0.095 C 
ATOM     99  O   UNL A   1      27.706  27.542  23.390  1.00  0.00    -0.274 OA
ATOM    100  C   UNL A   1      29.309  31.754  22.216  1.00  0.00     0.002 C 
ATOM    101  C   UNL A   1      27.293  30.745  22.451  1.00  0.00     0.002 C 
ATOM    102  C   UNL A   1      28.752  32.421  23.494  1.00  0.00     0.005 C 
ATOM    103  C   UNL A   1      27.976  31.693  21.433  1.00  0.00     0.009 C 
ATOM    104  C   UNL A   1      27.468  31.577  23.753  1.00  0.00     0.005 C 
ENDBRANCH  92  93
ENDBRANCH  85  87
ENDBRANCH  79  83
ENDBRANCH  74  77
ENDBRANCH  72  73
ENDBRANCH   1  72
TORSDOF 16
ENDMDL
MODEL 3
REMARK VINA RESULT:     -13.7      4.962      7.811
REMARK SMILES O=C(NCCCNC(=O)c1ccccc1C(=O)Nc1ccc(N2C(=O)[C@H]3[C@@H]4CC[C@@H](C4)[C@@H]3C2=O)cc1)c1ccc(-c2c3nc(c(-c4cc(S(=O)(=O)[O-])ccc4F)c4ccc([nH]4)c(-c4cc(S(=O)(=O)[O-])ccc4F)c4nc(c(-c5cc(S(=O)(=O)[O-])ccc5F)c5ccc2[nH]5)C=C4)C=C3)cc1
REMARK SMILES IDX 5 1 4 2 3 3 1 4 2 5 37 7 38 8 99 9 39 10 98 11 40 12 41 13
REMARK SMILES IDX 42 14 92 15 43 16 97 17 91 18 93 19 44 20 96 21 90 22 89 23
REMARK SMILES IDX 45 25 77 26 57 27 76 28 58 29 61 30 75 31 94 32 59 33 60 34
REMARK SMILES IDX 74 36 95 37 62 38 46 39 47 40 55 41 48 42 54 43 56 44 53 45
REMARK SMILES IDX 49 46 50 47 51 48 52 49 78 50 79 51 87 52 80 53 86 54 88 55
REMARK SMILES IDX 85 56 81 57 82 58 83 59 84 60 63 61 64 62 72 63 65 64 71 65
REMARK SMILES IDX 73 66 70 67 66 68 67 69 68 70 69 71 6 72 7 73 8 74 9 76
REMARK SMILES IDX 10 77 11 78 15 79 12 80 14 81 13 82 16 83 17 84 18 85 19 87
REMARK SMILES IDX 20 88 36 89 21 90 35 91 22 92 23 93 24 94 33 95 25 96 26 97
REMARK SMILES IDX 32 98 34 99 27 100 30 101 28 102 31 103 29 104
REMARK H PARENT 3 6 93 24 61 35 7 75 18 86
REMARK Flexibility Score: inf
ROOT
ATOM      1  C   UNL A   1      34.953  23.814  25.802  1.00  0.00     0.042 C 
ENDROOT
BRANCH   1   2
ATOM      2  C   UNL A   1      36.425  24.073  26.100  1.00  0.00     0.118 C 
BRANCH   2   3
ATOM      3  N   UNL A   1      37.263  22.883  26.005  1.00  0.00    -0.352 N 
ATOM      4  O   UNL A   1      39.197  21.706  26.091  1.00  0.00    -0.269 OA
ATOM      5  C   UNL A   1      38.608  22.763  26.286  1.00  0.00     0.251 C 
ATOM      6  H   UNL A   1      36.812  22.062  25.702  1.00  0.00     0.163 HD
BRANCH   5   7
ATOM      7  C   UNL A   1      39.331  23.951  26.784  1.00  0.00     0.039 A 
ATOM      8  C   UNL A   1      39.311  24.259  28.145  1.00  0.00     0.014 A 
ATOM      9  C   UNL A   1      39.931  24.818  25.869  1.00  0.00     0.014 A 
ATOM     10  C   UNL A   1      39.715  25.519  28.564  1.00  0.00     0.010 A 
ATOM     11  C   UNL A   1      40.438  26.044  26.313  1.00  0.00     0.010 A 
ATOM     12  C   UNL A   1      40.292  26.424  27.656  1.00  0.00    -0.014 A 
BRANCH  12  13
ATOM     13  C   UNL A   1      40.775  27.740  28.152  1.00  0.00     0.031 A 
ATOM     14  C   UNL A   1      42.236  28.104  28.115  1.00  0.00     0.074 A 
ATOM     15  C   UNL A   1      39.866  28.623  28.611  1.00  0.00     0.049 A 
ATOM     16  N   UNL A   1      42.822  29.199  28.530  1.00  0.00    -0.248 NA
ATOM     17  C   UNL A   1      43.161  27.111  27.548  1.00  0.00     0.031 C 
ATOM     18  C   UNL A   1      38.423  28.375  28.689  1.00  0.00     0.029 A 
ATOM     19  N   UNL A   1      40.006  29.904  29.076  1.00  0.00    -0.354 N 
ATOM     20  C   UNL A   1      44.184  29.019  28.303  1.00  0.00     0.074 A 
ATOM     21  C   UNL A   1      44.338  27.698  27.729  1.00  0.00     0.031 C 
ATOM     22  C   UNL A   1      37.808  29.484  29.123  1.00  0.00     0.029 A 
ATOM     23  C   UNL A   1      38.815  30.490  29.436  1.00  0.00     0.049 A 
ATOM     24  H   UNL A   1      40.875  30.361  29.146  1.00  0.00     0.167 HD
ATOM     25  C   UNL A   1      45.204  29.878  28.552  1.00  0.00     0.034 A 
ATOM     26  C   UNL A   1      38.557  31.690  29.988  1.00  0.00     0.034 A 
ATOM     27  C   UNL A   1      45.026  31.199  29.109  1.00  0.00     0.049 A 
ATOM     28  C   UNL A   1      39.711  32.610  30.273  1.00  0.00     0.074 A 
ATOM     29  C   UNL A   1      45.986  32.163  29.370  1.00  0.00     0.029 A 
ATOM     30  N   UNL A   1      43.807  31.744  29.495  1.00  0.00    -0.354 N 
ATOM     31  N   UNL A   1      40.990  32.419  30.054  1.00  0.00    -0.248 NA
ATOM     32  C   UNL A   1      39.385  33.905  30.882  1.00  0.00     0.031 C 
ATOM     33  C   UNL A   1      45.358  33.261  29.969  1.00  0.00     0.029 A 
ATOM     34  C   UNL A   1      43.996  33.015  30.018  1.00  0.00     0.049 A 
ATOM     35  H   UNL A   1      42.937  31.294  29.410  1.00  0.00     0.167 HD
ATOM     36  C   UNL A   1      41.623  33.579  30.487  1.00  0.00     0.074 A 
ATOM     37  C   UNL A   1      40.579  34.470  30.954  1.00  0.00     0.031 C 
ATOM     38  C   UNL A   1      42.946  33.881  30.500  1.00  0.00     0.034 A 
BRANCH  25  39
ATOM     39  C   UNL A   1      46.611  29.401  28.271  1.00  0.00     0.023 A 
ATOM     40  C   UNL A   1      47.390  28.756  29.246  1.00  0.00     0.031 A 
ATOM     41  C   UNL A   1      47.176  29.590  26.995  1.00  0.00     0.131 A 
ATOM     42  C   UNL A   1      48.707  28.369  28.947  1.00  0.00     0.055 A 
ATOM     43  C   UNL A   1      48.462  29.142  26.684  1.00  0.00     0.041 A 
ATOM     44  F   UNL A   1      46.487  30.215  26.029  1.00  0.00    -0.206 F 
ATOM     45  C   UNL A   1      49.240  28.537  27.666  1.00  0.00     0.022 A 
BRANCH  42  46
ATOM     46  S   UNL A   1      49.757  27.739  30.286  1.00  0.00     0.124 S 
ATOM     47  O   UNL A   1      48.796  26.984  31.086  1.00  0.00    -0.237 OA
ATOM     48  O   UNL A   1      50.748  26.950  29.565  1.00  0.00    -0.237 OA
ATOM     49  O   UNL A   1      50.268  28.952  30.922  1.00  0.00    -0.744 OA
ENDBRANCH  42  46
ENDBRANCH  25  39
BRANCH  26  50
ATOM     50  C   UNL A   1      37.161  32.064  30.346  1.00  0.00     0.023 A 
ATOM     51  C   UNL A   1      36.283  32.594  29.390  1.00  0.00     0.031 A 
ATOM     52  C   UNL A   1      36.690  31.910  31.663  1.00  0.00     0.131 A 
ATOM     53  C   UNL A   1      34.992  32.987  29.772  1.00  0.00     0.055 A 
ATOM     54  C   UNL A   1      35.387  32.249  32.026  1.00  0.00     0.041 A 
ATOM     55  F   UNL A   1      37.489  31.401  32.615  1.00  0.00    -0.206 F 
ATOM     56  C   UNL A   1      34.533  32.805  31.079  1.00  0.00     0.022 A 
BRANCH  53  57
ATOM     57  S   UNL A   1      33.942  33.821  28.551  1.00  0.00     0.124 S 
ATOM     58  O   UNL A   1      34.903  34.683  27.871  1.00  0.00    -0.237 OA
ATOM     59  O   UNL A   1      33.429  32.696  27.776  1.00  0.00    -0.237 OA
ATOM     60  O   UNL A   1      32.952  34.514  29.371  1.00  0.00    -0.744 OA
ENDBRANCH  53  57
ENDBRANCH  26  50
BRANCH  38  61
ATOM     61  C   UNL A   1      43.317  35.249  31.011  1.00  0.00     0.023 A 
ATOM     62  C   UNL A   1      43.453  36.345  30.143  1.00  0.00     0.031 A 
ATOM     63  C   UNL A   1      43.577  35.448  32.378  1.00  0.00     0.131 A 
ATOM     64  C   UNL A   1      43.897  37.579  30.640  1.00  0.00     0.055 A 
ATOM     65  C   UNL A   1      43.964  36.692  32.877  1.00  0.00     0.041 A 
ATOM     66  F   UNL A   1      43.466  34.432  33.249  1.00  0.00    -0.206 F 
ATOM     67  C   UNL A   1      44.140  37.763  32.004  1.00  0.00     0.022 A 
BRANCH  64  68
ATOM     68  S   UNL A   1      44.247  38.917  29.466  1.00  0.00     0.124 S 
ATOM     69  O   UNL A   1      44.893  38.198  28.372  1.00  0.00    -0.237 OA
ATOM     70  O   UNL A   1      42.915  39.441  29.186  1.00  0.00    -0.237 OA
ATOM     71  O   UNL A   1      45.120  39.814  30.219  1.00  0.00    -0.744 OA
ENDBRANCH  64  68
ENDBRANCH  38  61
ENDBRANCH  12  13
ENDBRANCH   5   7
ENDBRANCH   2   3
ENDBRANCH   1   2
BRANCH   1  72
ATOM     72  C   UNL A   1      34.212  25.051  25.335  1.00  0.00     0.118 C 
BRANCH  72  73
ATOM     73  N   UNL A   1      33.206  25.480  26.290  1.00  0.00    -0.352 N 
ATOM     74  C   UNL A   1      32.253  26.448  26.163  1.00  0.00     0.252 C 
ATOM     75  H   UNL A   1      33.213  25.005  27.152  1.00  0.00     0.163 HD
ATOM     76  O   UNL A   1      31.544  26.748  27.121  1.00  0.00    -0.269 OA
BRANCH  74  77
ATOM     77  C   UNL A   1      32.146  27.245  24.933  1.00  0.00     0.052 A 
ATOM     78  C   UNL A   1      33.262  28.093  24.755  1.00  0.00     0.014 A 
ATOM     79  C   UNL A   1      31.126  27.201  23.970  1.00  0.00     0.052 A 
ATOM     80  C   UNL A   1      33.419  28.846  23.598  1.00  0.00     0.001 A 
ATOM     81  C   UNL A   1      31.319  27.969  22.798  1.00  0.00     0.014 A 
ATOM     82  C   UNL A   1      32.450  28.771  22.609  1.00  0.00     0.001 A 
BRANCH  79  83
ATOM     83  C   UNL A   1      29.913  26.323  23.927  1.00  0.00     0.256 C 
ATOM     84  O   UNL A   1      28.812  26.885  23.917  1.00  0.00    -0.269 OA
ATOM     85  N   UNL A   1      29.897  24.956  23.788  1.00  0.00    -0.322 N 
ATOM     86  H   UNL A   1      29.011  24.588  23.566  1.00  0.00     0.170 HD
BRANCH  85  87
ATOM     87  C   UNL A   1      30.898  23.996  23.903  1.00  0.00     0.041 A 
ATOM     88  C   UNL A   1      30.873  23.194  25.047  1.00  0.00     0.028 A 
ATOM     89  C   UNL A   1      31.852  23.781  22.916  1.00  0.00     0.028 A 
ATOM     90  C   UNL A   1      31.638  22.030  25.086  1.00  0.00     0.029 A 
ATOM     91  C   UNL A   1      32.702  22.676  23.014  1.00  0.00     0.029 A 
ATOM     92  C   UNL A   1      32.524  21.741  24.045  1.00  0.00     0.052 A 
BRANCH  92  93
ATOM     93  N   UNL A   1      33.097  20.460  23.926  1.00  0.00    -0.250 N 
ATOM     94  C   UNL A   1      32.571  19.436  23.128  1.00  0.00     0.237 C 
ATOM     95  C   UNL A   1      34.102  19.990  24.799  1.00  0.00     0.237 C 
ATOM     96  O   UNL A   1      31.831  19.485  22.161  1.00  0.00    -0.274 OA
ATOM     97  C   UNL A   1      32.992  18.207  23.855  1.00  0.00     0.095 C 
ATOM     98  C   UNL A   1      34.393  18.619  24.272  1.00  0.00     0.095 C 
ATOM     99  O   UNL A   1      34.685  20.543  25.708  1.00  0.00    -0.274 OA
ATOM    100  C   UNL A   1      33.180  16.731  23.499  1.00  0.00     0.002 C 
ATOM    101  C   UNL A   1      34.920  17.305  24.834  1.00  0.00     0.002 C 
ATOM    102  C   UNL A   1      32.846  15.992  24.814  1.00  0.00     0.005 C 
ATOM    103  C   UNL A   1      34.709  16.497  23.528  1.00  0.00     0.009 C 
ATOM    104  C   UNL A   1      33.934  16.556  25.776  1.00  0.00     0.005 C 
ENDBRANCH  92  93
ENDBRANCH  85  87
ENDBRANCH  79  83
ENDBRANCH  74  77
ENDBRANCH  72  73
ENDBRANCH   1  72
TORSDOF 16
ENDMDL
