MODEL 1
REMARK VINA RESULT:     -12.1      0.000      0.000
REMARK SMILES Cc1cc(NC(=O)c2ccc(Br)nc2)sc1C(=O)NCCCNC(=O)c1ccc(-c2c3nc(c(-c4cc(S(=O)(=O)[O-])ccc4F)c4ccc([nH]4)c(-c4cc(S(=O)(=O)[O-])ccc4F)c4nc(c(-c5cc(S(=O)(=O)[O-])ccc5F)c5ccc2[nH]5)C=C4)C=C3)cc1
REMARK SMILES IDX 21 1 20 2 19 3 17 4 18 5 16 7 1 8 2 9 3 10 4 11 15 12 5 13
REMARK SMILES IDX 6 14 7 16 8 17 9 18 14 19 10 20 13 21 11 22 12 23 22 24
REMARK SMILES IDX 23 25 24 26 25 28 26 29 27 30 88 31 28 32 87 33 29 34 30 35
REMARK SMILES IDX 31 36 81 37 32 38 86 39 80 40 82 41 33 42 85 43 79 44 78 45
REMARK SMILES IDX 34 47 66 48 46 49 65 50 47 51 50 52 64 53 83 54 48 55 49 56
REMARK SMILES IDX 63 58 84 59 51 60 35 61 36 62 44 63 37 64 43 65 45 66 42 67
REMARK SMILES IDX 38 68 39 69 40 70 41 71 67 72 68 73 76 74 69 75 75 76 77 77
REMARK SMILES IDX 74 78 70 79 71 80 72 81 73 82 52 83 53 84 61 85 54 86 60 87
REMARK SMILES IDX 62 88 59 89 55 90 56 91 57 92 58 93
REMARK H PARENT 19 6 5 15 23 27 82 46 50 57
REMARK Flexibility Score: inf
ROOT
ATOM      1  C   UNL A   1      31.418  32.326  26.505  1.00  0.00     0.042 C 
ENDROOT
BRANCH   1   2
ATOM      2  C   UNL A   1      31.277  30.834  26.225  1.00  0.00     0.118 C 
BRANCH   2   3
ATOM      3  N   UNL A   1      32.339  30.338  25.385  1.00  0.00    -0.351 N 
ATOM      4  C   UNL A   1      32.517  29.187  24.660  1.00  0.00     0.261 C 
ATOM      5  O   UNL A   1      33.499  29.253  23.908  1.00  0.00    -0.268 OA
ATOM      6  H   UNL A   1      33.101  30.959  25.317  1.00  0.00     0.163 HD
BRANCH   4   7
ATOM      7  C   UNL A   1      31.676  27.986  24.741  1.00  0.00     0.097 A 
ATOM      8  C   UNL A   1      30.586  27.275  22.435  1.00  0.00     0.046 C 
ATOM      9  C   UNL A   1      30.826  27.255  23.904  1.00  0.00    -0.025 A 
ATOM     10  C   UNL A   1      30.021  26.349  24.667  1.00  0.00     0.042 A 
ATOM     11  C   UNL A   1      30.598  26.034  25.860  1.00  0.00     0.096 A 
ATOM     12  S   UNL A   1      31.690  27.221  26.334  1.00  0.00    -0.112 S 
BRANCH  11  13
ATOM     13  N   UNL A   1      30.438  24.961  26.701  1.00  0.00    -0.313 N 
ATOM     14  C   UNL A   1      31.136  23.767  26.631  1.00  0.00     0.257 C 
ATOM     15  H   UNL A   1      29.766  25.047  27.415  1.00  0.00     0.171 HD
ATOM     16  O   UNL A   1      30.813  22.794  27.304  1.00  0.00    -0.269 OA
BRANCH  14  17
ATOM     17  C   UNL A   1      32.344  23.662  25.784  1.00  0.00     0.058 A 
ATOM     18  C   UNL A   1      32.290  23.165  24.478  1.00  0.00     0.018 A 
ATOM     19  C   UNL A   1      33.584  23.944  26.335  1.00  0.00     0.126 A 
ATOM     20  C   UNL A   1      33.482  22.891  23.807  1.00  0.00     0.037 A 
ATOM     21  N   UNL A   1      34.755  23.689  25.699  1.00  0.00    -0.249 NA
ATOM     22  C   UNL A   1      34.681  23.153  24.458  1.00  0.00     0.106 A 
ATOM     23  Br  UNL A   1      36.304  22.684  23.600  1.00  0.00    -0.029 Br
ENDBRANCH  14  17
ENDBRANCH  11  13
ENDBRANCH   4   7
ENDBRANCH   2   3
ENDBRANCH   1   2
BRANCH   1  24
ATOM     24  C   UNL A   1      32.646  32.702  27.317  1.00  0.00     0.118 C 
BRANCH  24  25
ATOM     25  N   UNL A   1      32.612  34.101  27.714  1.00  0.00    -0.352 N 
ATOM     26  C   UNL A   1      33.259  34.756  28.735  1.00  0.00     0.251 C 
ATOM     27  H   UNL A   1      32.031  34.672  27.162  1.00  0.00     0.163 HD
ATOM     28  O   UNL A   1      32.852  35.865  29.067  1.00  0.00    -0.269 OA
BRANCH  26  29
ATOM     29  C   UNL A   1      34.415  34.145  29.435  1.00  0.00     0.039 A 
ATOM     30  C   UNL A   1      34.173  33.241  30.475  1.00  0.00     0.014 A 
ATOM     31  C   UNL A   1      35.732  34.498  29.125  1.00  0.00     0.014 A 
ATOM     32  C   UNL A   1      35.242  32.663  31.165  1.00  0.00     0.010 A 
ATOM     33  C   UNL A   1      36.795  33.849  29.746  1.00  0.00     0.010 A 
ATOM     34  C   UNL A   1      36.565  32.938  30.786  1.00  0.00    -0.014 A 
BRANCH  34  35
ATOM     35  C   UNL A   1      37.719  32.312  31.483  1.00  0.00     0.031 A 
ATOM     36  C   UNL A   1      38.470  31.181  30.830  1.00  0.00     0.074 A 
ATOM     37  C   UNL A   1      38.050  32.721  32.723  1.00  0.00     0.049 A 
ATOM     38  N   UNL A   1      39.442  30.447  31.306  1.00  0.00    -0.248 NA
ATOM     39  C   UNL A   1      38.046  30.806  29.473  1.00  0.00     0.031 C 
ATOM     40  C   UNL A   1      37.369  33.779  33.473  1.00  0.00     0.029 A 
ATOM     41  N   UNL A   1      39.034  32.292  33.578  1.00  0.00    -0.354 N 
ATOM     42  C   UNL A   1      39.734  29.515  30.315  1.00  0.00     0.074 A 
ATOM     43  C   UNL A   1      38.788  29.734  29.243  1.00  0.00     0.031 C 
ATOM     44  C   UNL A   1      37.972  33.934  34.663  1.00  0.00     0.029 A 
ATOM     45  C   UNL A   1      39.047  32.956  34.783  1.00  0.00     0.049 A 
ATOM     46  H   UNL A   1      39.670  31.576  33.351  1.00  0.00     0.167 HD
ATOM     47  C   UNL A   1      40.718  28.580  30.291  1.00  0.00     0.034 A 
ATOM     48  C   UNL A   1      39.830  32.788  35.867  1.00  0.00     0.034 A 
ATOM     49  C   UNL A   1      41.660  28.387  31.367  1.00  0.00     0.049 A 
ATOM     50  C   UNL A   1      40.905  31.731  35.827  1.00  0.00     0.074 A 
ATOM     51  C   UNL A   1      42.726  27.506  31.433  1.00  0.00     0.029 A 
ATOM     52  N   UNL A   1      41.649  29.084  32.569  1.00  0.00    -0.354 N 
ATOM     53  N   UNL A   1      41.196  30.885  34.864  1.00  0.00    -0.248 NA
ATOM     54  C   UNL A   1      41.763  31.615  37.012  1.00  0.00     0.031 C 
ATOM     55  C   UNL A   1      43.313  27.621  32.698  1.00  0.00     0.029 A 
ATOM     56  C   UNL A   1      42.669  28.632  33.392  1.00  0.00     0.049 A 
ATOM     57  H   UNL A   1      41.010  29.795  32.802  1.00  0.00     0.167 HD
ATOM     58  C   UNL A   1      42.292  30.157  35.318  1.00  0.00     0.074 A 
ATOM     59  C   UNL A   1      42.617  30.677  36.631  1.00  0.00     0.031 C 
ATOM     60  C   UNL A   1      42.972  29.154  34.706  1.00  0.00     0.034 A 
BRANCH  47  61
ATOM     61  C   UNL A   1      40.800  27.688  29.074  1.00  0.00     0.023 A 
ATOM     62  C   UNL A   1      41.754  27.902  28.062  1.00  0.00     0.031 A 
ATOM     63  C   UNL A   1      39.894  26.626  28.903  1.00  0.00     0.131 A 
ATOM     64  C   UNL A   1      41.726  27.127  26.893  1.00  0.00     0.055 A 
ATOM     65  C   UNL A   1      39.928  25.800  27.776  1.00  0.00     0.041 A 
ATOM     66  F   UNL A   1      38.945  26.381  29.822  1.00  0.00    -0.206 F 
ATOM     67  C   UNL A   1      40.837  26.059  26.755  1.00  0.00     0.022 A 
BRANCH  64  68
ATOM     68  S   UNL A   1      42.763  27.635  25.494  1.00  0.00     0.124 S 
ATOM     69  O   UNL A   1      42.030  28.794  24.990  1.00  0.00    -0.237 OA
ATOM     70  O   UNL A   1      44.042  27.916  26.135  1.00  0.00    -0.237 OA
ATOM     71  O   UNL A   1      42.748  26.467  24.615  1.00  0.00    -0.744 OA
ENDBRANCH  64  68
ENDBRANCH  47  61
BRANCH  48  72
ATOM     72  C   UNL A   1      39.628  33.628  37.082  1.00  0.00     0.023 A 
ATOM     73  C   UNL A   1      40.432  34.752  37.326  1.00  0.00     0.031 A 
ATOM     74  C   UNL A   1      38.646  33.301  38.034  1.00  0.00     0.131 A 
ATOM     75  C   UNL A   1      40.272  35.483  38.515  1.00  0.00     0.055 A 
ATOM     76  C   UNL A   1      38.454  34.062  39.189  1.00  0.00     0.041 A 
ATOM     77  F   UNL A   1      37.844  32.240  37.847  1.00  0.00    -0.206 F 
ATOM     78  C   UNL A   1      39.279  35.154  39.440  1.00  0.00     0.022 A 
BRANCH  75  79
ATOM     79  S   UNL A   1      41.441  36.823  38.873  1.00  0.00     0.124 S 
ATOM     80  O   UNL A   1      42.086  37.008  37.578  1.00  0.00    -0.237 OA
ATOM     81  O   UNL A   1      40.548  37.894  39.305  1.00  0.00    -0.237 OA
ATOM     82  O   UNL A   1      42.290  36.262  39.921  1.00  0.00    -0.744 OA
ENDBRANCH  75  79
ENDBRANCH  48  72
BRANCH  60  83
ATOM     83  C   UNL A   1      44.163  28.587  35.439  1.00  0.00     0.023 A 
ATOM     84  C   UNL A   1      44.031  27.535  36.364  1.00  0.00     0.031 A 
ATOM     85  C   UNL A   1      45.446  29.118  35.219  1.00  0.00     0.131 A 
ATOM     86  C   UNL A   1      45.153  27.091  37.079  1.00  0.00     0.055 A 
ATOM     87  C   UNL A   1      46.569  28.625  35.885  1.00  0.00     0.041 A 
ATOM     88  F   UNL A   1      45.629  30.124  34.350  1.00  0.00    -0.206 F 
ATOM     89  C   UNL A   1      46.424  27.616  36.832  1.00  0.00     0.022 A 
BRANCH  86  90
ATOM     90  S   UNL A   1      44.914  25.882  38.410  1.00  0.00     0.124 S 
ATOM     91  O   UNL A   1      44.235  24.795  37.714  1.00  0.00    -0.237 OA
ATOM     92  O   UNL A   1      46.283  25.611  38.836  1.00  0.00    -0.237 OA
ATOM     93  O   UNL A   1      44.094  26.602  39.384  1.00  0.00    -0.744 OA
ENDBRANCH  86  90
ENDBRANCH  60  83
ENDBRANCH  34  35
ENDBRANCH  26  29
ENDBRANCH  24  25
ENDBRANCH   1  24
TORSDOF 15
ENDMDL
MODEL 2
REMARK VINA RESULT:     -12.1      4.958      8.457
REMARK SMILES Cc1cc(NC(=O)c2ccc(Br)nc2)sc1C(=O)NCCCNC(=O)c1ccc(-c2c3nc(c(-c4cc(S(=O)(=O)[O-])ccc4F)c4ccc([nH]4)c(-c4cc(S(=O)(=O)[O-])ccc4F)c4nc(c(-c5cc(S(=O)(=O)[O-])ccc5F)c5ccc2[nH]5)C=C4)C=C3)cc1
REMARK SMILES IDX 21 1 20 2 19 3 17 4 18 5 16 7 1 8 2 9 3 10 4 11 15 12 5 13
REMARK SMILES IDX 6 14 7 16 8 17 9 18 14 19 10 20 13 21 11 22 12 23 22 24
REMARK SMILES IDX 23 25 24 26 25 28 26 29 27 30 88 31 28 32 87 33 29 34 30 35
REMARK SMILES IDX 31 36 81 37 32 38 86 39 80 40 82 41 33 42 85 43 79 44 78 45
REMARK SMILES IDX 34 47 66 48 46 49 65 50 47 51 50 52 64 53 83 54 48 55 49 56
REMARK SMILES IDX 63 58 84 59 51 60 35 61 36 62 44 63 37 64 43 65 45 66 42 67
REMARK SMILES IDX 38 68 39 69 40 70 41 71 67 72 68 73 76 74 69 75 75 76 77 77
REMARK SMILES IDX 74 78 70 79 71 80 72 81 73 82 52 83 53 84 61 85 54 86 60 87
REMARK SMILES IDX 62 88 59 89 55 90 56 91 57 92 58 93
REMARK H PARENT 19 6 5 15 23 27 82 46 50 57
REMARK Flexibility Score: inf
ROOT
ATOM      1  C   UNL A   1      36.913  23.255  24.298  1.00  0.00     0.042 C 
ENDROOT
BRANCH   1   2
ATOM      2  C   UNL A   1      35.583  22.949  23.618  1.00  0.00     0.118 C 
BRANCH   2   3
ATOM      3  N   UNL A   1      35.016  21.705  24.074  1.00  0.00    -0.351 N 
ATOM      4  C   UNL A   1      33.784  21.344  24.558  1.00  0.00     0.261 C 
ATOM      5  O   UNL A   1      33.654  20.115  24.643  1.00  0.00    -0.268 OA
ATOM      6  H   UNL A   1      35.649  20.951  24.028  1.00  0.00     0.163 HD
BRANCH   4   7
ATOM      7  C   UNL A   1      32.716  22.270  24.956  1.00  0.00     0.097 A 
ATOM      8  C   UNL A   1      32.560  22.677  27.568  1.00  0.00     0.046 C 
ATOM      9  C   UNL A   1      32.145  22.750  26.140  1.00  0.00    -0.025 A 
ATOM     10  C   UNL A   1      30.896  23.397  25.872  1.00  0.00     0.042 A 
ATOM     11  C   UNL A   1      30.818  23.847  24.589  1.00  0.00     0.096 A 
ATOM     12  S   UNL A   1      31.867  22.998  23.587  1.00  0.00    -0.112 S 
BRANCH  11  13
ATOM     13  N   UNL A   1      30.056  24.830  24.008  1.00  0.00    -0.313 N 
ATOM     14  C   UNL A   1      30.133  26.184  24.285  1.00  0.00     0.257 C 
ATOM     15  H   UNL A   1      29.396  24.546  23.335  1.00  0.00     0.171 HD
ATOM     16  O   UNL A   1      29.301  26.976  23.855  1.00  0.00    -0.269 OA
BRANCH  14  17
ATOM     17  C   UNL A   1      31.275  26.719  25.057  1.00  0.00     0.058 A 
ATOM     18  C   UNL A   1      31.171  27.018  26.419  1.00  0.00     0.018 A 
ATOM     19  C   UNL A   1      32.444  27.054  24.394  1.00  0.00     0.126 A 
ATOM     20  C   UNL A   1      32.207  27.715  27.042  1.00  0.00     0.037 A 
ATOM     21  N   UNL A   1      33.466  27.727  24.980  1.00  0.00    -0.249 NA
ATOM     22  C   UNL A   1      33.320  28.059  26.284  1.00  0.00     0.106 A 
ATOM     23  Br  UNL A   1      34.683  29.101  27.090  1.00  0.00    -0.029 Br
ENDBRANCH  14  17
ENDBRANCH  11  13
ENDBRANCH   4   7
ENDBRANCH   2   3
ENDBRANCH   1   2
BRANCH   1  24
ATOM     24  C   UNL A   1      36.967  22.888  25.773  1.00  0.00     0.118 C 
BRANCH  24  25
ATOM     25  N   UNL A   1      38.094  22.017  26.062  1.00  0.00    -0.352 N 
ATOM     26  C   UNL A   1      39.398  22.318  26.379  1.00  0.00     0.251 C 
ATOM     27  H   UNL A   1      37.892  21.054  26.026  1.00  0.00     0.163 HD
ATOM     28  O   UNL A   1      40.240  21.430  26.287  1.00  0.00    -0.269 OA
BRANCH  26  29
ATOM     29  C   UNL A   1      39.793  23.681  26.812  1.00  0.00     0.039 A 
ATOM     30  C   UNL A   1      39.945  23.936  28.179  1.00  0.00     0.014 A 
ATOM     31  C   UNL A   1      39.954  24.725  25.897  1.00  0.00     0.014 A 
ATOM     32  C   UNL A   1      40.300  25.214  28.619  1.00  0.00     0.010 A 
ATOM     33  C   UNL A   1      40.402  25.971  26.327  1.00  0.00     0.010 A 
ATOM     34  C   UNL A   1      40.562  26.237  27.694  1.00  0.00    -0.014 A 
BRANCH  34  35
ATOM     35  C   UNL A   1      40.972  27.596  28.134  1.00  0.00     0.031 A 
ATOM     36  C   UNL A   1      42.429  27.974  28.157  1.00  0.00     0.074 A 
ATOM     37  C   UNL A   1      40.038  28.465  28.569  1.00  0.00     0.049 A 
ATOM     38  N   UNL A   1      42.996  29.071  28.588  1.00  0.00    -0.248 NA
ATOM     39  C   UNL A   1      43.378  26.966  27.658  1.00  0.00     0.031 C 
ATOM     40  C   UNL A   1      38.599  28.196  28.631  1.00  0.00     0.029 A 
ATOM     41  N   UNL A   1      40.156  29.745  29.049  1.00  0.00    -0.354 N 
ATOM     42  C   UNL A   1      44.365  28.880  28.428  1.00  0.00     0.074 A 
ATOM     43  C   UNL A   1      44.543  27.535  27.925  1.00  0.00     0.031 C 
ATOM     44  C   UNL A   1      37.967  29.287  29.096  1.00  0.00     0.029 A 
ATOM     45  C   UNL A   1      38.956  30.312  29.412  1.00  0.00     0.049 A 
ATOM     46  H   UNL A   1      41.018  30.213  29.127  1.00  0.00     0.167 HD
ATOM     47  C   UNL A   1      45.377  29.755  28.654  1.00  0.00     0.034 A 
ATOM     48  C   UNL A   1      38.684  31.517  29.950  1.00  0.00     0.034 A 
ATOM     49  C   UNL A   1      45.175  31.098  29.143  1.00  0.00     0.049 A 
ATOM     50  C   UNL A   1      39.825  32.468  30.211  1.00  0.00     0.074 A 
ATOM     51  C   UNL A   1      46.119  32.087  29.363  1.00  0.00     0.029 A 
ATOM     52  N   UNL A   1      43.945  31.641  29.492  1.00  0.00    -0.354 N 
ATOM     53  N   UNL A   1      41.112  32.287  30.013  1.00  0.00    -0.248 NA
ATOM     54  C   UNL A   1      39.477  33.786  30.753  1.00  0.00     0.031 C 
ATOM     55  C   UNL A   1      45.468  33.200  29.910  1.00  0.00     0.029 A 
ATOM     56  C   UNL A   1      44.109  32.938  29.953  1.00  0.00     0.049 A 
ATOM     57  H   UNL A   1      43.082  31.173  29.422  1.00  0.00     0.167 HD
ATOM     58  C   UNL A   1      41.722  33.483  30.380  1.00  0.00     0.074 A 
ATOM     59  C   UNL A   1      40.661  34.379  30.793  1.00  0.00     0.031 C 
ATOM     60  C   UNL A   1      43.039  33.815  30.373  1.00  0.00     0.034 A 
BRANCH  47  61
ATOM     61  C   UNL A   1      46.786  29.272  28.395  1.00  0.00     0.023 A 
ATOM     62  C   UNL A   1      47.250  29.009  27.094  1.00  0.00     0.031 A 
ATOM     63  C   UNL A   1      47.669  29.038  29.464  1.00  0.00     0.131 A 
ATOM     64  C   UNL A   1      48.523  28.451  26.900  1.00  0.00     0.055 A 
ATOM     65  C   UNL A   1      48.968  28.566  29.258  1.00  0.00     0.041 A 
ATOM     66  F   UNL A   1      47.280  29.249  30.732  1.00  0.00    -0.206 F 
ATOM     67  C   UNL A   1      49.396  28.254  27.972  1.00  0.00     0.022 A 
BRANCH  64  68
ATOM     68  S   UNL A   1      48.960  27.844  25.247  1.00  0.00     0.124 S 
ATOM     69  O   UNL A   1      49.099  26.409  25.489  1.00  0.00    -0.237 OA
ATOM     70  O   UNL A   1      47.808  28.248  24.449  1.00  0.00    -0.237 OA
ATOM     71  O   UNL A   1      50.207  28.542  24.945  1.00  0.00    -0.744 OA
ENDBRANCH  64  68
ENDBRANCH  47  61
BRANCH  48  72
ATOM     72  C   UNL A   1      37.281  31.895  30.285  1.00  0.00     0.023 A 
ATOM     73  C   UNL A   1      36.401  32.360  29.296  1.00  0.00     0.031 A 
ATOM     74  C   UNL A   1      36.808  31.827  31.608  1.00  0.00     0.131 A 
ATOM     75  C   UNL A   1      35.109  32.781  29.650  1.00  0.00     0.055 A 
ATOM     76  C   UNL A   1      35.505  32.195  31.947  1.00  0.00     0.041 A 
ATOM     77  F   UNL A   1      37.607  31.383  32.593  1.00  0.00    -0.206 F 
ATOM     78  C   UNL A   1      34.650  32.689  30.965  1.00  0.00     0.022 A 
BRANCH  75  79
ATOM     79  S   UNL A   1      34.061  33.532  28.373  1.00  0.00     0.124 S 
ATOM     80  O   UNL A   1      33.162  34.355  29.173  1.00  0.00    -0.237 OA
ATOM     81  O   UNL A   1      35.041  34.250  27.564  1.00  0.00    -0.237 OA
ATOM     82  O   UNL A   1      33.442  32.381  27.722  1.00  0.00    -0.744 OA
ENDBRANCH  75  79
ENDBRANCH  48  72
BRANCH  60  83
ATOM     83  C   UNL A   1      43.393  35.222  30.786  1.00  0.00     0.023 A 
ATOM     84  C   UNL A   1      43.496  35.594  32.138  1.00  0.00     0.031 A 
ATOM     85  C   UNL A   1      43.616  36.209  29.809  1.00  0.00     0.131 A 
ATOM     86  C   UNL A   1      43.752  36.932  32.476  1.00  0.00     0.055 A 
ATOM     87  C   UNL A   1      43.937  37.523  30.152  1.00  0.00     0.041 A 
ATOM     88  F   UNL A   1      43.529  35.911  28.504  1.00  0.00    -0.206 F 
ATOM     89  C   UNL A   1      43.992  37.894  31.492  1.00  0.00     0.022 A 
BRANCH  86  90
ATOM     90  S   UNL A   1      43.670  37.418  34.222  1.00  0.00     0.124 S 
ATOM     91  O   UNL A   1      42.775  38.569  34.174  1.00  0.00    -0.237 OA
ATOM     92  O   UNL A   1      43.134  36.218  34.856  1.00  0.00    -0.237 OA
ATOM     93  O   UNL A   1      45.060  37.726  34.557  1.00  0.00    -0.744 OA
ENDBRANCH  86  90
ENDBRANCH  60  83
ENDBRANCH  34  35
ENDBRANCH  26  29
ENDBRANCH  24  25
ENDBRANCH   1  24
TORSDOF 15
ENDMDL
MODEL 3
REMARK VINA RESULT:     -12.0      2.041      2.428
REMARK SMILES Cc1cc(NC(=O)c2ccc(Br)nc2)sc1C(=O)NCCCNC(=O)c1ccc(-c2c3nc(c(-c4cc(S(=O)(=O)[O-])ccc4F)c4ccc([nH]4)c(-c4cc(S(=O)(=O)[O-])ccc4F)c4nc(c(-c5cc(S(=O)(=O)[O-])ccc5F)c5ccc2[nH]5)C=C4)C=C3)cc1
REMARK SMILES IDX 21 1 20 2 19 3 17 4 18 5 16 7 1 8 2 9 3 10 4 11 15 12 5 13
REMARK SMILES IDX 6 14 7 16 8 17 9 18 14 19 10 20 13 21 11 22 12 23 22 24
REMARK SMILES IDX 23 25 24 26 25 28 26 29 27 30 88 31 28 32 87 33 29 34 30 35
REMARK SMILES IDX 31 36 81 37 32 38 86 39 80 40 82 41 33 42 85 43 79 44 78 45
REMARK SMILES IDX 34 47 66 48 46 49 65 50 47 51 50 52 64 53 83 54 48 55 49 56
REMARK SMILES IDX 63 58 84 59 51 60 35 61 36 62 44 63 37 64 43 65 45 66 42 67
REMARK SMILES IDX 38 68 39 69 40 70 41 71 67 72 68 73 76 74 69 75 75 76 77 77
REMARK SMILES IDX 74 78 70 79 71 80 72 81 73 82 52 83 53 84 61 85 54 86 60 87
REMARK SMILES IDX 62 88 59 89 55 90 56 91 57 92 58 93
REMARK H PARENT 19 6 5 15 23 27 82 46 50 57
REMARK Flexibility Score: inf
ROOT
ATOM      1  C   UNL A   1      31.107  31.885  26.468  1.00  0.00     0.042 C 
ENDROOT
BRANCH   1   2
ATOM      2  C   UNL A   1      31.095  30.806  25.391  1.00  0.00     0.118 C 
BRANCH   2   3
ATOM      3  N   UNL A   1      32.341  30.082  25.337  1.00  0.00    -0.351 N 
ATOM      4  C   UNL A   1      32.670  28.777  25.069  1.00  0.00     0.261 C 
ATOM      5  O   UNL A   1      33.890  28.619  24.928  1.00  0.00    -0.268 OA
ATOM      6  H   UNL A   1      33.125  30.645  25.536  1.00  0.00     0.163 HD
BRANCH   4   7
ATOM      7  C   UNL A   1      31.722  27.660  24.965  1.00  0.00     0.097 A 
ATOM      8  C   UNL A   1      31.132  26.977  22.475  1.00  0.00     0.046 C 
ATOM      9  C   UNL A   1      31.023  26.982  23.960  1.00  0.00    -0.025 A 
ATOM     10  C   UNL A   1      29.981  26.178  24.525  1.00  0.00     0.042 A 
ATOM     11  C   UNL A   1      30.235  25.850  25.822  1.00  0.00     0.096 A 
ATOM     12  S   UNL A   1      31.296  26.949  26.525  1.00  0.00    -0.112 S 
BRANCH  11  13
ATOM     13  N   UNL A   1      29.783  24.823  26.613  1.00  0.00    -0.313 N 
ATOM     14  C   UNL A   1      30.325  23.550  26.674  1.00  0.00     0.257 C 
ATOM     15  H   UNL A   1      29.005  25.008  27.187  1.00  0.00     0.171 HD
ATOM     16  O   UNL A   1      29.759  22.640  27.270  1.00  0.00    -0.269 OA
BRANCH  14  17
ATOM     17  C   UNL A   1      31.647  23.277  26.072  1.00  0.00     0.058 A 
ATOM     18  C   UNL A   1      32.838  23.516  26.765  1.00  0.00     0.018 A 
ATOM     19  C   UNL A   1      31.721  22.894  24.742  1.00  0.00     0.126 A 
ATOM     20  C   UNL A   1      34.050  23.443  26.077  1.00  0.00     0.037 A 
ATOM     21  N   UNL A   1      32.887  22.813  24.055  1.00  0.00    -0.249 NA
ATOM     22  C   UNL A   1      34.024  23.105  24.729  1.00  0.00     0.106 A 
ATOM     23  Br  UNL A   1      35.652  23.110  23.758  1.00  0.00    -0.029 Br
ENDBRANCH  14  17
ENDBRANCH  11  13
ENDBRANCH   4   7
ENDBRANCH   2   3
ENDBRANCH   1   2
BRANCH   1  24
ATOM     24  C   UNL A   1      32.495  32.318  26.913  1.00  0.00     0.118 C 
BRANCH  24  25
ATOM     25  N   UNL A   1      32.505  33.708  27.340  1.00  0.00    -0.352 N 
ATOM     26  C   UNL A   1      33.200  34.326  28.352  1.00  0.00     0.251 C 
ATOM     27  H   UNL A   1      31.920  34.304  26.820  1.00  0.00     0.163 HD
ATOM     28  O   UNL A   1      32.830  35.437  28.720  1.00  0.00    -0.269 OA
BRANCH  26  29
ATOM     29  C   UNL A   1      34.364  33.675  29.001  1.00  0.00     0.039 A 
ATOM     30  C   UNL A   1      35.650  33.978  28.538  1.00  0.00     0.014 A 
ATOM     31  C   UNL A   1      34.205  32.724  30.013  1.00  0.00     0.014 A 
ATOM     32  C   UNL A   1      36.766  33.367  29.118  1.00  0.00     0.010 A 
ATOM     33  C   UNL A   1      35.319  32.191  30.655  1.00  0.00     0.010 A 
ATOM     34  C   UNL A   1      36.612  32.490  30.204  1.00  0.00    -0.014 A 
BRANCH  34  35
ATOM     35  C   UNL A   1      37.784  31.851  30.858  1.00  0.00     0.031 A 
ATOM     36  C   UNL A   1      38.573  30.797  30.127  1.00  0.00     0.074 A 
ATOM     37  C   UNL A   1      38.099  32.178  32.127  1.00  0.00     0.049 A 
ATOM     38  N   UNL A   1      39.567  30.060  30.552  1.00  0.00    -0.248 NA
ATOM     39  C   UNL A   1      38.164  30.509  28.743  1.00  0.00     0.031 C 
ATOM     40  C   UNL A   1      37.383  33.156  32.949  1.00  0.00     0.029 A 
ATOM     41  N   UNL A   1      39.094  31.718  32.952  1.00  0.00    -0.354 N 
ATOM     42  C   UNL A   1      39.891  29.214  29.497  1.00  0.00     0.074 A 
ATOM     43  C   UNL A   1      38.941  29.482  28.439  1.00  0.00     0.031 C 
ATOM     44  C   UNL A   1      37.977  33.241  34.150  1.00  0.00     0.029 A 
ATOM     45  C   UNL A   1      39.083  32.291  34.203  1.00  0.00     0.049 A 
ATOM     46  H   UNL A   1      39.753  31.041  32.676  1.00  0.00     0.167 HD
ATOM     47  C   UNL A   1      40.904  28.315  29.408  1.00  0.00     0.034 A 
ATOM     48  C   UNL A   1      39.868  32.068  35.275  1.00  0.00     0.034 A 
ATOM     49  C   UNL A   1      41.849  28.073  30.471  1.00  0.00     0.049 A 
ATOM     50  C   UNL A   1      40.976  31.051  35.163  1.00  0.00     0.074 A 
ATOM     51  C   UNL A   1      42.942  27.223  30.477  1.00  0.00     0.029 A 
ATOM     52  N   UNL A   1      41.813  28.678  31.722  1.00  0.00    -0.354 N 
ATOM     53  N   UNL A   1      41.296  30.289  34.141  1.00  0.00    -0.248 NA
ATOM     54  C   UNL A   1      41.834  30.875  36.340  1.00  0.00     0.031 C 
ATOM     55  C   UNL A   1      43.522  27.263  31.751  1.00  0.00     0.029 A 
ATOM     56  C   UNL A   1      42.844  28.199  32.514  1.00  0.00     0.049 A 
ATOM     57  H   UNL A   1      41.150  29.349  32.004  1.00  0.00     0.167 HD
ATOM     58  C   UNL A   1      42.414  29.564  34.546  1.00  0.00     0.074 A 
ATOM     59  C   UNL A   1      42.719  29.995  35.895  1.00  0.00     0.031 C 
ATOM     60  C   UNL A   1      43.127  28.631  33.865  1.00  0.00     0.034 A 
BRANCH  47  61
ATOM     61  C   UNL A   1      41.018  27.518  28.129  1.00  0.00     0.023 A 
ATOM     62  C   UNL A   1      40.677  26.155  28.073  1.00  0.00     0.031 A 
ATOM     63  C   UNL A   1      41.503  28.119  26.953  1.00  0.00     0.131 A 
ATOM     64  C   UNL A   1      40.904  25.419  26.900  1.00  0.00     0.055 A 
ATOM     65  C   UNL A   1      41.644  27.401  25.762  1.00  0.00     0.041 A 
ATOM     66  F   UNL A   1      41.867  29.411  26.945  1.00  0.00    -0.206 F 
ATOM     67  C   UNL A   1      41.360  26.040  25.736  1.00  0.00     0.022 A 
BRANCH  64  68
ATOM     68  S   UNL A   1      40.744  23.613  26.966  1.00  0.00     0.124 S 
ATOM     69  O   UNL A   1      39.308  23.438  26.759  1.00  0.00    -0.237 OA
ATOM     70  O   UNL A   1      41.605  23.180  25.872  1.00  0.00    -0.237 OA
ATOM     71  O   UNL A   1      41.219  23.276  28.307  1.00  0.00    -0.744 OA
ENDBRANCH  64  68
ENDBRANCH  47  61
BRANCH  48  72
ATOM     72  C   UNL A   1      39.636  32.809  36.548  1.00  0.00     0.023 A 
ATOM     73  C   UNL A   1      38.755  32.316  37.522  1.00  0.00     0.031 A 
ATOM     74  C   UNL A   1      40.269  34.041  36.795  1.00  0.00     0.131 A 
ATOM     75  C   UNL A   1      38.496  33.070  38.679  1.00  0.00     0.055 A 
ATOM     76  C   UNL A   1      40.049  34.761  37.971  1.00  0.00     0.041 A 
ATOM     77  F   UNL A   1      41.126  34.556  35.899  1.00  0.00    -0.206 F 
ATOM     78  C   UNL A   1      39.147  34.282  38.916  1.00  0.00     0.022 A 
BRANCH  75  79
ATOM     79  S   UNL A   1      37.225  32.480  39.832  1.00  0.00     0.124 S 
ATOM     80  O   UNL A   1      37.061  33.634  40.708  1.00  0.00    -0.237 OA
ATOM     81  O   UNL A   1      36.113  32.191  38.933  1.00  0.00    -0.237 OA
ATOM     82  O   UNL A   1      37.845  31.309  40.449  1.00  0.00    -0.744 OA
ENDBRANCH  75  79
ENDBRANCH  48  72
BRANCH  60  83
ATOM     83  C   UNL A   1      44.333  28.049  34.560  1.00  0.00     0.023 A 
ATOM     84  C   UNL A   1      44.262  26.845  35.283  1.00  0.00     0.031 A 
ATOM     85  C   UNL A   1      45.569  28.718  34.509  1.00  0.00     0.131 A 
ATOM     86  C   UNL A   1      45.390  26.381  35.977  1.00  0.00     0.055 A 
ATOM     87  C   UNL A   1      46.704  28.216  35.146  1.00  0.00     0.041 A 
ATOM     88  F   UNL A   1      45.693  29.872  33.835  1.00  0.00    -0.206 F 
ATOM     89  C   UNL A   1      46.614  27.048  35.898  1.00  0.00     0.022 A 
BRANCH  86  90
ATOM     90  S   UNL A   1      45.208  24.942  37.068  1.00  0.00     0.124 S 
ATOM     91  O   UNL A   1      46.598  24.599  37.350  1.00  0.00    -0.237 OA
ATOM     92  O   UNL A   1      44.447  25.491  38.184  1.00  0.00    -0.237 OA
ATOM     93  O   UNL A   1      44.486  23.975  36.242  1.00  0.00    -0.744 OA
ENDBRANCH  86  90
ENDBRANCH  60  83
ENDBRANCH  34  35
ENDBRANCH  26  29
ENDBRANCH  24  25
ENDBRANCH   1  24
TORSDOF 15
ENDMDL
