MODEL 1
REMARK VINA RESULT:     -13.8      0.000      0.000
REMARK SMILES O=C1C[C@@H](C(=O)NCCCNC(=O)c2ccc(-c3c4nc(c(-c5cc(S(=O)(=O)[O-])ccc5F)c5ccc([nH]5)c(-c5cc(S(=O)(=O)[O-])ccc5F)c5nc(c(-c6cc(S(=O)(=O)[O-])ccc6F)c6ccc3[nH]6)C=C5)C=C4)cc2)C2(CC[NH+](Cc3c[nH]nc3-c3ccc(Cl)cc3)CC2)N1
REMARK SMILES IDX 9 1 8 2 7 3 5 4 6 5 4 7 1 8 2 9 3 10 96 11 77 12 78 14 95 15
REMARK SMILES IDX 79 16 94 17 80 18 81 20 82 21 83 22 86 23 84 24 85 25 87 27
REMARK SMILES IDX 88 28 93 29 89 30 92 31 90 32 91 33 10 34 11 35 12 36 13 38
REMARK SMILES IDX 14 39 15 40 76 41 16 42 75 43 17 44 18 45 19 46 69 47 20 48
REMARK SMILES IDX 74 49 68 50 70 51 21 52 73 53 67 54 66 55 22 57 54 58 34 59
REMARK SMILES IDX 53 60 35 61 38 62 52 63 71 64 36 65 37 66 51 68 72 69 39 70
REMARK SMILES IDX 23 71 24 72 32 73 25 74 31 75 33 76 30 77 26 78 27 79 28 80
REMARK SMILES IDX 29 81 55 82 56 83 64 84 57 85 63 86 65 87 62 88 58 89 59 90
REMARK SMILES IDX 60 91 61 92 40 93 41 94 49 95 42 96 48 97 50 98 47 99 43 100
REMARK SMILES IDX 44 101 45 102 46 103
REMARK H PARENT 7 6 96 13 80 19 84 26 11 37 70 56 38 67
REMARK Flexibility Score: inf
ROOT
ATOM      1  C   UNL A   1      31.353  30.097  25.182  1.00  0.00     0.042 C 
ENDROOT
BRANCH   1   2
ATOM      2  C   UNL A   1      32.306  29.183  24.413  1.00  0.00     0.117 C 
BRANCH   2   3
ATOM      3  N   UNL A   1      31.745  28.624  23.191  1.00  0.00    -0.356 N 
ATOM      4  C   UNL A   1      31.149  27.445  22.880  1.00  0.00     0.226 C 
ATOM      5  O   UNL A   1      30.756  27.323  21.714  1.00  0.00    -0.275 OA
ATOM      6  H   UNL A   1      31.813  29.235  22.421  1.00  0.00     0.163 HD
BRANCH   4   7
ATOM      7  C   UNL A   1      30.981  26.262  23.834  1.00  0.00     0.114 C 
ATOM      8  O   UNL A   1      31.134  26.938  27.341  1.00  0.00    -0.275 OA
ATOM      9  C   UNL A   1      31.272  26.595  26.184  1.00  0.00     0.221 C 
ATOM     10  C   UNL A   1      30.212  26.615  25.113  1.00  0.00     0.116 C 
ATOM     11  N   UNL A   1      32.446  26.139  25.624  1.00  0.00    -0.349 N 
ATOM     12  C   UNL A   1      32.264  25.545  24.308  1.00  0.00     0.063 C 
ATOM     13  H   UNL A   1      33.320  26.209  26.070  1.00  0.00     0.164 HD
ATOM     14  C   UNL A   1      33.492  25.789  23.416  1.00  0.00     0.091 C 
ATOM     15  C   UNL A   1      31.997  24.030  24.563  1.00  0.00     0.091 C 
ATOM     16  C   UNL A   1      33.674  24.760  22.313  1.00  0.00     0.264 C 
ATOM     17  C   UNL A   1      32.465  23.059  23.480  1.00  0.00     0.264 C 
ATOM     18  N   UNL A   1      33.714  23.405  22.824  1.00  0.00    -0.331 N 
ATOM     19  H   UNL A   1      33.751  22.781  22.018  1.00  0.00     0.348 HD
BRANCH  18  20
ATOM     20  C   UNL A   1      34.985  22.943  23.406  1.00  0.00     0.303 C 
BRANCH  20  21
ATOM     21  C   UNL A   1      34.991  22.711  24.887  1.00  0.00     0.052 A 
ATOM     22  C   UNL A   1      35.102  23.675  25.875  1.00  0.00     0.115 A 
ATOM     23  C   UNL A   1      34.742  21.500  25.629  1.00  0.00     0.101 A 
ATOM     24  N   UNL A   1      35.101  23.022  27.065  1.00  0.00    -0.285 N 
ATOM     25  N   UNL A   1      34.895  21.711  26.947  1.00  0.00    -0.175 NA
ATOM     26  H   UNL A   1      35.241  23.472  27.930  1.00  0.00     0.189 HD
BRANCH  23  27
ATOM     27  C   UNL A   1      34.324  20.174  25.170  1.00  0.00     0.003 A 
ATOM     28  C   UNL A   1      35.310  19.256  24.776  1.00  0.00     0.012 A 
ATOM     29  C   UNL A   1      32.982  19.794  25.076  1.00  0.00     0.012 A 
ATOM     30  C   UNL A   1      34.964  17.974  24.340  1.00  0.00     0.021 A 
ATOM     31  C   UNL A   1      32.631  18.508  24.649  1.00  0.00     0.021 A 
ATOM     32  C   UNL A   1      33.625  17.601  24.293  1.00  0.00     0.041 A 
ATOM     33  Cl  UNL A   1      33.190  16.015  23.794  1.00  0.00    -0.084 Cl
ENDBRANCH  23  27
ENDBRANCH  20  21
ENDBRANCH  18  20
ENDBRANCH   4   7
ENDBRANCH   2   3
ENDBRANCH   1   2
BRANCH   1  34
ATOM     34  C   UNL A   1      31.879  30.524  26.548  1.00  0.00     0.118 C 
BRANCH  34  35
ATOM     35  N   UNL A   1      31.977  31.972  26.648  1.00  0.00    -0.352 N 
ATOM     36  C   UNL A   1      32.744  32.749  27.479  1.00  0.00     0.251 C 
ATOM     37  H   UNL A   1      31.405  32.472  26.021  1.00  0.00     0.163 HD
ATOM     38  O   UNL A   1      32.424  33.922  27.652  1.00  0.00    -0.269 OA
BRANCH  36  39
ATOM     39  C   UNL A   1      33.941  32.194  28.148  1.00  0.00     0.039 A 
ATOM     40  C   UNL A   1      34.687  33.021  28.993  1.00  0.00     0.014 A 
ATOM     41  C   UNL A   1      34.376  30.890  27.894  1.00  0.00     0.014 A 
ATOM     42  C   UNL A   1      35.843  32.529  29.603  1.00  0.00     0.010 A 
ATOM     43  C   UNL A   1      35.475  30.372  28.574  1.00  0.00     0.010 A 
ATOM     44  C   UNL A   1      36.235  31.193  29.418  1.00  0.00    -0.014 A 
BRANCH  44  45
ATOM     45  C   UNL A   1      37.454  30.654  30.077  1.00  0.00     0.031 A 
ATOM     46  C   UNL A   1      37.732  30.965  31.526  1.00  0.00     0.074 A 
ATOM     47  C   UNL A   1      38.322  29.909  29.363  1.00  0.00     0.049 A 
ATOM     48  N   UNL A   1      38.750  30.609  32.268  1.00  0.00    -0.248 NA
ATOM     49  C   UNL A   1      36.751  31.810  32.225  1.00  0.00     0.031 C 
ATOM     50  C   UNL A   1      38.175  29.571  27.945  1.00  0.00     0.029 A 
ATOM     51  N   UNL A   1      39.496  29.298  29.725  1.00  0.00    -0.354 N 
ATOM     52  C   UNL A   1      38.539  31.199  33.511  1.00  0.00     0.074 A 
ATOM     53  C   UNL A   1      37.329  31.984  33.404  1.00  0.00     0.031 C 
ATOM     54  C   UNL A   1      39.193  28.780  27.572  1.00  0.00     0.029 A 
ATOM     55  C   UNL A   1      40.096  28.599  28.703  1.00  0.00     0.049 A 
ATOM     56  H   UNL A   1      39.873  29.355  30.633  1.00  0.00     0.167 HD
ATOM     57  C   UNL A   1      39.276  31.077  34.643  1.00  0.00     0.034 A 
ATOM     58  C   UNL A   1      41.248  27.898  28.679  1.00  0.00     0.034 A 
ATOM     59  C   UNL A   1      40.471  30.274  34.734  1.00  0.00     0.049 A 
ATOM     60  C   UNL A   1      42.065  27.807  29.945  1.00  0.00     0.074 A 
ATOM     61  C   UNL A   1      41.258  30.026  35.845  1.00  0.00     0.029 A 
ATOM     62  N   UNL A   1      41.059  29.596  33.673  1.00  0.00    -0.354 N 
ATOM     63  N   UNL A   1      41.815  28.317  31.130  1.00  0.00    -0.248 NA
ATOM     64  C   UNL A   1      43.312  27.036  29.874  1.00  0.00     0.031 C 
ATOM     65  C   UNL A   1      42.364  29.274  35.441  1.00  0.00     0.029 A 
ATOM     66  C   UNL A   1      42.220  28.968  34.096  1.00  0.00     0.049 A 
ATOM     67  H   UNL A   1      40.704  29.568  32.755  1.00  0.00     0.167 HD
ATOM     68  C   UNL A   1      42.857  27.893  31.952  1.00  0.00     0.074 A 
ATOM     69  C   UNL A   1      43.723  27.073  31.132  1.00  0.00     0.031 C 
ATOM     70  C   UNL A   1      43.076  28.154  33.265  1.00  0.00     0.034 A 
BRANCH  57  71
ATOM     71  C   UNL A   1      38.832  31.853  35.861  1.00  0.00     0.023 A 
ATOM     72  C   UNL A   1      38.137  31.243  36.920  1.00  0.00     0.031 A 
ATOM     73  C   UNL A   1      39.111  33.227  35.966  1.00  0.00     0.131 A 
ATOM     74  C   UNL A   1      37.691  32.015  38.004  1.00  0.00     0.055 A 
ATOM     75  C   UNL A   1      38.737  33.973  37.084  1.00  0.00     0.041 A 
ATOM     76  F   UNL A   1      39.750  33.872  34.976  1.00  0.00    -0.206 F 
ATOM     77  C   UNL A   1      38.011  33.370  38.107  1.00  0.00     0.022 A 
BRANCH  74  78
ATOM     78  S   UNL A   1      36.573  31.253  39.212  1.00  0.00     0.124 S 
ATOM     79  O   UNL A   1      37.437  31.141  40.384  1.00  0.00    -0.237 OA
ATOM     80  O   UNL A   1      35.494  32.230  39.304  1.00  0.00    -0.237 OA
ATOM     81  O   UNL A   1      36.213  29.981  38.590  1.00  0.00    -0.744 OA
ENDBRANCH  74  78
ENDBRANCH  57  71
BRANCH  58  82
ATOM     82  C   UNL A   1      41.712  27.232  27.426  1.00  0.00     0.023 A 
ATOM     83  C   UNL A   1      41.681  25.833  27.299  1.00  0.00     0.031 A 
ATOM     84  C   UNL A   1      42.262  27.974  26.366  1.00  0.00     0.131 A 
ATOM     85  C   UNL A   1      42.249  25.218  26.173  1.00  0.00     0.055 A 
ATOM     86  C   UNL A   1      42.762  27.361  25.216  1.00  0.00     0.041 A 
ATOM     87  F   UNL A   1      42.321  29.314  26.432  1.00  0.00    -0.206 F 
ATOM     88  C   UNL A   1      42.775  25.973  25.123  1.00  0.00     0.022 A 
BRANCH  85  89
ATOM     89  S   UNL A   1      42.407  23.410  26.160  1.00  0.00     0.124 S 
ATOM     90  O   UNL A   1      43.301  23.185  27.290  1.00  0.00    -0.237 OA
ATOM     91  O   UNL A   1      41.024  22.984  26.340  1.00  0.00    -0.237 OA
ATOM     92  O   UNL A   1      42.979  23.130  24.845  1.00  0.00    -0.744 OA
ENDBRANCH  85  89
ENDBRANCH  58  82
BRANCH  70  93
ATOM     93  C   UNL A   1      44.273  27.493  33.909  1.00  0.00     0.023 A 
ATOM     94  C   UNL A   1      44.175  26.252  34.563  1.00  0.00     0.031 A 
ATOM     95  C   UNL A   1      45.529  28.123  33.873  1.00  0.00     0.131 A 
ATOM     96  C   UNL A   1      45.298  25.712  35.207  1.00  0.00     0.055 A 
ATOM     97  C   UNL A   1      46.659  27.546  34.453  1.00  0.00     0.041 A 
ATOM     98  F   UNL A   1      45.682  29.312  33.267  1.00  0.00    -0.206 F 
ATOM     99  C   UNL A   1      46.544  26.341  35.138  1.00  0.00     0.022 A 
BRANCH  96 100
ATOM    100  S   UNL A   1      45.086  24.228  36.227  1.00  0.00     0.124 S 
ATOM    101  O   UNL A   1      44.380  24.758  37.391  1.00  0.00    -0.237 OA
ATOM    102  O   UNL A   1      44.308  23.356  35.354  1.00  0.00    -0.237 OA
ATOM    103  O   UNL A   1      46.456  23.787  36.481  1.00  0.00    -0.744 OA
ENDBRANCH  96 100
ENDBRANCH  70  93
ENDBRANCH  44  45
ENDBRANCH  36  39
ENDBRANCH  34  35
ENDBRANCH   1  34
TORSDOF 16
ENDMDL
MODEL 2
REMARK VINA RESULT:     -13.7      2.145      7.828
REMARK SMILES O=C1C[C@@H](C(=O)NCCCNC(=O)c2ccc(-c3c4nc(c(-c5cc(S(=O)(=O)[O-])ccc5F)c5ccc([nH]5)c(-c5cc(S(=O)(=O)[O-])ccc5F)c5nc(c(-c6cc(S(=O)(=O)[O-])ccc6F)c6ccc3[nH]6)C=C5)C=C4)cc2)C2(CC[NH+](Cc3c[nH]nc3-c3ccc(Cl)cc3)CC2)N1
REMARK SMILES IDX 9 1 8 2 7 3 5 4 6 5 4 7 1 8 2 9 3 10 96 11 77 12 78 14 95 15
REMARK SMILES IDX 79 16 94 17 80 18 81 20 82 21 83 22 86 23 84 24 85 25 87 27
REMARK SMILES IDX 88 28 93 29 89 30 92 31 90 32 91 33 10 34 11 35 12 36 13 38
REMARK SMILES IDX 14 39 15 40 76 41 16 42 75 43 17 44 18 45 19 46 69 47 20 48
REMARK SMILES IDX 74 49 68 50 70 51 21 52 73 53 67 54 66 55 22 57 54 58 34 59
REMARK SMILES IDX 53 60 35 61 38 62 52 63 71 64 36 65 37 66 51 68 72 69 39 70
REMARK SMILES IDX 23 71 24 72 32 73 25 74 31 75 33 76 30 77 26 78 27 79 28 80
REMARK SMILES IDX 29 81 55 82 56 83 64 84 57 85 63 86 65 87 62 88 58 89 59 90
REMARK SMILES IDX 60 91 61 92 40 93 41 94 49 95 42 96 48 97 50 98 47 99 43 100
REMARK SMILES IDX 44 101 45 102 46 103
REMARK H PARENT 7 6 96 13 80 19 84 26 11 37 70 56 38 67
REMARK Flexibility Score: inf
ROOT
ATOM      1  C   UNL A   1      33.357  31.591  26.801  1.00  0.00     0.042 C 
ENDROOT
BRANCH   1   2
ATOM      2  C   UNL A   1      33.771  30.258  27.423  1.00  0.00     0.117 C 
BRANCH   2   3
ATOM      3  N   UNL A   1      32.672  29.322  27.620  1.00  0.00    -0.356 N 
ATOM      4  C   UNL A   1      31.951  28.526  26.790  1.00  0.00     0.226 C 
ATOM      5  O   UNL A   1      31.090  27.819  27.325  1.00  0.00    -0.275 OA
ATOM      6  H   UNL A   1      32.391  29.251  28.561  1.00  0.00     0.163 HD
BRANCH   4   7
ATOM      7  C   UNL A   1      32.087  28.484  25.268  1.00  0.00     0.114 C 
ATOM      8  O   UNL A   1      29.107  28.881  23.334  1.00  0.00    -0.275 OA
ATOM      9  C   UNL A   1      30.121  28.538  23.908  1.00  0.00     0.221 C 
ATOM     10  C   UNL A   1      31.140  29.448  24.544  1.00  0.00     0.116 C 
ATOM     11  N   UNL A   1      30.520  27.235  24.107  1.00  0.00    -0.349 N 
ATOM     12  C   UNL A   1      31.893  27.117  24.577  1.00  0.00     0.063 C 
ATOM     13  H   UNL A   1      29.936  26.459  23.947  1.00  0.00     0.164 HD
ATOM     14  C   UNL A   1      32.058  25.906  25.509  1.00  0.00     0.091 C 
ATOM     15  C   UNL A   1      32.771  27.011  23.291  1.00  0.00     0.091 C 
ATOM     16  C   UNL A   1      33.471  25.350  25.563  1.00  0.00     0.264 C 
ATOM     17  C   UNL A   1      34.058  26.196  23.405  1.00  0.00     0.264 C 
ATOM     18  N   UNL A   1      33.983  25.017  24.249  1.00  0.00    -0.331 N 
ATOM     19  H   UNL A   1      34.956  24.736  24.368  1.00  0.00     0.348 HD
BRANCH  18  20
ATOM     20  C   UNL A   1      33.548  23.739  23.661  1.00  0.00     0.303 C 
BRANCH  20  21
ATOM     21  C   UNL A   1      33.239  22.636  24.627  1.00  0.00     0.052 A 
ATOM     22  C   UNL A   1      32.012  22.023  24.819  1.00  0.00     0.115 A 
ATOM     23  C   UNL A   1      34.131  21.863  25.456  1.00  0.00     0.101 A 
ATOM     24  N   UNL A   1      32.178  21.110  25.811  1.00  0.00    -0.285 N 
ATOM     25  N   UNL A   1      33.441  20.998  26.219  1.00  0.00    -0.175 NA
ATOM     26  H   UNL A   1      31.437  20.585  26.192  1.00  0.00     0.189 HD
BRANCH  23  27
ATOM     27  C   UNL A   1      35.593  21.860  25.532  1.00  0.00     0.003 A 
ATOM     28  C   UNL A   1      36.241  22.990  26.055  1.00  0.00     0.012 A 
ATOM     29  C   UNL A   1      36.373  20.794  25.075  1.00  0.00     0.012 A 
ATOM     30  C   UNL A   1      37.635  23.034  26.160  1.00  0.00     0.021 A 
ATOM     31  C   UNL A   1      37.768  20.829  25.186  1.00  0.00     0.021 A 
ATOM     32  C   UNL A   1      38.391  21.946  25.737  1.00  0.00     0.041 A 
ATOM     33  Cl  UNL A   1      40.102  21.973  25.895  1.00  0.00    -0.084 Cl
ENDBRANCH  23  27
ENDBRANCH  20  21
ENDBRANCH  18  20
ENDBRANCH   4   7
ENDBRANCH   2   3
ENDBRANCH   1   2
BRANCH   1  34
ATOM     34  C   UNL A   1      32.254  32.310  27.568  1.00  0.00     0.118 C 
BRANCH  34  35
ATOM     35  N   UNL A   1      32.493  33.745  27.617  1.00  0.00    -0.352 N 
ATOM     36  C   UNL A   1      33.330  34.473  28.424  1.00  0.00     0.251 C 
ATOM     37  H   UNL A   1      31.974  34.275  26.970  1.00  0.00     0.163 HD
ATOM     38  O   UNL A   1      33.127  35.677  28.553  1.00  0.00    -0.269 OA
BRANCH  36  39
ATOM     39  C   UNL A   1      34.466  33.828  29.120  1.00  0.00     0.039 A 
ATOM     40  C   UNL A   1      34.199  32.923  30.151  1.00  0.00     0.014 A 
ATOM     41  C   UNL A   1      35.788  34.162  28.815  1.00  0.00     0.014 A 
ATOM     42  C   UNL A   1      35.256  32.334  30.848  1.00  0.00     0.010 A 
ATOM     43  C   UNL A   1      36.841  33.505  29.446  1.00  0.00     0.010 A 
ATOM     44  C   UNL A   1      36.588  32.601  30.487  1.00  0.00    -0.014 A 
BRANCH  44  45
ATOM     45  C   UNL A   1      37.720  31.965  31.210  1.00  0.00     0.031 A 
ATOM     46  C   UNL A   1      38.493  30.841  30.569  1.00  0.00     0.074 A 
ATOM     47  C   UNL A   1      38.033  32.382  32.454  1.00  0.00     0.049 A 
ATOM     48  N   UNL A   1      39.492  30.145  31.047  1.00  0.00    -0.248 NA
ATOM     49  C   UNL A   1      38.067  30.424  29.223  1.00  0.00     0.031 C 
ATOM     50  C   UNL A   1      37.334  33.439  33.190  1.00  0.00     0.029 A 
ATOM     51  N   UNL A   1      39.017  31.976  33.320  1.00  0.00    -0.354 N 
ATOM     52  C   UNL A   1      39.803  29.203  30.071  1.00  0.00     0.074 A 
ATOM     53  C   UNL A   1      38.846  29.377  29.000  1.00  0.00     0.031 C 
ATOM     54  C   UNL A   1      37.938  33.626  34.373  1.00  0.00     0.029 A 
ATOM     55  C   UNL A   1      39.030  32.668  34.509  1.00  0.00     0.049 A 
ATOM     56  H   UNL A   1      39.655  31.256  33.108  1.00  0.00     0.167 HD
ATOM     57  C   UNL A   1      40.808  28.292  30.061  1.00  0.00     0.034 A 
ATOM     58  C   UNL A   1      39.827  32.539  35.589  1.00  0.00     0.034 A 
ATOM     59  C   UNL A   1      41.763  28.147  31.131  1.00  0.00     0.049 A 
ATOM     60  C   UNL A   1      40.916  31.495  35.563  1.00  0.00     0.074 A 
ATOM     61  C   UNL A   1      42.860  27.305  31.197  1.00  0.00     0.029 A 
ATOM     62  N   UNL A   1      41.732  28.852  32.328  1.00  0.00    -0.354 N 
ATOM     63  N   UNL A   1      41.236  30.656  34.603  1.00  0.00    -0.248 NA
ATOM     64  C   UNL A   1      41.758  31.387  36.760  1.00  0.00     0.031 C 
ATOM     65  C   UNL A   1      43.439  27.437  32.462  1.00  0.00     0.029 A 
ATOM     66  C   UNL A   1      42.765  28.431  33.154  1.00  0.00     0.049 A 
ATOM     67  H   UNL A   1      41.074  29.546  32.558  1.00  0.00     0.167 HD
ATOM     68  C   UNL A   1      42.343  29.951  35.070  1.00  0.00     0.074 A 
ATOM     69  C   UNL A   1      42.643  30.475  36.386  1.00  0.00     0.031 C 
ATOM     70  C   UNL A   1      43.050  28.963  34.466  1.00  0.00     0.034 A 
BRANCH  57  71
ATOM     71  C   UNL A   1      40.906  27.364  28.873  1.00  0.00     0.023 A 
ATOM     72  C   UNL A   1      41.881  27.531  27.875  1.00  0.00     0.031 A 
ATOM     73  C   UNL A   1      40.009  26.288  28.739  1.00  0.00     0.131 A 
ATOM     74  C   UNL A   1      41.896  26.679  26.759  1.00  0.00     0.055 A 
ATOM     75  C   UNL A   1      40.080  25.396  27.670  1.00  0.00     0.041 A 
ATOM     76  F   UNL A   1      39.039  26.090  29.648  1.00  0.00    -0.206 F 
ATOM     77  C   UNL A   1      41.021  25.596  26.664  1.00  0.00     0.022 A 
BRANCH  74  78
ATOM     78  S   UNL A   1      42.989  27.087  25.370  1.00  0.00     0.124 S 
ATOM     79  O   UNL A   1      44.202  27.515  26.063  1.00  0.00    -0.237 OA
ATOM     80  O   UNL A   1      43.076  25.821  24.652  1.00  0.00    -0.237 OA
ATOM     81  O   UNL A   1      42.272  28.153  24.672  1.00  0.00    -0.744 OA
ENDBRANCH  74  78
ENDBRANCH  57  71
BRANCH  58  82
ATOM     82  C   UNL A   1      39.633  33.404  36.791  1.00  0.00     0.023 A 
ATOM     83  C   UNL A   1      39.022  32.900  37.951  1.00  0.00     0.031 A 
ATOM     84  C   UNL A   1      39.986  34.764  36.775  1.00  0.00     0.131 A 
ATOM     85  C   UNL A   1      38.723  33.761  39.017  1.00  0.00     0.055 A 
ATOM     86  C   UNL A   1      39.751  35.602  37.866  1.00  0.00     0.041 A 
ATOM     87  F   UNL A   1      40.571  35.303  35.693  1.00  0.00    -0.206 F 
ATOM     88  C   UNL A   1      39.097  35.106  38.990  1.00  0.00     0.022 A 
BRANCH  85  89
ATOM     89  S   UNL A   1      37.719  33.126  40.390  1.00  0.00     0.124 S 
ATOM     90  O   UNL A   1      36.437  32.896  39.735  1.00  0.00    -0.237 OA
ATOM     91  O   UNL A   1      38.463  31.934  40.783  1.00  0.00    -0.237 OA
ATOM     92  O   UNL A   1      37.740  34.220  41.359  1.00  0.00    -0.744 OA
ENDBRANCH  85  89
ENDBRANCH  58  82
BRANCH  70  93
ATOM     93  C   UNL A   1      44.255  28.428  35.203  1.00  0.00     0.023 A 
ATOM     94  C   UNL A   1      44.145  27.417  36.175  1.00  0.00     0.031 A 
ATOM     95  C   UNL A   1      45.534  28.946  34.932  1.00  0.00     0.131 A 
ATOM     96  C   UNL A   1      45.282  27.003  36.883  1.00  0.00     0.055 A 
ATOM     97  C   UNL A   1      46.673  28.477  35.589  1.00  0.00     0.041 A 
ATOM     98  F   UNL A   1      45.700  29.915  34.018  1.00  0.00    -0.206 F 
ATOM     99  C   UNL A   1      46.548  27.511  36.582  1.00  0.00     0.022 A 
BRANCH  96 100
ATOM    100  S   UNL A   1      45.071  25.864  38.279  1.00  0.00     0.124 S 
ATOM    101  O   UNL A   1      46.454  25.564  38.638  1.00  0.00    -0.237 OA
ATOM    102  O   UNL A   1      44.327  26.676  39.236  1.00  0.00    -0.237 OA
ATOM    103  O   UNL A   1      44.324  24.748  37.702  1.00  0.00    -0.744 OA
ENDBRANCH  96 100
ENDBRANCH  70  93
ENDBRANCH  44  45
ENDBRANCH  36  39
ENDBRANCH  34  35
ENDBRANCH   1  34
TORSDOF 16
ENDMDL
MODEL 3
REMARK VINA RESULT:     -13.7      2.814      3.615
REMARK SMILES O=C1C[C@@H](C(=O)NCCCNC(=O)c2ccc(-c3c4nc(c(-c5cc(S(=O)(=O)[O-])ccc5F)c5ccc([nH]5)c(-c5cc(S(=O)(=O)[O-])ccc5F)c5nc(c(-c6cc(S(=O)(=O)[O-])ccc6F)c6ccc3[nH]6)C=C5)C=C4)cc2)C2(CC[NH+](Cc3c[nH]nc3-c3ccc(Cl)cc3)CC2)N1
REMARK SMILES IDX 9 1 8 2 7 3 5 4 6 5 4 7 1 8 2 9 3 10 96 11 77 12 78 14 95 15
REMARK SMILES IDX 79 16 94 17 80 18 81 20 82 21 83 22 86 23 84 24 85 25 87 27
REMARK SMILES IDX 88 28 93 29 89 30 92 31 90 32 91 33 10 34 11 35 12 36 13 38
REMARK SMILES IDX 14 39 15 40 76 41 16 42 75 43 17 44 18 45 19 46 69 47 20 48
REMARK SMILES IDX 74 49 68 50 70 51 21 52 73 53 67 54 66 55 22 57 54 58 34 59
REMARK SMILES IDX 53 60 35 61 38 62 52 63 71 64 36 65 37 66 51 68 72 69 39 70
REMARK SMILES IDX 23 71 24 72 32 73 25 74 31 75 33 76 30 77 26 78 27 79 28 80
REMARK SMILES IDX 29 81 55 82 56 83 64 84 57 85 63 86 65 87 62 88 58 89 59 90
REMARK SMILES IDX 60 91 61 92 40 93 41 94 49 95 42 96 48 97 50 98 47 99 43 100
REMARK SMILES IDX 44 101 45 102 46 103
REMARK H PARENT 7 6 96 13 80 19 84 26 11 37 70 56 38 67
REMARK Flexibility Score: inf
ROOT
ATOM      1  C   UNL A   1      32.111  29.076  26.151  1.00  0.00     0.042 C 
ENDROOT
BRANCH   1   2
ATOM      2  C   UNL A   1      31.472  30.099  25.213  1.00  0.00     0.117 C 
BRANCH   2   3
ATOM      3  N   UNL A   1      30.821  29.517  24.046  1.00  0.00    -0.356 N 
ATOM      4  C   UNL A   1      31.101  28.464  23.237  1.00  0.00     0.226 C 
ATOM      5  O   UNL A   1      30.286  28.237  22.336  1.00  0.00    -0.275 OA
ATOM      6  H   UNL A   1      29.998  29.993  23.788  1.00  0.00     0.163 HD
BRANCH   4   7
ATOM      7  C   UNL A   1      32.353  27.592  23.325  1.00  0.00     0.114 C 
ATOM      8  O   UNL A   1      33.258  25.711  20.422  1.00  0.00    -0.275 OA
ATOM      9  C   UNL A   1      32.912  26.150  21.501  1.00  0.00     0.221 C 
ATOM     10  C   UNL A   1      33.155  27.544  22.019  1.00  0.00     0.116 C 
ATOM     11  N   UNL A   1      32.205  25.451  22.454  1.00  0.00    -0.349 N 
ATOM     12  C   UNL A   1      32.163  26.119  23.747  1.00  0.00     0.063 C 
ATOM     13  H   UNL A   1      31.770  24.585  22.279  1.00  0.00     0.164 HD
ATOM     14  C   UNL A   1      30.839  25.835  24.475  1.00  0.00     0.091 C 
ATOM     15  C   UNL A   1      33.405  25.596  24.532  1.00  0.00     0.091 C 
ATOM     16  C   UNL A   1      30.923  25.952  25.987  1.00  0.00     0.264 C 
ATOM     17  C   UNL A   1      33.273  25.516  26.052  1.00  0.00     0.264 C 
ATOM     18  N   UNL A   1      31.968  25.119  26.548  1.00  0.00    -0.331 N 
ATOM     19  H   UNL A   1      32.010  25.323  27.546  1.00  0.00     0.348 HD
BRANCH  18  20
ATOM     20  C   UNL A   1      31.668  23.688  26.719  1.00  0.00     0.303 C 
BRANCH  20  21
ATOM     21  C   UNL A   1      32.837  22.793  26.996  1.00  0.00     0.052 A 
ATOM     22  C   UNL A   1      33.526  22.678  28.191  1.00  0.00     0.115 A 
ATOM     23  C   UNL A   1      33.420  21.761  26.174  1.00  0.00     0.101 A 
ATOM     24  N   UNL A   1      34.529  21.786  27.984  1.00  0.00    -0.285 N 
ATOM     25  N   UNL A   1      34.495  21.225  26.776  1.00  0.00    -0.175 NA
ATOM     26  H   UNL A   1      35.215  21.576  28.659  1.00  0.00     0.189 HD
BRANCH  23  27
ATOM     27  C   UNL A   1      32.993  21.223  24.881  1.00  0.00     0.003 A 
ATOM     28  C   UNL A   1      32.666  22.122  23.853  1.00  0.00     0.012 A 
ATOM     29  C   UNL A   1      32.866  19.853  24.636  1.00  0.00     0.012 A 
ATOM     30  C   UNL A   1      32.264  21.660  22.596  1.00  0.00     0.021 A 
ATOM     31  C   UNL A   1      32.472  19.385  23.377  1.00  0.00     0.021 A 
ATOM     32  C   UNL A   1      32.182  20.291  22.360  1.00  0.00     0.041 A 
ATOM     33  Cl  UNL A   1      31.724  19.711  20.808  1.00  0.00    -0.084 Cl
ENDBRANCH  23  27
ENDBRANCH  20  21
ENDBRANCH  18  20
ENDBRANCH   4   7
ENDBRANCH   2   3
ENDBRANCH   1   2
BRANCH   1  34
ATOM     34  C   UNL A   1      33.491  29.484  26.655  1.00  0.00     0.118 C 
BRANCH  34  35
ATOM     35  N   UNL A   1      33.524  30.890  27.029  1.00  0.00    -0.352 N 
ATOM     36  C   UNL A   1      34.308  31.540  27.948  1.00  0.00     0.251 C 
ATOM     37  H   UNL A   1      32.884  31.463  26.548  1.00  0.00     0.163 HD
ATOM     38  O   UNL A   1      33.944  32.636  28.365  1.00  0.00    -0.269 OA
BRANCH  36  39
ATOM     39  C   UNL A   1      35.576  30.943  28.422  1.00  0.00     0.039 A 
ATOM     40  C   UNL A   1      35.524  29.880  29.328  1.00  0.00     0.014 A 
ATOM     41  C   UNL A   1      36.813  31.468  28.040  1.00  0.00     0.014 A 
ATOM     42  C   UNL A   1      36.709  29.329  29.821  1.00  0.00     0.010 A 
ATOM     43  C   UNL A   1      37.994  30.858  28.459  1.00  0.00     0.010 A 
ATOM     44  C   UNL A   1      37.956  29.796  29.372  1.00  0.00    -0.014 A 
BRANCH  44  45
ATOM     45  C   UNL A   1      39.223  29.205  29.876  1.00  0.00     0.031 A 
ATOM     46  C   UNL A   1      39.879  29.762  31.114  1.00  0.00     0.074 A 
ATOM     47  C   UNL A   1      39.796  28.187  29.203  1.00  0.00     0.049 A 
ATOM     48  N   UNL A   1      40.995  29.399  31.693  1.00  0.00    -0.248 NA
ATOM     49  C   UNL A   1      39.206  30.893  31.772  1.00  0.00     0.031 C 
ATOM     50  C   UNL A   1      39.270  27.588  27.973  1.00  0.00     0.029 A 
ATOM     51  N   UNL A   1      40.940  27.471  29.453  1.00  0.00    -0.354 N 
ATOM     52  C   UNL A   1      41.164  30.265  32.769  1.00  0.00     0.074 A 
ATOM     53  C   UNL A   1      40.068  31.208  32.726  1.00  0.00     0.031 C 
ATOM     54  C   UNL A   1      40.064  26.571  27.603  1.00  0.00     0.029 A 
ATOM     55  C   UNL A   1      41.185  26.478  28.532  1.00  0.00     0.049 A 
ATOM     56  H   UNL A   1      41.529  27.652  30.220  1.00  0.00     0.167 HD
ATOM     57  C   UNL A   1      42.133  30.259  33.718  1.00  0.00     0.034 A 
ATOM     58  C   UNL A   1      42.203  25.599  28.443  1.00  0.00     0.034 A 
ATOM     59  C   UNL A   1      43.208  29.298  33.755  1.00  0.00     0.049 A 
ATOM     60  C   UNL A   1      43.285  25.636  29.495  1.00  0.00     0.074 A 
ATOM     61  C   UNL A   1      44.204  29.157  34.705  1.00  0.00     0.029 A 
ATOM     62  N   UNL A   1      43.435  28.320  32.795  1.00  0.00    -0.354 N 
ATOM     63  N   UNL A   1      43.393  26.421  30.543  1.00  0.00    -0.248 NA
ATOM     64  C   UNL A   1      44.375  24.662  29.358  1.00  0.00     0.031 C 
ATOM     65  C   UNL A   1      45.080  28.155  34.278  1.00  0.00     0.029 A 
ATOM     66  C   UNL A   1      44.580  27.602  33.109  1.00  0.00     0.049 A 
ATOM     67  H   UNL A   1      42.868  28.160  32.006  1.00  0.00     0.167 HD
ATOM     68  C   UNL A   1      44.543  26.005  31.210  1.00  0.00     0.074 A 
ATOM     69  C   UNL A   1      45.080  24.892  30.456  1.00  0.00     0.031 C 
ATOM     70  C   UNL A   1      45.104  26.495  32.345  1.00  0.00     0.034 A 
BRANCH  57  71
ATOM     71  C   UNL A   1      42.094  31.339  34.774  1.00  0.00     0.023 A 
ATOM     72  C   UNL A   1      42.752  32.570  34.605  1.00  0.00     0.031 A 
ATOM     73  C   UNL A   1      41.380  31.136  35.969  1.00  0.00     0.131 A 
ATOM     74  C   UNL A   1      42.737  33.521  35.638  1.00  0.00     0.055 A 
ATOM     75  C   UNL A   1      41.301  32.117  36.957  1.00  0.00     0.041 A 
ATOM     76  F   UNL A   1      40.750  29.973  36.199  1.00  0.00    -0.206 F 
ATOM     77  C   UNL A   1      41.993  33.315  36.801  1.00  0.00     0.022 A 
BRANCH  74  78
ATOM     78  S   UNL A   1      43.814  34.974  35.496  1.00  0.00     0.124 S 
ATOM     79  O   UNL A   1      42.864  36.066  35.697  1.00  0.00    -0.237 OA
ATOM     80  O   UNL A   1      44.778  34.760  36.569  1.00  0.00    -0.237 OA
ATOM     81  O   UNL A   1      44.353  34.870  34.142  1.00  0.00    -0.744 OA
ENDBRANCH  74  78
ENDBRANCH  57  71
BRANCH  58  82
ATOM     82  C   UNL A   1      42.266  24.612  27.323  1.00  0.00     0.023 A 
ATOM     83  C   UNL A   1      41.468  23.456  27.335  1.00  0.00     0.031 A 
ATOM     84  C   UNL A   1      43.176  24.770  26.263  1.00  0.00     0.131 A 
ATOM     85  C   UNL A   1      41.641  22.475  26.348  1.00  0.00     0.055 A 
ATOM     86  C   UNL A   1      43.294  23.823  25.244  1.00  0.00     0.041 A 
ATOM     87  F   UNL A   1      43.966  25.853  26.200  1.00  0.00    -0.206 F 
ATOM     88  C   UNL A   1      42.537  22.657  25.293  1.00  0.00     0.022 A 
BRANCH  85  89
ATOM     89  S   UNL A   1      40.769  20.894  26.535  1.00  0.00     0.124 S 
ATOM     90  O   UNL A   1      40.846  20.684  27.976  1.00  0.00    -0.237 OA
ATOM     91  O   UNL A   1      39.449  21.212  26.002  1.00  0.00    -0.237 OA
ATOM     92  O   UNL A   1      41.561  19.972  25.725  1.00  0.00    -0.744 OA
ENDBRANCH  85  89
ENDBRANCH  58  82
BRANCH  70  93
ATOM     93  C   UNL A   1      46.331  25.787  32.869  1.00  0.00     0.023 A 
ATOM     94  C   UNL A   1      46.241  24.692  33.746  1.00  0.00     0.031 A 
ATOM     95  C   UNL A   1      47.612  26.224  32.488  1.00  0.00     0.131 A 
ATOM     96  C   UNL A   1      47.409  24.112  34.261  1.00  0.00     0.055 A 
ATOM     97  C   UNL A   1      48.771  25.596  32.948  1.00  0.00     0.041 A 
ATOM     98  F   UNL A   1      47.761  27.268  31.657  1.00  0.00    -0.206 F 
ATOM     99  C   UNL A   1      48.673  24.544  33.852  1.00  0.00     0.022 A 
BRANCH  96 100
ATOM    100  S   UNL A   1      47.257  22.853  35.558  1.00  0.00     0.124 S 
ATOM    101  O   UNL A   1      45.899  23.081  36.044  1.00  0.00    -0.237 OA
ATOM    102  O   UNL A   1      47.468  21.614  34.818  1.00  0.00    -0.237 OA
ATOM    103  O   UNL A   1      48.319  23.201  36.500  1.00  0.00    -0.744 OA
ENDBRANCH  96 100
ENDBRANCH  70  93
ENDBRANCH  44  45
ENDBRANCH  36  39
ENDBRANCH  34  35
ENDBRANCH   1  34
TORSDOF 16
ENDMDL
