MODEL 1
REMARK VINA RESULT:     -11.2      0.000      0.000
REMARK SMILES CCC(CC)(NC(=O)N(C)[C@H]1CCC[C@H](C)C1)C(=O)NCCCNC(=O)c1ccc(-c2c3nc(c(-c4cc(S(=O)(=O)[O-])ccc4F)c4ccc([nH]4)c(-c4cc(S(=O)(=O)[O-])ccc4F)c4nc(c(-c5cc(S(=O)(=O)[O-])ccc5F)c5ccc2[nH]5)C=C4)C=C3)cc1
REMARK SMILES IDX 22 1 21 2 20 3 18 4 19 5 3 7 2 8 1 9 4 10 5 11 6 12 7 13
REMARK SMILES IDX 8 15 9 16 10 17 11 18 12 19 17 20 13 21 15 22 14 23 16 24
REMARK SMILES IDX 23 25 24 26 25 27 26 29 27 30 28 31 89 32 29 33 88 34 30 35
REMARK SMILES IDX 31 36 32 37 82 38 33 39 87 40 81 41 83 42 34 43 86 44 80 45
REMARK SMILES IDX 79 46 35 48 67 49 47 50 66 51 48 52 51 53 65 54 84 55 49 56
REMARK SMILES IDX 50 57 64 59 85 60 52 61 36 62 37 63 45 64 38 65 44 66 46 67
REMARK SMILES IDX 43 68 39 69 40 70 41 71 42 72 68 73 69 74 77 75 70 76 76 77
REMARK SMILES IDX 78 78 75 79 71 80 72 81 73 82 74 83 53 84 54 85 62 86 55 87
REMARK SMILES IDX 61 88 63 89 60 90 56 91 57 92 58 93 59 94
REMARK H PARENT 20 6 6 14 24 28 83 47 51 58
REMARK Flexibility Score: inf
ROOT
ATOM      1  C   UNL A   1      32.134  29.841  26.838  1.00  0.00     0.042 C 
ENDROOT
BRANCH   1   2
ATOM      2  C   UNL A   1      31.614  29.859  25.409  1.00  0.00     0.117 C 
BRANCH   2   3
ATOM      3  N   UNL A   1      32.630  29.677  24.380  1.00  0.00    -0.354 N 
ATOM      4  C   UNL A   1      33.087  28.601  23.675  1.00  0.00     0.245 C 
ATOM      5  O   UNL A   1      33.899  28.871  22.781  1.00  0.00    -0.272 OA
ATOM      6  H   UNL A   1      33.088  30.516  24.139  1.00  0.00     0.163 HD
BRANCH   4   7
ATOM      7  C   UNL A   1      32.551  27.144  23.869  1.00  0.00     0.120 C 
BRANCH   7   8
ATOM      8  C   UNL A   1      31.046  27.055  24.291  1.00  0.00     0.035 C 
ATOM      9  C   UNL A   1      29.994  27.299  23.211  1.00  0.00     0.007 C 
ENDBRANCH   7   8
BRANCH   7  10
ATOM     10  C   UNL A   1      33.427  26.535  25.027  1.00  0.00     0.035 C 
ATOM     11  C   UNL A   1      32.689  26.029  26.265  1.00  0.00     0.007 C 
ENDBRANCH   7  10
BRANCH   7  12
ATOM     12  N   UNL A   1      32.732  26.329  22.637  1.00  0.00    -0.323 N 
ATOM     13  C   UNL A   1      33.017  25.068  22.259  1.00  0.00     0.318 C 
ATOM     14  H   UNL A   1      32.601  26.895  21.842  1.00  0.00     0.166 HD
ATOM     15  O   UNL A   1      33.445  25.018  21.105  1.00  0.00    -0.249 OA
BRANCH  13  16
ATOM     16  N   UNL A   1      32.751  23.948  22.991  1.00  0.00    -0.325 N 
ATOM     17  C   UNL A   1      31.469  23.605  23.589  1.00  0.00     0.149 C 
BRANCH  16  18
ATOM     18  C   UNL A   1      33.834  22.978  23.349  1.00  0.00     0.086 C 
ATOM     19  C   UNL A   1      35.289  23.486  23.447  1.00  0.00     0.025 C 
ATOM     20  C   UNL A   1      33.474  22.060  24.526  1.00  0.00     0.028 C 
ATOM     21  C   UNL A   1      35.783  23.921  24.822  1.00  0.00     0.002 C 
ATOM     22  C   UNL A   1      33.861  22.623  25.894  1.00  0.00    -0.012 C 
ATOM     23  C   UNL A   1      35.348  22.992  25.945  1.00  0.00     0.003 C 
ATOM     24  C   UNL A   1      33.546  21.598  26.985  1.00  0.00     0.008 C 
ENDBRANCH  16  18
ENDBRANCH  13  16
ENDBRANCH   7  12
ENDBRANCH   4   7
ENDBRANCH   2   3
ENDBRANCH   1   2
BRANCH   1  25
ATOM     25  C   UNL A   1      33.565  30.329  27.042  1.00  0.00     0.118 C 
BRANCH  25  26
ATOM     26  N   UNL A   1      33.617  31.620  27.698  1.00  0.00    -0.352 N 
ATOM     27  C   UNL A   1      34.523  32.155  28.579  1.00  0.00     0.251 C 
ATOM     28  H   UNL A   1      32.869  32.219  27.473  1.00  0.00     0.163 HD
ATOM     29  O   UNL A   1      34.197  33.188  29.166  1.00  0.00    -0.269 OA
BRANCH  27  30
ATOM     30  C   UNL A   1      35.855  31.548  28.859  1.00  0.00     0.039 A 
ATOM     31  C   UNL A   1      35.874  30.310  29.514  1.00  0.00     0.014 A 
ATOM     32  C   UNL A   1      37.071  32.196  28.617  1.00  0.00     0.014 A 
ATOM     33  C   UNL A   1      37.084  29.728  29.910  1.00  0.00     0.010 A 
ATOM     34  C   UNL A   1      38.288  31.579  28.952  1.00  0.00     0.010 A 
ATOM     35  C   UNL A   1      38.310  30.349  29.626  1.00  0.00    -0.014 A 
BRANCH  35  36
ATOM     36  C   UNL A   1      39.589  29.724  30.080  1.00  0.00     0.031 A 
ATOM     37  C   UNL A   1      40.301  30.221  31.315  1.00  0.00     0.074 A 
ATOM     38  C   UNL A   1      40.112  28.688  29.393  1.00  0.00     0.049 A 
ATOM     39  N   UNL A   1      41.386  29.761  31.888  1.00  0.00    -0.248 NA
ATOM     40  C   UNL A   1      39.728  31.399  31.981  1.00  0.00     0.031 C 
ATOM     41  C   UNL A   1      39.556  28.127  28.160  1.00  0.00     0.029 A 
ATOM     42  N   UNL A   1      41.221  27.914  29.638  1.00  0.00    -0.354 N 
ATOM     43  C   UNL A   1      41.630  30.594  32.976  1.00  0.00     0.074 A 
ATOM     44  C   UNL A   1      40.609  31.622  32.945  1.00  0.00     0.031 C 
ATOM     45  C   UNL A   1      40.305  27.080  27.776  1.00  0.00     0.029 A 
ATOM     46  C   UNL A   1      41.410  26.909  28.716  1.00  0.00     0.049 A 
ATOM     47  H   UNL A   1      41.823  28.064  30.401  1.00  0.00     0.167 HD
ATOM     48  C   UNL A   1      42.595  30.502  33.928  1.00  0.00     0.034 A 
ATOM     49  C   UNL A   1      42.359  25.955  28.633  1.00  0.00     0.034 A 
ATOM     50  C   UNL A   1      43.604  29.469  33.966  1.00  0.00     0.049 A 
ATOM     51  C   UNL A   1      43.420  25.870  29.700  1.00  0.00     0.074 A 
ATOM     52  C   UNL A   1      44.589  29.260  34.918  1.00  0.00     0.029 A 
ATOM     53  N   UNL A   1      43.767  28.476  33.010  1.00  0.00    -0.354 N 
ATOM     54  N   UNL A   1      43.598  26.634  30.754  1.00  0.00    -0.248 NA
ATOM     55  C   UNL A   1      44.398  24.781  29.575  1.00  0.00     0.031 C 
ATOM     56  C   UNL A   1      45.380  28.181  34.508  1.00  0.00     0.029 A 
ATOM     57  C   UNL A   1      44.850  27.671  33.335  1.00  0.00     0.049 A 
ATOM     58  H   UNL A   1      43.196  28.360  32.217  1.00  0.00     0.167 HD
ATOM     59  C   UNL A   1      44.693  26.098  31.428  1.00  0.00     0.074 A 
ATOM     60  C   UNL A   1      45.120  24.938  30.674  1.00  0.00     0.031 C 
ATOM     61  C   UNL A   1      45.287  26.526  32.571  1.00  0.00     0.034 A 
BRANCH  48  62
ATOM     62  C   UNL A   1      42.617  31.570  34.998  1.00  0.00     0.023 A 
ATOM     63  C   UNL A   1      41.643  31.620  36.011  1.00  0.00     0.031 A 
ATOM     64  C   UNL A   1      43.616  32.559  34.998  1.00  0.00     0.131 A 
ATOM     65  C   UNL A   1      41.644  32.679  36.933  1.00  0.00     0.055 A 
ATOM     66  C   UNL A   1      43.658  33.566  35.966  1.00  0.00     0.041 A 
ATOM     67  F   UNL A   1      44.564  32.574  34.048  1.00  0.00    -0.206 F 
ATOM     68  C   UNL A   1      42.659  33.638  36.932  1.00  0.00     0.022 A 
BRANCH  65  69
ATOM     69  S   UNL A   1      40.223  32.862  38.045  1.00  0.00     0.124 S 
ATOM     70  O   UNL A   1      39.923  34.286  37.909  1.00  0.00    -0.237 OA
ATOM     71  O   UNL A   1      39.248  31.945  37.463  1.00  0.00    -0.237 OA
ATOM     72  O   UNL A   1      40.753  32.465  39.347  1.00  0.00    -0.744 OA
ENDBRANCH  65  69
ENDBRANCH  48  62
BRANCH  49  73
ATOM     73  C   UNL A   1      42.357  24.991  27.497  1.00  0.00     0.023 A 
ATOM     74  C   UNL A   1      41.562  23.834  27.528  1.00  0.00     0.031 A 
ATOM     75  C   UNL A   1      43.192  25.191  26.384  1.00  0.00     0.131 A 
ATOM     76  C   UNL A   1      41.651  22.898  26.486  1.00  0.00     0.055 A 
ATOM     77  C   UNL A   1      43.241  24.281  25.327  1.00  0.00     0.041 A 
ATOM     78  F   UNL A   1      43.968  26.285  26.305  1.00  0.00    -0.206 F 
ATOM     79  C   UNL A   1      42.477  23.119  25.382  1.00  0.00     0.022 A 
BRANCH  76  80
ATOM     80  S   UNL A   1      40.726  21.344  26.633  1.00  0.00     0.124 S 
ATOM     81  O   UNL A   1      40.747  21.120  28.073  1.00  0.00    -0.237 OA
ATOM     82  O   UNL A   1      39.436  21.705  26.058  1.00  0.00    -0.237 OA
ATOM     83  O   UNL A   1      41.516  20.403  25.842  1.00  0.00    -0.744 OA
ENDBRANCH  76  80
ENDBRANCH  49  73
BRANCH  61  84
ATOM     84  C   UNL A   1      46.444  25.706  33.089  1.00  0.00     0.023 A 
ATOM     85  C   UNL A   1      47.737  25.823  32.546  1.00  0.00     0.031 A 
ATOM     86  C   UNL A   1      46.242  24.765  34.115  1.00  0.00     0.131 A 
ATOM     87  C   UNL A   1      48.762  24.971  32.987  1.00  0.00     0.055 A 
ATOM     88  C   UNL A   1      47.279  23.960  34.589  1.00  0.00     0.041 A 
ATOM     89  F   UNL A   1      45.030  24.608  34.670  1.00  0.00    -0.206 F 
ATOM     90  C   UNL A   1      48.544  24.049  34.014  1.00  0.00     0.022 A 
BRANCH  87  91
ATOM     91  S   UNL A   1      50.358  25.009  32.125  1.00  0.00     0.124 S 
ATOM     92  O   UNL A   1      50.743  23.601  32.132  1.00  0.00    -0.237 OA
ATOM     93  O   UNL A   1      49.996  25.564  30.825  1.00  0.00    -0.237 OA
ATOM     94  O   UNL A   1      51.180  25.879  32.964  1.00  0.00    -0.744 OA
ENDBRANCH  87  91
ENDBRANCH  61  84
ENDBRANCH  35  36
ENDBRANCH  27  30
ENDBRANCH  25  26
ENDBRANCH   1  25
TORSDOF 18
ENDMDL
MODEL 2
REMARK VINA RESULT:     -11.1      4.731      9.794
REMARK SMILES CCC(CC)(NC(=O)N(C)[C@H]1CCC[C@H](C)C1)C(=O)NCCCNC(=O)c1ccc(-c2c3nc(c(-c4cc(S(=O)(=O)[O-])ccc4F)c4ccc([nH]4)c(-c4cc(S(=O)(=O)[O-])ccc4F)c4nc(c(-c5cc(S(=O)(=O)[O-])ccc5F)c5ccc2[nH]5)C=C4)C=C3)cc1
REMARK SMILES IDX 22 1 21 2 20 3 18 4 19 5 3 7 2 8 1 9 4 10 5 11 6 12 7 13
REMARK SMILES IDX 8 15 9 16 10 17 11 18 12 19 17 20 13 21 15 22 14 23 16 24
REMARK SMILES IDX 23 25 24 26 25 27 26 29 27 30 28 31 89 32 29 33 88 34 30 35
REMARK SMILES IDX 31 36 32 37 82 38 33 39 87 40 81 41 83 42 34 43 86 44 80 45
REMARK SMILES IDX 79 46 35 48 67 49 47 50 66 51 48 52 51 53 65 54 84 55 49 56
REMARK SMILES IDX 50 57 64 59 85 60 52 61 36 62 37 63 45 64 38 65 44 66 46 67
REMARK SMILES IDX 43 68 39 69 40 70 41 71 42 72 68 73 69 74 77 75 70 76 76 77
REMARK SMILES IDX 78 78 75 79 71 80 72 81 73 82 74 83 53 84 54 85 62 86 55 87
REMARK SMILES IDX 61 88 63 89 60 90 56 91 57 92 58 93 59 94
REMARK H PARENT 20 6 6 14 24 28 83 47 51 58
REMARK Flexibility Score: inf
ROOT
ATOM      1  C   UNL A   1      35.340  22.083  26.466  1.00  0.00     0.042 C 
ENDROOT
BRANCH   1   2
ATOM      2  C   UNL A   1      33.999  21.413  26.208  1.00  0.00     0.117 C 
BRANCH   2   3
ATOM      3  N   UNL A   1      33.320  21.839  24.991  1.00  0.00    -0.354 N 
ATOM      4  C   UNL A   1      32.542  22.913  24.663  1.00  0.00     0.245 C 
ATOM      5  O   UNL A   1      32.238  22.988  23.465  1.00  0.00    -0.272 OA
ATOM      6  H   UNL A   1      33.451  21.216  24.239  1.00  0.00     0.163 HD
BRANCH   4   7
ATOM      7  C   UNL A   1      32.157  24.048  25.668  1.00  0.00     0.120 C 
BRANCH   7   8
ATOM      8  C   UNL A   1      33.349  24.968  26.098  1.00  0.00     0.035 C 
ATOM      9  C   UNL A   1      34.355  25.368  25.021  1.00  0.00     0.007 C 
ENDBRANCH   7   8
BRANCH   7  10
ATOM     10  C   UNL A   1      31.624  23.298  26.947  1.00  0.00     0.035 C 
ATOM     11  C   UNL A   1      30.136  22.949  26.979  1.00  0.00     0.007 C 
ENDBRANCH   7  10
BRANCH   7  12
ATOM     12  N   UNL A   1      31.079  24.915  25.123  1.00  0.00    -0.323 N 
ATOM     13  C   UNL A   1      30.569  26.153  25.269  1.00  0.00     0.318 C 
ATOM     14  H   UNL A   1      30.575  24.426  24.433  1.00  0.00     0.166 HD
ATOM     15  O   UNL A   1      29.411  26.228  24.853  1.00  0.00    -0.249 OA
BRANCH  13  16
ATOM     16  N   UNL A   1      31.265  27.245  25.698  1.00  0.00    -0.325 N 
ATOM     17  C   UNL A   1      31.467  27.635  27.086  1.00  0.00     0.149 C 
BRANCH  16  18
ATOM     18  C   UNL A   1      31.821  28.244  24.731  1.00  0.00     0.086 C 
ATOM     19  C   UNL A   1      32.172  27.781  23.300  1.00  0.00     0.025 C 
ATOM     20  C   UNL A   1      31.067  29.581  24.725  1.00  0.00     0.028 C 
ATOM     21  C   UNL A   1      31.098  27.949  22.231  1.00  0.00     0.002 C 
ATOM     22  C   UNL A   1      29.902  29.634  23.735  1.00  0.00    -0.012 C 
ATOM     23  C   UNL A   1      30.360  29.277  22.317  1.00  0.00     0.003 C 
ATOM     24  C   UNL A   1      29.279  31.030  23.741  1.00  0.00     0.008 C 
ENDBRANCH  16  18
ENDBRANCH  13  16
ENDBRANCH   7  12
ENDBRANCH   4   7
ENDBRANCH   2   3
ENDBRANCH   1   2
BRANCH   1  25
ATOM     25  C   UNL A   1      36.341  22.054  25.316  1.00  0.00     0.118 C 
BRANCH  25  26
ATOM     26  N   UNL A   1      37.333  21.011  25.475  1.00  0.00    -0.352 N 
ATOM     27  C   UNL A   1      38.656  21.063  25.839  1.00  0.00     0.251 C 
ATOM     28  H   UNL A   1      37.000  20.104  25.288  1.00  0.00     0.163 HD
ATOM     29  O   UNL A   1      39.329  20.047  25.664  1.00  0.00    -0.269 OA
BRANCH  27  30
ATOM     30  C   UNL A   1      39.302  22.275  26.416  1.00  0.00     0.039 A 
ATOM     31  C   UNL A   1      38.790  23.522  26.037  1.00  0.00     0.014 A 
ATOM     32  C   UNL A   1      40.455  22.238  27.209  1.00  0.00     0.014 A 
ATOM     33  C   UNL A   1      39.411  24.707  26.448  1.00  0.00     0.010 A 
ATOM     34  C   UNL A   1      41.037  23.427  27.678  1.00  0.00     0.010 A 
ATOM     35  C   UNL A   1      40.538  24.678  27.283  1.00  0.00    -0.014 A 
BRANCH  35  36
ATOM     36  C   UNL A   1      41.202  25.953  27.691  1.00  0.00     0.031 A 
ATOM     37  C   UNL A   1      42.606  26.277  27.237  1.00  0.00     0.074 A 
ATOM     38  C   UNL A   1      40.538  26.841  28.458  1.00  0.00     0.049 A 
ATOM     39  N   UNL A   1      43.315  27.360  27.445  1.00  0.00    -0.248 NA
ATOM     40  C   UNL A   1      43.308  25.242  26.468  1.00  0.00     0.031 C 
ATOM     41  C   UNL A   1      39.193  26.646  29.003  1.00  0.00     0.029 A 
ATOM     42  N   UNL A   1      40.898  28.091  28.904  1.00  0.00    -0.354 N 
ATOM     43  C   UNL A   1      44.547  27.136  26.837  1.00  0.00     0.074 A 
ATOM     44  C   UNL A   1      44.504  25.788  26.305  1.00  0.00     0.031 C 
ATOM     45  C   UNL A   1      38.829  27.748  29.679  1.00  0.00     0.029 A 
ATOM     46  C   UNL A   1      39.920  28.718  29.643  1.00  0.00     0.049 A 
ATOM     47  H   UNL A   1      41.772  28.499  28.713  1.00  0.00     0.167 HD
ATOM     48  C   UNL A   1      45.606  27.977  26.710  1.00  0.00     0.034 A 
ATOM     49  C   UNL A   1      39.898  29.935  30.223  1.00  0.00     0.034 A 
ATOM     50  C   UNL A   1      45.642  29.324  27.228  1.00  0.00     0.049 A 
ATOM     51  C   UNL A   1      41.084  30.853  30.069  1.00  0.00     0.074 A 
ATOM     52  C   UNL A   1      46.647  30.271  27.103  1.00  0.00     0.029 A 
ATOM     53  N   UNL A   1      44.636  29.919  27.978  1.00  0.00    -0.354 N 
ATOM     54  N   UNL A   1      42.217  30.642  29.441  1.00  0.00    -0.248 NA
ATOM     55  C   UNL A   1      40.977  32.180  30.689  1.00  0.00     0.031 C 
ATOM     56  C   UNL A   1      46.274  31.411  27.824  1.00  0.00     0.029 A 
ATOM     57  C   UNL A   1      45.007  31.205  28.343  1.00  0.00     0.049 A 
ATOM     58  H   UNL A   1      43.782  29.490  28.215  1.00  0.00     0.167 HD
ATOM     59  C   UNL A   1      42.945  31.822  29.569  1.00  0.00     0.074 A 
ATOM     60  C   UNL A   1      42.115  32.744  30.316  1.00  0.00     0.031 C 
ATOM     61  C   UNL A   1      44.186  32.117  29.106  1.00  0.00     0.034 A 
BRANCH  48  62
ATOM     62  C   UNL A   1      46.829  27.447  25.997  1.00  0.00     0.023 A 
ATOM     63  C   UNL A   1      47.138  27.826  24.678  1.00  0.00     0.031 A 
ATOM     64  C   UNL A   1      47.691  26.539  26.637  1.00  0.00     0.131 A 
ATOM     65  C   UNL A   1      48.231  27.244  24.018  1.00  0.00     0.055 A 
ATOM     66  C   UNL A   1      48.823  26.023  26.002  1.00  0.00     0.041 A 
ATOM     67  F   UNL A   1      47.441  26.127  27.890  1.00  0.00    -0.206 F 
ATOM     68  C   UNL A   1      49.090  26.363  24.680  1.00  0.00     0.022 A 
BRANCH  65  69
ATOM     69  S   UNL A   1      48.433  27.546  22.241  1.00  0.00     0.124 S 
ATOM     70  O   UNL A   1      47.176  28.214  21.911  1.00  0.00    -0.237 OA
ATOM     71  O   UNL A   1      49.630  28.379  22.198  1.00  0.00    -0.237 OA
ATOM     72  O   UNL A   1      48.585  26.206  21.680  1.00  0.00    -0.744 OA
ENDBRANCH  65  69
ENDBRANCH  48  62
BRANCH  49  73
ATOM     73  C   UNL A   1      38.708  30.370  31.009  1.00  0.00     0.023 A 
ATOM     74  C   UNL A   1      37.639  31.040  30.396  1.00  0.00     0.031 A 
ATOM     75  C   UNL A   1      38.651  30.162  32.398  1.00  0.00     0.131 A 
ATOM     76  C   UNL A   1      36.575  31.520  31.177  1.00  0.00     0.055 A 
ATOM     77  C   UNL A   1      37.569  30.599  33.164  1.00  0.00     0.041 A 
ATOM     78  F   UNL A   1      39.648  29.522  33.031  1.00  0.00    -0.206 F 
ATOM     79  C   UNL A   1      36.529  31.294  32.554  1.00  0.00     0.022 A 
BRANCH  76  80
ATOM     80  S   UNL A   1      35.287  32.515  30.374  1.00  0.00     0.124 S 
ATOM     81  O   UNL A   1      34.967  31.701  29.208  1.00  0.00    -0.237 OA
ATOM     82  O   UNL A   1      34.265  32.579  31.413  1.00  0.00    -0.237 OA
ATOM     83  O   UNL A   1      35.963  33.779  30.090  1.00  0.00    -0.744 OA
ENDBRANCH  76  80
ENDBRANCH  49  73
BRANCH  61  84
ATOM     84  C   UNL A   1      44.702  33.512  29.369  1.00  0.00     0.023 A 
ATOM     85  C   UNL A   1      44.553  34.546  28.427  1.00  0.00     0.031 A 
ATOM     86  C   UNL A   1      45.385  33.800  30.564  1.00  0.00     0.131 A 
ATOM     87  C   UNL A   1      45.135  35.801  28.668  1.00  0.00     0.055 A 
ATOM     88  C   UNL A   1      45.912  35.067  30.822  1.00  0.00     0.041 A 
ATOM     89  F   UNL A   1      45.559  32.852  31.498  1.00  0.00    -0.206 F 
ATOM     90  C   UNL A   1      45.802  36.072  29.865  1.00  0.00     0.022 A 
BRANCH  87  91
ATOM     91  S   UNL A   1      45.100  37.046  27.348  1.00  0.00     0.124 S 
ATOM     92  O   UNL A   1      43.733  36.928  26.853  1.00  0.00    -0.237 OA
ATOM     93  O   UNL A   1      45.413  38.274  28.071  1.00  0.00    -0.237 OA
ATOM     94  O   UNL A   1      46.135  36.592  26.420  1.00  0.00    -0.744 OA
ENDBRANCH  87  91
ENDBRANCH  61  84
ENDBRANCH  35  36
ENDBRANCH  27  30
ENDBRANCH  25  26
ENDBRANCH   1  25
TORSDOF 18
ENDMDL
MODEL 3
REMARK VINA RESULT:     -11.1      2.472      3.120
REMARK SMILES CCC(CC)(NC(=O)N(C)[C@H]1CCC[C@H](C)C1)C(=O)NCCCNC(=O)c1ccc(-c2c3nc(c(-c4cc(S(=O)(=O)[O-])ccc4F)c4ccc([nH]4)c(-c4cc(S(=O)(=O)[O-])ccc4F)c4nc(c(-c5cc(S(=O)(=O)[O-])ccc5F)c5ccc2[nH]5)C=C4)C=C3)cc1
REMARK SMILES IDX 22 1 21 2 20 3 18 4 19 5 3 7 2 8 1 9 4 10 5 11 6 12 7 13
REMARK SMILES IDX 8 15 9 16 10 17 11 18 12 19 17 20 13 21 15 22 14 23 16 24
REMARK SMILES IDX 23 25 24 26 25 27 26 29 27 30 28 31 89 32 29 33 88 34 30 35
REMARK SMILES IDX 31 36 32 37 82 38 33 39 87 40 81 41 83 42 34 43 86 44 80 45
REMARK SMILES IDX 79 46 35 48 67 49 47 50 66 51 48 52 51 53 65 54 84 55 49 56
REMARK SMILES IDX 50 57 64 59 85 60 52 61 36 62 37 63 45 64 38 65 44 66 46 67
REMARK SMILES IDX 43 68 39 69 40 70 41 71 42 72 68 73 69 74 77 75 70 76 76 77
REMARK SMILES IDX 78 78 75 79 71 80 72 81 73 82 74 83 53 84 54 85 62 86 55 87
REMARK SMILES IDX 61 88 63 89 60 90 56 91 57 92 58 93 59 94
REMARK H PARENT 20 6 6 14 24 28 83 47 51 58
REMARK Flexibility Score: inf
ROOT
ATOM      1  C   UNL A   1      31.838  29.035  26.789  1.00  0.00     0.042 C 
ENDROOT
BRANCH   1   2
ATOM      2  C   UNL A   1      32.182  27.558  26.656  1.00  0.00     0.117 C 
BRANCH   2   3
ATOM      3  N   UNL A   1      31.058  26.646  26.822  1.00  0.00    -0.354 N 
ATOM      4  C   UNL A   1      30.263  25.950  25.956  1.00  0.00     0.245 C 
ATOM      5  O   UNL A   1      29.469  25.168  26.493  1.00  0.00    -0.272 OA
ATOM      6  H   UNL A   1      30.819  26.497  27.765  1.00  0.00     0.163 HD
BRANCH   4   7
ATOM      7  C   UNL A   1      30.408  26.014  24.399  1.00  0.00     0.120 C 
BRANCH   7   8
ATOM      8  C   UNL A   1      31.560  26.945  23.892  1.00  0.00     0.035 C 
ATOM      9  C   UNL A   1      32.362  26.479  22.678  1.00  0.00     0.007 C 
ENDBRANCH   7   8
BRANCH   7  10
ATOM     10  C   UNL A   1      29.038  26.595  23.884  1.00  0.00     0.035 C 
ATOM     11  C   UNL A   1      29.035  28.045  23.403  1.00  0.00     0.007 C 
ENDBRANCH   7  10
BRANCH   7  12
ATOM     12  N   UNL A   1      30.619  24.662  23.816  1.00  0.00    -0.323 N 
ATOM     13  C   UNL A   1      31.353  23.550  24.011  1.00  0.00     0.318 C 
ATOM     14  H   UNL A   1      30.031  24.542  23.035  1.00  0.00     0.166 HD
ATOM     15  O   UNL A   1      31.431  22.863  22.991  1.00  0.00    -0.249 OA
BRANCH  13  16
ATOM     16  N   UNL A   1      31.852  23.138  25.212  1.00  0.00    -0.325 N 
ATOM     17  C   UNL A   1      31.170  22.278  26.168  1.00  0.00     0.149 C 
BRANCH  16  18
ATOM     18  C   UNL A   1      33.166  23.641  25.723  1.00  0.00     0.086 C 
ATOM     19  C   UNL A   1      33.778  22.987  26.981  1.00  0.00     0.025 C 
ATOM     20  C   UNL A   1      34.217  23.848  24.623  1.00  0.00     0.028 C 
ATOM     21  C   UNL A   1      34.763  21.844  26.760  1.00  0.00     0.002 C 
ATOM     22  C   UNL A   1      35.076  22.614  24.344  1.00  0.00    -0.012 C 
ATOM     23  C   UNL A   1      35.742  22.097  25.624  1.00  0.00     0.003 C 
ATOM     24  C   UNL A   1      36.145  22.950  23.304  1.00  0.00     0.008 C 
ENDBRANCH  16  18
ENDBRANCH  13  16
ENDBRANCH   7  12
ENDBRANCH   4   7
ENDBRANCH   2   3
ENDBRANCH   1   2
BRANCH   1  25
ATOM     25  C   UNL A   1      32.688  30.001  25.970  1.00  0.00     0.118 C 
BRANCH  25  26
ATOM     26  N   UNL A   1      32.542  31.373  26.412  1.00  0.00    -0.352 N 
ATOM     27  C   UNL A   1      33.265  32.122  27.307  1.00  0.00     0.251 C 
ATOM     28  H   UNL A   1      31.789  31.854  25.997  1.00  0.00     0.163 HD
ATOM     29  O   UNL A   1      32.776  33.191  27.672  1.00  0.00    -0.269 OA
BRANCH  27  30
ATOM     30  C   UNL A   1      34.586  31.700  27.852  1.00  0.00     0.039 A 
ATOM     31  C   UNL A   1      34.693  30.394  28.346  1.00  0.00     0.014 A 
ATOM     32  C   UNL A   1      35.674  32.566  28.009  1.00  0.00     0.014 A 
ATOM     33  C   UNL A   1      35.865  29.959  28.974  1.00  0.00     0.010 A 
ATOM     34  C   UNL A   1      36.874  32.108  28.576  1.00  0.00     0.010 A 
ATOM     35  C   UNL A   1      36.978  30.806  29.090  1.00  0.00    -0.014 A 
BRANCH  35  36
ATOM     36  C   UNL A   1      38.212  30.332  29.787  1.00  0.00     0.031 A 
ATOM     37  C   UNL A   1      38.522  30.767  31.199  1.00  0.00     0.074 A 
ATOM     38  C   UNL A   1      39.055  29.487  29.160  1.00  0.00     0.049 A 
ATOM     39  N   UNL A   1      39.513  30.409  31.978  1.00  0.00    -0.248 NA
ATOM     40  C   UNL A   1      37.610  31.746  31.806  1.00  0.00     0.031 C 
ATOM     41  C   UNL A   1      38.905  29.013  27.782  1.00  0.00     0.029 A 
ATOM     42  N   UNL A   1      40.201  28.867  29.600  1.00  0.00    -0.354 N 
ATOM     43  C   UNL A   1      39.348  31.120  33.163  1.00  0.00     0.074 A 
ATOM     44  C   UNL A   1      38.193  31.974  32.974  1.00  0.00     0.031 C 
ATOM     45  C   UNL A   1      39.898  28.153  27.503  1.00  0.00     0.029 A 
ATOM     46  C   UNL A   1      40.773  28.033  28.667  1.00  0.00     0.049 A 
ATOM     47  H   UNL A   1      40.576  29.008  30.498  1.00  0.00     0.167 HD
ATOM     48  C   UNL A   1      40.072  31.055  34.311  1.00  0.00     0.034 A 
ATOM     49  C   UNL A   1      41.872  27.255  28.735  1.00  0.00     0.034 A 
ATOM     50  C   UNL A   1      41.215  30.193  34.504  1.00  0.00     0.049 A 
ATOM     51  C   UNL A   1      42.660  27.197  30.019  1.00  0.00     0.074 A 
ATOM     52  C   UNL A   1      41.979  30.015  35.646  1.00  0.00     0.029 A 
ATOM     53  N   UNL A   1      41.768  29.370  33.532  1.00  0.00    -0.354 N 
ATOM     54  N   UNL A   1      42.453  27.834  31.147  1.00  0.00    -0.248 NA
ATOM     55  C   UNL A   1      43.821  26.297  30.040  1.00  0.00     0.031 C 
ATOM     56  C   UNL A   1      43.024  29.134  35.348  1.00  0.00     0.029 A 
ATOM     57  C   UNL A   1      42.876  28.706  34.040  1.00  0.00     0.049 A 
ATOM     58  H   UNL A   1      41.423  29.272  32.615  1.00  0.00     0.167 HD
ATOM     59  C   UNL A   1      43.443  27.390  32.020  1.00  0.00     0.074 A 
ATOM     60  C   UNL A   1      44.233  26.418  31.293  1.00  0.00     0.031 C 
ATOM     61  C   UNL A   1      43.674  27.751  33.307  1.00  0.00     0.034 A 
BRANCH  48  62
ATOM     62  C   UNL A   1      39.657  31.964  35.445  1.00  0.00     0.023 A 
ATOM     63  C   UNL A   1      38.893  31.493  36.528  1.00  0.00     0.031 A 
ATOM     64  C   UNL A   1      40.015  33.324  35.436  1.00  0.00     0.131 A 
ATOM     65  C   UNL A   1      38.451  32.387  37.516  1.00  0.00     0.055 A 
ATOM     66  C   UNL A   1      39.638  34.192  36.464  1.00  0.00     0.041 A 
ATOM     67  F   UNL A   1      40.730  33.836  34.422  1.00  0.00    -0.206 F 
ATOM     68  C   UNL A   1      38.839  33.728  37.503  1.00  0.00     0.022 A 
BRANCH  65  69
ATOM     69  S   UNL A   1      37.246  31.801  38.739  1.00  0.00     0.124 S 
ATOM     70  O   UNL A   1      37.981  31.987  39.988  1.00  0.00    -0.237 OA
ATOM     71  O   UNL A   1      36.116  32.697  38.522  1.00  0.00    -0.237 OA
ATOM     72  O   UNL A   1      37.021  30.408  38.358  1.00  0.00    -0.744 OA
ENDBRANCH  65  69
ENDBRANCH  48  62
BRANCH  49  73
ATOM     73  C   UNL A   1      42.303  26.459  27.551  1.00  0.00     0.023 A 
ATOM     74  C   UNL A   1      41.951  25.106  27.419  1.00  0.00     0.031 A 
ATOM     75  C   UNL A   1      43.118  27.031  26.559  1.00  0.00     0.131 A 
ATOM     76  C   UNL A   1      42.449  24.357  26.342  1.00  0.00     0.055 A 
ATOM     77  C   UNL A   1      43.571  26.295  25.464  1.00  0.00     0.041 A 
ATOM     78  F   UNL A   1      43.478  28.323  26.638  1.00  0.00    -0.206 F 
ATOM     79  C   UNL A   1      43.247  24.946  25.358  1.00  0.00     0.022 A 
BRANCH  76  80
ATOM     80  S   UNL A   1      42.099  22.578  26.286  1.00  0.00     0.124 S 
ATOM     81  O   UNL A   1      40.644  22.557  26.360  1.00  0.00    -0.237 OA
ATOM     82  O   UNL A   1      42.682  22.196  25.004  1.00  0.00    -0.237 OA
ATOM     83  O   UNL A   1      42.794  22.059  27.462  1.00  0.00    -0.744 OA
ENDBRANCH  76  80
ENDBRANCH  49  73
BRANCH  61  84
ATOM     84  C   UNL A   1      44.812  27.058  34.019  1.00  0.00     0.023 A 
ATOM     85  C   UNL A   1      44.640  25.817  34.658  1.00  0.00     0.031 A 
ATOM     86  C   UNL A   1      46.078  27.667  34.090  1.00  0.00     0.131 A 
ATOM     87  C   UNL A   1      45.696  25.255  35.394  1.00  0.00     0.055 A 
ATOM     88  C   UNL A   1      47.141  27.076  34.775  1.00  0.00     0.041 A 
ATOM     89  F   UNL A   1      46.301  28.852  33.500  1.00  0.00    -0.206 F 
ATOM     90  C   UNL A   1      46.949  25.871  35.445  1.00  0.00     0.022 A 
BRANCH  87  91
ATOM     91  S   UNL A   1      45.379  23.761  36.372  1.00  0.00     0.124 S 
ATOM     92  O   UNL A   1      45.344  24.287  37.732  1.00  0.00    -0.237 OA
ATOM     93  O   UNL A   1      44.102  23.302  35.834  1.00  0.00    -0.237 OA
ATOM     94  O   UNL A   1      46.523  22.903  36.069  1.00  0.00    -0.744 OA
ENDBRANCH  87  91
ENDBRANCH  61  84
ENDBRANCH  35  36
ENDBRANCH  27  30
ENDBRANCH  25  26
ENDBRANCH   1  25
TORSDOF 18
ENDMDL
