MODEL 1
REMARK VINA RESULT:     -13.6      0.000      0.000
REMARK SMILES CCCSc1nc2n(n1)[C@@H](c1ccc(C(=O)NCCCNC(=O)c3ccc(-c4c5nc(c(-c6cc(S(=O)(=O)[O-])ccc6F)c6ccc([nH]6)c(-c6cc(S(=O)(=O)[O-])ccc6F)c6nc(c(-c7cc(S(=O)(=O)[O-])ccc7F)c7ccc4[nH]7)C=C6)C=C5)cc3)cc1)C(C(=O)Nc1cccc(C)c1)=C(C)N2
REMARK SMILES IDX 18 1 17 2 15 3 16 4 14 6 11 7 12 8 88 9 13 10 87 11 10 12
REMARK SMILES IDX 5 13 6 14 9 15 7 16 8 17 102 18 100 19 89 21 101 22 4 23
REMARK SMILES IDX 3 24 2 25 1 26 90 27 91 28 92 29 93 31 94 32 99 33 95 34
REMARK SMILES IDX 97 35 96 36 98 37 19 38 20 39 21 40 22 41 23 43 24 44 25 45
REMARK SMILES IDX 86 46 26 47 85 48 27 49 28 50 29 51 79 52 30 53 84 54 78 55
REMARK SMILES IDX 80 56 31 57 83 58 77 59 76 60 32 62 64 63 44 64 63 65 45 66
REMARK SMILES IDX 48 67 62 68 81 69 46 70 47 71 61 73 82 74 49 75 33 76 34 77
REMARK SMILES IDX 42 78 35 79 41 80 43 81 40 82 36 83 37 84 38 85 39 86 65 87
REMARK SMILES IDX 66 88 74 89 67 90 73 91 75 92 72 93 68 94 69 95 70 96 71 97
REMARK SMILES IDX 50 98 51 99 59 100 52 101 58 102 60 103 57 104 53 105 54 106
REMARK SMILES IDX 55 107 56 108
REMARK H PARENT 17 5 102 20 92 30 21 42 80 61 48 72
REMARK Flexibility Score: inf
ROOT
ATOM      1  C   UNL A   1      33.272  30.233  26.865  1.00  0.00     0.118 C 
ENDROOT
BRANCH   1   2
ATOM      2  N   UNL A   1      33.018  30.164  25.432  1.00  0.00    -0.352 N 
ATOM      3  C   UNL A   1      32.901  29.087  24.585  1.00  0.00     0.251 C 
ATOM      4  O   UNL A   1      32.493  29.275  23.441  1.00  0.00    -0.269 OA
ATOM      5  H   UNL A   1      32.909  31.040  24.995  1.00  0.00     0.163 HD
BRANCH   3   6
ATOM      6  C   UNL A   1      33.187  27.697  25.024  1.00  0.00     0.039 A 
ATOM      7  C   UNL A   1      33.639  24.965  25.650  1.00  0.00    -0.019 A 
ATOM      8  C   UNL A   1      34.282  25.584  24.559  1.00  0.00     0.007 A 
ATOM      9  C   UNL A   1      32.877  25.786  26.488  1.00  0.00     0.007 A 
ATOM     10  C   UNL A   1      34.066  26.934  24.256  1.00  0.00     0.014 A 
ATOM     11  C   UNL A   1      32.654  27.128  26.177  1.00  0.00     0.014 A 
BRANCH   7  12
ATOM     12  C   UNL A   1      33.595  23.425  25.854  1.00  0.00     0.179 C 
ATOM     13  C   UNL A   1      36.994  22.772  25.778  1.00  0.00     0.210 A 
ATOM     14  N   UNL A   1      36.699  22.358  24.499  1.00  0.00    -0.185 NA
ATOM     15  N   UNL A   1      35.933  22.979  26.565  1.00  0.00    -0.141 NA
ATOM     16  C   UNL A   1      35.394  22.430  24.464  1.00  0.00     0.227 A 
ATOM     17  N   UNL A   1      34.931  22.849  25.681  1.00  0.00    -0.218 N 
ATOM     18  N   UNL A   1      34.516  22.328  23.450  1.00  0.00    -0.328 N 
ATOM     19  C   UNL A   1      33.139  22.518  23.594  1.00  0.00     0.026 C 
ATOM     20  H   UNL A   1      34.864  22.108  22.556  1.00  0.00     0.169 HD
ATOM     21  C   UNL A   1      32.614  22.816  24.818  1.00  0.00     0.065 C 
ATOM     22  C   UNL A   1      32.386  22.465  22.291  1.00  0.00     0.065 C 
BRANCH  13  23
ATOM     23  S   UNL A   1      38.610  23.224  26.244  1.00  0.00    -0.084 SA
BRANCH  23  24
ATOM     24  C   UNL A   1      39.498  21.643  26.264  1.00  0.00     0.078 C 
BRANCH  24  25
ATOM     25  C   UNL A   1      40.469  21.426  27.429  1.00  0.00     0.008 C 
ATOM     26  C   UNL A   1      41.168  20.075  27.449  1.00  0.00     0.005 C 
ENDBRANCH  24  25
ENDBRANCH  23  24
ENDBRANCH  13  23
BRANCH  21  27
ATOM     27  C   UNL A   1      31.179  22.829  25.291  1.00  0.00     0.255 C 
ATOM     28  O   UNL A   1      30.708  21.853  25.878  1.00  0.00    -0.269 OA
ATOM     29  N   UNL A   1      30.330  23.877  25.095  1.00  0.00    -0.322 N 
ATOM     30  H   UNL A   1      29.586  23.933  25.737  1.00  0.00     0.170 HD
BRANCH  29  31
ATOM     31  C   UNL A   1      30.347  24.881  24.128  1.00  0.00     0.041 A 
ATOM     32  C   UNL A   1      29.581  26.023  24.363  1.00  0.00     0.026 A 
ATOM     33  C   UNL A   1      31.170  24.801  23.005  1.00  0.00     0.029 A 
ATOM     34  C   UNL A   1      29.767  27.148  23.561  1.00  0.00     0.002 A 
ATOM     35  C   UNL A   1      31.358  25.923  22.194  1.00  0.00    -0.049 A 
ATOM     36  C   UNL A   1      30.669  27.104  22.494  1.00  0.00     0.003 A 
ATOM     37  C   UNL A   1      32.380  25.887  21.099  1.00  0.00     0.044 C 
ENDBRANCH  29  31
ENDBRANCH  21  27
ENDBRANCH   7  12
ENDBRANCH   3   6
ENDBRANCH   1   2
BRANCH   1  38
ATOM     38  C   UNL A   1      34.729  30.586  27.199  1.00  0.00     0.042 C 
BRANCH  38  39
ATOM     39  C   UNL A   1      35.443  29.504  27.984  1.00  0.00     0.118 C 
BRANCH  39  40
ATOM     40  N   UNL A   1      35.602  29.830  29.403  1.00  0.00    -0.352 N 
ATOM     41  C   UNL A   1      36.606  29.419  30.272  1.00  0.00     0.251 C 
ATOM     42  H   UNL A   1      34.911  30.415  29.790  1.00  0.00     0.163 HD
ATOM     43  O   UNL A   1      36.423  29.431  31.475  1.00  0.00    -0.269 OA
BRANCH  41  44
ATOM     44  C   UNL A   1      37.886  28.960  29.693  1.00  0.00     0.039 A 
ATOM     45  C   UNL A   1      38.514  29.615  28.631  1.00  0.00     0.014 A 
ATOM     46  C   UNL A   1      38.487  27.864  30.295  1.00  0.00     0.014 A 
ATOM     47  C   UNL A   1      39.790  29.193  28.248  1.00  0.00     0.010 A 
ATOM     48  C   UNL A   1      39.817  27.637  30.102  1.00  0.00     0.010 A 
ATOM     49  C   UNL A   1      40.442  28.209  29.007  1.00  0.00    -0.014 A 
BRANCH  49  50
ATOM     50  C   UNL A   1      41.816  27.790  28.752  1.00  0.00     0.031 A 
ATOM     51  C   UNL A   1      41.932  26.530  27.981  1.00  0.00     0.074 A 
ATOM     52  C   UNL A   1      42.877  28.606  28.954  1.00  0.00     0.049 A 
ATOM     53  N   UNL A   1      42.283  25.368  28.418  1.00  0.00    -0.248 NA
ATOM     54  C   UNL A   1      41.417  26.512  26.602  1.00  0.00     0.031 C 
ATOM     55  C   UNL A   1      42.875  30.007  29.404  1.00  0.00     0.029 A 
ATOM     56  N   UNL A   1      44.191  28.395  28.677  1.00  0.00    -0.354 N 
ATOM     57  C   UNL A   1      42.313  24.542  27.300  1.00  0.00     0.074 A 
ATOM     58  C   UNL A   1      41.526  25.215  26.305  1.00  0.00     0.031 C 
ATOM     59  C   UNL A   1      44.069  30.579  29.135  1.00  0.00     0.029 A 
ATOM     60  C   UNL A   1      44.980  29.543  28.687  1.00  0.00     0.049 A 
ATOM     61  H   UNL A   1      44.557  27.501  28.486  1.00  0.00     0.167 HD
ATOM     62  C   UNL A   1      43.228  23.535  27.203  1.00  0.00     0.034 A 
ATOM     63  C   UNL A   1      46.292  29.651  28.347  1.00  0.00     0.034 A 
ATOM     64  C   UNL A   1      43.846  23.284  28.492  1.00  0.00     0.049 A 
ATOM     65  C   UNL A   1      46.867  28.289  28.468  1.00  0.00     0.074 A 
ATOM     66  C   UNL A   1      43.372  22.948  29.747  1.00  0.00     0.029 A 
ATOM     67  N   UNL A   1      45.116  23.777  28.703  1.00  0.00    -0.354 N 
ATOM     68  N   UNL A   1      46.948  27.649  29.604  1.00  0.00    -0.248 NA
ATOM     69  C   UNL A   1      46.885  27.443  27.285  1.00  0.00     0.031 C 
ATOM     70  C   UNL A   1      44.160  23.716  30.656  1.00  0.00     0.029 A 
ATOM     71  C   UNL A   1      45.131  24.406  29.924  1.00  0.00     0.049 A 
ATOM     72  H   UNL A   1      45.879  23.694  28.086  1.00  0.00     0.167 HD
ATOM     73  C   UNL A   1      46.575  26.347  29.310  1.00  0.00     0.074 A 
ATOM     74  C   UNL A   1      46.663  26.254  27.853  1.00  0.00     0.031 C 
ATOM     75  C   UNL A   1      45.953  25.561  30.241  1.00  0.00     0.034 A 
BRANCH  62  76
ATOM     76  C   UNL A   1      43.872  23.064  25.910  1.00  0.00     0.023 A 
ATOM     77  C   UNL A   1      43.870  21.676  25.677  1.00  0.00     0.031 A 
ATOM     78  C   UNL A   1      44.717  23.818  25.063  1.00  0.00     0.131 A 
ATOM     79  C   UNL A   1      44.769  21.087  24.772  1.00  0.00     0.055 A 
ATOM     80  C   UNL A   1      45.563  23.233  24.114  1.00  0.00     0.041 A 
ATOM     81  F   UNL A   1      44.843  25.145  25.143  1.00  0.00    -0.206 F 
ATOM     82  C   UNL A   1      45.625  21.857  23.993  1.00  0.00     0.022 A 
BRANCH  79  83
ATOM     83  S   UNL A   1      44.934  19.286  24.786  1.00  0.00     0.124 S 
ATOM     84  O   UNL A   1      46.211  19.117  25.471  1.00  0.00    -0.237 OA
ATOM     85  O   UNL A   1      43.744  18.883  25.529  1.00  0.00    -0.237 OA
ATOM     86  O   UNL A   1      44.934  18.936  23.368  1.00  0.00    -0.744 OA
ENDBRANCH  79  83
ENDBRANCH  62  76
BRANCH  63  87
ATOM     87  C   UNL A   1      46.944  30.773  27.616  1.00  0.00     0.023 A 
ATOM     88  C   UNL A   1      46.229  31.811  26.983  1.00  0.00     0.031 A 
ATOM     89  C   UNL A   1      48.341  30.952  27.746  1.00  0.00     0.131 A 
ATOM     90  C   UNL A   1      46.911  32.963  26.515  1.00  0.00     0.055 A 
ATOM     91  C   UNL A   1      49.007  32.089  27.283  1.00  0.00     0.041 A 
ATOM     92  F   UNL A   1      49.093  30.058  28.407  1.00  0.00    -0.206 F 
ATOM     93  C   UNL A   1      48.292  33.105  26.671  1.00  0.00     0.022 A 
BRANCH  90  94
ATOM     94  S   UNL A   1      45.992  34.343  25.752  1.00  0.00     0.124 S 
ATOM     95  O   UNL A   1      45.009  33.649  24.929  1.00  0.00    -0.237 OA
ATOM     96  O   UNL A   1      45.477  35.056  26.915  1.00  0.00    -0.237 OA
ATOM     97  O   UNL A   1      47.019  35.064  24.998  1.00  0.00    -0.744 OA
ENDBRANCH  90  94
ENDBRANCH  63  87
BRANCH  75  98
ATOM     98  C   UNL A   1      45.956  26.025  31.688  1.00  0.00     0.023 A 
ATOM     99  C   UNL A   1      44.851  26.588  32.368  1.00  0.00     0.031 A 
ATOM    100  C   UNL A   1      47.118  25.769  32.437  1.00  0.00     0.131 A 
ATOM    101  C   UNL A   1      44.943  26.878  33.747  1.00  0.00     0.055 A 
ATOM    102  C   UNL A   1      47.198  26.039  33.803  1.00  0.00     0.041 A 
ATOM    103  F   UNL A   1      48.193  25.211  31.856  1.00  0.00    -0.206 F 
ATOM    104  C   UNL A   1      46.112  26.601  34.462  1.00  0.00     0.022 A 
BRANCH 101 105
ATOM    105  S   UNL A   1      43.546  27.642  34.639  1.00  0.00     0.124 S 
ATOM    106  O   UNL A   1      43.357  28.915  33.956  1.00  0.00    -0.237 OA
ATOM    107  O   UNL A   1      42.482  26.657  34.465  1.00  0.00    -0.237 OA
ATOM    108  O   UNL A   1      44.043  27.757  36.013  1.00  0.00    -0.744 OA
ENDBRANCH 101 105
ENDBRANCH  75  98
ENDBRANCH  49  50
ENDBRANCH  41  44
ENDBRANCH  39  40
ENDBRANCH  38  39
ENDBRANCH   1  38
TORSDOF 19
ENDMDL
MODEL 2
REMARK VINA RESULT:     -13.1      3.030      8.177
REMARK SMILES CCCSc1nc2n(n1)[C@@H](c1ccc(C(=O)NCCCNC(=O)c3ccc(-c4c5nc(c(-c6cc(S(=O)(=O)[O-])ccc6F)c6ccc([nH]6)c(-c6cc(S(=O)(=O)[O-])ccc6F)c6nc(c(-c7cc(S(=O)(=O)[O-])ccc7F)c7ccc4[nH]7)C=C6)C=C5)cc3)cc1)C(C(=O)Nc1cccc(C)c1)=C(C)N2
REMARK SMILES IDX 18 1 17 2 15 3 16 4 14 6 11 7 12 8 88 9 13 10 87 11 10 12
REMARK SMILES IDX 5 13 6 14 9 15 7 16 8 17 102 18 100 19 89 21 101 22 4 23
REMARK SMILES IDX 3 24 2 25 1 26 90 27 91 28 92 29 93 31 94 32 99 33 95 34
REMARK SMILES IDX 97 35 96 36 98 37 19 38 20 39 21 40 22 41 23 43 24 44 25 45
REMARK SMILES IDX 86 46 26 47 85 48 27 49 28 50 29 51 79 52 30 53 84 54 78 55
REMARK SMILES IDX 80 56 31 57 83 58 77 59 76 60 32 62 64 63 44 64 63 65 45 66
REMARK SMILES IDX 48 67 62 68 81 69 46 70 47 71 61 73 82 74 49 75 33 76 34 77
REMARK SMILES IDX 42 78 35 79 41 80 43 81 40 82 36 83 37 84 38 85 39 86 65 87
REMARK SMILES IDX 66 88 74 89 67 90 73 91 75 92 72 93 68 94 69 95 70 96 71 97
REMARK SMILES IDX 50 98 51 99 59 100 52 101 58 102 60 103 57 104 53 105 54 106
REMARK SMILES IDX 55 107 56 108
REMARK H PARENT 17 5 102 20 92 30 21 42 80 61 48 72
REMARK Flexibility Score: inf
ROOT
ATOM      1  C   UNL A   1      38.035  20.782  25.607  1.00  0.00     0.118 C 
ENDROOT
BRANCH   1   2
ATOM      2  N   UNL A   1      38.440  22.181  25.622  1.00  0.00    -0.352 N 
ATOM      3  C   UNL A   1      37.699  23.337  25.704  1.00  0.00     0.251 C 
ATOM      4  O   UNL A   1      38.283  24.403  25.891  1.00  0.00    -0.269 OA
ATOM      5  H   UNL A   1      39.413  22.324  25.564  1.00  0.00     0.163 HD
BRANCH   3   6
ATOM      6  C   UNL A   1      36.215  23.335  25.641  1.00  0.00     0.039 A 
ATOM      7  C   UNL A   1      33.385  23.107  25.618  1.00  0.00    -0.019 A 
ATOM      8  C   UNL A   1      34.113  23.098  26.825  1.00  0.00     0.007 A 
ATOM      9  C   UNL A   1      34.103  23.367  24.445  1.00  0.00     0.007 A 
ATOM     10  C   UNL A   1      35.507  23.220  26.837  1.00  0.00     0.014 A 
ATOM     11  C   UNL A   1      35.493  23.476  24.458  1.00  0.00     0.014 A 
BRANCH   7  12
ATOM     12  C   UNL A   1      31.896  22.674  25.515  1.00  0.00     0.179 C 
ATOM     13  C   UNL A   1      32.295  19.810  23.612  1.00  0.00     0.210 A 
ATOM     14  N   UNL A   1      31.861  20.641  22.604  1.00  0.00    -0.185 NA
ATOM     15  N   UNL A   1      32.144  20.293  24.849  1.00  0.00    -0.141 NA
ATOM     16  C   UNL A   1      31.540  21.733  23.246  1.00  0.00     0.227 A 
ATOM     17  N   UNL A   1      31.754  21.551  24.584  1.00  0.00    -0.218 N 
ATOM     18  N   UNL A   1      31.219  22.966  22.815  1.00  0.00    -0.328 N 
ATOM     19  C   UNL A   1      30.982  24.048  23.667  1.00  0.00     0.026 C 
ATOM     20  H   UNL A   1      31.149  23.114  21.844  1.00  0.00     0.169 HD
ATOM     21  C   UNL A   1      31.062  23.884  25.019  1.00  0.00     0.065 C 
ATOM     22  C   UNL A   1      30.757  25.347  22.939  1.00  0.00     0.065 C 
BRANCH  13  23
ATOM     23  S   UNL A   1      33.192  18.355  23.277  1.00  0.00    -0.084 SA
BRANCH  23  24
ATOM     24  C   UNL A   1      32.695  17.238  24.615  1.00  0.00     0.078 C 
BRANCH  24  25
ATOM     25  C   UNL A   1      33.298  15.829  24.582  1.00  0.00     0.008 C 
ATOM     26  C   UNL A   1      32.814  14.889  25.675  1.00  0.00     0.005 C 
ENDBRANCH  24  25
ENDBRANCH  23  24
ENDBRANCH  13  23
BRANCH  21  27
ATOM     27  C   UNL A   1      30.625  24.795  26.143  1.00  0.00     0.255 C 
ATOM     28  O   UNL A   1      29.656  24.499  26.844  1.00  0.00    -0.269 OA
ATOM     29  N   UNL A   1      31.242  25.974  26.441  1.00  0.00    -0.322 N 
ATOM     30  H   UNL A   1      31.127  26.279  27.369  1.00  0.00     0.170 HD
BRANCH  29  31
ATOM     31  C   UNL A   1      32.008  26.817  25.638  1.00  0.00     0.041 A 
ATOM     32  C   UNL A   1      33.385  26.594  25.589  1.00  0.00     0.026 A 
ATOM     33  C   UNL A   1      31.422  27.792  24.831  1.00  0.00     0.029 A 
ATOM     34  C   UNL A   1      34.147  27.234  24.614  1.00  0.00     0.002 A 
ATOM     35  C   UNL A   1      32.180  28.441  23.854  1.00  0.00    -0.049 A 
ATOM     36  C   UNL A   1      33.542  28.138  23.735  1.00  0.00     0.003 A 
ATOM     37  C   UNL A   1      31.508  29.352  22.872  1.00  0.00     0.044 C 
ENDBRANCH  29  31
ENDBRANCH  21  27
ENDBRANCH   7  12
ENDBRANCH   3   6
ENDBRANCH   1   2
BRANCH   1  38
ATOM     38  C   UNL A   1      39.110  19.853  25.028  1.00  0.00     0.042 C 
BRANCH  38  39
ATOM     39  C   UNL A   1      39.822  19.029  26.082  1.00  0.00     0.118 C 
BRANCH  39  40
ATOM     40  N   UNL A   1      41.238  18.804  25.781  1.00  0.00    -0.352 N 
ATOM     41  C   UNL A   1      42.266  19.739  25.740  1.00  0.00     0.251 C 
ATOM     42  H   UNL A   1      41.493  17.875  25.583  1.00  0.00     0.163 HD
ATOM     43  O   UNL A   1      43.284  19.508  25.115  1.00  0.00    -0.269 OA
BRANCH  41  44
ATOM     44  C   UNL A   1      42.080  21.015  26.462  1.00  0.00     0.039 A 
ATOM     45  C   UNL A   1      41.554  21.083  27.754  1.00  0.00     0.014 A 
ATOM     46  C   UNL A   1      42.512  22.166  25.819  1.00  0.00     0.014 A 
ATOM     47  C   UNL A   1      41.550  22.317  28.409  1.00  0.00     0.010 A 
ATOM     48  C   UNL A   1      42.753  23.292  26.548  1.00  0.00     0.010 A 
ATOM     49  C   UNL A   1      42.173  23.417  27.799  1.00  0.00    -0.014 A 
BRANCH  49  50
ATOM     50  C   UNL A   1      42.319  24.712  28.455  1.00  0.00     0.031 A 
ATOM     51  C   UNL A   1      41.162  25.619  28.270  1.00  0.00     0.074 A 
ATOM     52  C   UNL A   1      43.286  24.961  29.369  1.00  0.00     0.049 A 
ATOM     53  N   UNL A   1      41.094  26.668  27.522  1.00  0.00    -0.248 NA
ATOM     54  C   UNL A   1      39.865  25.211  28.834  1.00  0.00     0.031 C 
ATOM     55  C   UNL A   1      44.302  24.036  29.894  1.00  0.00     0.029 A 
ATOM     56  N   UNL A   1      43.490  26.073  30.126  1.00  0.00    -0.354 N 
ATOM     57  C   UNL A   1      39.836  27.213  27.754  1.00  0.00     0.074 A 
ATOM     58  C   UNL A   1      39.060  26.150  28.332  1.00  0.00     0.031 C 
ATOM     59  C   UNL A   1      44.836  24.535  31.030  1.00  0.00     0.029 A 
ATOM     60  C   UNL A   1      44.354  25.892  31.203  1.00  0.00     0.049 A 
ATOM     61  H   UNL A   1      43.061  26.936  29.927  1.00  0.00     0.167 HD
ATOM     62  C   UNL A   1      39.646  28.563  27.729  1.00  0.00     0.034 A 
ATOM     63  C   UNL A   1      44.659  26.787  32.181  1.00  0.00     0.034 A 
ATOM     64  C   UNL A   1      40.786  29.225  27.121  1.00  0.00     0.049 A 
ATOM     65  C   UNL A   1      44.337  28.127  31.633  1.00  0.00     0.074 A 
ATOM     66  C   UNL A   1      41.424  29.131  25.899  1.00  0.00     0.029 A 
ATOM     67  N   UNL A   1      41.689  29.846  27.958  1.00  0.00    -0.354 N 
ATOM     68  N   UNL A   1      44.959  28.645  30.608  1.00  0.00    -0.248 NA
ATOM     69  C   UNL A   1      43.013  28.674  31.889  1.00  0.00     0.031 C 
ATOM     70  C   UNL A   1      42.816  29.228  26.202  1.00  0.00     0.029 A 
ATOM     71  C   UNL A   1      42.953  29.470  27.572  1.00  0.00     0.049 A 
ATOM     72  H   UNL A   1      41.467  30.452  28.701  1.00  0.00     0.167 HD
ATOM     73  C   UNL A   1      43.962  29.231  29.842  1.00  0.00     0.074 A 
ATOM     74  C   UNL A   1      42.808  29.318  30.735  1.00  0.00     0.031 C 
ATOM     75  C   UNL A   1      44.075  29.318  28.482  1.00  0.00     0.034 A 
BRANCH  62  76
ATOM     76  C   UNL A   1      38.662  29.321  28.604  1.00  0.00     0.023 A 
ATOM     77  C   UNL A   1      38.930  29.331  29.986  1.00  0.00     0.031 A 
ATOM     78  C   UNL A   1      37.372  29.766  28.235  1.00  0.00     0.131 A 
ATOM     79  C   UNL A   1      37.921  29.615  30.922  1.00  0.00     0.055 A 
ATOM     80  C   UNL A   1      36.390  30.113  29.169  1.00  0.00     0.041 A 
ATOM     81  F   UNL A   1      36.947  29.822  26.970  1.00  0.00    -0.206 F 
ATOM     82  C   UNL A   1      36.646  29.999  30.523  1.00  0.00     0.022 A 
BRANCH  79  83
ATOM     83  S   UNL A   1      38.258  29.274  32.667  1.00  0.00     0.124 S 
ATOM     84  O   UNL A   1      37.642  27.962  32.830  1.00  0.00    -0.237 OA
ATOM     85  O   UNL A   1      39.717  29.312  32.701  1.00  0.00    -0.237 OA
ATOM     86  O   UNL A   1      37.588  30.371  33.360  1.00  0.00    -0.744 OA
ENDBRANCH  79  83
ENDBRANCH  62  76
BRANCH  63  87
ATOM     87  C   UNL A   1      44.875  26.503  33.627  1.00  0.00     0.023 A 
ATOM     88  C   UNL A   1      43.881  26.678  34.613  1.00  0.00     0.031 A 
ATOM     89  C   UNL A   1      46.041  25.807  34.019  1.00  0.00     0.131 A 
ATOM     90  C   UNL A   1      44.078  26.167  35.920  1.00  0.00     0.055 A 
ATOM     91  C   UNL A   1      46.230  25.306  35.309  1.00  0.00     0.041 A 
ATOM     92  F   UNL A   1      47.005  25.518  33.129  1.00  0.00    -0.206 F 
ATOM     93  C   UNL A   1      45.243  25.477  36.265  1.00  0.00     0.022 A 
BRANCH  90  94
ATOM     94  S   UNL A   1      42.776  26.330  37.189  1.00  0.00     0.124 S 
ATOM     95  O   UNL A   1      42.094  27.554  36.785  1.00  0.00    -0.237 OA
ATOM     96  O   UNL A   1      42.028  25.088  37.030  1.00  0.00    -0.237 OA
ATOM     97  O   UNL A   1      43.527  26.435  38.441  1.00  0.00    -0.744 OA
ENDBRANCH  90  94
ENDBRANCH  63  87
BRANCH  75  98
ATOM     98  C   UNL A   1      45.434  29.050  27.856  1.00  0.00     0.023 A 
ATOM     99  C   UNL A   1      45.827  27.836  27.244  1.00  0.00     0.031 A 
ATOM    100  C   UNL A   1      46.327  30.133  27.783  1.00  0.00     0.131 A 
ATOM    101  C   UNL A   1      47.078  27.743  26.598  1.00  0.00     0.055 A 
ATOM    102  C   UNL A   1      47.554  30.044  27.126  1.00  0.00     0.041 A 
ATOM    103  F   UNL A   1      46.003  31.320  28.321  1.00  0.00    -0.206 F 
ATOM    104  C   UNL A   1      47.937  28.845  26.537  1.00  0.00     0.022 A 
BRANCH 101 105
ATOM    105  S   UNL A   1      47.627  26.179  25.836  1.00  0.00     0.124 S 
ATOM    106  O   UNL A   1      48.996  26.459  25.425  1.00  0.00    -0.237 OA
ATOM    107  O   UNL A   1      47.469  25.222  26.928  1.00  0.00    -0.237 OA
ATOM    108  O   UNL A   1      46.686  25.992  24.729  1.00  0.00    -0.744 OA
ENDBRANCH 101 105
ENDBRANCH  75  98
ENDBRANCH  49  50
ENDBRANCH  41  44
ENDBRANCH  39  40
ENDBRANCH  38  39
ENDBRANCH   1  38
TORSDOF 19
ENDMDL
MODEL 3
REMARK VINA RESULT:     -12.9      3.640      8.414
REMARK SMILES CCCSc1nc2n(n1)[C@@H](c1ccc(C(=O)NCCCNC(=O)c3ccc(-c4c5nc(c(-c6cc(S(=O)(=O)[O-])ccc6F)c6ccc([nH]6)c(-c6cc(S(=O)(=O)[O-])ccc6F)c6nc(c(-c7cc(S(=O)(=O)[O-])ccc7F)c7ccc4[nH]7)C=C6)C=C5)cc3)cc1)C(C(=O)Nc1cccc(C)c1)=C(C)N2
REMARK SMILES IDX 18 1 17 2 15 3 16 4 14 6 11 7 12 8 88 9 13 10 87 11 10 12
REMARK SMILES IDX 5 13 6 14 9 15 7 16 8 17 102 18 100 19 89 21 101 22 4 23
REMARK SMILES IDX 3 24 2 25 1 26 90 27 91 28 92 29 93 31 94 32 99 33 95 34
REMARK SMILES IDX 97 35 96 36 98 37 19 38 20 39 21 40 22 41 23 43 24 44 25 45
REMARK SMILES IDX 86 46 26 47 85 48 27 49 28 50 29 51 79 52 30 53 84 54 78 55
REMARK SMILES IDX 80 56 31 57 83 58 77 59 76 60 32 62 64 63 44 64 63 65 45 66
REMARK SMILES IDX 48 67 62 68 81 69 46 70 47 71 61 73 82 74 49 75 33 76 34 77
REMARK SMILES IDX 42 78 35 79 41 80 43 81 40 82 36 83 37 84 38 85 39 86 65 87
REMARK SMILES IDX 66 88 74 89 67 90 73 91 75 92 72 93 68 94 69 95 70 96 71 97
REMARK SMILES IDX 50 98 51 99 59 100 52 101 58 102 60 103 57 104 53 105 54 106
REMARK SMILES IDX 55 107 56 108
REMARK H PARENT 17 5 102 20 92 30 21 42 80 61 48 72
REMARK Flexibility Score: inf
ROOT
ATOM      1  C   UNL A   1      37.516  22.076  25.280  1.00  0.00     0.118 C 
ENDROOT
BRANCH   1   2
ATOM      2  N   UNL A   1      36.451  21.640  26.173  1.00  0.00    -0.352 N 
ATOM      3  C   UNL A   1      35.205  22.169  26.421  1.00  0.00     0.251 C 
ATOM      4  O   UNL A   1      34.404  21.511  27.082  1.00  0.00    -0.269 OA
ATOM      5  H   UNL A   1      36.658  20.826  26.687  1.00  0.00     0.163 HD
BRANCH   3   6
ATOM      6  C   UNL A   1      34.771  23.475  25.863  1.00  0.00     0.039 A 
ATOM      7  C   UNL A   1      33.715  25.880  24.787  1.00  0.00    -0.019 A 
ATOM      8  C   UNL A   1      33.316  25.404  26.053  1.00  0.00     0.007 A 
ATOM      9  C   UNL A   1      34.750  25.191  24.146  1.00  0.00     0.007 A 
ATOM     10  C   UNL A   1      33.843  24.223  26.587  1.00  0.00     0.014 A 
ATOM     11  C   UNL A   1      35.265  24.007  24.675  1.00  0.00     0.014 A 
BRANCH   7  12
ATOM     12  C   UNL A   1      32.956  26.996  24.016  1.00  0.00     0.179 C 
ATOM     13  C   UNL A   1      33.150  29.516  26.382  1.00  0.00     0.210 A 
ATOM     14  N   UNL A   1      31.846  29.143  26.619  1.00  0.00    -0.185 NA
ATOM     15  N   UNL A   1      33.690  29.013  25.268  1.00  0.00    -0.141 NA
ATOM     16  C   UNL A   1      31.616  28.275  25.668  1.00  0.00     0.227 A 
ATOM     17  N   UNL A   1      32.731  28.155  24.885  1.00  0.00    -0.218 N 
ATOM     18  N   UNL A   1      30.595  27.426  25.457  1.00  0.00    -0.328 N 
ATOM     19  C   UNL A   1      30.562  26.499  24.411  1.00  0.00     0.026 C 
ATOM     20  H   UNL A   1      29.829  27.458  26.075  1.00  0.00     0.169 HD
ATOM     21  C   UNL A   1      31.599  26.426  23.528  1.00  0.00     0.065 C 
ATOM     22  C   UNL A   1      29.367  25.584  24.458  1.00  0.00     0.065 C 
BRANCH  13  23
ATOM     23  S   UNL A   1      34.086  30.374  27.574  1.00  0.00    -0.084 SA
BRANCH  23  24
ATOM     24  C   UNL A   1      35.659  29.472  27.602  1.00  0.00     0.078 C 
BRANCH  24  25
ATOM     25  C   UNL A   1      36.926  30.310  27.403  1.00  0.00     0.008 C 
ATOM     26  C   UNL A   1      38.233  29.536  27.466  1.00  0.00     0.005 C 
ENDBRANCH  24  25
ENDBRANCH  23  24
ENDBRANCH  13  23
BRANCH  21  27
ATOM     27  C   UNL A   1      31.708  25.710  22.201  1.00  0.00     0.255 C 
ATOM     28  O   UNL A   1      31.499  26.314  21.148  1.00  0.00    -0.269 OA
ATOM     29  N   UNL A   1      32.018  24.387  22.082  1.00  0.00    -0.322 N 
ATOM     30  H   UNL A   1      32.414  24.131  21.218  1.00  0.00     0.170 HD
BRANCH  29  31
ATOM     31  C   UNL A   1      31.861  23.340  22.989  1.00  0.00     0.041 A 
ATOM     32  C   UNL A   1      32.605  22.179  22.776  1.00  0.00     0.026 A 
ATOM     33  C   UNL A   1      31.066  23.471  24.127  1.00  0.00     0.029 A 
ATOM     34  C   UNL A   1      32.678  21.219  23.784  1.00  0.00     0.002 A 
ATOM     35  C   UNL A   1      31.130  22.511  25.140  1.00  0.00    -0.049 A 
ATOM     36  C   UNL A   1      31.960  21.397  24.970  1.00  0.00     0.003 A 
ATOM     37  C   UNL A   1      30.416  22.746  26.436  1.00  0.00     0.044 C 
ENDBRANCH  29  31
ENDBRANCH  21  27
ENDBRANCH   7  12
ENDBRANCH   3   6
ENDBRANCH   1   2
BRANCH   1  38
ATOM     38  C   UNL A   1      38.915  21.702  25.789  1.00  0.00     0.042 C 
BRANCH  38  39
ATOM     39  C   UNL A   1      39.553  22.783  26.638  1.00  0.00     0.118 C 
BRANCH  39  40
ATOM     40  N   UNL A   1      40.522  22.261  27.605  1.00  0.00    -0.352 N 
ATOM     41  C   UNL A   1      41.526  22.952  28.275  1.00  0.00     0.251 C 
ATOM     42  H   UNL A   1      40.452  21.300  27.807  1.00  0.00     0.163 HD
ATOM     43  O   UNL A   1      42.482  22.356  28.735  1.00  0.00    -0.269 OA
BRANCH  41  44
ATOM     44  C   UNL A   1      41.401  24.419  28.398  1.00  0.00     0.039 A 
ATOM     45  C   UNL A   1      40.170  25.079  28.372  1.00  0.00     0.014 A 
ATOM     46  C   UNL A   1      42.574  25.130  28.606  1.00  0.00     0.014 A 
ATOM     47  C   UNL A   1      40.141  26.449  28.640  1.00  0.00     0.010 A 
ATOM     48  C   UNL A   1      42.512  26.389  29.126  1.00  0.00     0.010 A 
ATOM     49  C   UNL A   1      41.324  27.094  29.036  1.00  0.00    -0.014 A 
BRANCH  49  50
ATOM     50  C   UNL A   1      41.367  28.493  29.447  1.00  0.00     0.031 A 
ATOM     51  C   UNL A   1      42.348  29.315  28.699  1.00  0.00     0.074 A 
ATOM     52  C   UNL A   1      40.419  29.051  30.234  1.00  0.00     0.049 A 
ATOM     53  N   UNL A   1      43.480  29.769  29.120  1.00  0.00    -0.248 NA
ATOM     54  C   UNL A   1      42.140  29.496  27.253  1.00  0.00     0.031 C 
ATOM     55  C   UNL A   1      39.202  28.426  30.776  1.00  0.00     0.029 A 
ATOM     56  N   UNL A   1      40.272  30.347  30.620  1.00  0.00    -0.354 N 
ATOM     57  C   UNL A   1      43.984  30.540  28.079  1.00  0.00     0.074 A 
ATOM     58  C   UNL A   1      43.272  30.113  26.906  1.00  0.00     0.031 C 
ATOM     59  C   UNL A   1      38.343  29.380  31.197  1.00  0.00     0.029 A 
ATOM     60  C   UNL A   1      39.020  30.661  31.144  1.00  0.00     0.049 A 
ATOM     61  H   UNL A   1      40.994  31.011  30.536  1.00  0.00     0.167 HD
ATOM     62  C   UNL A   1      44.719  31.660  28.334  1.00  0.00     0.034 A 
ATOM     63  C   UNL A   1      38.557  31.886  31.509  1.00  0.00     0.034 A 
ATOM     64  C   UNL A   1      45.138  31.686  29.723  1.00  0.00     0.049 A 
ATOM     65  C   UNL A   1      39.754  32.729  31.746  1.00  0.00     0.074 A 
ATOM     66  C   UNL A   1      45.862  30.833  30.535  1.00  0.00     0.029 A 
ATOM     67  N   UNL A   1      44.453  32.515  30.586  1.00  0.00    -0.354 N 
ATOM     68  N   UNL A   1      40.618  32.488  32.696  1.00  0.00    -0.248 NA
ATOM     69  C   UNL A   1      40.263  33.526  30.640  1.00  0.00     0.031 C 
ATOM     70  C   UNL A   1      45.188  30.862  31.794  1.00  0.00     0.029 A 
ATOM     71  C   UNL A   1      44.151  31.797  31.717  1.00  0.00     0.049 A 
ATOM     72  H   UNL A   1      44.220  33.458  30.420  1.00  0.00     0.167 HD
ATOM     73  C   UNL A   1      41.858  32.699  32.113  1.00  0.00     0.074 A 
ATOM     74  C   UNL A   1      41.574  33.447  30.889  1.00  0.00     0.031 C 
ATOM     75  C   UNL A   1      42.960  32.000  32.523  1.00  0.00     0.034 A 
BRANCH  62  76
ATOM     76  C   UNL A   1      44.713  32.919  27.483  1.00  0.00     0.023 A 
ATOM     77  C   UNL A   1      43.993  34.017  27.992  1.00  0.00     0.031 A 
ATOM     78  C   UNL A   1      45.098  33.024  26.127  1.00  0.00     0.131 A 
ATOM     79  C   UNL A   1      43.561  35.057  27.151  1.00  0.00     0.055 A 
ATOM     80  C   UNL A   1      44.723  34.096  25.310  1.00  0.00     0.041 A 
ATOM     81  F   UNL A   1      45.785  32.078  25.482  1.00  0.00    -0.206 F 
ATOM     82  C   UNL A   1      43.914  35.101  25.808  1.00  0.00     0.022 A 
BRANCH  79  83
ATOM     83  S   UNL A   1      42.362  36.241  27.810  1.00  0.00     0.124 S 
ATOM     84  O   UNL A   1      42.893  36.478  29.147  1.00  0.00    -0.237 OA
ATOM     85  O   UNL A   1      42.480  37.344  26.862  1.00  0.00    -0.237 OA
ATOM     86  O   UNL A   1      41.100  35.506  27.759  1.00  0.00    -0.744 OA
ENDBRANCH  79  83
ENDBRANCH  62  76
BRANCH  63  87
ATOM     87  C   UNL A   1      37.179  32.420  31.324  1.00  0.00     0.023 A 
ATOM     88  C   UNL A   1      36.739  33.052  30.142  1.00  0.00     0.031 A 
ATOM     89  C   UNL A   1      36.184  32.085  32.272  1.00  0.00     0.131 A 
ATOM     90  C   UNL A   1      35.361  33.319  29.948  1.00  0.00     0.055 A 
ATOM     91  C   UNL A   1      34.828  32.352  32.075  1.00  0.00     0.041 A 
ATOM     92  F   UNL A   1      36.495  31.408  33.389  1.00  0.00    -0.206 F 
ATOM     93  C   UNL A   1      34.408  32.964  30.906  1.00  0.00     0.022 A 
BRANCH  90  94
ATOM     94  S   UNL A   1      34.769  34.077  28.396  1.00  0.00     0.124 S 
ATOM     95  O   UNL A   1      35.670  33.504  27.403  1.00  0.00    -0.237 OA
ATOM     96  O   UNL A   1      33.380  33.636  28.344  1.00  0.00    -0.237 OA
ATOM     97  O   UNL A   1      34.946  35.512  28.625  1.00  0.00    -0.744 OA
ENDBRANCH  90  94
ENDBRANCH  63  87
BRANCH  75  98
ATOM     98  C   UNL A   1      42.872  31.221  33.825  1.00  0.00     0.023 A 
ATOM     99  C   UNL A   1      42.387  29.898  33.955  1.00  0.00     0.031 A 
ATOM    100  C   UNL A   1      43.420  31.827  34.969  1.00  0.00     0.131 A 
ATOM    101  C   UNL A   1      42.458  29.239  35.201  1.00  0.00     0.055 A 
ATOM    102  C   UNL A   1      43.507  31.165  36.193  1.00  0.00     0.041 A 
ATOM    103  F   UNL A   1      43.922  33.072  34.906  1.00  0.00    -0.206 F 
ATOM    104  C   UNL A   1      43.019  29.870  36.316  1.00  0.00     0.022 A 
BRANCH 101 105
ATOM    105  S   UNL A   1      41.803  27.548  35.406  1.00  0.00     0.124 S 
ATOM    106  O   UNL A   1      40.860  27.410  34.304  1.00  0.00    -0.237 OA
ATOM    107  O   UNL A   1      43.009  26.729  35.324  1.00  0.00    -0.237 OA
ATOM    108  O   UNL A   1      41.186  27.581  36.734  1.00  0.00    -0.744 OA
ENDBRANCH 101 105
ENDBRANCH  75  98
ENDBRANCH  49  50
ENDBRANCH  41  44
ENDBRANCH  39  40
ENDBRANCH  38  39
ENDBRANCH   1  38
TORSDOF 19
ENDMDL
