MODEL 1
REMARK VINA RESULT:     -11.5      0.000      0.000
REMARK SMILES C[C@@H](Oc1ccc(N)cc1)C(=O)NCCCNC(=O)c1ccc(-c2c3nc(c(-c4cc(S(=O)(=O)[O-])ccc4F)c4ccc([nH]4)c(-c4cc(S(=O)(=O)[O-])ccc4F)c4nc(c(-c5cc(S(=O)(=O)[O-])ccc5F)c5ccc2[nH]5)C=C4)C=C3)cc1
REMARK SMILES IDX 15 1 14 2 13 3 11 4 12 5 2 7 1 8 3 9 4 10 5 11 10 12 6 13
REMARK SMILES IDX 9 14 7 15 8 16 16 19 17 20 18 21 19 23 20 24 21 25 82 26
REMARK SMILES IDX 22 27 81 28 23 29 24 30 25 31 75 32 26 33 80 34 74 35 76 36
REMARK SMILES IDX 27 37 79 38 73 39 72 40 28 42 60 43 40 44 59 45 41 46 44 47
REMARK SMILES IDX 58 48 77 49 42 50 43 51 57 53 78 54 45 55 29 56 30 57 38 58
REMARK SMILES IDX 31 59 37 60 39 61 36 62 32 63 33 64 34 65 35 66 61 67 62 68
REMARK SMILES IDX 70 69 63 70 69 71 71 72 68 73 64 74 65 75 66 76 67 77 46 78
REMARK SMILES IDX 47 79 55 80 48 81 54 82 56 83 53 84 49 85 50 86 51 87 52 88
REMARK H PARENT 13 6 8 17 8 18 17 22 76 41 44 52
REMARK Flexibility Score: inf
ROOT
ATOM      1  C   UNL A   1      35.932  21.427  24.742  1.00  0.00     0.042 C 
ENDROOT
BRANCH   1   2
ATOM      2  C   UNL A   1      35.124  22.715  24.674  1.00  0.00     0.118 C 
BRANCH   2   3
ATOM      3  N   UNL A   1      34.744  23.073  23.315  1.00  0.00    -0.353 N 
ATOM      4  C   UNL A   1      33.516  23.040  22.712  1.00  0.00     0.260 C 
ATOM      5  O   UNL A   1      33.428  23.456  21.553  1.00  0.00    -0.271 OA
ATOM      6  H   UNL A   1      35.482  23.386  22.743  1.00  0.00     0.163 HD
BRANCH   4   7
ATOM      7  C   UNL A   1      32.299  22.436  23.432  1.00  0.00     0.258 C 
ATOM      8  C   UNL A   1      31.125  23.397  23.259  1.00  0.00     0.064 C 
BRANCH   7   9
ATOM      9  O   UNL A   1      32.112  21.124  22.895  1.00  0.00    -0.481 OA
BRANCH   9  10
ATOM     10  C   UNL A   1      32.454  20.073  23.687  1.00  0.00     0.120 A 
ATOM     11  C   UNL A   1      32.604  20.203  25.062  1.00  0.00     0.048 A 
ATOM     12  C   UNL A   1      32.449  18.807  23.108  1.00  0.00     0.048 A 
ATOM     13  C   UNL A   1      32.808  19.071  25.854  1.00  0.00     0.029 A 
ATOM     14  C   UNL A   1      32.636  17.674  23.906  1.00  0.00     0.029 A 
ATOM     15  C   UNL A   1      32.793  17.795  25.288  1.00  0.00     0.032 A 
BRANCH  15  16
ATOM     16  N   UNL A   1      33.035  16.680  26.075  1.00  0.00    -0.399 N 
ATOM     17  H   UNL A   1      33.511  16.775  26.931  1.00  0.00     0.156 HD
ATOM     18  H   UNL A   1      32.730  15.792  25.776  1.00  0.00     0.156 HD
ENDBRANCH  15  16
ENDBRANCH   9  10
ENDBRANCH   7   9
ENDBRANCH   4   7
ENDBRANCH   2   3
ENDBRANCH   1   2
BRANCH   1  19
ATOM     19  C   UNL A   1      37.435  21.628  24.616  1.00  0.00     0.118 C 
BRANCH  19  20
ATOM     20  N   UNL A   1      38.198  20.580  25.281  1.00  0.00    -0.352 N 
ATOM     21  C   UNL A   1      39.325  20.658  26.059  1.00  0.00     0.251 C 
ATOM     22  H   UNL A   1      37.849  19.669  25.150  1.00  0.00     0.163 HD
ATOM     23  O   UNL A   1      39.920  19.621  26.354  1.00  0.00    -0.269 OA
BRANCH  21  24
ATOM     24  C   UNL A   1      39.843  21.966  26.519  1.00  0.00     0.039 A 
ATOM     25  C   UNL A   1      40.953  21.990  27.368  1.00  0.00     0.014 A 
ATOM     26  C   UNL A   1      39.233  23.164  26.140  1.00  0.00     0.014 A 
ATOM     27  C   UNL A   1      41.495  23.213  27.769  1.00  0.00     0.010 A 
ATOM     28  C   UNL A   1      39.824  24.382  26.471  1.00  0.00     0.010 A 
ATOM     29  C   UNL A   1      40.964  24.420  27.287  1.00  0.00    -0.014 A 
BRANCH  29  30
ATOM     30  C   UNL A   1      41.598  25.726  27.610  1.00  0.00     0.031 A 
ATOM     31  C   UNL A   1      40.838  26.773  28.379  1.00  0.00     0.074 A 
ATOM     32  C   UNL A   1      42.838  25.991  27.152  1.00  0.00     0.049 A 
ATOM     33  N   UNL A   1      41.192  27.995  28.684  1.00  0.00    -0.248 NA
ATOM     34  C   UNL A   1      39.492  26.404  28.841  1.00  0.00     0.031 C 
ATOM     35  C   UNL A   1      43.662  25.070  26.364  1.00  0.00     0.029 A 
ATOM     36  N   UNL A   1      43.622  27.112  27.271  1.00  0.00    -0.354 N 
ATOM     37  C   UNL A   1      40.112  28.545  29.366  1.00  0.00     0.074 A 
ATOM     38  C   UNL A   1      39.069  27.541  29.373  1.00  0.00     0.031 C 
ATOM     39  C   UNL A   1      44.841  25.652  26.096  1.00  0.00     0.029 A 
ATOM     40  C   UNL A   1      44.840  27.007  26.640  1.00  0.00     0.049 A 
ATOM     41  H   UNL A   1      43.338  27.916  27.763  1.00  0.00     0.167 HD
ATOM     42  C   UNL A   1      40.008  29.765  29.950  1.00  0.00     0.034 A 
ATOM     43  C   UNL A   1      45.837  27.902  26.497  1.00  0.00     0.034 A 
ATOM     44  C   UNL A   1      41.062  30.753  29.936  1.00  0.00     0.049 A 
ATOM     45  C   UNL A   1      45.680  29.269  27.117  1.00  0.00     0.074 A 
ATOM     46  C   UNL A   1      41.082  31.999  30.540  1.00  0.00     0.029 A 
ATOM     47  N   UNL A   1      42.276  30.616  29.274  1.00  0.00    -0.354 N 
ATOM     48  N   UNL A   1      44.670  29.755  27.802  1.00  0.00    -0.248 NA
ATOM     49  C   UNL A   1      46.801  30.203  26.950  1.00  0.00     0.031 C 
ATOM     50  C   UNL A   1      42.269  32.643  30.179  1.00  0.00     0.029 A 
ATOM     51  C   UNL A   1      43.034  31.769  29.424  1.00  0.00     0.049 A 
ATOM     52  H   UNL A   1      42.557  29.817  28.773  1.00  0.00     0.167 HD
ATOM     53  C   UNL A   1      45.050  31.042  28.173  1.00  0.00     0.074 A 
ATOM     54  C   UNL A   1      46.387  31.247  27.653  1.00  0.00     0.031 C 
ATOM     55  C   UNL A   1      44.359  31.969  28.885  1.00  0.00     0.034 A 
BRANCH  42  56
ATOM     56  C   UNL A   1      38.700  30.106  30.625  1.00  0.00     0.023 A 
ATOM     57  C   UNL A   1      37.676  30.796  29.953  1.00  0.00     0.031 A 
ATOM     58  C   UNL A   1      38.478  29.750  31.968  1.00  0.00     0.131 A 
ATOM     59  C   UNL A   1      36.513  31.174  30.643  1.00  0.00     0.055 A 
ATOM     60  C   UNL A   1      37.283  30.054  32.624  1.00  0.00     0.041 A 
ATOM     61  F   UNL A   1      39.425  29.109  32.672  1.00  0.00    -0.206 F 
ATOM     62  C   UNL A   1      36.298  30.784  31.966  1.00  0.00     0.022 A 
BRANCH  59  63
ATOM     63  S   UNL A   1      35.355  32.308  29.829  1.00  0.00     0.124 S 
ATOM     64  O   UNL A   1      34.425  32.608  30.915  1.00  0.00    -0.237 OA
ATOM     65  O   UNL A   1      36.224  33.401  29.410  1.00  0.00    -0.237 OA
ATOM     66  O   UNL A   1      34.794  31.504  28.744  1.00  0.00    -0.744 OA
ENDBRANCH  59  63
ENDBRANCH  42  56
BRANCH  43  67
ATOM     67  C   UNL A   1      47.062  27.553  25.723  1.00  0.00     0.023 A 
ATOM     68  C   UNL A   1      47.180  27.886  24.364  1.00  0.00     0.031 A 
ATOM     69  C   UNL A   1      48.118  26.841  26.320  1.00  0.00     0.131 A 
ATOM     70  C   UNL A   1      48.303  27.463  23.635  1.00  0.00     0.055 A 
ATOM     71  C   UNL A   1      49.260  26.475  25.605  1.00  0.00     0.041 A 
ATOM     72  F   UNL A   1      48.060  26.499  27.617  1.00  0.00    -0.206 F 
ATOM     73  C   UNL A   1      49.351  26.774  24.250  1.00  0.00     0.022 A 
BRANCH  70  74
ATOM     74  S   UNL A   1      48.332  27.746  21.843  1.00  0.00     0.124 S 
ATOM     75  O   UNL A   1      48.550  26.396  21.335  1.00  0.00    -0.237 OA
ATOM     76  O   UNL A   1      47.011  28.316  21.606  1.00  0.00    -0.237 OA
ATOM     77  O   UNL A   1      49.450  28.670  21.664  1.00  0.00    -0.744 OA
ENDBRANCH  70  74
ENDBRANCH  43  67
BRANCH  55  78
ATOM     78  C   UNL A   1      45.061  33.276  29.175  1.00  0.00     0.023 A 
ATOM     79  C   UNL A   1      44.957  34.380  28.311  1.00  0.00     0.031 A 
ATOM     80  C   UNL A   1      45.857  33.411  30.326  1.00  0.00     0.131 A 
ATOM     81  C   UNL A   1      45.686  35.548  28.579  1.00  0.00     0.055 A 
ATOM     82  C   UNL A   1      46.526  34.599  30.622  1.00  0.00     0.041 A 
ATOM     83  F   UNL A   1      45.997  32.389  31.185  1.00  0.00    -0.206 F 
ATOM     84  C   UNL A   1      46.455  35.672  29.739  1.00  0.00     0.022 A 
BRANCH  81  85
ATOM     85  S   UNL A   1      45.700  36.870  27.336  1.00  0.00     0.124 S 
ATOM     86  O   UNL A   1      46.615  37.838  27.933  1.00  0.00    -0.237 OA
ATOM     87  O   UNL A   1      46.191  36.177  26.149  1.00  0.00    -0.237 OA
ATOM     88  O   UNL A   1      44.302  37.296  27.271  1.00  0.00    -0.744 OA
ENDBRANCH  81  85
ENDBRANCH  55  78
ENDBRANCH  29  30
ENDBRANCH  21  24
ENDBRANCH  19  20
ENDBRANCH   1  19
TORSDOF 16
ENDMDL
MODEL 2
REMARK VINA RESULT:     -11.5      5.712     10.665
REMARK SMILES C[C@@H](Oc1ccc(N)cc1)C(=O)NCCCNC(=O)c1ccc(-c2c3nc(c(-c4cc(S(=O)(=O)[O-])ccc4F)c4ccc([nH]4)c(-c4cc(S(=O)(=O)[O-])ccc4F)c4nc(c(-c5cc(S(=O)(=O)[O-])ccc5F)c5ccc2[nH]5)C=C4)C=C3)cc1
REMARK SMILES IDX 15 1 14 2 13 3 11 4 12 5 2 7 1 8 3 9 4 10 5 11 10 12 6 13
REMARK SMILES IDX 9 14 7 15 8 16 16 19 17 20 18 21 19 23 20 24 21 25 82 26
REMARK SMILES IDX 22 27 81 28 23 29 24 30 25 31 75 32 26 33 80 34 74 35 76 36
REMARK SMILES IDX 27 37 79 38 73 39 72 40 28 42 60 43 40 44 59 45 41 46 44 47
REMARK SMILES IDX 58 48 77 49 42 50 43 51 57 53 78 54 45 55 29 56 30 57 38 58
REMARK SMILES IDX 31 59 37 60 39 61 36 62 32 63 33 64 34 65 35 66 61 67 62 68
REMARK SMILES IDX 70 69 63 70 69 71 71 72 68 73 64 74 65 75 66 76 67 77 46 78
REMARK SMILES IDX 47 79 55 80 48 81 54 82 56 83 53 84 49 85 50 86 51 87 52 88
REMARK H PARENT 13 6 8 17 8 18 17 22 76 41 44 52
REMARK Flexibility Score: inf
ROOT
ATOM      1  C   UNL A   1      31.813  28.457  26.328  1.00  0.00     0.042 C 
ENDROOT
BRANCH   1   2
ATOM      2  C   UNL A   1      32.346  27.034  26.393  1.00  0.00     0.118 C 
BRANCH   2   3
ATOM      3  N   UNL A   1      31.336  26.070  26.804  1.00  0.00    -0.353 N 
ATOM      4  C   UNL A   1      30.635  25.164  26.055  1.00  0.00     0.260 C 
ATOM      5  O   UNL A   1      29.864  24.399  26.642  1.00  0.00    -0.271 OA
ATOM      6  H   UNL A   1      31.124  26.070  27.766  1.00  0.00     0.163 HD
BRANCH   4   7
ATOM      7  C   UNL A   1      30.750  25.150  24.522  1.00  0.00     0.258 C 
ATOM      8  C   UNL A   1      30.956  23.703  24.079  1.00  0.00     0.064 C 
BRANCH   7   9
ATOM      9  O   UNL A   1      29.578  25.793  24.014  1.00  0.00    -0.481 OA
BRANCH   9  10
ATOM     10  C   UNL A   1      29.720  27.061  23.543  1.00  0.00     0.120 A 
ATOM     11  C   UNL A   1      30.911  27.514  22.989  1.00  0.00     0.048 A 
ATOM     12  C   UNL A   1      28.571  27.839  23.444  1.00  0.00     0.048 A 
ATOM     13  C   UNL A   1      30.967  28.771  22.384  1.00  0.00     0.029 A 
ATOM     14  C   UNL A   1      28.626  29.090  22.821  1.00  0.00     0.029 A 
ATOM     15  C   UNL A   1      29.819  29.556  22.265  1.00  0.00     0.032 A 
BRANCH  15  16
ATOM     16  N   UNL A   1      29.891  30.818  21.698  1.00  0.00    -0.399 N 
ATOM     17  H   UNL A   1      29.070  31.336  21.542  1.00  0.00     0.156 HD
ATOM     18  H   UNL A   1      30.767  31.197  21.451  1.00  0.00     0.156 HD
ENDBRANCH  15  16
ENDBRANCH   9  10
ENDBRANCH   7   9
ENDBRANCH   4   7
ENDBRANCH   2   3
ENDBRANCH   1   2
BRANCH   1  19
ATOM     19  C   UNL A   1      32.773  29.454  25.697  1.00  0.00     0.118 C 
BRANCH  19  20
ATOM     20  N   UNL A   1      32.492  30.829  26.087  1.00  0.00    -0.352 N 
ATOM     21  C   UNL A   1      33.110  31.636  27.007  1.00  0.00     0.251 C 
ATOM     22  H   UNL A   1      31.736  31.246  25.614  1.00  0.00     0.163 HD
ATOM     23  O   UNL A   1      32.576  32.702  27.321  1.00  0.00    -0.269 OA
BRANCH  21  24
ATOM     24  C   UNL A   1      34.383  31.231  27.642  1.00  0.00     0.039 A 
ATOM     25  C   UNL A   1      35.378  32.194  27.832  1.00  0.00     0.014 A 
ATOM     26  C   UNL A   1      34.613  29.909  28.031  1.00  0.00     0.014 A 
ATOM     27  C   UNL A   1      36.566  31.848  28.481  1.00  0.00     0.010 A 
ATOM     28  C   UNL A   1      35.761  29.584  28.752  1.00  0.00     0.010 A 
ATOM     29  C   UNL A   1      36.749  30.551  28.988  1.00  0.00    -0.014 A 
BRANCH  29  30
ATOM     30  C   UNL A   1      37.956  30.196  29.782  1.00  0.00     0.031 A 
ATOM     31  C   UNL A   1      38.954  29.205  29.248  1.00  0.00     0.074 A 
ATOM     32  C   UNL A   1      38.116  30.720  31.014  1.00  0.00     0.049 A 
ATOM     33  N   UNL A   1      40.020  28.711  29.825  1.00  0.00    -0.248 NA
ATOM     34  C   UNL A   1      38.706  28.680  27.897  1.00  0.00     0.031 C 
ATOM     35  C   UNL A   1      37.197  31.664  31.655  1.00  0.00     0.029 A 
ATOM     36  N   UNL A   1      39.100  30.530  31.952  1.00  0.00    -0.354 N 
ATOM     37  C   UNL A   1      40.565  27.813  28.915  1.00  0.00     0.074 A 
ATOM     38  C   UNL A   1      39.674  27.785  27.773  1.00  0.00     0.031 C 
ATOM     39  C   UNL A   1      37.674  31.989  32.867  1.00  0.00     0.029 A 
ATOM     40  C   UNL A   1      38.900  31.238  33.115  1.00  0.00     0.049 A 
ATOM     41  H   UNL A   1      39.876  29.942  31.806  1.00  0.00     0.167 HD
ATOM     42  C   UNL A   1      41.711  27.093  29.013  1.00  0.00     0.034 A 
ATOM     43  C   UNL A   1      39.610  31.266  34.261  1.00  0.00     0.034 A 
ATOM     44  C   UNL A   1      42.589  27.136  30.159  1.00  0.00     0.049 A 
ATOM     45  C   UNL A   1      40.858  30.424  34.363  1.00  0.00     0.074 A 
ATOM     46  C   UNL A   1      43.799  26.489  30.340  1.00  0.00     0.029 A 
ATOM     47  N   UNL A   1      42.346  27.853  31.324  1.00  0.00    -0.354 N 
ATOM     48  N   UNL A   1      41.385  29.616  33.471  1.00  0.00    -0.248 NA
ATOM     49  C   UNL A   1      41.607  30.502  35.623  1.00  0.00     0.031 C 
ATOM     50  C   UNL A   1      44.247  26.751  31.638  1.00  0.00     0.029 A 
ATOM     51  C   UNL A   1      43.365  27.633  32.241  1.00  0.00     0.049 A 
ATOM     52  H   UNL A   1      41.565  28.433  31.476  1.00  0.00     0.167 HD
ATOM     53  C   UNL A   1      42.546  29.116  34.054  1.00  0.00     0.074 A 
ATOM     54  C   UNL A   1      42.650  29.728  35.363  1.00  0.00     0.031 C 
ATOM     55  C   UNL A   1      43.449  28.235  33.551  1.00  0.00     0.034 A 
BRANCH  42  56
ATOM     56  C   UNL A   1      42.061  26.179  27.862  1.00  0.00     0.023 A 
ATOM     57  C   UNL A   1      41.601  24.852  27.802  1.00  0.00     0.031 A 
ATOM     58  C   UNL A   1      42.882  26.635  26.815  1.00  0.00     0.131 A 
ATOM     59  C   UNL A   1      42.023  24.008  26.763  1.00  0.00     0.055 A 
ATOM     60  C   UNL A   1      43.229  25.816  25.738  1.00  0.00     0.041 A 
ATOM     61  F   UNL A   1      43.372  27.886  26.824  1.00  0.00    -0.206 F 
ATOM     62  C   UNL A   1      42.812  24.488  25.716  1.00  0.00     0.022 A 
BRANCH  59  63
ATOM     63  S   UNL A   1      41.647  22.238  26.879  1.00  0.00     0.124 S 
ATOM     64  O   UNL A   1      42.073  21.759  25.566  1.00  0.00    -0.237 OA
ATOM     65  O   UNL A   1      42.465  21.815  28.010  1.00  0.00    -0.237 OA
ATOM     66  O   UNL A   1      40.203  22.209  27.106  1.00  0.00    -0.744 OA
ENDBRANCH  59  63
ENDBRANCH  42  56
BRANCH  43  67
ATOM     67  C   UNL A   1      39.158  32.101  35.411  1.00  0.00     0.023 A 
ATOM     68  C   UNL A   1      39.639  33.407  35.591  1.00  0.00     0.031 A 
ATOM     69  C   UNL A   1      38.271  31.587  36.374  1.00  0.00     0.131 A 
ATOM     70  C   UNL A   1      39.272  34.137  36.732  1.00  0.00     0.055 A 
ATOM     71  C   UNL A   1      37.862  32.340  37.477  1.00  0.00     0.041 A 
ATOM     72  F   UNL A   1      37.778  30.344  36.252  1.00  0.00    -0.206 F 
ATOM     73  C   UNL A   1      38.374  33.618  37.668  1.00  0.00     0.022 A 
BRANCH  70  74
ATOM     74  S   UNL A   1      40.060  35.745  37.026  1.00  0.00     0.124 S 
ATOM     75  O   UNL A   1      41.468  35.372  37.109  1.00  0.00    -0.237 OA
ATOM     76  O   UNL A   1      39.663  36.496  35.840  1.00  0.00    -0.237 OA
ATOM     77  O   UNL A   1      39.457  36.195  38.278  1.00  0.00    -0.744 OA
ENDBRANCH  70  74
ENDBRANCH  43  67
BRANCH  55  78
ATOM     78  C   UNL A   1      44.650  27.915  34.411  1.00  0.00     0.023 A 
ATOM     79  C   UNL A   1      44.651  26.834  35.310  1.00  0.00     0.031 A 
ATOM     80  C   UNL A   1      45.804  28.715  34.339  1.00  0.00     0.131 A 
ATOM     81  C   UNL A   1      45.758  26.619  36.144  1.00  0.00     0.055 A 
ATOM     82  C   UNL A   1      46.929  28.455  35.123  1.00  0.00     0.041 A 
ATOM     83  F   UNL A   1      45.859  29.763  33.503  1.00  0.00    -0.206 F 
ATOM     84  C   UNL A   1      46.905  27.411  36.042  1.00  0.00     0.022 A 
BRANCH  81  85
ATOM     85  S   UNL A   1      45.641  25.354  37.438  1.00  0.00     0.124 S 
ATOM     86  O   UNL A   1      46.965  25.421  38.049  1.00  0.00    -0.237 OA
ATOM     87  O   UNL A   1      44.536  25.845  38.256  1.00  0.00    -0.237 OA
ATOM     88  O   UNL A   1      45.362  24.126  36.694  1.00  0.00    -0.744 OA
ENDBRANCH  81  85
ENDBRANCH  55  78
ENDBRANCH  29  30
ENDBRANCH  21  24
ENDBRANCH  19  20
ENDBRANCH   1  19
TORSDOF 16
ENDMDL
MODEL 3
REMARK VINA RESULT:     -11.4      3.625      9.720
REMARK SMILES C[C@@H](Oc1ccc(N)cc1)C(=O)NCCCNC(=O)c1ccc(-c2c3nc(c(-c4cc(S(=O)(=O)[O-])ccc4F)c4ccc([nH]4)c(-c4cc(S(=O)(=O)[O-])ccc4F)c4nc(c(-c5cc(S(=O)(=O)[O-])ccc5F)c5ccc2[nH]5)C=C4)C=C3)cc1
REMARK SMILES IDX 15 1 14 2 13 3 11 4 12 5 2 7 1 8 3 9 4 10 5 11 10 12 6 13
REMARK SMILES IDX 9 14 7 15 8 16 16 19 17 20 18 21 19 23 20 24 21 25 82 26
REMARK SMILES IDX 22 27 81 28 23 29 24 30 25 31 75 32 26 33 80 34 74 35 76 36
REMARK SMILES IDX 27 37 79 38 73 39 72 40 28 42 60 43 40 44 59 45 41 46 44 47
REMARK SMILES IDX 58 48 77 49 42 50 43 51 57 53 78 54 45 55 29 56 30 57 38 58
REMARK SMILES IDX 31 59 37 60 39 61 36 62 32 63 33 64 34 65 35 66 61 67 62 68
REMARK SMILES IDX 70 69 63 70 69 71 71 72 68 73 64 74 65 75 66 76 67 77 46 78
REMARK SMILES IDX 47 79 55 80 48 81 54 82 56 83 53 84 49 85 50 86 51 87 52 88
REMARK H PARENT 13 6 8 17 8 18 17 22 76 41 44 52
REMARK Flexibility Score: inf
ROOT
ATOM      1  C   UNL A   1      40.851  20.205  26.749  1.00  0.00     0.042 C 
ENDROOT
BRANCH   1   2
ATOM      2  C   UNL A   1      42.308  19.785  26.879  1.00  0.00     0.118 C 
BRANCH   2   3
ATOM      3  N   UNL A   1      42.756  18.950  25.774  1.00  0.00    -0.353 N 
ATOM      4  C   UNL A   1      43.883  19.048  25.002  1.00  0.00     0.260 C 
ATOM      5  O   UNL A   1      44.081  18.175  24.152  1.00  0.00    -0.271 OA
ATOM      6  H   UNL A   1      42.159  18.200  25.547  1.00  0.00     0.163 HD
BRANCH   4   7
ATOM      7  C   UNL A   1      44.831  20.251  25.141  1.00  0.00     0.258 C 
ATOM      8  C   UNL A   1      46.264  19.722  25.122  1.00  0.00     0.064 C 
BRANCH   7   9
ATOM      9  O   UNL A   1      44.493  21.166  24.095  1.00  0.00    -0.481 OA
BRANCH   9  10
ATOM     10  C   UNL A   1      44.740  22.484  24.320  1.00  0.00     0.120 A 
ATOM     11  C   UNL A   1      43.753  23.354  24.766  1.00  0.00     0.048 A 
ATOM     12  C   UNL A   1      46.067  22.901  24.287  1.00  0.00     0.048 A 
ATOM     13  C   UNL A   1      44.084  24.662  25.126  1.00  0.00     0.029 A 
ATOM     14  C   UNL A   1      46.398  24.206  24.664  1.00  0.00     0.029 A 
ATOM     15  C   UNL A   1      45.412  25.090  25.111  1.00  0.00     0.032 A 
BRANCH  15  16
ATOM     16  N   UNL A   1      45.728  26.400  25.431  1.00  0.00    -0.399 N 
ATOM     17  H   UNL A   1      46.246  26.950  24.802  1.00  0.00     0.156 HD
ATOM     18  H   UNL A   1      45.433  26.781  26.291  1.00  0.00     0.156 HD
ENDBRANCH  15  16
ENDBRANCH   9  10
ENDBRANCH   7   9
ENDBRANCH   4   7
ENDBRANCH   2   3
ENDBRANCH   1   2
BRANCH   1  19
ATOM     19  C   UNL A   1      40.653  21.583  26.135  1.00  0.00     0.118 C 
BRANCH  19  20
ATOM     20  N   UNL A   1      39.255  21.870  25.843  1.00  0.00    -0.352 N 
ATOM     21  C   UNL A   1      38.488  22.963  26.156  1.00  0.00     0.251 C 
ATOM     22  H   UNL A   1      38.785  21.167  25.339  1.00  0.00     0.163 HD
ATOM     23  O   UNL A   1      37.269  22.906  25.984  1.00  0.00    -0.269 OA
BRANCH  21  24
ATOM     24  C   UNL A   1      39.100  24.186  26.720  1.00  0.00     0.039 A 
ATOM     25  C   UNL A   1      39.830  25.026  25.875  1.00  0.00     0.014 A 
ATOM     26  C   UNL A   1      38.978  24.502  28.076  1.00  0.00     0.014 A 
ATOM     27  C   UNL A   1      40.369  26.215  26.372  1.00  0.00     0.010 A 
ATOM     28  C   UNL A   1      39.442  25.727  28.551  1.00  0.00     0.010 A 
ATOM     29  C   UNL A   1      40.140  26.599  27.703  1.00  0.00    -0.014 A 
BRANCH  29  30
ATOM     30  C   UNL A   1      40.606  27.915  28.218  1.00  0.00     0.031 A 
ATOM     31  C   UNL A   1      42.076  28.199  28.363  1.00  0.00     0.074 A 
ATOM     32  C   UNL A   1      39.698  28.828  28.616  1.00  0.00     0.049 A 
ATOM     33  N   UNL A   1      42.670  29.252  28.865  1.00  0.00    -0.248 NA
ATOM     34  C   UNL A   1      42.999  27.150  27.906  1.00  0.00     0.031 C 
ATOM     35  C   UNL A   1      38.244  28.655  28.558  1.00  0.00     0.029 A 
ATOM     36  N   UNL A   1      39.858  30.081  29.156  1.00  0.00    -0.354 N 
ATOM     37  C   UNL A   1      44.033  28.990  28.794  1.00  0.00     0.074 A 
ATOM     38  C   UNL A   1      44.174  27.652  28.257  1.00  0.00     0.031 C 
ATOM     39  C   UNL A   1      37.649  29.767  29.017  1.00  0.00     0.029 A 
ATOM     40  C   UNL A   1      38.672  30.711  29.454  1.00  0.00     0.049 A 
ATOM     41  H   UNL A   1      40.739  30.490  29.313  1.00  0.00     0.167 HD
ATOM     42  C   UNL A   1      45.072  29.797  29.127  1.00  0.00     0.034 A 
ATOM     43  C   UNL A   1      38.431  31.905  30.032  1.00  0.00     0.034 A 
ATOM     44  C   UNL A   1      44.913  31.130  29.658  1.00  0.00     0.049 A 
ATOM     45  C   UNL A   1      39.603  32.767  30.434  1.00  0.00     0.074 A 
ATOM     46  C   UNL A   1      45.895  32.052  29.979  1.00  0.00     0.029 A 
ATOM     47  N   UNL A   1      43.697  31.729  29.961  1.00  0.00    -0.354 N 
ATOM     48  N   UNL A   1      40.888  32.523  30.314  1.00  0.00    -0.248 NA
ATOM     49  C   UNL A   1      39.290  34.066  31.043  1.00  0.00     0.031 C 
ATOM     50  C   UNL A   1      45.280  33.171  30.547  1.00  0.00     0.029 A 
ATOM     51  C   UNL A   1      43.906  32.990  30.500  1.00  0.00     0.049 A 
ATOM     52  H   UNL A   1      42.814  31.318  29.814  1.00  0.00     0.167 HD
ATOM     53  C   UNL A   1      41.534  33.654  30.804  1.00  0.00     0.074 A 
ATOM     54  C   UNL A   1      40.498  34.585  31.202  1.00  0.00     0.031 C 
ATOM     55  C   UNL A   1      42.865  33.904  30.910  1.00  0.00     0.034 A 
BRANCH  42  56
ATOM     56  C   UNL A   1      46.468  29.245  28.951  1.00  0.00     0.023 A 
ATOM     57  C   UNL A   1      47.050  29.090  27.681  1.00  0.00     0.031 A 
ATOM     58  C   UNL A   1      47.225  28.853  30.070  1.00  0.00     0.131 A 
ATOM     59  C   UNL A   1      48.312  28.490  27.554  1.00  0.00     0.055 A 
ATOM     60  C   UNL A   1      48.516  28.336  29.944  1.00  0.00     0.041 A 
ATOM     61  F   UNL A   1      46.718  28.955  31.310  1.00  0.00    -0.206 F 
ATOM     62  C   UNL A   1      49.061  28.136  28.678  1.00  0.00     0.022 A 
BRANCH  59  63
ATOM     63  S   UNL A   1      48.896  28.044  25.896  1.00  0.00     0.124 S 
ATOM     64  O   UNL A   1      47.806  28.538  25.057  1.00  0.00    -0.237 OA
ATOM     65  O   UNL A   1      50.157  28.769  25.799  1.00  0.00    -0.237 OA
ATOM     66  O   UNL A   1      49.015  26.588  25.955  1.00  0.00    -0.744 OA
ENDBRANCH  59  63
ENDBRANCH  42  56
BRANCH  43  67
ATOM     67  C   UNL A   1      37.033  32.355  30.287  1.00  0.00     0.023 A 
ATOM     68  C   UNL A   1      36.303  33.043  29.305  1.00  0.00     0.031 A 
ATOM     69  C   UNL A   1      36.418  32.141  31.534  1.00  0.00     0.131 A 
ATOM     70  C   UNL A   1      35.024  33.539  29.602  1.00  0.00     0.055 A 
ATOM     71  C   UNL A   1      35.122  32.584  31.805  1.00  0.00     0.041 A 
ATOM     72  F   UNL A   1      37.068  31.487  32.509  1.00  0.00    -0.206 F 
ATOM     73  C   UNL A   1      34.422  33.300  30.839  1.00  0.00     0.022 A 
BRANCH  70  74
ATOM     74  S   UNL A   1      34.191  34.584  28.375  1.00  0.00     0.124 S 
ATOM     75  O   UNL A   1      35.025  34.378  27.196  1.00  0.00    -0.237 OA
ATOM     76  O   UNL A   1      32.858  33.993  28.330  1.00  0.00    -0.237 OA
ATOM     77  O   UNL A   1      34.260  35.919  28.964  1.00  0.00    -0.744 OA
ENDBRANCH  70  74
ENDBRANCH  43  67
BRANCH  55  78
ATOM     78  C   UNL A   1      43.269  35.258  31.444  1.00  0.00     0.023 A 
ATOM     79  C   UNL A   1      43.460  36.363  30.595  1.00  0.00     0.031 A 
ATOM     80  C   UNL A   1      43.481  35.441  32.822  1.00  0.00     0.131 A 
ATOM     81  C   UNL A   1      43.909  37.582  31.124  1.00  0.00     0.055 A 
ATOM     82  C   UNL A   1      43.863  36.675  33.351  1.00  0.00     0.041 A 
ATOM     83  F   UNL A   1      43.318  34.421  33.680  1.00  0.00    -0.206 F 
ATOM     84  C   UNL A   1      44.093  37.751  32.499  1.00  0.00     0.022 A 
BRANCH  81  85
ATOM     85  S   UNL A   1      44.352  38.918  29.980  1.00  0.00     0.124 S 
ATOM     86  O   UNL A   1      43.443  39.983  30.391  1.00  0.00    -0.237 OA
ATOM     87  O   UNL A   1      45.764  39.133  30.281  1.00  0.00    -0.237 OA
ATOM     88  O   UNL A   1      44.081  38.345  28.662  1.00  0.00    -0.744 OA
ENDBRANCH  81  85
ENDBRANCH  55  78
ENDBRANCH  29  30
ENDBRANCH  21  24
ENDBRANCH  19  20
ENDBRANCH   1  19
TORSDOF 16
ENDMDL
