MODEL 1
REMARK VINA RESULT:     -12.0      0.000      0.000
REMARK SMILES O=C(COc1ccccc1[C@@H]1[NH2+]CCc2cc(O)c(O)cc21)NCCCNC(=O)c1ccc(-c2c3nc(c(-c4cc(S(=O)(=O)[O-])ccc4F)c4ccc([nH]4)c(-c4cc(S(=O)(=O)[O-])ccc4F)c4nc(c(-c5cc(S(=O)(=O)[O-])ccc5F)c5ccc2[nH]5)C=C4)C=C3)cc1
REMARK SMILES IDX 24 1 23 2 1 3 2 4 3 6 4 7 5 8 6 9 10 10 7 11 9 12 8 13 11 14
REMARK SMILES IDX 12 15 22 16 13 17 15 20 21 21 14 22 16 23 19 24 17 25 20 26
REMARK SMILES IDX 18 28 25 30 26 31 27 32 28 33 29 35 30 36 31 37 92 38 32 39
REMARK SMILES IDX 91 40 33 41 34 42 35 43 85 44 36 45 90 46 84 47 86 48 37 49
REMARK SMILES IDX 89 50 83 51 82 52 38 54 70 55 50 56 69 57 51 58 54 59 68 60
REMARK SMILES IDX 87 61 52 62 53 63 67 65 88 66 55 67 39 68 40 69 48 70 41 71
REMARK SMILES IDX 47 72 49 73 46 74 42 75 43 76 44 77 45 78 71 79 72 80 80 81
REMARK SMILES IDX 73 82 79 83 81 84 78 85 74 86 75 87 76 88 77 89 56 90 57 91
REMARK SMILES IDX 65 92 58 93 64 94 66 95 63 96 59 97 60 98 61 99 62 100
REMARK H PARENT 23 5 12 18 12 19 20 27 18 29 27 34 86 53 54 64
REMARK Flexibility Score: inf
ROOT
ATOM      1  C   UNL A   1      32.919  29.009  23.881  1.00  0.00     0.117 C 
ENDROOT
BRANCH   1   2
ATOM      2  N   UNL A   1      32.156  28.222  22.935  1.00  0.00    -0.353 N 
ATOM      3  O   UNL A   1      33.955  27.175  21.972  1.00  0.00    -0.271 OA
ATOM      4  C   UNL A   1      32.741  27.245  22.153  1.00  0.00     0.257 C 
ATOM      5  H   UNL A   1      31.190  28.387  22.846  1.00  0.00     0.163 HD
BRANCH   4   6
ATOM      6  C   UNL A   1      31.753  26.238  21.549  1.00  0.00     0.329 C 
BRANCH   6   7
ATOM      7  O   UNL A   1      31.002  25.391  22.394  1.00  0.00    -0.483 OA
BRANCH   7   8
ATOM      8  C   UNL A   1      31.298  24.987  23.665  1.00  0.00     0.129 A 
ATOM      9  C   UNL A   1      30.323  25.516  24.539  1.00  0.00     0.047 A 
ATOM     10  C   UNL A   1      32.398  24.285  24.214  1.00  0.00     0.056 A 
ATOM     11  C   UNL A   1      30.463  25.479  25.922  1.00  0.00     0.004 A 
ATOM     12  C   UNL A   1      32.562  24.353  25.623  1.00  0.00     0.014 A 
ATOM     13  C   UNL A   1      31.614  24.942  26.464  1.00  0.00     0.001 A 
BRANCH  10  14
ATOM     14  C   UNL A   1      33.441  23.506  23.419  1.00  0.00     0.249 C 
ATOM     15  N   UNL A   1      32.851  22.742  22.310  1.00  0.00    -0.336 N 
ATOM     16  C   UNL A   1      34.409  22.553  24.129  1.00  0.00     0.021 A 
ATOM     17  C   UNL A   1      32.101  21.557  22.743  1.00  0.00     0.266 C 
ATOM     18  H   UNL A   1      33.604  22.439  21.692  1.00  0.00     0.347 HD
ATOM     19  H   UNL A   1      32.187  23.359  21.843  1.00  0.00     0.347 HD
ATOM     20  C   UNL A   1      33.952  21.239  24.387  1.00  0.00    -0.029 A 
ATOM     21  C   UNL A   1      35.762  22.875  24.324  1.00  0.00     0.060 A 
ATOM     22  C   UNL A   1      32.502  20.957  24.101  1.00  0.00     0.097 C 
ATOM     23  C   UNL A   1      34.842  20.250  24.802  1.00  0.00     0.054 A 
ATOM     24  C   UNL A   1      36.643  21.870  24.707  1.00  0.00     0.157 A 
ATOM     25  C   UNL A   1      36.185  20.570  24.927  1.00  0.00     0.157 A 
BRANCH  24  26
ATOM     26  O   UNL A   1      37.987  22.094  24.829  1.00  0.00    -0.504 OA
ATOM     27  H   UNL A   1      38.531  22.110  24.066  1.00  0.00     0.293 HD
ENDBRANCH  24  26
BRANCH  25  28
ATOM     28  O   UNL A   1      37.078  19.578  25.221  1.00  0.00    -0.504 OA
ATOM     29  H   UNL A   1      37.247  18.901  24.597  1.00  0.00     0.293 HD
ENDBRANCH  25  28
ENDBRANCH  10  14
ENDBRANCH   7   8
ENDBRANCH   6   7
ENDBRANCH   4   6
ENDBRANCH   1   2
BRANCH   1  30
ATOM     30  C   UNL A   1      32.707  28.657  25.339  1.00  0.00     0.042 C 
BRANCH  30  31
ATOM     31  C   UNL A   1      33.865  29.054  26.228  1.00  0.00     0.118 C 
BRANCH  31  32
ATOM     32  N   UNL A   1      33.744  30.412  26.738  1.00  0.00    -0.352 N 
ATOM     33  C   UNL A   1      34.525  31.072  27.654  1.00  0.00     0.251 C 
ATOM     34  H   UNL A   1      32.993  30.932  26.373  1.00  0.00     0.163 HD
ATOM     35  O   UNL A   1      34.166  32.165  28.075  1.00  0.00    -0.269 OA
BRANCH  33  36
ATOM     36  C   UNL A   1      35.770  30.442  28.145  1.00  0.00     0.039 A 
ATOM     37  C   UNL A   1      36.949  30.626  27.421  1.00  0.00     0.014 A 
ATOM     38  C   UNL A   1      35.780  29.679  29.316  1.00  0.00     0.014 A 
ATOM     39  C   UNL A   1      38.142  30.085  27.900  1.00  0.00     0.010 A 
ATOM     40  C   UNL A   1      36.985  29.241  29.850  1.00  0.00     0.010 A 
ATOM     41  C   UNL A   1      38.176  29.412  29.133  1.00  0.00    -0.014 A 
BRANCH  41  42
ATOM     42  C   UNL A   1      39.441  28.837  29.655  1.00  0.00     0.031 A 
ATOM     43  C   UNL A   1      40.091  29.439  30.873  1.00  0.00     0.074 A 
ATOM     44  C   UNL A   1      40.012  27.794  29.021  1.00  0.00     0.049 A 
ATOM     45  N   UNL A   1      41.193  29.085  31.484  1.00  0.00    -0.248 NA
ATOM     46  C   UNL A   1      39.434  30.617  31.462  1.00  0.00     0.031 C 
ATOM     47  C   UNL A   1      39.503  27.167  27.798  1.00  0.00     0.029 A 
ATOM     48  N   UNL A   1      41.140  27.073  29.316  1.00  0.00    -0.354 N 
ATOM     49  C   UNL A   1      41.363  30.000  32.519  1.00  0.00     0.074 A 
ATOM     50  C   UNL A   1      40.298  30.971  32.399  1.00  0.00     0.031 C 
ATOM     51  C   UNL A   1      40.290  26.127  27.478  1.00  0.00     0.029 A 
ATOM     52  C   UNL A   1      41.380  26.039  28.443  1.00  0.00     0.049 A 
ATOM     53  H   UNL A   1      41.724  27.277  30.084  1.00  0.00     0.167 HD
ATOM     54  C   UNL A   1      42.299  30.009  33.500  1.00  0.00     0.034 A 
ATOM     55  C   UNL A   1      42.368  25.120  28.426  1.00  0.00     0.034 A 
ATOM     56  C   UNL A   1      43.347  29.024  33.608  1.00  0.00     0.049 A 
ATOM     57  C   UNL A   1      43.398  25.151  29.526  1.00  0.00     0.074 A 
ATOM     58  C   UNL A   1      44.327  28.909  34.577  1.00  0.00     0.029 A 
ATOM     59  N   UNL A   1      43.555  27.983  32.710  1.00  0.00    -0.354 N 
ATOM     60  N   UNL A   1      43.512  25.988  30.533  1.00  0.00    -0.248 NA
ATOM     61  C   UNL A   1      44.417  24.096  29.501  1.00  0.00     0.031 C 
ATOM     62  C   UNL A   1      45.166  27.844  34.230  1.00  0.00     0.029 A 
ATOM     63  C   UNL A   1      44.660  27.237  33.091  1.00  0.00     0.049 A 
ATOM     64  H   UNL A   1      42.999  27.804  31.918  1.00  0.00     0.167 HD
ATOM     65  C   UNL A   1      44.595  25.534  31.282  1.00  0.00     0.074 A 
ATOM     66  C   UNL A   1      45.080  24.339  30.621  1.00  0.00     0.031 C 
ATOM     67  C   UNL A   1      45.138  26.052  32.415  1.00  0.00     0.034 A 
BRANCH  54  68
ATOM     68  C   UNL A   1      42.234  31.132  34.510  1.00  0.00     0.023 A 
ATOM     69  C   UNL A   1      41.202  31.213  35.464  1.00  0.00     0.031 A 
ATOM     70  C   UNL A   1      43.193  32.160  34.497  1.00  0.00     0.131 A 
ATOM     71  C   UNL A   1      41.104  32.333  36.302  1.00  0.00     0.055 A 
ATOM     72  C   UNL A   1      43.142  33.227  35.397  1.00  0.00     0.041 A 
ATOM     73  F   UNL A   1      44.190  32.155  33.598  1.00  0.00    -0.206 F 
ATOM     74  C   UNL A   1      42.084  33.327  36.296  1.00  0.00     0.022 A 
BRANCH  71  75
ATOM     75  S   UNL A   1      39.597  32.549  37.288  1.00  0.00     0.124 S 
ATOM     76  O   UNL A   1      39.055  33.786  36.731  1.00  0.00    -0.237 OA
ATOM     77  O   UNL A   1      38.849  31.334  36.993  1.00  0.00    -0.237 OA
ATOM     78  O   UNL A   1      40.096  32.660  38.657  1.00  0.00    -0.744 OA
ENDBRANCH  71  75
ENDBRANCH  54  68
BRANCH  55  79
ATOM     79  C   UNL A   1      42.428  24.090  27.349  1.00  0.00     0.023 A 
ATOM     80  C   UNL A   1      41.739  22.872  27.471  1.00  0.00     0.031 A 
ATOM     81  C   UNL A   1      43.214  24.289  26.201  1.00  0.00     0.131 A 
ATOM     82  C   UNL A   1      41.894  21.879  26.492  1.00  0.00     0.055 A 
ATOM     83  C   UNL A   1      43.319  23.320  25.201  1.00  0.00     0.041 A 
ATOM     84  F   UNL A   1      43.888  25.437  26.029  1.00  0.00    -0.206 F 
ATOM     85  C   UNL A   1      42.670  22.099  25.352  1.00  0.00     0.022 A 
BRANCH  82  86
ATOM     86  S   UNL A   1      41.144  20.251  26.778  1.00  0.00     0.124 S 
ATOM     87  O   UNL A   1      40.914  20.279  28.218  1.00  0.00    -0.237 OA
ATOM     88  O   UNL A   1      39.953  20.316  25.936  1.00  0.00    -0.237 OA
ATOM     89  O   UNL A   1      42.173  19.318  26.326  1.00  0.00    -0.744 OA
ENDBRANCH  82  86
ENDBRANCH  55  79
BRANCH  67  90
ATOM     90  C   UNL A   1      46.283  25.287  33.035  1.00  0.00     0.023 A 
ATOM     91  C   UNL A   1      46.069  24.205  33.907  1.00  0.00     0.031 A 
ATOM     92  C   UNL A   1      47.612  25.675  32.780  1.00  0.00     0.131 A 
ATOM     93  C   UNL A   1      47.158  23.609  34.561  1.00  0.00     0.055 A 
ATOM     94  C   UNL A   1      48.695  25.026  33.373  1.00  0.00     0.041 A 
ATOM     95  F   UNL A   1      47.879  26.701  31.956  1.00  0.00    -0.206 F 
ATOM     96  C   UNL A   1      48.470  23.999  34.285  1.00  0.00     0.022 A 
BRANCH  93  97
ATOM     97  S   UNL A   1      46.825  22.413  35.885  1.00  0.00     0.124 S 
ATOM     98  O   UNL A   1      45.843  23.124  36.696  1.00  0.00    -0.237 OA
ATOM     99  O   UNL A   1      46.325  21.260  35.144  1.00  0.00    -0.237 OA
ATOM    100  O   UNL A   1      48.132  22.227  36.514  1.00  0.00    -0.744 OA
ENDBRANCH  93  97
ENDBRANCH  67  90
ENDBRANCH  41  42
ENDBRANCH  33  36
ENDBRANCH  31  32
ENDBRANCH  30  31
ENDBRANCH   1  30
TORSDOF 18
ENDMDL
MODEL 2
REMARK VINA RESULT:     -11.8      1.465      1.722
REMARK SMILES O=C(COc1ccccc1[C@@H]1[NH2+]CCc2cc(O)c(O)cc21)NCCCNC(=O)c1ccc(-c2c3nc(c(-c4cc(S(=O)(=O)[O-])ccc4F)c4ccc([nH]4)c(-c4cc(S(=O)(=O)[O-])ccc4F)c4nc(c(-c5cc(S(=O)(=O)[O-])ccc5F)c5ccc2[nH]5)C=C4)C=C3)cc1
REMARK SMILES IDX 24 1 23 2 1 3 2 4 3 6 4 7 5 8 6 9 10 10 7 11 9 12 8 13 11 14
REMARK SMILES IDX 12 15 22 16 13 17 15 20 21 21 14 22 16 23 19 24 17 25 20 26
REMARK SMILES IDX 18 28 25 30 26 31 27 32 28 33 29 35 30 36 31 37 92 38 32 39
REMARK SMILES IDX 91 40 33 41 34 42 35 43 85 44 36 45 90 46 84 47 86 48 37 49
REMARK SMILES IDX 89 50 83 51 82 52 38 54 70 55 50 56 69 57 51 58 54 59 68 60
REMARK SMILES IDX 87 61 52 62 53 63 67 65 88 66 55 67 39 68 40 69 48 70 41 71
REMARK SMILES IDX 47 72 49 73 46 74 42 75 43 76 44 77 45 78 71 79 72 80 80 81
REMARK SMILES IDX 73 82 79 83 81 84 78 85 74 86 75 87 76 88 77 89 56 90 57 91
REMARK SMILES IDX 65 92 58 93 64 94 66 95 63 96 59 97 60 98 61 99 62 100
REMARK H PARENT 23 5 12 18 12 19 20 27 18 29 27 34 86 53 54 64
REMARK Flexibility Score: inf
ROOT
ATOM      1  C   UNL A   1      32.375  29.244  24.544  1.00  0.00     0.117 C 
ENDROOT
BRANCH   1   2
ATOM      2  N   UNL A   1      31.815  28.453  23.468  1.00  0.00    -0.353 N 
ATOM      3  O   UNL A   1      33.817  27.697  22.644  1.00  0.00    -0.271 OA
ATOM      4  C   UNL A   1      32.591  27.615  22.693  1.00  0.00     0.257 C 
ATOM      5  H   UNL A   1      30.850  28.514  23.283  1.00  0.00     0.163 HD
BRANCH   4   6
ATOM      6  C   UNL A   1      31.801  26.553  21.915  1.00  0.00     0.329 C 
BRANCH   6   7
ATOM      7  O   UNL A   1      31.117  25.532  22.610  1.00  0.00    -0.483 OA
BRANCH   7   8
ATOM      8  C   UNL A   1      31.378  25.038  23.857  1.00  0.00     0.129 A 
ATOM      9  C   UNL A   1      30.378  25.504  24.739  1.00  0.00     0.047 A 
ATOM     10  C   UNL A   1      32.462  24.297  24.386  1.00  0.00     0.056 A 
ATOM     11  C   UNL A   1      30.479  25.368  26.119  1.00  0.00     0.004 A 
ATOM     12  C   UNL A   1      32.586  24.263  25.799  1.00  0.00     0.014 A 
ATOM     13  C   UNL A   1      31.615  24.792  26.653  1.00  0.00     0.001 A 
BRANCH  10  14
ATOM     14  C   UNL A   1      33.527  23.575  23.566  1.00  0.00     0.249 C 
ATOM     15  N   UNL A   1      32.964  22.854  22.416  1.00  0.00    -0.336 N 
ATOM     16  C   UNL A   1      34.506  22.607  24.241  1.00  0.00     0.021 A 
ATOM     17  C   UNL A   1      32.232  21.636  22.784  1.00  0.00     0.266 C 
ATOM     18  H   UNL A   1      33.728  22.594  21.793  1.00  0.00     0.347 HD
ATOM     19  H   UNL A   1      32.293  23.480  21.971  1.00  0.00     0.347 HD
ATOM     20  C   UNL A   1      34.071  21.274  24.432  1.00  0.00    -0.029 A 
ATOM     21  C   UNL A   1      35.850  22.945  24.466  1.00  0.00     0.060 A 
ATOM     22  C   UNL A   1      32.629  20.980  24.117  1.00  0.00     0.097 C 
ATOM     23  C   UNL A   1      34.975  20.284  24.810  1.00  0.00     0.054 A 
ATOM     24  C   UNL A   1      36.746  21.939  24.811  1.00  0.00     0.157 A 
ATOM     25  C   UNL A   1      36.311  20.622  24.965  1.00  0.00     0.157 A 
BRANCH  24  26
ATOM     26  O   UNL A   1      38.084  22.181  24.959  1.00  0.00    -0.504 OA
ATOM     27  H   UNL A   1      38.565  22.596  24.269  1.00  0.00     0.293 HD
ENDBRANCH  24  26
BRANCH  25  28
ATOM     28  O   UNL A   1      37.219  19.634  25.221  1.00  0.00    -0.504 OA
ATOM     29  H   UNL A   1      37.842  19.390  24.567  1.00  0.00     0.293 HD
ENDBRANCH  25  28
ENDBRANCH  10  14
ENDBRANCH   7   8
ENDBRANCH   6   7
ENDBRANCH   4   6
ENDBRANCH   1   2
BRANCH   1  30
ATOM     30  C   UNL A   1      32.422  28.560  25.895  1.00  0.00     0.042 C 
BRANCH  30  31
ATOM     31  C   UNL A   1      33.590  28.999  26.751  1.00  0.00     0.118 C 
BRANCH  31  32
ATOM     32  N   UNL A   1      33.499  30.395  27.154  1.00  0.00    -0.352 N 
ATOM     33  C   UNL A   1      34.352  31.133  27.937  1.00  0.00     0.251 C 
ATOM     34  H   UNL A   1      32.712  30.879  26.817  1.00  0.00     0.163 HD
ATOM     35  O   UNL A   1      34.020  32.256  28.296  1.00  0.00    -0.269 OA
BRANCH  33  36
ATOM     36  C   UNL A   1      35.644  30.552  28.363  1.00  0.00     0.039 A 
ATOM     37  C   UNL A   1      36.802  30.904  27.670  1.00  0.00     0.014 A 
ATOM     38  C   UNL A   1      35.717  29.671  29.446  1.00  0.00     0.014 A 
ATOM     39  C   UNL A   1      38.036  30.408  28.094  1.00  0.00     0.010 A 
ATOM     40  C   UNL A   1      36.954  29.272  29.936  1.00  0.00     0.010 A 
ATOM     41  C   UNL A   1      38.126  29.611  29.247  1.00  0.00    -0.014 A 
BRANCH  41  42
ATOM     42  C   UNL A   1      39.433  29.083  29.710  1.00  0.00     0.031 A 
ATOM     43  C   UNL A   1      40.136  29.736  30.873  1.00  0.00     0.074 A 
ATOM     44  C   UNL A   1      39.994  28.037  29.073  1.00  0.00     0.049 A 
ATOM     45  N   UNL A   1      41.279  29.427  31.428  1.00  0.00    -0.248 NA
ATOM     46  C   UNL A   1      39.482  30.913  31.467  1.00  0.00     0.031 C 
ATOM     47  C   UNL A   1      39.434  27.363  27.899  1.00  0.00     0.029 A 
ATOM     48  N   UNL A   1      41.156  27.354  29.322  1.00  0.00    -0.354 N 
ATOM     49  C   UNL A   1      41.483  30.374  32.427  1.00  0.00     0.074 A 
ATOM     50  C   UNL A   1      40.388  31.315  32.342  1.00  0.00     0.031 C 
ATOM     51  C   UNL A   1      40.228  26.334  27.562  1.00  0.00     0.029 A 
ATOM     52  C   UNL A   1      41.374  26.301  28.464  1.00  0.00     0.049 A 
ATOM     53  H   UNL A   1      41.777  27.593  30.049  1.00  0.00     0.167 HD
ATOM     54  C   UNL A   1      42.473  30.435  33.351  1.00  0.00     0.034 A 
ATOM     55  C   UNL A   1      42.383  25.407  28.416  1.00  0.00     0.034 A 
ATOM     56  C   UNL A   1      43.551  29.480  33.425  1.00  0.00     0.049 A 
ATOM     57  C   UNL A   1      43.472  25.495  29.454  1.00  0.00     0.074 A 
ATOM     58  C   UNL A   1      44.588  29.417  34.339  1.00  0.00     0.029 A 
ATOM     59  N   UNL A   1      43.735  28.420  32.545  1.00  0.00    -0.354 N 
ATOM     60  N   UNL A   1      43.622  26.362  30.429  1.00  0.00    -0.248 NA
ATOM     61  C   UNL A   1      44.516  24.465  29.398  1.00  0.00     0.031 C 
ATOM     62  C   UNL A   1      45.433  28.364  33.973  1.00  0.00     0.029 A 
ATOM     63  C   UNL A   1      44.879  27.713  32.882  1.00  0.00     0.049 A 
ATOM     64  H   UNL A   1      43.140  28.204  31.791  1.00  0.00     0.167 HD
ATOM     65  C   UNL A   1      44.757  25.957  31.127  1.00  0.00     0.074 A 
ATOM     66  C   UNL A   1      45.236  24.757  30.471  1.00  0.00     0.031 C 
ATOM     67  C   UNL A   1      45.350  26.521  32.211  1.00  0.00     0.034 A 
BRANCH  54  68
ATOM     68  C   UNL A   1      42.436  31.585  34.333  1.00  0.00     0.023 A 
ATOM     69  C   UNL A   1      41.622  31.553  35.481  1.00  0.00     0.031 A 
ATOM     70  C   UNL A   1      43.193  32.747  34.100  1.00  0.00     0.131 A 
ATOM     71  C   UNL A   1      41.519  32.686  36.301  1.00  0.00     0.055 A 
ATOM     72  C   UNL A   1      43.155  33.837  34.972  1.00  0.00     0.041 A 
ATOM     73  F   UNL A   1      43.971  32.850  33.011  1.00  0.00    -0.206 F 
ATOM     74  C   UNL A   1      42.302  33.818  36.072  1.00  0.00     0.022 A 
BRANCH  71  75
ATOM     75  S   UNL A   1      40.232  32.716  37.579  1.00  0.00     0.124 S 
ATOM     76  O   UNL A   1      39.313  31.687  37.097  1.00  0.00    -0.237 OA
ATOM     77  O   UNL A   1      40.978  32.390  38.788  1.00  0.00    -0.237 OA
ATOM     78  O   UNL A   1      39.714  34.081  37.513  1.00  0.00    -0.744 OA
ENDBRANCH  71  75
ENDBRANCH  54  68
BRANCH  55  79
ATOM     79  C   UNL A   1      42.408  24.349  27.365  1.00  0.00     0.023 A 
ATOM     80  C   UNL A   1      41.731  23.131  27.545  1.00  0.00     0.031 A 
ATOM     81  C   UNL A   1      43.151  24.520  26.183  1.00  0.00     0.131 A 
ATOM     82  C   UNL A   1      41.856  22.112  26.588  1.00  0.00     0.055 A 
ATOM     83  C   UNL A   1      43.224  23.525  25.207  1.00  0.00     0.041 A 
ATOM     84  F   UNL A   1      43.811  25.666  25.956  1.00  0.00    -0.206 F 
ATOM     85  C   UNL A   1      42.587  22.305  25.414  1.00  0.00     0.022 A 
BRANCH  82  86
ATOM     86  S   UNL A   1      41.126  20.490  26.945  1.00  0.00     0.124 S 
ATOM     87  O   UNL A   1      42.231  19.591  26.632  1.00  0.00    -0.237 OA
ATOM     88  O   UNL A   1      40.783  20.617  28.358  1.00  0.00    -0.237 OA
ATOM     89  O   UNL A   1      39.986  20.422  26.033  1.00  0.00    -0.744 OA
ENDBRANCH  82  86
ENDBRANCH  55  79
BRANCH  67  90
ATOM     90  C   UNL A   1      46.549  25.802  32.784  1.00  0.00     0.023 A 
ATOM     91  C   UNL A   1      47.841  25.974  32.257  1.00  0.00     0.031 A 
ATOM     92  C   UNL A   1      46.387  24.897  33.849  1.00  0.00     0.131 A 
ATOM     93  C   UNL A   1      48.900  25.189  32.735  1.00  0.00     0.055 A 
ATOM     94  C   UNL A   1      47.461  24.176  34.372  1.00  0.00     0.041 A 
ATOM     95  F   UNL A   1      45.177  24.690  34.393  1.00  0.00    -0.206 F 
ATOM     96  C   UNL A   1      48.723  24.305  33.801  1.00  0.00     0.022 A 
BRANCH  93  97
ATOM     97  S   UNL A   1      50.482  25.234  31.846  1.00  0.00     0.124 S 
ATOM     98  O   UNL A   1      51.304  26.053  32.730  1.00  0.00    -0.237 OA
ATOM     99  O   UNL A   1      50.837  23.821  31.772  1.00  0.00    -0.237 OA
ATOM    100  O   UNL A   1      50.137  25.855  30.567  1.00  0.00    -0.744 OA
ENDBRANCH  93  97
ENDBRANCH  67  90
ENDBRANCH  41  42
ENDBRANCH  33  36
ENDBRANCH  31  32
ENDBRANCH  30  31
ENDBRANCH   1  30
TORSDOF 18
ENDMDL
MODEL 3
REMARK VINA RESULT:     -11.8      4.364      9.629
REMARK SMILES O=C(COc1ccccc1[C@@H]1[NH2+]CCc2cc(O)c(O)cc21)NCCCNC(=O)c1ccc(-c2c3nc(c(-c4cc(S(=O)(=O)[O-])ccc4F)c4ccc([nH]4)c(-c4cc(S(=O)(=O)[O-])ccc4F)c4nc(c(-c5cc(S(=O)(=O)[O-])ccc5F)c5ccc2[nH]5)C=C4)C=C3)cc1
REMARK SMILES IDX 24 1 23 2 1 3 2 4 3 6 4 7 5 8 6 9 10 10 7 11 9 12 8 13 11 14
REMARK SMILES IDX 12 15 22 16 13 17 15 20 21 21 14 22 16 23 19 24 17 25 20 26
REMARK SMILES IDX 18 28 25 30 26 31 27 32 28 33 29 35 30 36 31 37 92 38 32 39
REMARK SMILES IDX 91 40 33 41 34 42 35 43 85 44 36 45 90 46 84 47 86 48 37 49
REMARK SMILES IDX 89 50 83 51 82 52 38 54 70 55 50 56 69 57 51 58 54 59 68 60
REMARK SMILES IDX 87 61 52 62 53 63 67 65 88 66 55 67 39 68 40 69 48 70 41 71
REMARK SMILES IDX 47 72 49 73 46 74 42 75 43 76 44 77 45 78 71 79 72 80 80 81
REMARK SMILES IDX 73 82 79 83 81 84 78 85 74 86 75 87 76 88 77 89 56 90 57 91
REMARK SMILES IDX 65 92 58 93 64 94 66 95 63 96 59 97 60 98 61 99 62 100
REMARK H PARENT 23 5 12 18 12 19 20 27 18 29 27 34 86 53 54 64
REMARK Flexibility Score: inf
ROOT
ATOM      1  C   UNL A   1      34.946  22.019  26.518  1.00  0.00     0.117 C 
ENDROOT
BRANCH   1   2
ATOM      2  N   UNL A   1      33.602  21.642  26.130  1.00  0.00    -0.353 N 
ATOM      3  O   UNL A   1      32.523  22.868  27.740  1.00  0.00    -0.271 OA
ATOM      4  C   UNL A   1      32.485  22.229  26.690  1.00  0.00     0.257 C 
ATOM      5  H   UNL A   1      33.481  20.945  25.445  1.00  0.00     0.163 HD
BRANCH   4   6
ATOM      6  C   UNL A   1      31.194  22.041  25.881  1.00  0.00     0.329 C 
BRANCH   6   7
ATOM      7  O   UNL A   1      30.948  22.844  24.746  1.00  0.00    -0.483 OA
BRANCH   7   8
ATOM      8  C   UNL A   1      31.784  23.747  24.153  1.00  0.00     0.129 A 
ATOM      9  C   UNL A   1      32.443  23.107  23.080  1.00  0.00     0.047 A 
ATOM     10  C   UNL A   1      32.154  25.072  24.487  1.00  0.00     0.056 A 
ATOM     11  C   UNL A   1      33.522  23.682  22.418  1.00  0.00     0.004 A 
ATOM     12  C   UNL A   1      33.320  25.589  23.862  1.00  0.00     0.014 A 
ATOM     13  C   UNL A   1      33.996  24.906  22.848  1.00  0.00     0.001 A 
BRANCH  10  14
ATOM     14  C   UNL A   1      31.436  25.968  25.492  1.00  0.00     0.249 C 
ATOM     15  N   UNL A   1      29.974  25.827  25.431  1.00  0.00    -0.336 N 
ATOM     16  C   UNL A   1      31.720  27.474  25.535  1.00  0.00     0.021 A 
ATOM     17  C   UNL A   1      29.371  26.446  24.245  1.00  0.00     0.266 C 
ATOM     18  H   UNL A   1      29.574  26.263  26.261  1.00  0.00     0.347 HD
ATOM     19  H   UNL A   1      29.773  24.828  25.379  1.00  0.00     0.347 HD
ATOM     20  C   UNL A   1      31.003  28.294  24.632  1.00  0.00    -0.029 A 
ATOM     21  C   UNL A   1      32.483  28.059  26.558  1.00  0.00     0.060 A 
ATOM     22  C   UNL A   1      30.165  27.592  23.598  1.00  0.00     0.097 C 
ATOM     23  C   UNL A   1      31.020  29.680  24.771  1.00  0.00     0.054 A 
ATOM     24  C   UNL A   1      32.464  29.441  26.703  1.00  0.00     0.157 A 
ATOM     25  C   UNL A   1      31.727  30.237  25.826  1.00  0.00     0.157 A 
BRANCH  24  26
ATOM     26  O   UNL A   1      33.112  30.070  27.731  1.00  0.00    -0.504 OA
ATOM     27  H   UNL A   1      32.749  30.848  28.108  1.00  0.00     0.293 HD
ENDBRANCH  24  26
BRANCH  25  28
ATOM     28  O   UNL A   1      31.652  31.586  26.034  1.00  0.00    -0.504 OA
ATOM     29  H   UNL A   1      31.755  31.933  26.897  1.00  0.00     0.293 HD
ENDBRANCH  25  28
ENDBRANCH  10  14
ENDBRANCH   7   8
ENDBRANCH   6   7
ENDBRANCH   4   6
ENDBRANCH   1   2
BRANCH   1  30
ATOM     30  C   UNL A   1      35.288  23.483  26.332  1.00  0.00     0.042 C 
BRANCH  30  31
ATOM     31  C   UNL A   1      36.607  23.706  25.625  1.00  0.00     0.118 C 
BRANCH  31  32
ATOM     32  N   UNL A   1      37.563  22.635  25.867  1.00  0.00    -0.352 N 
ATOM     33  C   UNL A   1      38.843  22.704  26.360  1.00  0.00     0.251 C 
ATOM     34  H   UNL A   1      37.246  21.731  25.644  1.00  0.00     0.163 HD
ATOM     35  O   UNL A   1      39.550  21.704  26.341  1.00  0.00    -0.269 OA
BRANCH  33  36
ATOM     36  C   UNL A   1      39.362  23.990  26.874  1.00  0.00     0.039 A 
ATOM     37  C   UNL A   1      39.949  24.885  25.979  1.00  0.00     0.014 A 
ATOM     38  C   UNL A   1      39.265  24.318  28.229  1.00  0.00     0.014 A 
ATOM     39  C   UNL A   1      40.394  26.125  26.438  1.00  0.00     0.010 A 
ATOM     40  C   UNL A   1      39.601  25.594  28.662  1.00  0.00     0.010 A 
ATOM     41  C   UNL A   1      40.198  26.502  27.777  1.00  0.00    -0.014 A 
BRANCH  41  42
ATOM     42  C   UNL A   1      40.662  27.821  28.276  1.00  0.00     0.031 A 
ATOM     43  C   UNL A   1      42.129  28.162  28.238  1.00  0.00     0.074 A 
ATOM     44  C   UNL A   1      39.770  28.696  28.780  1.00  0.00     0.049 A 
ATOM     45  N   UNL A   1      42.735  29.256  28.624  1.00  0.00    -0.248 NA
ATOM     46  C   UNL A   1      43.040  27.122  27.733  1.00  0.00     0.031 C 
ATOM     47  C   UNL A   1      38.332  28.451  28.920  1.00  0.00     0.029 A 
ATOM     48  N   UNL A   1      39.936  29.968  29.263  1.00  0.00    -0.354 N 
ATOM     49  C   UNL A   1      44.092  29.030  28.415  1.00  0.00     0.074 A 
ATOM     50  C   UNL A   1      44.225  27.667  27.951  1.00  0.00     0.031 C 
ATOM     51  C   UNL A   1      37.744  29.554  29.408  1.00  0.00     0.029 A 
ATOM     52  C   UNL A   1      38.763  30.568  29.656  1.00  0.00     0.049 A 
ATOM     53  H   UNL A   1      40.814  30.411  29.322  1.00  0.00     0.167 HD
ATOM     54  C   UNL A   1      45.129  29.891  28.565  1.00  0.00     0.034 A 
ATOM     55  C   UNL A   1      38.537  31.800  30.156  1.00  0.00     0.034 A 
ATOM     56  C   UNL A   1      44.975  31.251  29.019  1.00  0.00     0.049 A 
ATOM     57  C   UNL A   1      39.705  32.739  30.313  1.00  0.00     0.074 A 
ATOM     58  C   UNL A   1      45.944  32.226  29.172  1.00  0.00     0.029 A 
ATOM     59  N   UNL A   1      43.769  31.829  29.400  1.00  0.00    -0.354 N 
ATOM     60  N   UNL A   1      40.977  32.532  30.057  1.00  0.00    -0.248 NA
ATOM     61  C   UNL A   1      39.401  34.088  30.802  1.00  0.00     0.031 C 
ATOM     62  C   UNL A   1      45.339  33.368  29.708  1.00  0.00     0.029 A 
ATOM     63  C   UNL A   1      43.976  33.138  29.808  1.00  0.00     0.049 A 
ATOM     64  H   UNL A   1      42.897  31.374  29.383  1.00  0.00     0.167 HD
ATOM     65  C   UNL A   1      41.619  33.740  30.319  1.00  0.00     0.074 A 
ATOM     66  C   UNL A   1      40.588  34.671  30.730  1.00  0.00     0.031 C 
ATOM     67  C   UNL A   1      42.937  34.054  30.225  1.00  0.00     0.034 A 
BRANCH  54  68
ATOM     68  C   UNL A   1      46.514  29.369  28.251  1.00  0.00     0.023 A 
ATOM     69  C   UNL A   1      47.320  28.769  29.236  1.00  0.00     0.031 A 
ATOM     70  C   UNL A   1      47.054  29.508  26.960  1.00  0.00     0.131 A 
ATOM     71  C   UNL A   1      48.643  28.411  28.939  1.00  0.00     0.055 A 
ATOM     72  C   UNL A   1      48.341  29.064  26.648  1.00  0.00     0.041 A 
ATOM     73  F   UNL A   1      46.345  30.092  25.981  1.00  0.00    -0.206 F 
ATOM     74  C   UNL A   1      49.150  28.527  27.644  1.00  0.00     0.022 A 
BRANCH  71  75
ATOM     75  S   UNL A   1      49.740  27.937  30.305  1.00  0.00     0.124 S 
ATOM     76  O   UNL A   1      49.588  29.072  31.213  1.00  0.00    -0.237 OA
ATOM     77  O   UNL A   1      49.161  26.678  30.755  1.00  0.00    -0.237 OA
ATOM     78  O   UNL A   1      51.052  27.831  29.670  1.00  0.00    -0.744 OA
ENDBRANCH  71  75
ENDBRANCH  54  68
BRANCH  55  79
ATOM     79  C   UNL A   1      37.156  32.224  30.530  1.00  0.00     0.023 A 
ATOM     80  C   UNL A   1      36.267  32.732  29.569  1.00  0.00     0.031 A 
ATOM     81  C   UNL A   1      36.721  32.173  31.866  1.00  0.00     0.131 A 
ATOM     82  C   UNL A   1      35.012  33.221  29.964  1.00  0.00     0.055 A 
ATOM     83  C   UNL A   1      35.449  32.606  32.245  1.00  0.00     0.041 A 
ATOM     84  F   UNL A   1      37.526  31.690  32.825  1.00  0.00    -0.206 F 
ATOM     85  C   UNL A   1      34.592  33.149  31.293  1.00  0.00     0.022 A 
BRANCH  82  86
ATOM     86  S   UNL A   1      33.970  34.043  28.726  1.00  0.00     0.124 S 
ATOM     87  O   UNL A   1      34.893  35.023  28.165  1.00  0.00    -0.237 OA
ATOM     88  O   UNL A   1      33.605  32.932  27.853  1.00  0.00    -0.237 OA
ATOM     89  O   UNL A   1      32.874  34.596  29.518  1.00  0.00    -0.744 OA
ENDBRANCH  82  86
ENDBRANCH  55  79
BRANCH  67  90
ATOM     90  C   UNL A   1      43.320  35.485  30.521  1.00  0.00     0.023 A 
ATOM     91  C   UNL A   1      43.592  35.927  31.828  1.00  0.00     0.031 A 
ATOM     92  C   UNL A   1      43.372  36.431  29.481  1.00  0.00     0.131 A 
ATOM     93  C   UNL A   1      43.815  37.290  32.072  1.00  0.00     0.055 A 
ATOM     94  C   UNL A   1      43.672  37.772  29.721  1.00  0.00     0.041 A 
ATOM     95  F   UNL A   1      43.121  36.069  28.213  1.00  0.00    -0.206 F 
ATOM     96  C   UNL A   1      43.876  38.212  31.025  1.00  0.00     0.022 A 
BRANCH  93  97
ATOM     97  S   UNL A   1      43.881  37.863  33.792  1.00  0.00     0.124 S 
ATOM     98  O   UNL A   1      43.555  36.647  34.530  1.00  0.00    -0.237 OA
ATOM     99  O   UNL A   1      45.258  38.331  33.912  1.00  0.00    -0.237 OA
ATOM    100  O   UNL A   1      42.862  38.912  33.843  1.00  0.00    -0.744 OA
ENDBRANCH  93  97
ENDBRANCH  67  90
ENDBRANCH  41  42
ENDBRANCH  33  36
ENDBRANCH  31  32
ENDBRANCH  30  31
ENDBRANCH   1  30
TORSDOF 18
ENDMDL
