MODEL 1
REMARK VINA RESULT:     -13.1      0.000      0.000
REMARK SMILES C[C@@H](C(=O)NCCCNC(=O)c1ccc(-c2c3nc(c(-c4cc(S(=O)(=O)[O-])ccc4F)c4ccc([nH]4)c(-c4cc(S(=O)(=O)[O-])ccc4F)c4nc(c(-c5cc(S(=O)(=O)[O-])ccc5F)c5ccc2[nH]5)C=C4)C=C3)cc1)c1ccc2c(c1)[nH]c1ccc(Cl)cc12
REMARK SMILES IDX 8 1 7 2 6 3 5 4 3 5 4 6 2 8 1 9 75 10 76 11 80 12 77 13
REMARK SMILES IDX 79 14 78 15 81 16 88 17 82 18 87 20 83 21 85 22 84 23 86 24
REMARK SMILES IDX 9 25 10 26 11 28 12 29 13 30 74 31 14 32 73 33 15 34 16 35
REMARK SMILES IDX 17 36 67 37 18 38 72 39 66 40 68 41 19 42 71 43 65 44 64 45
REMARK SMILES IDX 20 47 52 48 32 49 51 50 33 51 36 52 50 53 69 54 34 55 35 56
REMARK SMILES IDX 49 58 70 59 37 60 21 61 22 62 30 63 23 64 29 65 31 66 28 67
REMARK SMILES IDX 24 68 25 69 26 70 27 71 53 72 54 73 62 74 55 75 61 76 63 77
REMARK SMILES IDX 60 78 56 79 57 80 58 81 59 82 38 83 39 84 47 85 40 86 46 87
REMARK SMILES IDX 48 88 45 89 41 90 42 91 43 92 44 93
REMARK H PARENT 5 7 81 19 9 27 68 46 36 57
REMARK Flexibility Score: inf
ROOT
ATOM      1  C   UNL A   1      32.871  32.130  27.299  1.00  0.00     0.118 C 
ENDROOT
BRANCH   1   2
ATOM      2  C   UNL A   1      31.783  31.417  26.505  1.00  0.00     0.042 C 
BRANCH   2   3
ATOM      3  C   UNL A   1      32.178  30.046  25.944  1.00  0.00     0.117 C 
BRANCH   3   4
ATOM      4  N   UNL A   1      31.575  29.764  24.646  1.00  0.00    -0.356 N 
ATOM      5  C   UNL A   1      32.000  28.982  23.599  1.00  0.00     0.227 C 
ATOM      6  O   UNL A   1      31.271  28.964  22.607  1.00  0.00    -0.274 OA
ATOM      7  H   UNL A   1      30.712  30.212  24.494  1.00  0.00     0.163 HD
BRANCH   5   8
ATOM      8  C   UNL A   1      33.313  28.185  23.722  1.00  0.00     0.105 C 
ATOM      9  C   UNL A   1      34.148  28.414  22.449  1.00  0.00     0.023 C 
BRANCH   8  10
ATOM     10  C   UNL A   1      33.234  26.671  24.019  1.00  0.00    -0.034 A 
ATOM     11  C   UNL A   1      33.671  26.059  25.202  1.00  0.00     0.005 A 
ATOM     12  C   UNL A   1      32.743  25.831  22.999  1.00  0.00     0.031 A 
ATOM     13  C   UNL A   1      33.544  24.665  25.417  1.00  0.00     0.011 A 
ATOM     14  C   UNL A   1      32.647  24.456  23.212  1.00  0.00     0.047 A 
ATOM     15  C   UNL A   1      33.012  23.841  24.402  1.00  0.00     0.007 A 
ATOM     16  N   UNL A   1      32.210  23.484  22.353  1.00  0.00    -0.355 N 
ATOM     17  C   UNL A   1      32.748  22.436  24.240  1.00  0.00     0.009 A 
ATOM     18  C   UNL A   1      32.332  22.244  22.920  1.00  0.00     0.047 A 
ATOM     19  H   UNL A   1      31.858  23.654  21.449  1.00  0.00     0.167 HD
ATOM     20  C   UNL A   1      32.850  21.300  25.071  1.00  0.00     0.031 A 
ATOM     21  C   UNL A   1      32.096  20.988  22.355  1.00  0.00     0.028 A 
ATOM     22  C   UNL A   1      32.582  20.036  24.527  1.00  0.00     0.041 A 
ATOM     23  C   UNL A   1      32.239  19.877  23.186  1.00  0.00     0.022 A 
ATOM     24  Cl  UNL A   1      32.683  18.640  25.533  1.00  0.00    -0.084 Cl
ENDBRANCH   8  10
ENDBRANCH   5   8
ENDBRANCH   3   4
ENDBRANCH   2   3
ENDBRANCH   1   2
BRANCH   1  25
ATOM     25  N   UNL A   1      32.546  33.519  27.568  1.00  0.00    -0.352 N 
ATOM     26  C   UNL A   1      33.094  34.398  28.474  1.00  0.00     0.251 C 
ATOM     27  H   UNL A   1      31.818  33.890  27.017  1.00  0.00     0.163 HD
ATOM     28  O   UNL A   1      32.535  35.471  28.674  1.00  0.00    -0.269 OA
BRANCH  26  29
ATOM     29  C   UNL A   1      34.322  34.047  29.230  1.00  0.00     0.039 A 
ATOM     30  C   UNL A   1      34.191  33.324  30.420  1.00  0.00     0.014 A 
ATOM     31  C   UNL A   1      35.591  34.433  28.790  1.00  0.00     0.014 A 
ATOM     32  C   UNL A   1      35.332  32.910  31.115  1.00  0.00     0.010 A 
ATOM     33  C   UNL A   1      36.730  33.964  29.449  1.00  0.00     0.010 A 
ATOM     34  C   UNL A   1      36.613  33.178  30.607  1.00  0.00    -0.014 A 
BRANCH  34  35
ATOM     35  C   UNL A   1      37.832  32.587  31.226  1.00  0.00     0.031 A 
ATOM     36  C   UNL A   1      38.535  31.424  30.581  1.00  0.00     0.074 A 
ATOM     37  C   UNL A   1      38.251  33.052  32.422  1.00  0.00     0.049 A 
ATOM     38  N   UNL A   1      39.538  30.714  31.033  1.00  0.00    -0.248 NA
ATOM     39  C   UNL A   1      38.037  30.988  29.267  1.00  0.00     0.031 C 
ATOM     40  C   UNL A   1      37.635  34.161  33.159  1.00  0.00     0.029 A 
ATOM     41  N   UNL A   1      39.276  32.646  33.244  1.00  0.00    -0.354 N 
ATOM     42  C   UNL A   1      39.780  29.739  30.071  1.00  0.00     0.074 A 
ATOM     43  C   UNL A   1      38.800  29.932  29.023  1.00  0.00     0.031 C 
ATOM     44  C   UNL A   1      38.295  34.347  34.311  1.00  0.00     0.029 A 
ATOM     45  C   UNL A   1      39.339  33.336  34.434  1.00  0.00     0.049 A 
ATOM     46  H   UNL A   1      39.904  31.928  33.003  1.00  0.00     0.167 HD
ATOM     47  C   UNL A   1      40.735  28.777  30.067  1.00  0.00     0.034 A 
ATOM     48  C   UNL A   1      40.121  33.154  35.520  1.00  0.00     0.034 A 
ATOM     49  C   UNL A   1      41.717  28.612  31.112  1.00  0.00     0.049 A 
ATOM     50  C   UNL A   1      41.138  32.037  35.504  1.00  0.00     0.074 A 
ATOM     51  C   UNL A   1      42.786  27.731  31.151  1.00  0.00     0.029 A 
ATOM     52  N   UNL A   1      41.740  29.316  32.307  1.00  0.00    -0.354 N 
ATOM     53  N   UNL A   1      41.408  31.182  34.544  1.00  0.00    -0.248 NA
ATOM     54  C   UNL A   1      41.953  31.859  36.713  1.00  0.00     0.031 C 
ATOM     55  C   UNL A   1      43.395  27.838  32.405  1.00  0.00     0.029 A 
ATOM     56  C   UNL A   1      42.764  28.845  33.115  1.00  0.00     0.049 A 
ATOM     57  H   UNL A   1      41.120  30.042  32.546  1.00  0.00     0.167 HD
ATOM     58  C   UNL A   1      42.442  30.385  35.029  1.00  0.00     0.074 A 
ATOM     59  C   UNL A   1      42.763  30.876  36.351  1.00  0.00     0.031 C 
ATOM     60  C   UNL A   1      43.067  29.337  34.437  1.00  0.00     0.034 A 
BRANCH  47  61
ATOM     61  C   UNL A   1      40.758  27.795  28.921  1.00  0.00     0.023 A 
ATOM     62  C   UNL A   1      41.684  27.894  27.871  1.00  0.00     0.031 A 
ATOM     63  C   UNL A   1      39.868  26.704  28.918  1.00  0.00     0.131 A 
ATOM     64  C   UNL A   1      41.678  26.938  26.842  1.00  0.00     0.055 A 
ATOM     65  C   UNL A   1      39.911  25.722  27.928  1.00  0.00     0.041 A 
ATOM     66  F   UNL A   1      38.949  26.570  29.889  1.00  0.00    -0.206 F 
ATOM     67  C   UNL A   1      40.816  25.838  26.879  1.00  0.00     0.022 A 
BRANCH  64  68
ATOM     68  S   UNL A   1      42.754  27.197  25.407  1.00  0.00     0.124 S 
ATOM     69  O   UNL A   1      42.595  25.938  24.685  1.00  0.00    -0.237 OA
ATOM     70  O   UNL A   1      42.165  28.374  24.778  1.00  0.00    -0.237 OA
ATOM     71  O   UNL A   1      44.075  27.404  26.001  1.00  0.00    -0.744 OA
ENDBRANCH  64  68
ENDBRANCH  47  61
BRANCH  48  72
ATOM     72  C   UNL A   1      39.947  33.995  36.742  1.00  0.00     0.023 A 
ATOM     73  C   UNL A   1      39.354  33.471  37.902  1.00  0.00     0.031 A 
ATOM     74  C   UNL A   1      40.282  35.362  36.739  1.00  0.00     0.131 A 
ATOM     75  C   UNL A   1      39.046  34.321  38.977  1.00  0.00     0.055 A 
ATOM     76  C   UNL A   1      40.042  36.186  37.839  1.00  0.00     0.041 A 
ATOM     77  F   UNL A   1      40.847  35.922  35.657  1.00  0.00    -0.206 F 
ATOM     78  C   UNL A   1      39.400  35.670  38.960  1.00  0.00     0.022 A 
BRANCH  75  79
ATOM     79  S   UNL A   1      38.038  33.664  40.336  1.00  0.00     0.124 S 
ATOM     80  O   UNL A   1      37.839  34.853  41.156  1.00  0.00    -0.237 OA
ATOM     81  O   UNL A   1      36.863  33.167  39.626  1.00  0.00    -0.237 OA
ATOM     82  O   UNL A   1      38.892  32.634  40.924  1.00  0.00    -0.744 OA
ENDBRANCH  75  79
ENDBRANCH  48  72
BRANCH  60  83
ATOM     83  C   UNL A   1      44.181  28.672  35.207  1.00  0.00     0.023 A 
ATOM     84  C   UNL A   1      43.933  27.598  36.080  1.00  0.00     0.031 A 
ATOM     85  C   UNL A   1      45.508  29.111  35.058  1.00  0.00     0.131 A 
ATOM     86  C   UNL A   1      44.991  27.028  36.803  1.00  0.00     0.055 A 
ATOM     87  C   UNL A   1      46.565  28.499  35.733  1.00  0.00     0.041 A 
ATOM     88  F   UNL A   1      45.802  30.136  34.242  1.00  0.00    -0.206 F 
ATOM     89  C   UNL A   1      46.307  27.457  36.620  1.00  0.00     0.022 A 
BRANCH  86  90
ATOM     90  S   UNL A   1      44.613  25.762  38.046  1.00  0.00     0.124 S 
ATOM     91  O   UNL A   1      43.881  26.529  39.048  1.00  0.00    -0.237 OA
ATOM     92  O   UNL A   1      43.827  24.797  37.282  1.00  0.00    -0.237 OA
ATOM     93  O   UNL A   1      45.931  25.290  38.466  1.00  0.00    -0.744 OA
ENDBRANCH  86  90
ENDBRANCH  60  83
ENDBRANCH  34  35
ENDBRANCH  26  29
ENDBRANCH   1  25
TORSDOF 14
ENDMDL
MODEL 2
REMARK VINA RESULT:     -13.1      1.313      1.547
REMARK SMILES C[C@@H](C(=O)NCCCNC(=O)c1ccc(-c2c3nc(c(-c4cc(S(=O)(=O)[O-])ccc4F)c4ccc([nH]4)c(-c4cc(S(=O)(=O)[O-])ccc4F)c4nc(c(-c5cc(S(=O)(=O)[O-])ccc5F)c5ccc2[nH]5)C=C4)C=C3)cc1)c1ccc2c(c1)[nH]c1ccc(Cl)cc12
REMARK SMILES IDX 8 1 7 2 6 3 5 4 3 5 4 6 2 8 1 9 75 10 76 11 80 12 77 13
REMARK SMILES IDX 79 14 78 15 81 16 88 17 82 18 87 20 83 21 85 22 84 23 86 24
REMARK SMILES IDX 9 25 10 26 11 28 12 29 13 30 74 31 14 32 73 33 15 34 16 35
REMARK SMILES IDX 17 36 67 37 18 38 72 39 66 40 68 41 19 42 71 43 65 44 64 45
REMARK SMILES IDX 20 47 52 48 32 49 51 50 33 51 36 52 50 53 69 54 34 55 35 56
REMARK SMILES IDX 49 58 70 59 37 60 21 61 22 62 30 63 23 64 29 65 31 66 28 67
REMARK SMILES IDX 24 68 25 69 26 70 27 71 53 72 54 73 62 74 55 75 61 76 63 77
REMARK SMILES IDX 60 78 56 79 57 80 58 81 59 82 38 83 39 84 47 85 40 86 46 87
REMARK SMILES IDX 48 88 45 89 41 90 42 91 43 92 44 93
REMARK H PARENT 5 7 81 19 9 27 68 46 36 57
REMARK Flexibility Score: inf
ROOT
ATOM      1  C   UNL A   1      32.852  32.325  27.349  1.00  0.00     0.118 C 
ENDROOT
BRANCH   1   2
ATOM      2  C   UNL A   1      31.755  31.624  26.556  1.00  0.00     0.042 C 
BRANCH   2   3
ATOM      3  C   UNL A   1      32.105  30.214  26.066  1.00  0.00     0.117 C 
BRANCH   3   4
ATOM      4  N   UNL A   1      31.448  29.866  24.812  1.00  0.00    -0.356 N 
ATOM      5  C   UNL A   1      31.838  29.044  23.781  1.00  0.00     0.227 C 
ATOM      6  O   UNL A   1      31.065  28.971  22.826  1.00  0.00    -0.274 OA
ATOM      7  H   UNL A   1      30.571  30.293  24.681  1.00  0.00     0.163 HD
BRANCH   5   8
ATOM      8  C   UNL A   1      33.169  28.274  23.878  1.00  0.00     0.105 C 
ATOM      9  C   UNL A   1      33.986  28.541  22.601  1.00  0.00     0.023 C 
BRANCH   8  10
ATOM     10  C   UNL A   1      33.125  26.754  24.150  1.00  0.00    -0.034 A 
ATOM     11  C   UNL A   1      33.595  26.131  25.314  1.00  0.00     0.005 A 
ATOM     12  C   UNL A   1      32.634  25.921  23.124  1.00  0.00     0.031 A 
ATOM     13  C   UNL A   1      33.499  24.731  25.507  1.00  0.00     0.011 A 
ATOM     14  C   UNL A   1      32.569  24.541  23.315  1.00  0.00     0.047 A 
ATOM     15  C   UNL A   1      32.966  23.914  24.487  1.00  0.00     0.007 A 
ATOM     16  N   UNL A   1      32.136  23.576  22.446  1.00  0.00    -0.355 N 
ATOM     17  C   UNL A   1      32.727  22.507  24.305  1.00  0.00     0.009 A 
ATOM     18  C   UNL A   1      32.292  22.328  22.989  1.00  0.00     0.047 A 
ATOM     19  H   UNL A   1      31.765  23.754  21.552  1.00  0.00     0.167 HD
ATOM     20  C   UNL A   1      32.866  21.359  25.115  1.00  0.00     0.031 A 
ATOM     21  C   UNL A   1      32.072  21.077  22.407  1.00  0.00     0.028 A 
ATOM     22  C   UNL A   1      32.614  20.099  24.554  1.00  0.00     0.041 A 
ATOM     23  C   UNL A   1      32.252  19.956  23.216  1.00  0.00     0.022 A 
ATOM     24  Cl  UNL A   1      32.760  18.688  25.533  1.00  0.00    -0.084 Cl
ENDBRANCH   8  10
ENDBRANCH   5   8
ENDBRANCH   3   4
ENDBRANCH   2   3
ENDBRANCH   1   2
BRANCH   1  25
ATOM     25  N   UNL A   1      32.552  33.723  27.602  1.00  0.00    -0.352 N 
ATOM     26  C   UNL A   1      33.118  34.603  28.495  1.00  0.00     0.251 C 
ATOM     27  H   UNL A   1      31.829  34.099  27.049  1.00  0.00     0.163 HD
ATOM     28  O   UNL A   1      32.578  35.688  28.683  1.00  0.00    -0.269 OA
BRANCH  26  29
ATOM     29  C   UNL A   1      34.343  34.240  29.251  1.00  0.00     0.039 A 
ATOM     30  C   UNL A   1      34.200  33.607  30.490  1.00  0.00     0.014 A 
ATOM     31  C   UNL A   1      35.620  34.530  28.765  1.00  0.00     0.014 A 
ATOM     32  C   UNL A   1      35.333  33.182  31.191  1.00  0.00     0.010 A 
ATOM     33  C   UNL A   1      36.748  34.048  29.433  1.00  0.00     0.010 A 
ATOM     34  C   UNL A   1      36.615  33.348  30.644  1.00  0.00    -0.014 A 
BRANCH  34  35
ATOM     35  C   UNL A   1      37.815  32.737  31.280  1.00  0.00     0.031 A 
ATOM     36  C   UNL A   1      38.515  31.570  30.640  1.00  0.00     0.074 A 
ATOM     37  C   UNL A   1      38.220  33.190  32.486  1.00  0.00     0.049 A 
ATOM     38  N   UNL A   1      39.501  30.845  31.104  1.00  0.00    -0.248 NA
ATOM     39  C   UNL A   1      38.035  31.149  29.315  1.00  0.00     0.031 C 
ATOM     40  C   UNL A   1      37.605  34.302  33.220  1.00  0.00     0.029 A 
ATOM     41  N   UNL A   1      39.224  32.765  33.323  1.00  0.00    -0.354 N 
ATOM     42  C   UNL A   1      39.748  29.872  30.141  1.00  0.00     0.074 A 
ATOM     43  C   UNL A   1      38.789  30.084  29.077  1.00  0.00     0.031 C 
ATOM     44  C   UNL A   1      38.247  34.472  34.385  1.00  0.00     0.029 A 
ATOM     45  C   UNL A   1      39.275  33.447  34.519  1.00  0.00     0.049 A 
ATOM     46  H   UNL A   1      39.847  32.041  33.089  1.00  0.00     0.167 HD
ATOM     47  C   UNL A   1      40.691  28.899  30.147  1.00  0.00     0.034 A 
ATOM     48  C   UNL A   1      40.035  33.248  35.617  1.00  0.00     0.034 A 
ATOM     49  C   UNL A   1      41.652  28.714  31.208  1.00  0.00     0.049 A 
ATOM     50  C   UNL A   1      41.039  32.118  35.612  1.00  0.00     0.074 A 
ATOM     51  C   UNL A   1      42.709  27.820  31.260  1.00  0.00     0.029 A 
ATOM     52  N   UNL A   1      41.662  29.411  32.408  1.00  0.00    -0.354 N 
ATOM     53  N   UNL A   1      41.315  31.266  34.651  1.00  0.00    -0.248 NA
ATOM     54  C   UNL A   1      41.830  31.922  36.834  1.00  0.00     0.031 C 
ATOM     55  C   UNL A   1      43.297  27.911  32.525  1.00  0.00     0.029 A 
ATOM     56  C   UNL A   1      42.665  28.922  33.231  1.00  0.00     0.049 A 
ATOM     57  H   UNL A   1      41.047  30.143  32.640  1.00  0.00     0.167 HD
ATOM     58  C   UNL A   1      42.329  30.452  35.149  1.00  0.00     0.074 A 
ATOM     59  C   UNL A   1      42.634  30.931  36.479  1.00  0.00     0.031 C 
ATOM     60  C   UNL A   1      42.952  29.400  34.560  1.00  0.00     0.034 A 
BRANCH  47  61
ATOM     61  C   UNL A   1      40.721  27.924  28.996  1.00  0.00     0.023 A 
ATOM     62  C   UNL A   1      41.631  28.049  27.935  1.00  0.00     0.031 A 
ATOM     63  C   UNL A   1      39.856  26.814  28.996  1.00  0.00     0.131 A 
ATOM     64  C   UNL A   1      41.634  27.099  26.900  1.00  0.00     0.055 A 
ATOM     65  C   UNL A   1      39.908  25.838  28.001  1.00  0.00     0.041 A 
ATOM     66  F   UNL A   1      38.951  26.654  29.977  1.00  0.00    -0.206 F 
ATOM     67  C   UNL A   1      40.797  25.980  26.941  1.00  0.00     0.022 A 
BRANCH  64  68
ATOM     68  S   UNL A   1      42.687  27.390  25.454  1.00  0.00     0.124 S 
ATOM     69  O   UNL A   1      42.528  26.141  24.714  1.00  0.00    -0.237 OA
ATOM     70  O   UNL A   1      42.079  28.571  24.852  1.00  0.00    -0.237 OA
ATOM     71  O   UNL A   1      44.014  27.599  26.032  1.00  0.00    -0.744 OA
ENDBRANCH  64  68
ENDBRANCH  47  61
BRANCH  48  72
ATOM     72  C   UNL A   1      39.850  34.083  36.842  1.00  0.00     0.023 A 
ATOM     73  C   UNL A   1      40.740  35.125  37.148  1.00  0.00     0.031 A 
ATOM     74  C   UNL A   1      38.839  33.791  37.776  1.00  0.00     0.131 A 
ATOM     75  C   UNL A   1      40.648  35.784  38.384  1.00  0.00     0.055 A 
ATOM     76  C   UNL A   1      38.706  34.500  38.971  1.00  0.00     0.041 A 
ATOM     77  F   UNL A   1      37.960  32.802  37.542  1.00  0.00    -0.206 F 
ATOM     78  C   UNL A   1      39.629  35.490  39.291  1.00  0.00     0.022 A 
BRANCH  75  79
ATOM     79  S   UNL A   1      41.977  36.929  38.854  1.00  0.00     0.124 S 
ATOM     80  O   UNL A   1      41.219  38.071  39.350  1.00  0.00    -0.237 OA
ATOM     81  O   UNL A   1      42.702  36.154  39.855  1.00  0.00    -0.237 OA
ATOM     82  O   UNL A   1      42.692  37.149  37.599  1.00  0.00    -0.744 OA
ENDBRANCH  75  79
ENDBRANCH  48  72
BRANCH  60  83
ATOM     83  C   UNL A   1      44.044  28.716  35.346  1.00  0.00     0.023 A 
ATOM     84  C   UNL A   1      43.773  27.617  36.178  1.00  0.00     0.031 A 
ATOM     85  C   UNL A   1      45.373  29.165  35.253  1.00  0.00     0.131 A 
ATOM     86  C   UNL A   1      44.809  27.028  36.917  1.00  0.00     0.055 A 
ATOM     87  C   UNL A   1      46.410  28.536  35.943  1.00  0.00     0.041 A 
ATOM     88  F   UNL A   1      45.689  30.214  34.477  1.00  0.00    -0.206 F 
ATOM     89  C   UNL A   1      46.129  27.467  36.789  1.00  0.00     0.022 A 
BRANCH  86  90
ATOM     90  S   UNL A   1      44.398  25.724  38.109  1.00  0.00     0.124 S 
ATOM     91  O   UNL A   1      45.596  24.893  38.075  1.00  0.00    -0.237 OA
ATOM     92  O   UNL A   1      44.182  26.480  39.339  1.00  0.00    -0.237 OA
ATOM     93  O   UNL A   1      43.198  25.109  37.544  1.00  0.00    -0.744 OA
ENDBRANCH  86  90
ENDBRANCH  60  83
ENDBRANCH  34  35
ENDBRANCH  26  29
ENDBRANCH   1  25
TORSDOF 14
ENDMDL
MODEL 3
REMARK VINA RESULT:     -12.9      6.129     11.526
REMARK SMILES C[C@@H](C(=O)NCCCNC(=O)c1ccc(-c2c3nc(c(-c4cc(S(=O)(=O)[O-])ccc4F)c4ccc([nH]4)c(-c4cc(S(=O)(=O)[O-])ccc4F)c4nc(c(-c5cc(S(=O)(=O)[O-])ccc5F)c5ccc2[nH]5)C=C4)C=C3)cc1)c1ccc2c(c1)[nH]c1ccc(Cl)cc12
REMARK SMILES IDX 8 1 7 2 6 3 5 4 3 5 4 6 2 8 1 9 75 10 76 11 80 12 77 13
REMARK SMILES IDX 79 14 78 15 81 16 88 17 82 18 87 20 83 21 85 22 84 23 86 24
REMARK SMILES IDX 9 25 10 26 11 28 12 29 13 30 74 31 14 32 73 33 15 34 16 35
REMARK SMILES IDX 17 36 67 37 18 38 72 39 66 40 68 41 19 42 71 43 65 44 64 45
REMARK SMILES IDX 20 47 52 48 32 49 51 50 33 51 36 52 50 53 69 54 34 55 35 56
REMARK SMILES IDX 49 58 70 59 37 60 21 61 22 62 30 63 23 64 29 65 31 66 28 67
REMARK SMILES IDX 24 68 25 69 26 70 27 71 53 72 54 73 62 74 55 75 61 76 63 77
REMARK SMILES IDX 60 78 56 79 57 80 58 81 59 82 38 83 39 84 47 85 40 86 46 87
REMARK SMILES IDX 48 88 45 89 41 90 42 91 43 92 44 93
REMARK H PARENT 5 7 81 19 9 27 68 46 36 57
REMARK Flexibility Score: inf
ROOT
ATOM      1  C   UNL A   1      39.136  20.640  25.992  1.00  0.00     0.118 C 
ENDROOT
BRANCH   1   2
ATOM      2  C   UNL A   1      37.910  20.356  25.132  1.00  0.00     0.042 C 
BRANCH   2   3
ATOM      3  C   UNL A   1      36.750  21.344  25.306  1.00  0.00     0.117 C 
BRANCH   3   4
ATOM      4  N   UNL A   1      35.448  20.692  25.361  1.00  0.00    -0.356 N 
ATOM      5  C   UNL A   1      34.265  21.074  25.949  1.00  0.00     0.227 C 
ATOM      6  O   UNL A   1      33.327  20.283  25.843  1.00  0.00    -0.274 OA
ATOM      7  H   UNL A   1      35.407  19.826  24.895  1.00  0.00     0.163 HD
BRANCH   5   8
ATOM      8  C   UNL A   1      34.174  22.433  26.671  1.00  0.00     0.105 C 
ATOM      9  C   UNL A   1      33.460  22.225  28.019  1.00  0.00     0.023 C 
BRANCH   8  10
ATOM     10  C   UNL A   1      33.529  23.623  25.927  1.00  0.00    -0.034 A 
ATOM     11  C   UNL A   1      34.222  24.744  25.451  1.00  0.00     0.005 A 
ATOM     12  C   UNL A   1      32.129  23.614  25.770  1.00  0.00     0.031 A 
ATOM     13  C   UNL A   1      33.569  25.789  24.753  1.00  0.00     0.011 A 
ATOM     14  C   UNL A   1      31.493  24.662  25.104  1.00  0.00     0.047 A 
ATOM     15  C   UNL A   1      32.171  25.746  24.566  1.00  0.00     0.007 A 
ATOM     16  N   UNL A   1      30.157  24.837  24.861  1.00  0.00    -0.355 N 
ATOM     17  C   UNL A   1      31.181  26.589  23.950  1.00  0.00     0.009 A 
ATOM     18  C   UNL A   1      29.931  26.032  24.232  1.00  0.00     0.047 A 
ATOM     19  H   UNL A   1      29.455  24.192  25.106  1.00  0.00     0.167 HD
ATOM     20  C   UNL A   1      31.216  27.789  23.207  1.00  0.00     0.031 A 
ATOM     21  C   UNL A   1      28.718  26.638  23.896  1.00  0.00     0.028 A 
ATOM     22  C   UNL A   1      30.006  28.390  22.833  1.00  0.00     0.041 A 
ATOM     23  C   UNL A   1      28.777  27.841  23.195  1.00  0.00     0.022 A 
ATOM     24  Cl  UNL A   1      30.030  29.844  21.909  1.00  0.00    -0.084 Cl
ENDBRANCH   8  10
ENDBRANCH   5   8
ENDBRANCH   3   4
ENDBRANCH   2   3
ENDBRANCH   1   2
BRANCH   1  25
ATOM     25  N   UNL A   1      40.098  19.553  25.966  1.00  0.00    -0.352 N 
ATOM     26  C   UNL A   1      41.470  19.581  26.070  1.00  0.00     0.251 C 
ATOM     27  H   UNL A   1      39.708  18.655  25.856  1.00  0.00     0.163 HD
ATOM     28  O   UNL A   1      42.106  18.562  25.825  1.00  0.00    -0.269 OA
BRANCH  26  29
ATOM     29  C   UNL A   1      42.182  20.831  26.438  1.00  0.00     0.039 A 
ATOM     30  C   UNL A   1      42.597  21.689  25.415  1.00  0.00     0.014 A 
ATOM     31  C   UNL A   1      42.456  21.157  27.769  1.00  0.00     0.014 A 
ATOM     32  C   UNL A   1      43.199  22.911  25.730  1.00  0.00     0.010 A 
ATOM     33  C   UNL A   1      42.997  22.405  28.084  1.00  0.00     0.010 A 
ATOM     34  C   UNL A   1      43.355  23.306  27.068  1.00  0.00    -0.014 A 
BRANCH  34  35
ATOM     35  C   UNL A   1      43.818  24.676  27.423  1.00  0.00     0.031 A 
ATOM     36  C   UNL A   1      42.848  25.708  27.931  1.00  0.00     0.074 A 
ATOM     37  C   UNL A   1      45.107  25.011  27.202  1.00  0.00     0.049 A 
ATOM     38  N   UNL A   1      43.051  26.976  28.184  1.00  0.00    -0.248 NA
ATOM     39  C   UNL A   1      41.467  25.263  28.172  1.00  0.00     0.031 C 
ATOM     40  C   UNL A   1      46.138  24.103  26.688  1.00  0.00     0.029 A 
ATOM     41  N   UNL A   1      45.773  26.204  27.358  1.00  0.00    -0.354 N 
ATOM     42  C   UNL A   1      41.823  27.486  28.593  1.00  0.00     0.074 A 
ATOM     43  C   UNL A   1      40.875  26.395  28.530  1.00  0.00     0.031 C 
ATOM     44  C   UNL A   1      47.298  24.767  26.578  1.00  0.00     0.029 A 
ATOM     45  C   UNL A   1      47.088  26.162  26.949  1.00  0.00     0.049 A 
ATOM     46  H   UNL A   1      45.349  27.012  27.725  1.00  0.00     0.167 HD
ATOM     47  C   UNL A   1      41.523  28.748  28.987  1.00  0.00     0.034 A 
ATOM     48  C   UNL A   1      48.012  27.141  26.846  1.00  0.00     0.034 A 
ATOM     49  C   UNL A   1      42.487  29.819  29.062  1.00  0.00     0.049 A 
ATOM     50  C   UNL A   1      47.627  28.548  27.242  1.00  0.00     0.074 A 
ATOM     51  C   UNL A   1      42.302  31.105  29.544  1.00  0.00     0.029 A 
ATOM     52  N   UNL A   1      43.802  29.745  28.626  1.00  0.00    -0.354 N 
ATOM     53  N   UNL A   1      46.483  28.988  27.712  1.00  0.00    -0.248 NA
ATOM     54  C   UNL A   1      48.655  29.588  27.094  1.00  0.00     0.031 C 
ATOM     55  C   UNL A   1      43.473  31.832  29.312  1.00  0.00     0.029 A 
ATOM     56  C   UNL A   1      44.418  30.979  28.767  1.00  0.00     0.049 A 
ATOM     57  H   UNL A   1      44.232  28.936  28.268  1.00  0.00     0.167 HD
ATOM     58  C   UNL A   1      46.666  30.350  27.937  1.00  0.00     0.074 A 
ATOM     59  C   UNL A   1      48.034  30.652  27.579  1.00  0.00     0.031 C 
ATOM     60  C   UNL A   1      45.781  31.270  28.395  1.00  0.00     0.034 A 
BRANCH  47  61
ATOM     61  C   UNL A   1      40.090  29.067  29.337  1.00  0.00     0.023 A 
ATOM     62  C   UNL A   1      39.645  29.143  30.665  1.00  0.00     0.031 A 
ATOM     63  C   UNL A   1      39.169  29.359  28.313  1.00  0.00     0.131 A 
ATOM     64  C   UNL A   1      38.306  29.469  30.936  1.00  0.00     0.055 A 
ATOM     65  C   UNL A   1      37.858  29.747  28.590  1.00  0.00     0.041 A 
ATOM     66  F   UNL A   1      39.537  29.284  27.023  1.00  0.00    -0.206 F 
ATOM     67  C   UNL A   1      37.418  29.798  29.908  1.00  0.00     0.022 A 
BRANCH  64  68
ATOM     68  S   UNL A   1      37.715  29.373  32.647  1.00  0.00     0.124 S 
ATOM     69  O   UNL A   1      38.750  30.117  33.360  1.00  0.00    -0.237 OA
ATOM     70  O   UNL A   1      36.407  30.014  32.567  1.00  0.00    -0.237 OA
ATOM     71  O   UNL A   1      37.689  27.937  32.921  1.00  0.00    -0.744 OA
ENDBRANCH  64  68
ENDBRANCH  47  61
BRANCH  48  72
ATOM     72  C   UNL A   1      49.371  26.861  26.292  1.00  0.00     0.023 A 
ATOM     73  C   UNL A   1      50.467  26.645  27.141  1.00  0.00     0.031 A 
ATOM     74  C   UNL A   1      49.614  26.899  24.906  1.00  0.00     0.131 A 
ATOM     75  C   UNL A   1      51.762  26.553  26.604  1.00  0.00     0.055 A 
ATOM     76  C   UNL A   1      50.893  26.733  24.373  1.00  0.00     0.041 A 
ATOM     77  F   UNL A   1      48.606  27.107  24.043  1.00  0.00    -0.206 F 
ATOM     78  C   UNL A   1      51.980  26.579  25.226  1.00  0.00     0.022 A 
BRANCH  75  79
ATOM     79  S   UNL A   1      53.173  26.551  27.746  1.00  0.00     0.124 S 
ATOM     80  O   UNL A   1      53.954  25.427  27.247  1.00  0.00    -0.237 OA
ATOM     81  O   UNL A   1      53.740  27.877  27.526  1.00  0.00    -0.237 OA
ATOM     82  O   UNL A   1      52.550  26.349  29.053  1.00  0.00    -0.744 OA
ENDBRANCH  75  79
ENDBRANCH  48  72
BRANCH  60  83
ATOM     83  C   UNL A   1      46.279  32.685  28.561  1.00  0.00     0.023 A 
ATOM     84  C   UNL A   1      46.130  33.642  27.542  1.00  0.00     0.031 A 
ATOM     85  C   UNL A   1      46.903  33.083  29.756  1.00  0.00     0.131 A 
ATOM     86  C   UNL A   1      46.635  34.938  27.721  1.00  0.00     0.055 A 
ATOM     87  C   UNL A   1      47.348  34.391  29.953  1.00  0.00     0.041 A 
ATOM     88  F   UNL A   1      47.078  32.209  30.761  1.00  0.00    -0.206 F 
ATOM     89  C   UNL A   1      47.225  35.324  28.927  1.00  0.00     0.022 A 
BRANCH  86  90
ATOM     90  S   UNL A   1      46.578  36.095  26.326  1.00  0.00     0.124 S 
ATOM     91  O   UNL A   1      46.271  35.209  25.209  1.00  0.00    -0.237 OA
ATOM     92  O   UNL A   1      45.514  37.012  26.723  1.00  0.00    -0.237 OA
ATOM     93  O   UNL A   1      47.919  36.677  26.308  1.00  0.00    -0.744 OA
ENDBRANCH  86  90
ENDBRANCH  60  83
ENDBRANCH  34  35
ENDBRANCH  26  29
ENDBRANCH   1  25
TORSDOF 14
ENDMDL
