MODEL 1
REMARK VINA RESULT:     -11.6      0.000      0.000
REMARK SMILES CCCC(O)(CCC)[C@@]1(C)CC[C@@H](C(=O)NCCCNC(=O)c2ccc(-c3c4nc(c(-c5cc(S(=O)(=O)[O-])ccc5F)c5ccc([nH]5)c(-c5cc(S(=O)(=O)[O-])ccc5F)c5nc(c(-c6cc(S(=O)(=O)[O-])ccc6F)c6ccc3[nH]6)C=C5)C=C4)cc2)C(C)(C)O1
REMARK SMILES IDX 18 1 17 2 16 3 14 4 15 5 13 7 9 8 10 9 11 10 89 11 12 12
REMARK SMILES IDX 86 13 87 14 88 15 4 16 3 17 2 18 1 19 5 20 6 22 7 23 8 24
REMARK SMILES IDX 19 25 20 26 21 27 22 29 23 30 24 31 85 32 25 33 84 34 26 35
REMARK SMILES IDX 27 36 28 37 78 38 29 39 83 40 77 41 79 42 30 43 82 44 76 45
REMARK SMILES IDX 75 46 31 48 63 49 43 50 62 51 44 52 47 53 61 54 80 55 45 56
REMARK SMILES IDX 46 57 60 59 81 60 48 61 32 62 33 63 41 64 34 65 40 66 42 67
REMARK SMILES IDX 39 68 35 69 36 70 37 71 38 72 64 73 65 74 73 75 66 76 72 77
REMARK SMILES IDX 74 78 71 79 67 80 68 81 69 82 70 83 49 84 50 85 58 86 51 87
REMARK SMILES IDX 57 88 59 89 56 90 52 91 53 92 54 93 55 94
REMARK H PARENT 16 6 5 21 20 28 79 47 47 58
REMARK Flexibility Score: inf
ROOT
ATOM      1  C   UNL A   1      33.592  29.131  24.177  1.00  0.00     0.042 C 
ENDROOT
BRANCH   1   2
ATOM      2  C   UNL A   1      32.995  28.468  22.955  1.00  0.00     0.117 C 
BRANCH   2   3
ATOM      3  N   UNL A   1      33.674  27.280  22.498  1.00  0.00    -0.356 N 
ATOM      4  C   UNL A   1      33.444  25.986  22.830  1.00  0.00     0.226 C 
ATOM      5  O   UNL A   1      33.600  25.176  21.903  1.00  0.00    -0.275 OA
ATOM      6  H   UNL A   1      34.406  27.429  21.855  1.00  0.00     0.163 HD
BRANCH   4   7
ATOM      7  C   UNL A   1      33.078  25.428  24.229  1.00  0.00     0.110 C 
ATOM      8  C   UNL A   1      33.291  22.917  26.012  1.00  0.00     0.095 C 
ATOM      9  C   UNL A   1      32.362  22.828  27.256  1.00  0.00     0.045 C 
ATOM     10  C   UNL A   1      34.280  24.086  26.187  1.00  0.00     0.039 C 
ATOM     11  O   UNL A   1      32.400  23.152  24.892  1.00  0.00    -0.366 OA
ATOM     12  C   UNL A   1      34.336  25.178  25.099  1.00  0.00     0.019 C 
ATOM     13  C   UNL A   1      31.908  24.469  24.556  1.00  0.00     0.075 C 
ATOM     14  C   UNL A   1      30.879  24.185  23.449  1.00  0.00     0.043 C 
ATOM     15  C   UNL A   1      31.050  25.176  25.640  1.00  0.00     0.043 C 
BRANCH   8  16
ATOM     16  C   UNL A   1      33.962  21.423  25.790  1.00  0.00     0.093 C 
BRANCH  16  17
ATOM     17  C   UNL A   1      33.515  20.477  24.623  1.00  0.00     0.038 C 
BRANCH  17  18
ATOM     18  C   UNL A   1      32.757  19.185  24.864  1.00  0.00    -0.000 C 
ATOM     19  C   UNL A   1      33.621  18.028  24.483  1.00  0.00     0.004 C 
ENDBRANCH  17  18
ENDBRANCH  16  17
BRANCH  16  20
ATOM     20  O   UNL A   1      33.679  20.700  27.018  1.00  0.00    -0.387 OA
ATOM     21  H   UNL A   1      34.022  19.796  26.948  1.00  0.00     0.211 HD
ENDBRANCH  16  20
BRANCH  16  22
ATOM     22  C   UNL A   1      35.537  21.391  25.703  1.00  0.00     0.038 C 
BRANCH  22  23
ATOM     23  C   UNL A   1      36.195  21.560  24.323  1.00  0.00    -0.000 C 
ATOM     24  C   UNL A   1      37.039  22.809  24.174  1.00  0.00     0.004 C 
ENDBRANCH  22  23
ENDBRANCH  16  22
ENDBRANCH   8  16
ENDBRANCH   4   7
ENDBRANCH   2   3
ENDBRANCH   1   2
BRANCH   1  25
ATOM     25  C   UNL A   1      32.721  29.003  25.408  1.00  0.00     0.118 C 
BRANCH  25  26
ATOM     26  N   UNL A   1      32.257  30.291  25.926  1.00  0.00    -0.352 N 
ATOM     27  C   UNL A   1      32.793  31.152  26.867  1.00  0.00     0.251 C 
ATOM     28  H   UNL A   1      31.410  30.601  25.534  1.00  0.00     0.163 HD
ATOM     29  O   UNL A   1      32.145  32.115  27.234  1.00  0.00    -0.269 OA
BRANCH  27  30
ATOM     30  C   UNL A   1      34.125  30.872  27.454  1.00  0.00     0.039 A 
ATOM     31  C   UNL A   1      35.019  31.920  27.684  1.00  0.00     0.014 A 
ATOM     32  C   UNL A   1      34.476  29.578  27.820  1.00  0.00     0.014 A 
ATOM     33  C   UNL A   1      36.209  31.673  28.377  1.00  0.00     0.010 A 
ATOM     34  C   UNL A   1      35.546  29.373  28.671  1.00  0.00     0.010 A 
ATOM     35  C   UNL A   1      36.452  30.407  28.933  1.00  0.00    -0.014 A 
BRANCH  35  36
ATOM     36  C   UNL A   1      37.666  30.101  29.738  1.00  0.00     0.031 A 
ATOM     37  C   UNL A   1      38.724  29.190  29.164  1.00  0.00     0.074 A 
ATOM     38  C   UNL A   1      37.773  30.557  31.002  1.00  0.00     0.049 A 
ATOM     39  N   UNL A   1      39.779  28.675  29.739  1.00  0.00    -0.248 NA
ATOM     40  C   UNL A   1      38.531  28.746  27.773  1.00  0.00     0.031 C 
ATOM     41  C   UNL A   1      36.785  31.388  31.694  1.00  0.00     0.029 A 
ATOM     42  N   UNL A   1      38.764  30.379  31.937  1.00  0.00    -0.354 N 
ATOM     43  C   UNL A   1      40.345  27.824  28.793  1.00  0.00     0.074 A 
ATOM     44  C   UNL A   1      39.456  27.811  27.656  1.00  0.00     0.031 C 
ATOM     45  C   UNL A   1      37.241  31.687  32.921  1.00  0.00     0.029 A 
ATOM     46  C   UNL A   1      38.523  31.023  33.128  1.00  0.00     0.049 A 
ATOM     47  H   UNL A   1      39.570  29.841  31.768  1.00  0.00     0.167 HD
ATOM     48  C   UNL A   1      41.522  27.154  28.846  1.00  0.00     0.034 A 
ATOM     49  C   UNL A   1      39.250  31.065  34.262  1.00  0.00     0.034 A 
ATOM     50  C   UNL A   1      42.414  27.218  29.975  1.00  0.00     0.049 A 
ATOM     51  C   UNL A   1      40.559  30.317  34.304  1.00  0.00     0.074 A 
ATOM     52  C   UNL A   1      43.662  26.643  30.124  1.00  0.00     0.029 A 
ATOM     53  N   UNL A   1      42.148  27.904  31.155  1.00  0.00    -0.354 N 
ATOM     54  N   UNL A   1      41.111  29.563  33.380  1.00  0.00    -0.248 NA
ATOM     55  C   UNL A   1      41.349  30.436  35.536  1.00  0.00     0.031 C 
ATOM     56  C   UNL A   1      44.118  26.919  31.417  1.00  0.00     0.029 A 
ATOM     57  C   UNL A   1      43.195  27.740  32.047  1.00  0.00     0.049 A 
ATOM     58  H   UNL A   1      41.334  28.429  31.331  1.00  0.00     0.167 HD
ATOM     59  C   UNL A   1      42.328  29.143  33.910  1.00  0.00     0.074 A 
ATOM     60  C   UNL A   1      42.434  29.741  35.226  1.00  0.00     0.031 C 
ATOM     61  C   UNL A   1      43.274  28.339  33.360  1.00  0.00     0.034 A 
BRANCH  48  62
ATOM     62  C   UNL A   1      41.887  26.297  27.653  1.00  0.00     0.023 A 
ATOM     63  C   UNL A   1      41.498  24.948  27.563  1.00  0.00     0.031 A 
ATOM     64  C   UNL A   1      42.691  26.814  26.620  1.00  0.00     0.131 A 
ATOM     65  C   UNL A   1      42.001  24.137  26.535  1.00  0.00     0.055 A 
ATOM     66  C   UNL A   1      43.101  26.026  25.542  1.00  0.00     0.041 A 
ATOM     67  F   UNL A   1      43.114  28.087  26.654  1.00  0.00    -0.206 F 
ATOM     68  C   UNL A   1      42.776  24.674  25.506  1.00  0.00     0.022 A 
BRANCH  65  69
ATOM     69  S   UNL A   1      41.786  22.340  26.671  1.00  0.00     0.124 S 
ATOM     70  O   UNL A   1      42.660  22.025  27.799  1.00  0.00    -0.237 OA
ATOM     71  O   UNL A   1      40.354  22.211  26.917  1.00  0.00    -0.237 OA
ATOM     72  O   UNL A   1      42.246  21.841  25.378  1.00  0.00    -0.744 OA
ENDBRANCH  65  69
ENDBRANCH  48  62
BRANCH  49  73
ATOM     73  C   UNL A   1      38.766  31.841  35.440  1.00  0.00     0.023 A 
ATOM     74  C   UNL A   1      38.214  31.193  36.558  1.00  0.00     0.031 A 
ATOM     75  C   UNL A   1      38.830  33.246  35.461  1.00  0.00     0.131 A 
ATOM     76  C   UNL A   1      37.714  31.950  37.631  1.00  0.00     0.055 A 
ATOM     77  C   UNL A   1      38.381  33.991  36.553  1.00  0.00     0.041 A 
ATOM     78  F   UNL A   1      39.353  33.916  34.421  1.00  0.00    -0.206 F 
ATOM     79  C   UNL A   1      37.809  33.342  37.642  1.00  0.00     0.022 A 
BRANCH  76  80
ATOM     80  S   UNL A   1      36.869  31.087  38.984  1.00  0.00     0.124 S 
ATOM     81  O   UNL A   1      35.605  31.814  39.057  1.00  0.00    -0.237 OA
ATOM     82  O   UNL A   1      36.795  29.721  38.477  1.00  0.00    -0.237 OA
ATOM     83  O   UNL A   1      37.764  31.280  40.122  1.00  0.00    -0.744 OA
ENDBRANCH  76  80
ENDBRANCH  49  73
BRANCH  61  84
ATOM     84  C   UNL A   1      44.526  28.100  34.168  1.00  0.00     0.023 A 
ATOM     85  C   UNL A   1      44.674  26.968  34.987  1.00  0.00     0.031 A 
ATOM     86  C   UNL A   1      45.586  29.024  34.115  1.00  0.00     0.131 A 
ATOM     87  C   UNL A   1      45.832  26.816  35.764  1.00  0.00     0.055 A 
ATOM     88  C   UNL A   1      46.764  28.832  34.837  1.00  0.00     0.041 A 
ATOM     89  F   UNL A   1      45.496  30.124  33.352  1.00  0.00    -0.206 F 
ATOM     90  C   UNL A   1      46.886  27.730  35.679  1.00  0.00     0.022 A 
BRANCH  87  91
ATOM     91  S   UNL A   1      45.901  25.460  36.966  1.00  0.00     0.124 S 
ATOM     92  O   UNL A   1      46.251  26.164  38.196  1.00  0.00    -0.237 OA
ATOM     93  O   UNL A   1      44.547  24.919  36.904  1.00  0.00    -0.237 OA
ATOM     94  O   UNL A   1      46.943  24.584  36.435  1.00  0.00    -0.744 OA
ENDBRANCH  87  91
ENDBRANCH  61  84
ENDBRANCH  35  36
ENDBRANCH  27  30
ENDBRANCH  25  26
ENDBRANCH   1  25
TORSDOF 19
ENDMDL
MODEL 2
REMARK VINA RESULT:     -11.4      1.762      7.857
REMARK SMILES CCCC(O)(CCC)[C@@]1(C)CC[C@@H](C(=O)NCCCNC(=O)c2ccc(-c3c4nc(c(-c5cc(S(=O)(=O)[O-])ccc5F)c5ccc([nH]5)c(-c5cc(S(=O)(=O)[O-])ccc5F)c5nc(c(-c6cc(S(=O)(=O)[O-])ccc6F)c6ccc3[nH]6)C=C5)C=C4)cc2)C(C)(C)O1
REMARK SMILES IDX 18 1 17 2 16 3 14 4 15 5 13 7 9 8 10 9 11 10 89 11 12 12
REMARK SMILES IDX 86 13 87 14 88 15 4 16 3 17 2 18 1 19 5 20 6 22 7 23 8 24
REMARK SMILES IDX 19 25 20 26 21 27 22 29 23 30 24 31 85 32 25 33 84 34 26 35
REMARK SMILES IDX 27 36 28 37 78 38 29 39 83 40 77 41 79 42 30 43 82 44 76 45
REMARK SMILES IDX 75 46 31 48 63 49 43 50 62 51 44 52 47 53 61 54 80 55 45 56
REMARK SMILES IDX 46 57 60 59 81 60 48 61 32 62 33 63 41 64 34 65 40 66 42 67
REMARK SMILES IDX 39 68 35 69 36 70 37 71 38 72 64 73 65 74 73 75 66 76 72 77
REMARK SMILES IDX 74 78 71 79 67 80 68 81 69 82 70 83 49 84 50 85 58 86 51 87
REMARK SMILES IDX 57 88 59 89 56 90 52 91 53 92 54 93 55 94
REMARK H PARENT 16 6 5 21 20 28 79 47 47 58
REMARK Flexibility Score: inf
ROOT
ATOM      1  C   UNL A   1      32.678  29.212  25.457  1.00  0.00     0.042 C 
ENDROOT
BRANCH   1   2
ATOM      2  C   UNL A   1      31.248  29.393  24.998  1.00  0.00     0.117 C 
BRANCH   2   3
ATOM      3  N   UNL A   1      31.076  29.659  23.590  1.00  0.00    -0.356 N 
ATOM      4  C   UNL A   1      30.687  28.813  22.605  1.00  0.00     0.226 C 
ATOM      5  O   UNL A   1      29.974  29.328  21.729  1.00  0.00    -0.275 OA
ATOM      6  H   UNL A   1      31.268  30.582  23.304  1.00  0.00     0.163 HD
BRANCH   4   7
ATOM      7  C   UNL A   1      31.083  27.325  22.435  1.00  0.00     0.110 C 
ATOM      8  C   UNL A   1      32.285  24.908  23.934  1.00  0.00     0.095 C 
ATOM      9  C   UNL A   1      32.807  23.713  23.087  1.00  0.00     0.045 C 
ATOM     10  C   UNL A   1      30.759  25.039  23.760  1.00  0.00     0.039 C 
ATOM     11  O   UNL A   1      32.972  26.073  23.407  1.00  0.00    -0.366 OA
ATOM     12  C   UNL A   1      30.182  26.387  23.278  1.00  0.00     0.019 C 
ATOM     13  C   UNL A   1      32.516  26.774  22.229  1.00  0.00     0.075 C 
ATOM     14  C   UNL A   1      33.644  27.785  21.966  1.00  0.00     0.043 C 
ATOM     15  C   UNL A   1      32.485  25.952  20.912  1.00  0.00     0.043 C 
BRANCH   8  16
ATOM     16  C   UNL A   1      32.824  24.688  25.481  1.00  0.00     0.093 C 
BRANCH  16  17
ATOM     17  C   UNL A   1      32.689  23.313  26.220  1.00  0.00     0.038 C 
BRANCH  17  18
ATOM     18  C   UNL A   1      31.556  23.011  27.183  1.00  0.00    -0.000 C 
ATOM     19  C   UNL A   1      30.358  22.565  26.411  1.00  0.00     0.004 C 
ENDBRANCH  17  18
ENDBRANCH  16  17
BRANCH  16  20
ATOM     20  O   UNL A   1      32.073  25.643  26.278  1.00  0.00    -0.387 OA
ATOM     21  H   UNL A   1      32.593  26.455  26.387  1.00  0.00     0.211 HD
ENDBRANCH  16  20
BRANCH  16  22
ATOM     22  C   UNL A   1      34.325  25.097  25.743  1.00  0.00     0.038 C 
BRANCH  22  23
ATOM     23  C   UNL A   1      35.374  23.978  25.870  1.00  0.00    -0.000 C 
ATOM     24  C   UNL A   1      36.150  23.693  24.601  1.00  0.00     0.004 C 
ENDBRANCH  22  23
ENDBRANCH  16  22
ENDBRANCH   8  16
ENDBRANCH   4   7
ENDBRANCH   2   3
ENDBRANCH   1   2
BRANCH   1  25
ATOM     25  C   UNL A   1      32.891  29.602  26.904  1.00  0.00     0.118 C 
BRANCH  25  26
ATOM     26  N   UNL A   1      32.954  31.049  27.112  1.00  0.00    -0.352 N 
ATOM     27  C   UNL A   1      33.926  31.857  27.673  1.00  0.00     0.251 C 
ATOM     28  H   UNL A   1      32.160  31.537  26.794  1.00  0.00     0.163 HD
ATOM     29  O   UNL A   1      33.690  33.037  27.859  1.00  0.00    -0.269 OA
BRANCH  27  30
ATOM     30  C   UNL A   1      35.226  31.275  28.087  1.00  0.00     0.039 A 
ATOM     31  C   UNL A   1      36.356  32.092  28.181  1.00  0.00     0.014 A 
ATOM     32  C   UNL A   1      35.321  29.931  28.424  1.00  0.00     0.014 A 
ATOM     33  C   UNL A   1      37.539  31.572  28.718  1.00  0.00     0.010 A 
ATOM     34  C   UNL A   1      36.419  29.477  29.132  1.00  0.00     0.010 A 
ATOM     35  C   UNL A   1      37.560  30.276  29.257  1.00  0.00    -0.014 A 
BRANCH  35  36
ATOM     36  C   UNL A   1      38.768  29.693  29.902  1.00  0.00     0.031 A 
ATOM     37  C   UNL A   1      39.189  30.186  31.265  1.00  0.00     0.074 A 
ATOM     38  C   UNL A   1      39.530  28.803  29.235  1.00  0.00     0.049 A 
ATOM     39  N   UNL A   1      40.278  29.930  31.943  1.00  0.00    -0.248 NA
ATOM     40  C   UNL A   1      38.294  31.152  31.925  1.00  0.00     0.031 C 
ATOM     41  C   UNL A   1      39.267  28.300  27.885  1.00  0.00     0.029 A 
ATOM     42  N   UNL A   1      40.690  28.165  29.602  1.00  0.00    -0.354 N 
ATOM     43  C   UNL A   1      40.208  30.729  33.081  1.00  0.00     0.074 A 
ATOM     44  C   UNL A   1      39.031  31.554  32.944  1.00  0.00     0.031 C 
ATOM     45  C   UNL A   1      40.207  27.399  27.558  1.00  0.00     0.029 A 
ATOM     46  C   UNL A   1      41.173  27.302  28.647  1.00  0.00     0.049 A 
ATOM     47  H   UNL A   1      41.134  28.314  30.468  1.00  0.00     0.167 HD
ATOM     48  C   UNL A   1      41.022  30.740  34.165  1.00  0.00     0.034 A 
ATOM     49  C   UNL A   1      42.275  26.525  28.646  1.00  0.00     0.034 A 
ATOM     50  C   UNL A   1      42.167  29.876  34.298  1.00  0.00     0.049 A 
ATOM     51  C   UNL A   1      43.169  26.546  29.860  1.00  0.00     0.074 A 
ATOM     52  C   UNL A   1      43.029  29.743  35.371  1.00  0.00     0.029 A 
ATOM     53  N   UNL A   1      42.609  28.993  33.319  1.00  0.00    -0.354 N 
ATOM     54  N   UNL A   1      43.059  27.264  30.956  1.00  0.00    -0.248 NA
ATOM     55  C   UNL A   1      44.326  25.644  29.845  1.00  0.00     0.031 C 
ATOM     56  C   UNL A   1      44.032  28.835  35.015  1.00  0.00     0.029 A 
ATOM     57  C   UNL A   1      43.749  28.336  33.753  1.00  0.00     0.049 A 
ATOM     58  H   UNL A   1      42.176  28.855  32.446  1.00  0.00     0.167 HD
ATOM     59  C   UNL A   1      44.119  26.876  31.771  1.00  0.00     0.074 A 
ATOM     60  C   UNL A   1      44.844  25.851  31.047  1.00  0.00     0.031 C 
ATOM     61  C   UNL A   1      44.462  27.323  33.007  1.00  0.00     0.034 A 
BRANCH  48  62
ATOM     62  C   UNL A   1      40.696  31.724  35.268  1.00  0.00     0.023 A 
ATOM     63  C   UNL A   1      39.640  31.502  36.170  1.00  0.00     0.031 A 
ATOM     64  C   UNL A   1      41.406  32.933  35.381  1.00  0.00     0.131 A 
ATOM     65  C   UNL A   1      39.252  32.511  37.064  1.00  0.00     0.055 A 
ATOM     66  C   UNL A   1      41.082  33.890  36.346  1.00  0.00     0.041 A 
ATOM     67  F   UNL A   1      42.413  33.218  34.540  1.00  0.00    -0.206 F 
ATOM     68  C   UNL A   1      39.985  33.693  37.179  1.00  0.00     0.022 A 
BRANCH  65  69
ATOM     69  S   UNL A   1      37.668  32.333  37.931  1.00  0.00     0.124 S 
ATOM     70  O   UNL A   1      36.782  33.137  37.093  1.00  0.00    -0.237 OA
ATOM     71  O   UNL A   1      37.448  30.892  37.894  1.00  0.00    -0.237 OA
ATOM     72  O   UNL A   1      37.938  32.890  39.255  1.00  0.00    -0.744 OA
ENDBRANCH  65  69
ENDBRANCH  48  62
BRANCH  49  73
ATOM     73  C   UNL A   1      42.591  25.666  27.469  1.00  0.00     0.023 A 
ATOM     74  C   UNL A   1      42.132  24.341  27.395  1.00  0.00     0.031 A 
ATOM     75  C   UNL A   1      43.373  26.151  26.405  1.00  0.00     0.131 A 
ATOM     76  C   UNL A   1      42.490  23.535  26.301  1.00  0.00     0.055 A 
ATOM     77  C   UNL A   1      43.681  25.363  25.294  1.00  0.00     0.041 A 
ATOM     78  F   UNL A   1      43.833  27.413  26.422  1.00  0.00    -0.206 F 
ATOM     79  C   UNL A   1      43.248  24.043  25.244  1.00  0.00     0.022 A 
BRANCH  76  80
ATOM     80  S   UNL A   1      42.011  21.785  26.315  1.00  0.00     0.124 S 
ATOM     81  O   UNL A   1      42.370  21.390  27.673  1.00  0.00    -0.237 OA
ATOM     82  O   UNL A   1      40.584  21.858  26.024  1.00  0.00    -0.237 OA
ATOM     83  O   UNL A   1      42.832  21.199  25.258  1.00  0.00    -0.744 OA
ENDBRANCH  76  80
ENDBRANCH  49  73
BRANCH  61  84
ATOM     84  C   UNL A   1      45.649  26.667  33.669  1.00  0.00     0.023 A 
ATOM     85  C   UNL A   1      45.513  25.514  34.460  1.00  0.00     0.031 A 
ATOM     86  C   UNL A   1      46.937  27.208  33.501  1.00  0.00     0.131 A 
ATOM     87  C   UNL A   1      46.636  24.972  35.102  1.00  0.00     0.055 A 
ATOM     88  C   UNL A   1      48.061  26.624  34.086  1.00  0.00     0.041 A 
ATOM     89  F   UNL A   1      47.124  28.310  32.758  1.00  0.00    -0.206 F 
ATOM     90  C   UNL A   1      47.912  25.507  34.903  1.00  0.00     0.022 A 
BRANCH  87  91
ATOM     91  S   UNL A   1      46.394  23.617  36.282  1.00  0.00     0.124 S 
ATOM     92  O   UNL A   1      47.766  23.300  36.665  1.00  0.00    -0.237 OA
ATOM     93  O   UNL A   1      45.572  24.244  37.312  1.00  0.00    -0.237 OA
ATOM     94  O   UNL A   1      45.718  22.591  35.491  1.00  0.00    -0.744 OA
ENDBRANCH  87  91
ENDBRANCH  61  84
ENDBRANCH  35  36
ENDBRANCH  27  30
ENDBRANCH  25  26
ENDBRANCH   1  25
TORSDOF 19
ENDMDL
MODEL 3
REMARK VINA RESULT:     -11.3      5.048      7.490
REMARK SMILES CCCC(O)(CCC)[C@@]1(C)CC[C@@H](C(=O)NCCCNC(=O)c2ccc(-c3c4nc(c(-c5cc(S(=O)(=O)[O-])ccc5F)c5ccc([nH]5)c(-c5cc(S(=O)(=O)[O-])ccc5F)c5nc(c(-c6cc(S(=O)(=O)[O-])ccc6F)c6ccc3[nH]6)C=C5)C=C4)cc2)C(C)(C)O1
REMARK SMILES IDX 18 1 17 2 16 3 14 4 15 5 13 7 9 8 10 9 11 10 89 11 12 12
REMARK SMILES IDX 86 13 87 14 88 15 4 16 3 17 2 18 1 19 5 20 6 22 7 23 8 24
REMARK SMILES IDX 19 25 20 26 21 27 22 29 23 30 24 31 85 32 25 33 84 34 26 35
REMARK SMILES IDX 27 36 28 37 78 38 29 39 83 40 77 41 79 42 30 43 82 44 76 45
REMARK SMILES IDX 75 46 31 48 63 49 43 50 62 51 44 52 47 53 61 54 80 55 45 56
REMARK SMILES IDX 46 57 60 59 81 60 48 61 32 62 33 63 41 64 34 65 40 66 42 67
REMARK SMILES IDX 39 68 35 69 36 70 37 71 38 72 64 73 65 74 73 75 66 76 72 77
REMARK SMILES IDX 74 78 71 79 67 80 68 81 69 82 70 83 49 84 50 85 58 86 51 87
REMARK SMILES IDX 57 88 59 89 56 90 52 91 53 92 54 93 55 94
REMARK H PARENT 16 6 5 21 20 28 79 47 47 58
REMARK Flexibility Score: inf
ROOT
ATOM      1  C   UNL A   1      35.535  21.789  24.464  1.00  0.00     0.042 C 
ENDROOT
BRANCH   1   2
ATOM      2  C   UNL A   1      35.097  21.388  25.855  1.00  0.00     0.117 C 
BRANCH   2   3
ATOM      3  N   UNL A   1      33.999  20.453  25.916  1.00  0.00    -0.356 N 
ATOM      4  C   UNL A   1      32.746  20.577  25.415  1.00  0.00     0.226 C 
ATOM      5  O   UNL A   1      32.257  19.526  24.972  1.00  0.00    -0.275 OA
ATOM      6  H   UNL A   1      34.186  19.608  26.386  1.00  0.00     0.163 HD
BRANCH   4   7
ATOM      7  C   UNL A   1      31.864  21.851  25.399  1.00  0.00     0.110 C 
ATOM      8  C   UNL A   1      31.968  24.916  25.046  1.00  0.00     0.095 C 
ATOM      9  C   UNL A   1      30.743  25.746  25.525  1.00  0.00     0.045 C 
ATOM     10  C   UNL A   1      31.552  24.008  23.872  1.00  0.00     0.039 C 
ATOM     11  O   UNL A   1      32.365  24.129  26.198  1.00  0.00    -0.366 OA
ATOM     12  C   UNL A   1      31.796  22.489  23.988  1.00  0.00     0.019 C 
ATOM     13  C   UNL A   1      31.721  22.883  26.545  1.00  0.00     0.075 C 
ATOM     14  C   UNL A   1      32.342  22.535  27.908  1.00  0.00     0.043 C 
ATOM     15  C   UNL A   1      30.205  22.964  26.876  1.00  0.00     0.043 C 
BRANCH   8  16
ATOM     16  C   UNL A   1      33.195  25.981  24.743  1.00  0.00     0.093 C 
BRANCH  16  17
ATOM     17  C   UNL A   1      33.056  27.129  23.685  1.00  0.00     0.038 C 
BRANCH  17  18
ATOM     18  C   UNL A   1      33.608  27.013  22.276  1.00  0.00    -0.000 C 
ATOM     19  C   UNL A   1      32.733  26.106  21.476  1.00  0.00     0.004 C 
ENDBRANCH  17  18
ENDBRANCH  16  17
BRANCH  16  20
ATOM     20  O   UNL A   1      34.302  25.155  24.289  1.00  0.00    -0.387 OA
ATOM     21  H   UNL A   1      35.135  25.640  24.404  1.00  0.00     0.211 HD
ENDBRANCH  16  20
BRANCH  16  22
ATOM     22  C   UNL A   1      33.784  26.718  26.006  1.00  0.00     0.038 C 
BRANCH  22  23
ATOM     23  C   UNL A   1      33.566  28.236  26.132  1.00  0.00    -0.000 C 
ATOM     24  C   UNL A   1      34.652  28.970  26.890  1.00  0.00     0.004 C 
ENDBRANCH  22  23
ENDBRANCH  16  22
ENDBRANCH   8  16
ENDBRANCH   4   7
ENDBRANCH   2   3
ENDBRANCH   1   2
BRANCH   1  25
ATOM     25  C   UNL A   1      37.032  21.982  24.345  1.00  0.00     0.118 C 
BRANCH  25  26
ATOM     26  N   UNL A   1      37.805  20.886  24.929  1.00  0.00    -0.352 N 
ATOM     27  C   UNL A   1      38.892  20.880  25.785  1.00  0.00     0.251 C 
ATOM     28  H   UNL A   1      37.497  19.989  24.666  1.00  0.00     0.163 HD
ATOM     29  O   UNL A   1      39.456  19.829  26.030  1.00  0.00    -0.269 OA
BRANCH  27  30
ATOM     30  C   UNL A   1      39.391  22.153  26.359  1.00  0.00     0.039 A 
ATOM     31  C   UNL A   1      40.497  22.146  27.212  1.00  0.00     0.014 A 
ATOM     32  C   UNL A   1      38.794  23.361  26.019  1.00  0.00     0.014 A 
ATOM     33  C   UNL A   1      41.056  23.360  27.627  1.00  0.00     0.010 A 
ATOM     34  C   UNL A   1      39.459  24.548  26.264  1.00  0.00     0.010 A 
ATOM     35  C   UNL A   1      40.579  24.572  27.103  1.00  0.00    -0.014 A 
BRANCH  35  36
ATOM     36  C   UNL A   1      41.176  25.890  27.453  1.00  0.00     0.031 A 
ATOM     37  C   UNL A   1      42.597  26.191  27.039  1.00  0.00     0.074 A 
ATOM     38  C   UNL A   1      40.489  26.766  28.212  1.00  0.00     0.049 A 
ATOM     39  N   UNL A   1      43.360  27.202  27.361  1.00  0.00    -0.248 NA
ATOM     40  C   UNL A   1      43.270  25.181  26.204  1.00  0.00     0.031 C 
ATOM     41  C   UNL A   1      39.135  26.562  28.732  1.00  0.00     0.029 A 
ATOM     42  N   UNL A   1      40.838  28.007  28.685  1.00  0.00    -0.354 N 
ATOM     43  C   UNL A   1      44.605  26.927  26.799  1.00  0.00     0.074 A 
ATOM     44  C   UNL A   1      44.520  25.609  26.216  1.00  0.00     0.031 C 
ATOM     45  C   UNL A   1      38.752  27.657  29.409  1.00  0.00     0.029 A 
ATOM     46  C   UNL A   1      39.850  28.616  29.424  1.00  0.00     0.049 A 
ATOM     47  H   UNL A   1      41.714  28.421  28.512  1.00  0.00     0.167 HD
ATOM     48  C   UNL A   1      45.702  27.719  26.731  1.00  0.00     0.034 A 
ATOM     49  C   UNL A   1      39.836  29.811  30.049  1.00  0.00     0.034 A 
ATOM     50  C   UNL A   1      45.748  29.049  27.282  1.00  0.00     0.049 A 
ATOM     51  C   UNL A   1      41.064  30.682  29.961  1.00  0.00     0.074 A 
ATOM     52  C   UNL A   1      46.773  29.976  27.220  1.00  0.00     0.029 A 
ATOM     53  N   UNL A   1      44.716  29.644  28.000  1.00  0.00    -0.354 N 
ATOM     54  N   UNL A   1      42.214  30.434  29.376  1.00  0.00    -0.248 NA
ATOM     55  C   UNL A   1      40.987  31.999  30.605  1.00  0.00     0.031 C 
ATOM     56  C   UNL A   1      46.391  31.099  27.961  1.00  0.00     0.029 A 
ATOM     57  C   UNL A   1      45.093  30.911  28.412  1.00  0.00     0.049 A 
ATOM     58  H   UNL A   1      43.846  29.225  28.189  1.00  0.00     0.167 HD
ATOM     59  C   UNL A   1      42.987  31.577  29.558  1.00  0.00     0.074 A 
ATOM     60  C   UNL A   1      42.165  32.519  30.292  1.00  0.00     0.031 C 
ATOM     61  C   UNL A   1      44.258  31.830  29.154  1.00  0.00     0.034 A 
BRANCH  48  62
ATOM     62  C   UNL A   1      46.927  27.151  26.047  1.00  0.00     0.023 A 
ATOM     63  C   UNL A   1      47.883  26.395  26.749  1.00  0.00     0.031 A 
ATOM     64  C   UNL A   1      47.179  27.423  24.690  1.00  0.00     0.131 A 
ATOM     65  C   UNL A   1      49.090  26.036  26.130  1.00  0.00     0.055 A 
ATOM     66  C   UNL A   1      48.336  26.970  24.050  1.00  0.00     0.041 A 
ATOM     67  F   UNL A   1      46.318  28.156  23.967  1.00  0.00    -0.206 F 
ATOM     68  C   UNL A   1      49.311  26.292  24.776  1.00  0.00     0.022 A 
BRANCH  65  69
ATOM     69  S   UNL A   1      50.437  25.404  27.169  1.00  0.00     0.124 S 
ATOM     70  O   UNL A   1      50.765  26.580  27.972  1.00  0.00    -0.237 OA
ATOM     71  O   UNL A   1      49.797  24.303  27.881  1.00  0.00    -0.237 OA
ATOM     72  O   UNL A   1      51.460  25.013  26.203  1.00  0.00    -0.744 OA
ENDBRANCH  65  69
ENDBRANCH  48  62
BRANCH  49  73
ATOM     73  C   UNL A   1      38.628  30.252  30.803  1.00  0.00     0.023 A 
ATOM     74  C   UNL A   1      37.617  31.002  30.178  1.00  0.00     0.031 A 
ATOM     75  C   UNL A   1      38.470  29.946  32.166  1.00  0.00     0.131 A 
ATOM     76  C   UNL A   1      36.516  31.453  30.925  1.00  0.00     0.055 A 
ATOM     77  C   UNL A   1      37.347  30.350  32.891  1.00  0.00     0.041 A 
ATOM     78  F   UNL A   1      39.403  29.226  32.812  1.00  0.00    -0.206 F 
ATOM     79  C   UNL A   1      36.367  31.118  32.272  1.00  0.00     0.022 A 
BRANCH  76  80
ATOM     80  S   UNL A   1      35.312  32.549  30.124  1.00  0.00     0.124 S 
ATOM     81  O   UNL A   1      34.795  31.696  29.060  1.00  0.00    -0.237 OA
ATOM     82  O   UNL A   1      34.392  32.841  31.217  1.00  0.00    -0.237 OA
ATOM     83  O   UNL A   1      36.125  33.678  29.678  1.00  0.00    -0.744 OA
ENDBRANCH  76  80
ENDBRANCH  49  73
BRANCH  61  84
ATOM     84  C   UNL A   1      44.817  33.198  29.460  1.00  0.00     0.023 A 
ATOM     85  C   UNL A   1      44.647  34.280  28.580  1.00  0.00     0.031 A 
ATOM     86  C   UNL A   1      45.530  33.418  30.653  1.00  0.00     0.131 A 
ATOM     87  C   UNL A   1      45.233  35.520  28.879  1.00  0.00     0.055 A 
ATOM     88  C   UNL A   1      46.050  34.671  30.977  1.00  0.00     0.041 A 
ATOM     89  F   UNL A   1      45.723  32.418  31.527  1.00  0.00    -0.206 F 
ATOM     90  C   UNL A   1      45.915  35.728  30.081  1.00  0.00     0.022 A 
BRANCH  87  91
ATOM     91  S   UNL A   1      45.177  36.832  27.629  1.00  0.00     0.124 S 
ATOM     92  O   UNL A   1      43.950  37.536  27.984  1.00  0.00    -0.237 OA
ATOM     93  O   UNL A   1      46.422  37.553  27.878  1.00  0.00    -0.237 OA
ATOM     94  O   UNL A   1      45.129  36.099  26.366  1.00  0.00    -0.744 OA
ENDBRANCH  87  91
ENDBRANCH  61  84
ENDBRANCH  35  36
ENDBRANCH  27  30
ENDBRANCH  25  26
ENDBRANCH   1  25
TORSDOF 19
ENDMDL
