MODEL 1
REMARK VINA RESULT:     -12.7      0.000      0.000
REMARK SMILES COc1cc(/C=C2/S/C(=[NH+]\C(C)=O)NC2=O)cc(Br)c1OCC(=O)NCCCNC(=O)c1ccc(-c2c3nc(c(-c4cc(S(=O)(=O)[O-])ccc4F)c4ccc([nH]4)c(-c4cc(S(=O)(=O)[O-])ccc4F)c4nc(c(-c5cc(S(=O)(=O)[O-])ccc5F)c5ccc2[nH]5)C=C4)C=C3)cc1
REMARK SMILES IDX 27 1 26 2 25 3 23 4 24 5 22 7 21 8 20 9 3 10 4 11 5 12 18 13
REMARK SMILES IDX 17 14 19 15 2 16 1 17 6 18 7 19 8 20 15 21 9 22 14 23 16 24
REMARK SMILES IDX 10 25 11 27 12 29 13 30 28 31 29 32 30 33 31 35 32 36 33 37
REMARK SMILES IDX 94 38 34 39 93 40 35 41 36 42 37 43 87 44 38 45 92 46 86 47
REMARK SMILES IDX 88 48 39 49 91 50 85 51 84 52 40 54 72 55 52 56 71 57 53 58
REMARK SMILES IDX 56 59 70 60 89 61 54 62 55 63 69 65 90 66 57 67 41 68 42 69
REMARK SMILES IDX 50 70 43 71 49 72 51 73 48 74 44 75 45 76 46 77 47 78 73 79
REMARK SMILES IDX 74 80 82 81 75 82 81 83 83 84 80 85 76 86 77 87 78 88 79 89
REMARK SMILES IDX 58 90 59 91 67 92 60 93 66 94 68 95 65 96 61 97 62 98 63 99
REMARK SMILES IDX 64 100
REMARK H PARENT 25 6 14 26 10 28 29 34 88 53 56 64
REMARK Flexibility Score: inf
ROOT
ATOM      1  C   UNL A   1      38.358  19.361  25.012  1.00  0.00     0.042 C 
ENDROOT
BRANCH   1   2
ATOM      2  C   UNL A   1      37.048  20.134  24.962  1.00  0.00     0.117 C 
BRANCH   2   3
ATOM      3  N   UNL A   1      37.246  21.546  24.702  1.00  0.00    -0.353 N 
ATOM      4  C   UNL A   1      36.351  22.466  24.244  1.00  0.00     0.257 C 
ATOM      5  O   UNL A   1      36.710  23.645  24.192  1.00  0.00    -0.271 OA
ATOM      6  H   UNL A   1      38.152  21.887  24.880  1.00  0.00     0.163 HD
BRANCH   4   7
ATOM      7  C   UNL A   1      34.916  22.036  23.900  1.00  0.00     0.329 C 
BRANCH   7   8
ATOM      8  O   UNL A   1      33.844  22.205  24.806  1.00  0.00    -0.479 OA
BRANCH   8   9
ATOM      9  C   UNL A   1      32.801  23.047  24.518  1.00  0.00     0.176 A 
ATOM     10  C   UNL A   1      32.819  24.262  25.253  1.00  0.00     0.162 A 
ATOM     11  C   UNL A   1      31.826  25.233  25.059  1.00  0.00     0.058 A 
ATOM     12  C   UNL A   1      30.798  25.012  24.145  1.00  0.00    -0.019 A 
ATOM     13  C   UNL A   1      31.810  22.876  23.541  1.00  0.00     0.064 A 
ATOM     14  C   UNL A   1      30.804  23.842  23.381  1.00  0.00     0.028 A 
ATOM     15  Br  UNL A   1      31.779  21.496  22.233  1.00  0.00    -0.047 Br
BRANCH  10  16
ATOM     16  O   UNL A   1      33.874  24.421  26.127  1.00  0.00    -0.493 OA
ATOM     17  C   UNL A   1      34.722  25.549  25.937  1.00  0.00     0.278 C 
ENDBRANCH  10  16
BRANCH  12  18
ATOM     18  C   UNL A   1      29.748  26.018  23.954  1.00  0.00     0.032 C 
ATOM     19  C   UNL A   1      29.880  27.118  23.201  1.00  0.00     0.110 C 
ATOM     20  S   UNL A   1      28.692  28.380  23.127  1.00  0.00     0.007 SA
ATOM     21  C   UNL A   1      31.061  27.517  22.382  1.00  0.00     0.346 C 
ATOM     22  C   UNL A   1      29.791  29.492  22.373  1.00  0.00     0.324 C 
ATOM     23  N   UNL A   1      30.914  28.821  22.004  1.00  0.00    -0.199 N 
ATOM     24  O   UNL A   1      32.019  26.823  22.106  1.00  0.00    -0.240 OA
ATOM     25  N   UNL A   1      29.754  30.748  22.130  1.00  0.00    -0.204 N 
ATOM     26  H   UNL A   1      31.612  29.269  21.473  1.00  0.00     0.316 HD
ATOM     27  C   UNL A   1      28.785  31.679  22.379  1.00  0.00     0.304 C 
ATOM     28  H   UNL A   1      30.560  31.103  21.691  1.00  0.00     0.316 HD
ATOM     29  C   UNL A   1      27.644  31.463  23.333  1.00  0.00     0.144 C 
ATOM     30  O   UNL A   1      28.858  32.785  21.839  1.00  0.00    -0.247 OA
ENDBRANCH  12  18
ENDBRANCH   8   9
ENDBRANCH   7   8
ENDBRANCH   4   7
ENDBRANCH   2   3
ENDBRANCH   1   2
BRANCH   1  31
ATOM     31  C   UNL A   1      39.367  19.873  26.038  1.00  0.00     0.118 C 
BRANCH  31  32
ATOM     32  N   UNL A   1      40.597  19.096  26.073  1.00  0.00    -0.352 N 
ATOM     33  C   UNL A   1      41.906  19.501  26.183  1.00  0.00     0.251 C 
ATOM     34  H   UNL A   1      40.472  18.121  26.006  1.00  0.00     0.163 HD
ATOM     35  O   UNL A   1      42.803  18.676  26.027  1.00  0.00    -0.269 OA
BRANCH  33  36
ATOM     36  C   UNL A   1      42.240  20.918  26.454  1.00  0.00     0.039 A 
ATOM     37  C   UNL A   1      42.469  21.314  27.775  1.00  0.00     0.014 A 
ATOM     38  C   UNL A   1      42.313  21.860  25.425  1.00  0.00     0.014 A 
ATOM     39  C   UNL A   1      42.849  22.630  28.052  1.00  0.00     0.010 A 
ATOM     40  C   UNL A   1      42.772  23.149  25.692  1.00  0.00     0.010 A 
ATOM     41  C   UNL A   1      43.049  23.549  27.008  1.00  0.00    -0.014 A 
BRANCH  41  42
ATOM     42  C   UNL A   1      43.555  24.923  27.274  1.00  0.00     0.031 A 
ATOM     43  C   UNL A   1      42.631  25.981  27.817  1.00  0.00     0.074 A 
ATOM     44  C   UNL A   1      44.831  25.236  26.965  1.00  0.00     0.049 A 
ATOM     45  N   UNL A   1      42.866  27.249  28.042  1.00  0.00    -0.248 NA
ATOM     46  C   UNL A   1      41.254  25.565  28.121  1.00  0.00     0.031 C 
ATOM     47  C   UNL A   1      45.815  24.307  26.401  1.00  0.00     0.029 A 
ATOM     48  N   UNL A   1      45.522  26.418  27.072  1.00  0.00    -0.354 N 
ATOM     49  C   UNL A   1      41.665  27.784  28.495  1.00  0.00     0.074 A 
ATOM     50  C   UNL A   1      40.691  26.715  28.461  1.00  0.00     0.031 C 
ATOM     51  C   UNL A   1      46.984  24.946  26.242  1.00  0.00     0.029 A 
ATOM     52  C   UNL A   1      46.824  26.343  26.634  1.00  0.00     0.049 A 
ATOM     53  H   UNL A   1      45.121  27.244  27.430  1.00  0.00     0.167 HD
ATOM     54  C   UNL A   1      41.404  29.047  28.915  1.00  0.00     0.034 A 
ATOM     55  C   UNL A   1      47.779  27.292  26.541  1.00  0.00     0.034 A 
ATOM     56  C   UNL A   1      42.392  30.098  28.959  1.00  0.00     0.049 A 
ATOM     57  C   UNL A   1      47.451  28.697  26.986  1.00  0.00     0.074 A 
ATOM     58  C   UNL A   1      42.251  31.391  29.437  1.00  0.00     0.029 A 
ATOM     59  N   UNL A   1      43.698  29.988  28.499  1.00  0.00    -0.354 N 
ATOM     60  N   UNL A   1      46.326  29.170  27.473  1.00  0.00    -0.248 NA
ATOM     61  C   UNL A   1      48.523  29.695  26.878  1.00  0.00     0.031 C 
ATOM     62  C   UNL A   1      43.440  32.083  29.186  1.00  0.00     0.029 A 
ATOM     63  C   UNL A   1      44.357  31.199  28.640  1.00  0.00     0.049 A 
ATOM     64  H   UNL A   1      44.098  29.168  28.128  1.00  0.00     0.167 HD
ATOM     65  C   UNL A   1      46.572  30.509  27.765  1.00  0.00     0.074 A 
ATOM     66  C   UNL A   1      47.954  30.763  27.415  1.00  0.00     0.031 C 
ATOM     67  C   UNL A   1      45.734  31.444  28.281  1.00  0.00     0.034 A 
BRANCH  54  68
ATOM     68  C   UNL A   1      39.988  29.374  29.327  1.00  0.00     0.023 A 
ATOM     69  C   UNL A   1      39.612  29.490  30.677  1.00  0.00     0.031 A 
ATOM     70  C   UNL A   1      38.995  29.575  28.350  1.00  0.00     0.131 A 
ATOM     71  C   UNL A   1      38.271  29.732  31.014  1.00  0.00     0.055 A 
ATOM     72  C   UNL A   1      37.680  29.896  28.690  1.00  0.00     0.041 A 
ATOM     73  F   UNL A   1      39.286  29.456  27.046  1.00  0.00    -0.206 F 
ATOM     74  C   UNL A   1      37.308  29.964  30.030  1.00  0.00     0.022 A 
BRANCH  71  75
ATOM     75  S   UNL A   1      37.778  29.607  32.754  1.00  0.00     0.124 S 
ATOM     76  O   UNL A   1      36.679  30.569  32.819  1.00  0.00    -0.237 OA
ATOM     77  O   UNL A   1      37.404  28.203  32.877  1.00  0.00    -0.237 OA
ATOM     78  O   UNL A   1      38.983  29.998  33.483  1.00  0.00    -0.744 OA
ENDBRANCH  71  75
ENDBRANCH  54  68
BRANCH  55  79
ATOM     79  C   UNL A   1      49.128  26.969  25.992  1.00  0.00     0.023 A 
ATOM     80  C   UNL A   1      50.206  26.685  26.845  1.00  0.00     0.031 A 
ATOM     81  C   UNL A   1      49.380  27.010  24.608  1.00  0.00     0.131 A 
ATOM     82  C   UNL A   1      51.495  26.517  26.315  1.00  0.00     0.055 A 
ATOM     83  C   UNL A   1      50.652  26.776  24.081  1.00  0.00     0.041 A 
ATOM     84  F   UNL A   1      48.388  27.277  23.743  1.00  0.00    -0.206 F 
ATOM     85  C   UNL A   1      51.723  26.546  24.938  1.00  0.00     0.022 A 
BRANCH  82  86
ATOM     86  S   UNL A   1      52.894  26.385  27.463  1.00  0.00     0.124 S 
ATOM     87  O   UNL A   1      52.229  25.965  28.692  1.00  0.00    -0.237 OA
ATOM     88  O   UNL A   1      53.728  25.384  26.809  1.00  0.00    -0.237 OA
ATOM     89  O   UNL A   1      53.445  27.739  27.483  1.00  0.00    -0.744 OA
ENDBRANCH  82  86
ENDBRANCH  55  79
BRANCH  67  90
ATOM     90  C   UNL A   1      46.310  32.815  28.548  1.00  0.00     0.023 A 
ATOM     91  C   UNL A   1      46.477  33.764  27.525  1.00  0.00     0.031 A 
ATOM     92  C   UNL A   1      46.708  33.171  29.850  1.00  0.00     0.131 A 
ATOM     93  C   UNL A   1      47.082  34.999  27.807  1.00  0.00     0.055 A 
ATOM     94  C   UNL A   1      47.244  34.427  30.138  1.00  0.00     0.041 A 
ATOM     95  F   UNL A   1      46.577  32.304  30.867  1.00  0.00    -0.206 F 
ATOM     96  C   UNL A   1      47.447  35.343  29.112  1.00  0.00     0.022 A 
BRANCH  93  97
ATOM     97  S   UNL A   1      47.480  36.110  26.430  1.00  0.00     0.124 S 
ATOM     98  O   UNL A   1      46.213  36.805  26.226  1.00  0.00    -0.237 OA
ATOM     99  O   UNL A   1      48.565  36.915  26.982  1.00  0.00    -0.237 OA
ATOM    100  O   UNL A   1      47.869  35.199  25.355  1.00  0.00    -0.744 OA
ENDBRANCH  93  97
ENDBRANCH  67  90
ENDBRANCH  41  42
ENDBRANCH  33  36
ENDBRANCH  31  32
ENDBRANCH   1  31
TORSDOF 17
ENDMDL
MODEL 2
REMARK VINA RESULT:     -12.7      1.684      2.144
REMARK SMILES COc1cc(/C=C2/S/C(=[NH+]\C(C)=O)NC2=O)cc(Br)c1OCC(=O)NCCCNC(=O)c1ccc(-c2c3nc(c(-c4cc(S(=O)(=O)[O-])ccc4F)c4ccc([nH]4)c(-c4cc(S(=O)(=O)[O-])ccc4F)c4nc(c(-c5cc(S(=O)(=O)[O-])ccc5F)c5ccc2[nH]5)C=C4)C=C3)cc1
REMARK SMILES IDX 27 1 26 2 25 3 23 4 24 5 22 7 21 8 20 9 3 10 4 11 5 12 18 13
REMARK SMILES IDX 17 14 19 15 2 16 1 17 6 18 7 19 8 20 15 21 9 22 14 23 16 24
REMARK SMILES IDX 10 25 11 27 12 29 13 30 28 31 29 32 30 33 31 35 32 36 33 37
REMARK SMILES IDX 94 38 34 39 93 40 35 41 36 42 37 43 87 44 38 45 92 46 86 47
REMARK SMILES IDX 88 48 39 49 91 50 85 51 84 52 40 54 72 55 52 56 71 57 53 58
REMARK SMILES IDX 56 59 70 60 89 61 54 62 55 63 69 65 90 66 57 67 41 68 42 69
REMARK SMILES IDX 50 70 43 71 49 72 51 73 48 74 44 75 45 76 46 77 47 78 73 79
REMARK SMILES IDX 74 80 82 81 75 82 81 83 83 84 80 85 76 86 77 87 78 88 79 89
REMARK SMILES IDX 58 90 59 91 67 92 60 93 66 94 68 95 65 96 61 97 62 98 63 99
REMARK SMILES IDX 64 100
REMARK H PARENT 25 6 14 26 10 28 29 34 88 53 56 64
REMARK Flexibility Score: inf
ROOT
ATOM      1  C   UNL A   1      38.149  19.705  25.208  1.00  0.00     0.042 C 
ENDROOT
BRANCH   1   2
ATOM      2  C   UNL A   1      37.016  20.721  25.193  1.00  0.00     0.117 C 
BRANCH   2   3
ATOM      3  N   UNL A   1      37.107  21.636  24.073  1.00  0.00    -0.353 N 
ATOM      4  C   UNL A   1      36.233  22.609  23.689  1.00  0.00     0.257 C 
ATOM      5  O   UNL A   1      36.562  23.346  22.757  1.00  0.00    -0.271 OA
ATOM      6  H   UNL A   1      37.911  21.542  23.513  1.00  0.00     0.163 HD
BRANCH   4   7
ATOM      7  C   UNL A   1      34.926  22.820  24.471  1.00  0.00     0.329 C 
BRANCH   7   8
ATOM      8  O   UNL A   1      33.749  23.298  23.851  1.00  0.00    -0.479 OA
BRANCH   8   9
ATOM      9  C   UNL A   1      33.203  24.504  24.206  1.00  0.00     0.176 A 
ATOM     10  C   UNL A   1      33.212  25.471  23.166  1.00  0.00     0.162 A 
ATOM     11  C   UNL A   1      32.675  26.750  23.370  1.00  0.00     0.058 A 
ATOM     12  C   UNL A   1      32.132  27.093  24.607  1.00  0.00    -0.019 A 
ATOM     13  C   UNL A   1      32.577  24.835  25.416  1.00  0.00     0.064 A 
ATOM     14  C   UNL A   1      32.073  26.130  25.617  1.00  0.00     0.028 A 
ATOM     15  Br  UNL A   1      32.164  23.613  26.813  1.00  0.00    -0.047 Br
BRANCH  10  16
ATOM     16  O   UNL A   1      33.749  25.058  21.965  1.00  0.00    -0.493 OA
ATOM     17  C   UNL A   1      32.960  25.242  20.793  1.00  0.00     0.278 C 
ENDBRANCH  10  16
BRANCH  12  18
ATOM     18  C   UNL A   1      31.587  28.437  24.830  1.00  0.00     0.032 C 
ATOM     19  C   UNL A   1      30.591  28.978  24.115  1.00  0.00     0.110 C 
ATOM     20  S   UNL A   1      30.078  30.628  24.279  1.00  0.00     0.007 SA
ATOM     21  C   UNL A   1      29.815  28.337  23.014  1.00  0.00     0.346 C 
ATOM     22  C   UNL A   1      29.172  30.585  22.799  1.00  0.00     0.324 C 
ATOM     23  N   UNL A   1      29.100  29.300  22.361  1.00  0.00    -0.199 N 
ATOM     24  O   UNL A   1      29.821  27.160  22.713  1.00  0.00    -0.240 OA
ATOM     25  N   UNL A   1      28.611  31.480  22.077  1.00  0.00    -0.204 N 
ATOM     26  H   UNL A   1      28.541  29.067  21.585  1.00  0.00     0.316 HD
ATOM     27  C   UNL A   1      28.515  32.834  22.244  1.00  0.00     0.304 C 
ATOM     28  H   UNL A   1      28.174  31.136  21.265  1.00  0.00     0.316 HD
ATOM     29  C   UNL A   1      29.377  33.622  23.190  1.00  0.00     0.144 C 
ATOM     30  O   UNL A   1      27.716  33.472  21.554  1.00  0.00    -0.247 OA
ENDBRANCH  12  18
ENDBRANCH   8   9
ENDBRANCH   7   8
ENDBRANCH   4   7
ENDBRANCH   2   3
ENDBRANCH   1   2
BRANCH   1  31
ATOM     31  C   UNL A   1      39.447  20.200  25.842  1.00  0.00     0.118 C 
BRANCH  31  32
ATOM     32  N   UNL A   1      40.464  19.165  25.954  1.00  0.00    -0.352 N 
ATOM     33  C   UNL A   1      41.821  19.264  26.151  1.00  0.00     0.251 C 
ATOM     34  H   UNL A   1      40.126  18.243  25.875  1.00  0.00     0.163 HD
ATOM     35  O   UNL A   1      42.516  18.256  26.051  1.00  0.00    -0.269 OA
BRANCH  33  36
ATOM     36  C   UNL A   1      42.449  20.571  26.449  1.00  0.00     0.039 A 
ATOM     37  C   UNL A   1      42.972  21.323  25.393  1.00  0.00     0.014 A 
ATOM     38  C   UNL A   1      42.542  21.054  27.757  1.00  0.00     0.014 A 
ATOM     39  C   UNL A   1      43.512  22.588  25.638  1.00  0.00     0.010 A 
ATOM     40  C   UNL A   1      43.005  22.349  27.990  1.00  0.00     0.010 A 
ATOM     41  C   UNL A   1      43.493  23.133  26.933  1.00  0.00    -0.014 A 
BRANCH  41  42
ATOM     42  C   UNL A   1      43.967  24.519  27.196  1.00  0.00     0.031 A 
ATOM     43  C   UNL A   1      43.011  25.564  27.707  1.00  0.00     0.074 A 
ATOM     44  C   UNL A   1      45.243  24.853  26.912  1.00  0.00     0.049 A 
ATOM     45  N   UNL A   1      43.217  26.838  27.924  1.00  0.00    -0.248 NA
ATOM     46  C   UNL A   1      41.635  25.124  27.985  1.00  0.00     0.031 C 
ATOM     47  C   UNL A   1      46.257  23.938  26.379  1.00  0.00     0.029 A 
ATOM     48  N   UNL A   1      45.908  26.050  27.022  1.00  0.00    -0.354 N 
ATOM     49  C   UNL A   1      41.995  27.355  28.346  1.00  0.00     0.074 A 
ATOM     50  C   UNL A   1      41.043  26.266  28.301  1.00  0.00     0.031 C 
ATOM     51  C   UNL A   1      47.416  24.599  26.239  1.00  0.00     0.029 A 
ATOM     52  C   UNL A   1      47.221  25.996  26.613  1.00  0.00     0.049 A 
ATOM     53  H   UNL A   1      45.484  26.871  27.362  1.00  0.00     0.167 HD
ATOM     54  C   UNL A   1      41.701  28.617  28.746  1.00  0.00     0.034 A 
ATOM     55  C   UNL A   1      48.159  26.963  26.531  1.00  0.00     0.034 A 
ATOM     56  C   UNL A   1      42.668  29.687  28.802  1.00  0.00     0.049 A 
ATOM     57  C   UNL A   1      47.795  28.365  26.955  1.00  0.00     0.074 A 
ATOM     58  C   UNL A   1      42.491  30.981  29.263  1.00  0.00     0.029 A 
ATOM     59  N   UNL A   1      43.985  29.597  28.372  1.00  0.00    -0.354 N 
ATOM     60  N   UNL A   1      46.651  28.820  27.412  1.00  0.00    -0.248 NA
ATOM     61  C   UNL A   1      48.850  29.383  26.859  1.00  0.00     0.031 C 
ATOM     62  C   UNL A   1      43.672  31.694  29.032  1.00  0.00     0.029 A 
ATOM     63  C   UNL A   1      44.618  30.823  28.515  1.00  0.00     0.049 A 
ATOM     64  H   UNL A   1      44.409  28.782  28.018  1.00  0.00     0.167 HD
ATOM     65  C   UNL A   1      46.864  30.167  27.695  1.00  0.00     0.074 A 
ATOM     66  C   UNL A   1      48.248  30.444  27.373  1.00  0.00     0.031 C 
ATOM     67  C   UNL A   1      45.997  31.090  28.184  1.00  0.00     0.034 A 
BRANCH  54  68
ATOM     68  C   UNL A   1      40.270  28.920  29.124  1.00  0.00     0.023 A 
ATOM     69  C   UNL A   1      39.843  28.948  30.463  1.00  0.00     0.031 A 
ATOM     70  C   UNL A   1      39.316  29.188  28.125  1.00  0.00     0.131 A 
ATOM     71  C   UNL A   1      38.490  29.171  30.763  1.00  0.00     0.055 A 
ATOM     72  C   UNL A   1      37.989  29.490  28.434  1.00  0.00     0.041 A 
ATOM     73  F   UNL A   1      39.658  29.154  26.828  1.00  0.00    -0.206 F 
ATOM     74  C   UNL A   1      37.565  29.471  29.760  1.00  0.00     0.022 A 
BRANCH  71  75
ATOM     75  S   UNL A   1      37.929  28.933  32.471  1.00  0.00     0.124 S 
ATOM     76  O   UNL A   1      38.900  29.734  33.214  1.00  0.00    -0.237 OA
ATOM     77  O   UNL A   1      36.568  29.455  32.432  1.00  0.00    -0.237 OA
ATOM     78  O   UNL A   1      38.039  27.489  32.671  1.00  0.00    -0.744 OA
ENDBRANCH  71  75
ENDBRANCH  54  68
BRANCH  55  79
ATOM     79  C   UNL A   1      49.526  26.660  26.015  1.00  0.00     0.023 A 
ATOM     80  C   UNL A   1      49.932  27.096  24.744  1.00  0.00     0.031 A 
ATOM     81  C   UNL A   1      50.425  25.869  26.754  1.00  0.00     0.131 A 
ATOM     82  C   UNL A   1      51.170  26.686  24.223  1.00  0.00     0.055 A 
ATOM     83  C   UNL A   1      51.683  25.519  26.259  1.00  0.00     0.041 A 
ATOM     84  F   UNL A   1      50.092  25.422  27.977  1.00  0.00    -0.206 F 
ATOM     85  C   UNL A   1      52.055  25.914  24.977  1.00  0.00     0.022 A 
BRANCH  82  86
ATOM     86  S   UNL A   1      51.554  27.076  22.493  1.00  0.00     0.124 S 
ATOM     87  O   UNL A   1      50.280  26.801  21.838  1.00  0.00    -0.237 OA
ATOM     88  O   UNL A   1      51.943  28.479  22.579  1.00  0.00    -0.237 OA
ATOM     89  O   UNL A   1      52.636  26.148  22.170  1.00  0.00    -0.744 OA
ENDBRANCH  82  86
ENDBRANCH  55  79
BRANCH  67  90
ATOM     90  C   UNL A   1      46.540  32.475  28.449  1.00  0.00     0.023 A 
ATOM     91  C   UNL A   1      46.655  33.437  27.431  1.00  0.00     0.031 A 
ATOM     92  C   UNL A   1      46.961  32.831  29.744  1.00  0.00     0.131 A 
ATOM     93  C   UNL A   1      47.232  34.686  27.710  1.00  0.00     0.055 A 
ATOM     94  C   UNL A   1      47.468  34.099  30.031  1.00  0.00     0.041 A 
ATOM     95  F   UNL A   1      46.879  31.952  30.756  1.00  0.00    -0.206 F 
ATOM     96  C   UNL A   1      47.620  35.030  29.008  1.00  0.00     0.022 A 
BRANCH  93  97
ATOM     97  S   UNL A   1      47.564  35.820  26.334  1.00  0.00     0.124 S 
ATOM     98  O   UNL A   1      48.888  36.331  26.675  1.00  0.00    -0.237 OA
ATOM     99  O   UNL A   1      47.504  34.933  25.177  1.00  0.00    -0.237 OA
ATOM    100  O   UNL A   1      46.480  36.796  26.423  1.00  0.00    -0.744 OA
ENDBRANCH  93  97
ENDBRANCH  67  90
ENDBRANCH  41  42
ENDBRANCH  33  36
ENDBRANCH  31  32
ENDBRANCH   1  31
TORSDOF 17
ENDMDL
MODEL 3
REMARK VINA RESULT:     -12.6      1.927      2.233
REMARK SMILES COc1cc(/C=C2/S/C(=[NH+]\C(C)=O)NC2=O)cc(Br)c1OCC(=O)NCCCNC(=O)c1ccc(-c2c3nc(c(-c4cc(S(=O)(=O)[O-])ccc4F)c4ccc([nH]4)c(-c4cc(S(=O)(=O)[O-])ccc4F)c4nc(c(-c5cc(S(=O)(=O)[O-])ccc5F)c5ccc2[nH]5)C=C4)C=C3)cc1
REMARK SMILES IDX 27 1 26 2 25 3 23 4 24 5 22 7 21 8 20 9 3 10 4 11 5 12 18 13
REMARK SMILES IDX 17 14 19 15 2 16 1 17 6 18 7 19 8 20 15 21 9 22 14 23 16 24
REMARK SMILES IDX 10 25 11 27 12 29 13 30 28 31 29 32 30 33 31 35 32 36 33 37
REMARK SMILES IDX 94 38 34 39 93 40 35 41 36 42 37 43 87 44 38 45 92 46 86 47
REMARK SMILES IDX 88 48 39 49 91 50 85 51 84 52 40 54 72 55 52 56 71 57 53 58
REMARK SMILES IDX 56 59 70 60 89 61 54 62 55 63 69 65 90 66 57 67 41 68 42 69
REMARK SMILES IDX 50 70 43 71 49 72 51 73 48 74 44 75 45 76 46 77 47 78 73 79
REMARK SMILES IDX 74 80 82 81 75 82 81 83 83 84 80 85 76 86 77 87 78 88 79 89
REMARK SMILES IDX 58 90 59 91 67 92 60 93 66 94 68 95 65 96 61 97 62 98 63 99
REMARK SMILES IDX 64 100
REMARK H PARENT 25 6 14 26 10 28 29 34 88 53 56 64
REMARK Flexibility Score: inf
ROOT
ATOM      1  C   UNL A   1      38.184  19.193  24.959  1.00  0.00     0.042 C 
ENDROOT
BRANCH   1   2
ATOM      2  C   UNL A   1      36.958  20.079  24.790  1.00  0.00     0.117 C 
BRANCH   2   3
ATOM      3  N   UNL A   1      37.293  21.489  24.764  1.00  0.00    -0.353 N 
ATOM      4  C   UNL A   1      36.518  22.545  24.386  1.00  0.00     0.257 C 
ATOM      5  O   UNL A   1      36.975  23.680  24.542  1.00  0.00    -0.271 OA
ATOM      6  H   UNL A   1      38.204  21.714  25.059  1.00  0.00     0.163 HD
BRANCH   4   7
ATOM      7  C   UNL A   1      35.089  22.306  23.873  1.00  0.00     0.329 C 
BRANCH   7   8
ATOM      8  O   UNL A   1      33.964  22.370  24.727  1.00  0.00    -0.479 OA
BRANCH   8   9
ATOM      9  C   UNL A   1      32.901  23.184  24.435  1.00  0.00     0.176 A 
ATOM     10  C   UNL A   1      32.913  24.423  25.130  1.00  0.00     0.162 A 
ATOM     11  C   UNL A   1      31.899  25.370  24.927  1.00  0.00     0.058 A 
ATOM     12  C   UNL A   1      30.856  25.101  24.043  1.00  0.00    -0.019 A 
ATOM     13  C   UNL A   1      31.893  22.965  23.486  1.00  0.00     0.064 A 
ATOM     14  C   UNL A   1      30.866  23.908  23.318  1.00  0.00     0.028 A 
ATOM     15  Br  UNL A   1      31.858  21.542  22.225  1.00  0.00    -0.047 Br
BRANCH  10  16
ATOM     16  O   UNL A   1      33.983  24.629  25.975  1.00  0.00    -0.493 OA
ATOM     17  C   UNL A   1      34.442  25.966  26.143  1.00  0.00     0.278 C 
ENDBRANCH  10  16
BRANCH  12  18
ATOM     18  C   UNL A   1      29.784  26.082  23.843  1.00  0.00     0.032 C 
ATOM     19  C   UNL A   1      29.915  27.215  23.138  1.00  0.00     0.110 C 
ATOM     20  S   UNL A   1      28.692  28.443  23.058  1.00  0.00     0.007 SA
ATOM     21  C   UNL A   1      31.118  27.680  22.390  1.00  0.00     0.346 C 
ATOM     22  C   UNL A   1      29.788  29.615  22.398  1.00  0.00     0.324 C 
ATOM     23  N   UNL A   1      30.947  28.994  22.055  1.00  0.00    -0.199 N 
ATOM     24  O   UNL A   1      32.109  27.027  22.131  1.00  0.00    -0.240 OA
ATOM     25  N   UNL A   1      29.723  30.878  22.202  1.00  0.00    -0.204 N 
ATOM     26  H   UNL A   1      31.653  29.483  21.574  1.00  0.00     0.316 HD
ATOM     27  C   UNL A   1      28.714  31.770  22.441  1.00  0.00     0.304 C 
ATOM     28  H   UNL A   1      30.536  31.274  21.813  1.00  0.00     0.316 HD
ATOM     29  C   UNL A   1      27.539  31.483  23.333  1.00  0.00     0.144 C 
ATOM     30  O   UNL A   1      28.777  32.898  21.947  1.00  0.00    -0.247 OA
ENDBRANCH  12  18
ENDBRANCH   8   9
ENDBRANCH   7   8
ENDBRANCH   4   7
ENDBRANCH   2   3
ENDBRANCH   1   2
BRANCH   1  31
ATOM     31  C   UNL A   1      39.184  19.673  26.008  1.00  0.00     0.118 C 
BRANCH  31  32
ATOM     32  N   UNL A   1      40.460  18.975  25.950  1.00  0.00    -0.352 N 
ATOM     33  C   UNL A   1      41.745  19.455  26.038  1.00  0.00     0.251 C 
ATOM     34  H   UNL A   1      40.392  18.000  25.828  1.00  0.00     0.163 HD
ATOM     35  O   UNL A   1      42.684  18.699  25.799  1.00  0.00    -0.269 OA
BRANCH  33  36
ATOM     36  C   UNL A   1      42.003  20.871  26.385  1.00  0.00     0.039 A 
ATOM     37  C   UNL A   1      42.339  21.191  27.704  1.00  0.00     0.014 A 
ATOM     38  C   UNL A   1      41.900  21.886  25.430  1.00  0.00     0.014 A 
ATOM     39  C   UNL A   1      42.650  22.510  28.043  1.00  0.00     0.010 A 
ATOM     40  C   UNL A   1      42.290  23.186  25.750  1.00  0.00     0.010 A 
ATOM     41  C   UNL A   1      42.673  23.513  27.060  1.00  0.00    -0.014 A 
BRANCH  41  42
ATOM     42  C   UNL A   1      43.104  24.901  27.381  1.00  0.00     0.031 A 
ATOM     43  C   UNL A   1      42.147  25.861  28.037  1.00  0.00     0.074 A 
ATOM     44  C   UNL A   1      44.337  25.317  27.022  1.00  0.00     0.049 A 
ATOM     45  N   UNL A   1      42.312  27.127  28.326  1.00  0.00    -0.248 NA
ATOM     46  C   UNL A   1      40.819  25.335  28.390  1.00  0.00     0.031 C 
ATOM     47  C   UNL A   1      45.344  24.491  26.350  1.00  0.00     0.029 A 
ATOM     48  N   UNL A   1      44.954  26.536  27.164  1.00  0.00    -0.354 N 
ATOM     49  C   UNL A   1      41.107  27.552  28.876  1.00  0.00     0.074 A 
ATOM     50  C   UNL A   1      40.204  26.423  28.830  1.00  0.00     0.031 C 
ATOM     51  C   UNL A   1      46.458  25.217  26.166  1.00  0.00     0.029 A 
ATOM     52  C   UNL A   1      46.231  26.575  26.651  1.00  0.00     0.049 A 
ATOM     53  H   UNL A   1      44.523  27.310  27.592  1.00  0.00     0.167 HD
ATOM     54  C   UNL A   1      40.790  28.768  29.385  1.00  0.00     0.034 A 
ATOM     55  C   UNL A   1      47.115  27.591  26.564  1.00  0.00     0.034 A 
ATOM     56  C   UNL A   1      41.709  29.880  29.440  1.00  0.00     0.049 A 
ATOM     57  C   UNL A   1      46.723  28.942  27.111  1.00  0.00     0.074 A 
ATOM     58  C   UNL A   1      41.513  31.130  30.002  1.00  0.00     0.029 A 
ATOM     59  N   UNL A   1      42.990  29.885  28.903  1.00  0.00    -0.354 N 
ATOM     60  N   UNL A   1      45.601  29.308  27.687  1.00  0.00    -0.248 NA
ATOM     61  C   UNL A   1      47.720  30.016  27.005  1.00  0.00     0.031 C 
ATOM     62  C   UNL A   1      42.638  31.916  29.730  1.00  0.00     0.029 A 
ATOM     63  C   UNL A   1      43.576  31.129  29.082  1.00  0.00     0.049 A 
ATOM     64  H   UNL A   1      43.419  29.117  28.461  1.00  0.00     0.167 HD
ATOM     65  C   UNL A   1      45.776  30.643  28.046  1.00  0.00     0.074 A 
ATOM     66  C   UNL A   1      47.115  31.009  27.637  1.00  0.00     0.031 C 
ATOM     67  C   UNL A   1      44.911  31.487  28.663  1.00  0.00     0.034 A 
BRANCH  54  68
ATOM     68  C   UNL A   1      39.382  28.974  29.894  1.00  0.00     0.023 A 
ATOM     69  C   UNL A   1      38.349  29.437  29.060  1.00  0.00     0.031 A 
ATOM     70  C   UNL A   1      39.068  28.701  31.238  1.00  0.00     0.131 A 
ATOM     71  C   UNL A   1      37.072  29.674  29.592  1.00  0.00     0.055 A 
ATOM     72  C   UNL A   1      37.776  28.861  31.741  1.00  0.00     0.041 A 
ATOM     73  F   UNL A   1      40.016  28.279  32.088  1.00  0.00    -0.206 F 
ATOM     74  C   UNL A   1      36.771  29.363  30.920  1.00  0.00     0.022 A 
BRANCH  71  75
ATOM     75  S   UNL A   1      35.845  30.520  28.559  1.00  0.00     0.124 S 
ATOM     76  O   UNL A   1      35.440  31.625  29.427  1.00  0.00    -0.237 OA
ATOM     77  O   UNL A   1      36.623  30.888  27.381  1.00  0.00    -0.237 OA
ATOM     78  O   UNL A   1      34.820  29.503  28.338  1.00  0.00    -0.744 OA
ENDBRANCH  71  75
ENDBRANCH  54  68
BRANCH  55  79
ATOM     79  C   UNL A   1      48.448  27.392  25.923  1.00  0.00     0.023 A 
ATOM     80  C   UNL A   1      48.624  27.589  24.544  1.00  0.00     0.031 A 
ATOM     81  C   UNL A   1      49.551  26.932  26.666  1.00  0.00     0.131 A 
ATOM     82  C   UNL A   1      49.849  27.267  23.940  1.00  0.00     0.055 A 
ATOM     83  C   UNL A   1      50.788  26.676  26.070  1.00  0.00     0.041 A 
ATOM     84  F   UNL A   1      49.443  26.725  27.989  1.00  0.00    -0.206 F 
ATOM     85  C   UNL A   1      50.937  26.826  24.695  1.00  0.00     0.022 A 
BRANCH  82  86
ATOM     86  S   UNL A   1      49.961  27.314  22.130  1.00  0.00     0.124 S 
ATOM     87  O   UNL A   1      48.896  26.396  21.743  1.00  0.00    -0.237 OA
ATOM     88  O   UNL A   1      49.727  28.725  21.849  1.00  0.00    -0.237 OA
ATOM     89  O   UNL A   1      51.319  26.842  21.862  1.00  0.00    -0.744 OA
ENDBRANCH  82  86
ENDBRANCH  55  79
BRANCH  67  90
ATOM     90  C   UNL A   1      45.411  32.877  28.982  1.00  0.00     0.023 A 
ATOM     91  C   UNL A   1      45.218  33.956  28.102  1.00  0.00     0.031 A 
ATOM     92  C   UNL A   1      46.103  33.119  30.182  1.00  0.00     0.131 A 
ATOM     93  C   UNL A   1      45.763  35.213  28.408  1.00  0.00     0.055 A 
ATOM     94  C   UNL A   1      46.582  34.387  30.514  1.00  0.00     0.041 A 
ATOM     95  F   UNL A   1      46.322  32.124  31.059  1.00  0.00    -0.206 F 
ATOM     96  C   UNL A   1      46.425  35.440  29.618  1.00  0.00     0.022 A 
BRANCH  93  97
ATOM     97  S   UNL A   1      45.685  36.524  27.157  1.00  0.00     0.124 S 
ATOM     98  O   UNL A   1      46.328  35.889  26.011  1.00  0.00    -0.237 OA
ATOM     99  O   UNL A   1      44.249  36.754  27.035  1.00  0.00    -0.237 OA
ATOM    100  O   UNL A   1      46.439  37.621  27.762  1.00  0.00    -0.744 OA
ENDBRANCH  93  97
ENDBRANCH  67  90
ENDBRANCH  41  42
ENDBRANCH  33  36
ENDBRANCH  31  32
ENDBRANCH   1  31
TORSDOF 17
ENDMDL
