MODEL 1
REMARK VINA RESULT:     -11.6      0.000      0.000
REMARK SMILES CC(C)C[C@H](CNC(=O)[C@]1([NH3+])CCC[C@@H](C)C1)C(=O)NCCCNC(=O)c1ccc(-c2c3nc(c(-c4cc(S(=O)(=O)[O-])ccc4F)c4ccc([nH]4)c(-c4cc(S(=O)(=O)[O-])ccc4F)c4nc(c(-c5cc(S(=O)(=O)[O-])ccc5F)c5ccc2[nH]5)C=C4)C=C3)cc1
REMARK SMILES IDX 21 1 20 2 18 3 19 4 5 6 4 7 2 8 1 9 3 10 6 11 7 12 8 13 9 15
REMARK SMILES IDX 10 16 12 17 17 18 13 19 15 20 14 21 16 22 11 23 22 27 23 28
REMARK SMILES IDX 24 29 25 30 26 32 27 33 28 34 89 35 29 36 88 37 30 38 31 39
REMARK SMILES IDX 32 40 82 41 33 42 87 43 81 44 83 45 34 46 86 47 80 48 79 49
REMARK SMILES IDX 35 51 67 52 47 53 66 54 48 55 51 56 65 57 84 58 49 59 50 60
REMARK SMILES IDX 64 62 85 63 52 64 36 65 37 66 45 67 38 68 44 69 46 70 43 71
REMARK SMILES IDX 39 72 40 73 41 74 42 75 68 76 69 77 77 78 70 79 76 80 78 81
REMARK SMILES IDX 75 82 71 83 72 84 73 85 74 86 53 87 54 88 62 89 55 90 61 91
REMARK SMILES IDX 63 92 60 93 56 94 57 95 58 96 59 97
REMARK H PARENT 20 5 7 14 11 24 11 25 11 26 24 31 83 50 51 61
REMARK Flexibility Score: inf
ROOT
ATOM      1  C   UNL A   1      31.932  27.458  27.004  1.00  0.00     0.117 C 
ENDROOT
BRANCH   1   2
ATOM      2  N   UNL A   1      30.709  26.673  27.032  1.00  0.00    -0.356 N 
ATOM      3  C   UNL A   1      30.291  25.633  26.256  1.00  0.00     0.224 C 
ATOM      4  O   UNL A   1      29.336  24.970  26.673  1.00  0.00    -0.275 OA
ATOM      5  H   UNL A   1      30.071  26.939  27.734  1.00  0.00     0.163 HD
BRANCH   3   6
ATOM      6  C   UNL A   1      30.931  25.281  24.910  1.00  0.00     0.098 C 
BRANCH   6   7
ATOM      7  C   UNL A   1      30.247  25.915  23.679  1.00  0.00     0.018 C 
BRANCH   7   8
ATOM      8  C   UNL A   1      31.106  26.701  22.668  1.00  0.00    -0.017 C 
ATOM      9  C   UNL A   1      32.055  27.697  23.346  1.00  0.00     0.007 C 
ATOM     10  C   UNL A   1      31.956  25.746  21.822  1.00  0.00     0.007 C 
ENDBRANCH   7   8
ENDBRANCH   6   7
BRANCH   6  11
ATOM     11  C   UNL A   1      31.264  23.789  24.844  1.00  0.00     0.129 C 
BRANCH  11  12
ATOM     12  N   UNL A   1      31.361  23.090  26.110  1.00  0.00    -0.350 N 
ATOM     13  C   UNL A   1      32.472  22.824  26.873  1.00  0.00     0.281 C 
ATOM     14  H   UNL A   1      30.509  22.758  26.475  1.00  0.00     0.163 HD
ATOM     15  O   UNL A   1      32.257  22.566  28.062  1.00  0.00    -0.268 OA
BRANCH  13  16
ATOM     16  C   UNL A   1      33.917  22.690  26.239  1.00  0.00     0.174 C 
ATOM     17  C   UNL A   1      34.430  24.113  25.878  1.00  0.00     0.079 C 
ATOM     18  C   UNL A   1      33.990  21.856  24.936  1.00  0.00     0.082 C 
ATOM     19  C   UNL A   1      35.818  24.128  25.230  1.00  0.00     0.007 C 
ATOM     20  C   UNL A   1      35.372  21.818  24.250  1.00  0.00    -0.008 C 
ATOM     21  C   UNL A   1      35.892  23.234  23.996  1.00  0.00     0.004 C 
ATOM     22  C   UNL A   1      36.396  20.956  25.000  1.00  0.00     0.008 C 
BRANCH  16  23
ATOM     23  N   UNL A   1      34.788  22.148  27.310  1.00  0.00    -0.345 N 
ATOM     24  H   UNL A   1      35.677  22.648  27.310  1.00  0.00     0.345 HD
ATOM     25  H   UNL A   1      34.955  21.156  27.142  1.00  0.00     0.345 HD
ATOM     26  H   UNL A   1      34.332  22.267  28.214  1.00  0.00     0.345 HD
ENDBRANCH  16  23
ENDBRANCH  13  16
ENDBRANCH  11  12
ENDBRANCH   6  11
ENDBRANCH   3   6
ENDBRANCH   1   2
BRANCH   1  27
ATOM     27  C   UNL A   1      31.725  28.943  27.232  1.00  0.00     0.042 C 
BRANCH  27  28
ATOM     28  C   UNL A   1      32.627  29.813  26.368  1.00  0.00     0.118 C 
BRANCH  28  29
ATOM     29  N   UNL A   1      32.454  31.242  26.623  1.00  0.00    -0.352 N 
ATOM     30  C   UNL A   1      33.203  32.134  27.361  1.00  0.00     0.251 C 
ATOM     31  H   UNL A   1      31.663  31.637  26.192  1.00  0.00     0.163 HD
ATOM     32  O   UNL A   1      32.739  33.234  27.619  1.00  0.00    -0.269 OA
BRANCH  30  33
ATOM     33  C   UNL A   1      34.540  31.748  27.860  1.00  0.00     0.039 A 
ATOM     34  C   UNL A   1      35.551  32.711  27.952  1.00  0.00     0.014 A 
ATOM     35  C   UNL A   1      34.798  30.434  28.243  1.00  0.00     0.014 A 
ATOM     36  C   UNL A   1      36.774  32.375  28.539  1.00  0.00     0.010 A 
ATOM     37  C   UNL A   1      35.963  30.134  28.933  1.00  0.00     0.010 A 
ATOM     38  C   UNL A   1      36.966  31.102  29.096  1.00  0.00    -0.014 A 
BRANCH  38  39
ATOM     39  C   UNL A   1      38.188  30.727  29.857  1.00  0.00     0.031 A 
ATOM     40  C   UNL A   1      39.154  29.738  29.262  1.00  0.00     0.074 A 
ATOM     41  C   UNL A   1      38.351  31.156  31.126  1.00  0.00     0.049 A 
ATOM     42  N   UNL A   1      40.122  29.072  29.835  1.00  0.00    -0.248 NA
ATOM     43  C   UNL A   1      38.957  29.409  27.841  1.00  0.00     0.031 C 
ATOM     44  C   UNL A   1      37.460  32.080  31.833  1.00  0.00     0.029 A 
ATOM     45  N   UNL A   1      39.310  30.848  32.058  1.00  0.00    -0.354 N 
ATOM     46  C   UNL A   1      40.613  28.208  28.860  1.00  0.00     0.074 A 
ATOM     47  C   UNL A   1      39.794  28.397  27.682  1.00  0.00     0.031 C 
ATOM     48  C   UNL A   1      37.925  32.278  33.076  1.00  0.00     0.029 A 
ATOM     49  C   UNL A   1      39.108  31.449  33.279  1.00  0.00     0.049 A 
ATOM     50  H   UNL A   1      40.070  30.252  31.870  1.00  0.00     0.167 HD
ATOM     51  C   UNL A   1      41.661  27.350  28.938  1.00  0.00     0.034 A 
ATOM     52  C   UNL A   1      39.785  31.328  34.438  1.00  0.00     0.034 A 
ATOM     53  C   UNL A   1      42.497  27.220  30.106  1.00  0.00     0.049 A 
ATOM     54  C   UNL A   1      40.968  30.396  34.493  1.00  0.00     0.074 A 
ATOM     55  C   UNL A   1      43.628  26.442  30.276  1.00  0.00     0.029 A 
ATOM     56  N   UNL A   1      42.297  27.897  31.302  1.00  0.00    -0.354 N 
ATOM     57  N   UNL A   1      41.436  29.602  33.558  1.00  0.00    -0.248 NA
ATOM     58  C   UNL A   1      41.718  30.348  35.755  1.00  0.00     0.031 C 
ATOM     59  C   UNL A   1      44.084  26.612  31.588  1.00  0.00     0.029 A 
ATOM     60  C   UNL A   1      43.275  27.546  32.218  1.00  0.00     0.049 A 
ATOM     61  H   UNL A   1      41.566  28.534  31.475  1.00  0.00     0.167 HD
ATOM     62  C   UNL A   1      42.555  28.987  34.110  1.00  0.00     0.074 A 
ATOM     63  C   UNL A   1      42.694  29.503  35.456  1.00  0.00     0.031 C 
ATOM     64  C   UNL A   1      43.398  28.081  33.551  1.00  0.00     0.034 A 
BRANCH  51  65
ATOM     65  C   UNL A   1      41.941  26.483  27.733  1.00  0.00     0.023 A 
ATOM     66  C   UNL A   1      41.477  25.159  27.653  1.00  0.00     0.031 A 
ATOM     67  C   UNL A   1      42.722  26.969  26.670  1.00  0.00     0.131 A 
ATOM     68  C   UNL A   1      41.879  24.338  26.589  1.00  0.00     0.055 A 
ATOM     69  C   UNL A   1      43.042  26.175  25.566  1.00  0.00     0.041 A 
ATOM     70  F   UNL A   1      43.209  28.220  26.696  1.00  0.00    -0.206 F 
ATOM     71  C   UNL A   1      42.636  24.844  25.530  1.00  0.00     0.022 A 
BRANCH  68  72
ATOM     72  S   UNL A   1      41.535  22.560  26.695  1.00  0.00     0.124 S 
ATOM     73  O   UNL A   1      41.948  22.103  25.369  1.00  0.00    -0.237 OA
ATOM     74  O   UNL A   1      42.380  22.140  27.807  1.00  0.00    -0.237 OA
ATOM     75  O   UNL A   1      40.097  22.504  26.945  1.00  0.00    -0.744 OA
ENDBRANCH  68  72
ENDBRANCH  51  65
BRANCH  52  76
ATOM     76  C   UNL A   1      39.364  32.099  35.642  1.00  0.00     0.023 A 
ATOM     77  C   UNL A   1      38.593  31.495  36.647  1.00  0.00     0.031 A 
ATOM     78  C   UNL A   1      39.702  33.455  35.796  1.00  0.00     0.131 A 
ATOM     79  C   UNL A   1      38.147  32.254  37.739  1.00  0.00     0.055 A 
ATOM     80  C   UNL A   1      39.297  34.195  36.909  1.00  0.00     0.041 A 
ATOM     81  F   UNL A   1      40.449  34.078  34.869  1.00  0.00    -0.206 F 
ATOM     82  C   UNL A   1      38.503  33.596  37.883  1.00  0.00     0.022 A 
BRANCH  79  83
ATOM     83  S   UNL A   1      37.029  31.475  38.938  1.00  0.00     0.124 S 
ATOM     84  O   UNL A   1      35.869  32.358  38.878  1.00  0.00    -0.237 OA
ATOM     85  O   UNL A   1      36.854  30.144  38.365  1.00  0.00    -0.237 OA
ATOM     86  O   UNL A   1      37.785  31.520  40.187  1.00  0.00    -0.744 OA
ENDBRANCH  79  83
ENDBRANCH  52  76
BRANCH  64  87
ATOM     87  C   UNL A   1      44.581  27.647  34.377  1.00  0.00     0.023 A 
ATOM     88  C   UNL A   1      44.536  26.506  35.194  1.00  0.00     0.031 A 
ATOM     89  C   UNL A   1      45.776  28.386  34.324  1.00  0.00     0.131 A 
ATOM     90  C   UNL A   1      45.658  26.155  35.959  1.00  0.00     0.055 A 
ATOM     91  C   UNL A   1      46.905  28.005  35.051  1.00  0.00     0.041 A 
ATOM     92  F   UNL A   1      45.867  29.484  33.558  1.00  0.00    -0.206 F 
ATOM     93  C   UNL A   1      46.847  26.888  35.880  1.00  0.00     0.022 A 
BRANCH  90  94
ATOM     94  S   UNL A   1      45.531  24.755  37.104  1.00  0.00     0.124 S 
ATOM     95  O   UNL A   1      46.891  24.666  37.626  1.00  0.00    -0.237 OA
ATOM     96  O   UNL A   1      44.515  25.214  38.047  1.00  0.00    -0.237 OA
ATOM     97  O   UNL A   1      45.122  23.645  36.246  1.00  0.00    -0.744 OA
ENDBRANCH  90  94
ENDBRANCH  64  87
ENDBRANCH  38  39
ENDBRANCH  30  33
ENDBRANCH  28  29
ENDBRANCH  27  28
ENDBRANCH   1  27
TORSDOF 19
ENDMDL
MODEL 2
REMARK VINA RESULT:     -11.5      5.091     10.243
REMARK SMILES CC(C)C[C@H](CNC(=O)[C@]1([NH3+])CCC[C@@H](C)C1)C(=O)NCCCNC(=O)c1ccc(-c2c3nc(c(-c4cc(S(=O)(=O)[O-])ccc4F)c4ccc([nH]4)c(-c4cc(S(=O)(=O)[O-])ccc4F)c4nc(c(-c5cc(S(=O)(=O)[O-])ccc5F)c5ccc2[nH]5)C=C4)C=C3)cc1
REMARK SMILES IDX 21 1 20 2 18 3 19 4 5 6 4 7 2 8 1 9 3 10 6 11 7 12 8 13 9 15
REMARK SMILES IDX 10 16 12 17 17 18 13 19 15 20 14 21 16 22 11 23 22 27 23 28
REMARK SMILES IDX 24 29 25 30 26 32 27 33 28 34 89 35 29 36 88 37 30 38 31 39
REMARK SMILES IDX 32 40 82 41 33 42 87 43 81 44 83 45 34 46 86 47 80 48 79 49
REMARK SMILES IDX 35 51 67 52 47 53 66 54 48 55 51 56 65 57 84 58 49 59 50 60
REMARK SMILES IDX 64 62 85 63 52 64 36 65 37 66 45 67 38 68 44 69 46 70 43 71
REMARK SMILES IDX 39 72 40 73 41 74 42 75 68 76 69 77 77 78 70 79 76 80 78 81
REMARK SMILES IDX 75 82 71 83 72 84 73 85 74 86 53 87 54 88 62 89 55 90 61 91
REMARK SMILES IDX 63 92 60 93 56 94 57 95 58 96 59 97
REMARK H PARENT 20 5 7 14 11 24 11 25 11 26 24 31 83 50 51 61
REMARK Flexibility Score: inf
ROOT
ATOM      1  C   UNL A   1      35.517  23.549  24.170  1.00  0.00     0.117 C 
ENDROOT
BRANCH   1   2
ATOM      2  N   UNL A   1      34.795  23.730  22.921  1.00  0.00    -0.356 N 
ATOM      3  C   UNL A   1      33.459  23.734  22.648  1.00  0.00     0.224 C 
ATOM      4  O   UNL A   1      33.111  24.187  21.554  1.00  0.00    -0.275 OA
ATOM      5  H   UNL A   1      35.371  23.876  22.135  1.00  0.00     0.163 HD
BRANCH   3   6
ATOM      6  C   UNL A   1      32.404  23.187  23.615  1.00  0.00     0.098 C 
BRANCH   6   7
ATOM      7  C   UNL A   1      32.131  21.673  23.492  1.00  0.00     0.018 C 
BRANCH   7   8
ATOM      8  C   UNL A   1      32.452  20.755  24.690  1.00  0.00    -0.017 C 
ATOM      9  C   UNL A   1      33.659  19.845  24.431  1.00  0.00     0.007 C 
ATOM     10  C   UNL A   1      32.751  21.586  25.943  1.00  0.00     0.007 C 
ENDBRANCH   7   8
ENDBRANCH   6   7
BRANCH   6  11
ATOM     11  C   UNL A   1      31.194  24.122  23.676  1.00  0.00     0.129 C 
BRANCH  11  12
ATOM     12  N   UNL A   1      30.538  24.251  24.962  1.00  0.00    -0.350 N 
ATOM     13  C   UNL A   1      30.356  25.370  25.738  1.00  0.00     0.281 C 
ATOM     14  H   UNL A   1      30.172  23.416  25.334  1.00  0.00     0.163 HD
ATOM     15  O   UNL A   1      29.453  25.299  26.579  1.00  0.00    -0.268 OA
BRANCH  13  16
ATOM     16  C   UNL A   1      31.341  26.608  25.675  1.00  0.00     0.174 C 
ATOM     17  C   UNL A   1      32.798  26.073  25.581  1.00  0.00     0.079 C 
ATOM     18  C   UNL A   1      31.300  27.545  26.907  1.00  0.00     0.082 C 
ATOM     19  C   UNL A   1      33.863  27.173  25.536  1.00  0.00     0.007 C 
ATOM     20  C   UNL A   1      32.339  28.687  26.907  1.00  0.00    -0.008 C 
ATOM     21  C   UNL A   1      33.753  28.135  26.715  1.00  0.00     0.004 C 
ATOM     22  C   UNL A   1      32.015  29.799  25.901  1.00  0.00     0.008 C 
BRANCH  16  23
ATOM     23  N   UNL A   1      31.032  27.318  24.410  1.00  0.00    -0.345 N 
ATOM     24  H   UNL A   1      31.616  28.150  24.337  1.00  0.00     0.345 HD
ATOM     25  H   UNL A   1      30.049  27.589  24.405  1.00  0.00     0.345 HD
ATOM     26  H   UNL A   1      31.218  26.701  23.620  1.00  0.00     0.345 HD
ENDBRANCH  16  23
ENDBRANCH  13  16
ENDBRANCH  11  12
ENDBRANCH   6  11
ENDBRANCH   3   6
ENDBRANCH   1   2
BRANCH   1  27
ATOM     27  C   UNL A   1      36.331  22.271  24.239  1.00  0.00     0.042 C 
BRANCH  27  28
ATOM     28  C   UNL A   1      36.703  21.875  25.661  1.00  0.00     0.118 C 
BRANCH  28  29
ATOM     29  N   UNL A   1      37.743  20.849  25.713  1.00  0.00    -0.352 N 
ATOM     30  C   UNL A   1      39.084  20.923  26.026  1.00  0.00     0.251 C 
ATOM     31  H   UNL A   1      37.430  19.945  25.482  1.00  0.00     0.163 HD
ATOM     32  O   UNL A   1      39.809  19.972  25.781  1.00  0.00    -0.269 OA
BRANCH  30  33
ATOM     33  C   UNL A   1      39.639  22.156  26.626  1.00  0.00     0.039 A 
ATOM     34  C   UNL A   1      40.600  22.062  27.638  1.00  0.00     0.014 A 
ATOM     35  C   UNL A   1      39.216  23.407  26.185  1.00  0.00     0.014 A 
ATOM     36  C   UNL A   1      41.216  23.222  28.116  1.00  0.00     0.010 A 
ATOM     37  C   UNL A   1      39.911  24.543  26.572  1.00  0.00     0.010 A 
ATOM     38  C   UNL A   1      40.924  24.467  27.538  1.00  0.00    -0.014 A 
BRANCH  38  39
ATOM     39  C   UNL A   1      41.645  25.716  27.903  1.00  0.00     0.031 A 
ATOM     40  C   UNL A   1      40.920  26.788  28.674  1.00  0.00     0.074 A 
ATOM     41  C   UNL A   1      42.883  25.948  27.420  1.00  0.00     0.049 A 
ATOM     42  N   UNL A   1      41.247  28.039  28.867  1.00  0.00    -0.248 NA
ATOM     43  C   UNL A   1      39.620  26.410  29.250  1.00  0.00     0.031 C 
ATOM     44  C   UNL A   1      43.673  25.008  26.621  1.00  0.00     0.029 A 
ATOM     45  N   UNL A   1      43.684  27.058  27.507  1.00  0.00    -0.354 N 
ATOM     46  C   UNL A   1      40.169  28.610  29.538  1.00  0.00     0.074 A 
ATOM     47  C   UNL A   1      39.160  27.580  29.664  1.00  0.00     0.031 C 
ATOM     48  C   UNL A   1      44.850  25.573  26.309  1.00  0.00     0.029 A 
ATOM     49  C   UNL A   1      44.876  26.936  26.830  1.00  0.00     0.049 A 
ATOM     50  H   UNL A   1      43.430  27.867  28.007  1.00  0.00     0.167 HD
ATOM     51  C   UNL A   1      40.042  29.871  30.020  1.00  0.00     0.034 A 
ATOM     52  C   UNL A   1      45.866  27.827  26.630  1.00  0.00     0.034 A 
ATOM     53  C   UNL A   1      41.085  30.864  29.933  1.00  0.00     0.049 A 
ATOM     54  C   UNL A   1      45.722  29.213  27.205  1.00  0.00     0.074 A 
ATOM     55  C   UNL A   1      41.101  32.148  30.448  1.00  0.00     0.029 A 
ATOM     56  N   UNL A   1      42.304  30.678  29.294  1.00  0.00    -0.354 N 
ATOM     57  N   UNL A   1      44.708  29.733  27.857  1.00  0.00    -0.248 NA
ATOM     58  C   UNL A   1      46.854  30.130  27.022  1.00  0.00     0.031 C 
ATOM     59  C   UNL A   1      42.308  32.753  30.082  1.00  0.00     0.029 A 
ATOM     60  C   UNL A   1      43.074  31.825  29.393  1.00  0.00     0.049 A 
ATOM     61  H   UNL A   1      42.582  29.850  28.838  1.00  0.00     0.167 HD
ATOM     62  C   UNL A   1      45.097  31.026  28.192  1.00  0.00     0.074 A 
ATOM     63  C   UNL A   1      46.437  31.206  27.673  1.00  0.00     0.031 C 
ATOM     64  C   UNL A   1      44.411  31.977  28.874  1.00  0.00     0.034 A 
BRANCH  51  65
ATOM     65  C   UNL A   1      38.728  30.240  30.666  1.00  0.00     0.023 A 
ATOM     66  C   UNL A   1      37.689  30.841  29.934  1.00  0.00     0.031 A 
ATOM     67  C   UNL A   1      38.524  30.034  32.042  1.00  0.00     0.131 A 
ATOM     68  C   UNL A   1      36.541  31.304  30.595  1.00  0.00     0.055 A 
ATOM     69  C   UNL A   1      37.340  30.411  32.678  1.00  0.00     0.041 A 
ATOM     70  F   UNL A   1      39.485  29.480  32.799  1.00  0.00    -0.206 F 
ATOM     71  C   UNL A   1      36.346  31.069  31.957  1.00  0.00     0.022 A 
BRANCH  68  72
ATOM     72  S   UNL A   1      35.386  32.359  29.678  1.00  0.00     0.124 S 
ATOM     73  O   UNL A   1      36.214  33.535  29.412  1.00  0.00    -0.237 OA
ATOM     74  O   UNL A   1      35.056  31.536  28.521  1.00  0.00    -0.237 OA
ATOM     75  O   UNL A   1      34.295  32.577  30.625  1.00  0.00    -0.744 OA
ENDBRANCH  68  72
ENDBRANCH  51  65
BRANCH  52  76
ATOM     76  C   UNL A   1      47.078  27.448  25.849  1.00  0.00     0.023 A 
ATOM     77  C   UNL A   1      47.203  27.810  24.499  1.00  0.00     0.031 A 
ATOM     78  C   UNL A   1      48.115  26.696  26.430  1.00  0.00     0.131 A 
ATOM     79  C   UNL A   1      48.318  27.385  23.761  1.00  0.00     0.055 A 
ATOM     80  C   UNL A   1      49.246  26.316  25.704  1.00  0.00     0.041 A 
ATOM     81  F   UNL A   1      48.050  26.334  27.722  1.00  0.00    -0.206 F 
ATOM     82  C   UNL A   1      49.345  26.650  24.357  1.00  0.00     0.022 A 
BRANCH  79  83
ATOM     83  S   UNL A   1      48.370  27.745  21.984  1.00  0.00     0.124 S 
ATOM     84  O   UNL A   1      49.451  28.722  21.911  1.00  0.00    -0.237 OA
ATOM     85  O   UNL A   1      48.654  26.430  21.418  1.00  0.00    -0.237 OA
ATOM     86  O   UNL A   1      47.035  28.267  21.704  1.00  0.00    -0.744 OA
ENDBRANCH  79  83
ENDBRANCH  52  76
BRANCH  64  87
ATOM     87  C   UNL A   1      45.130  33.271  29.154  1.00  0.00     0.023 A 
ATOM     88  C   UNL A   1      44.923  34.419  28.371  1.00  0.00     0.031 A 
ATOM     89  C   UNL A   1      46.023  33.353  30.237  1.00  0.00     0.131 A 
ATOM     90  C   UNL A   1      45.632  35.594  28.660  1.00  0.00     0.055 A 
ATOM     91  C   UNL A   1      46.689  34.538  30.549  1.00  0.00     0.041 A 
ATOM     92  F   UNL A   1      46.254  32.283  31.014  1.00  0.00    -0.206 F 
ATOM     93  C   UNL A   1      46.502  35.665  29.753  1.00  0.00     0.022 A 
BRANCH  90  94
ATOM     94  S   UNL A   1      45.446  37.020  27.556  1.00  0.00     0.124 S 
ATOM     95  O   UNL A   1      46.692  36.981  26.798  1.00  0.00    -0.237 OA
ATOM     96  O   UNL A   1      44.236  36.683  26.811  1.00  0.00    -0.237 OA
ATOM     97  O   UNL A   1      45.312  38.150  28.473  1.00  0.00    -0.744 OA
ENDBRANCH  90  94
ENDBRANCH  64  87
ENDBRANCH  38  39
ENDBRANCH  30  33
ENDBRANCH  28  29
ENDBRANCH  27  28
ENDBRANCH   1  27
TORSDOF 19
ENDMDL
MODEL 3
REMARK VINA RESULT:     -11.4      5.080      8.086
REMARK SMILES CC(C)C[C@H](CNC(=O)[C@]1([NH3+])CCC[C@@H](C)C1)C(=O)NCCCNC(=O)c1ccc(-c2c3nc(c(-c4cc(S(=O)(=O)[O-])ccc4F)c4ccc([nH]4)c(-c4cc(S(=O)(=O)[O-])ccc4F)c4nc(c(-c5cc(S(=O)(=O)[O-])ccc5F)c5ccc2[nH]5)C=C4)C=C3)cc1
REMARK SMILES IDX 21 1 20 2 18 3 19 4 5 6 4 7 2 8 1 9 3 10 6 11 7 12 8 13 9 15
REMARK SMILES IDX 10 16 12 17 17 18 13 19 15 20 14 21 16 22 11 23 22 27 23 28
REMARK SMILES IDX 24 29 25 30 26 32 27 33 28 34 89 35 29 36 88 37 30 38 31 39
REMARK SMILES IDX 32 40 82 41 33 42 87 43 81 44 83 45 34 46 86 47 80 48 79 49
REMARK SMILES IDX 35 51 67 52 47 53 66 54 48 55 51 56 65 57 84 58 49 59 50 60
REMARK SMILES IDX 64 62 85 63 52 64 36 65 37 66 45 67 38 68 44 69 46 70 43 71
REMARK SMILES IDX 39 72 40 73 41 74 42 75 68 76 69 77 77 78 70 79 76 80 78 81
REMARK SMILES IDX 75 82 71 83 72 84 73 85 74 86 53 87 54 88 62 89 55 90 61 91
REMARK SMILES IDX 63 92 60 93 56 94 57 95 58 96 59 97
REMARK H PARENT 20 5 7 14 11 24 11 25 11 26 24 31 83 50 51 61
REMARK Flexibility Score: inf
ROOT
ATOM      1  C   UNL A   1      35.762  21.341  24.698  1.00  0.00     0.117 C 
ENDROOT
BRANCH   1   2
ATOM      2  N   UNL A   1      35.129  21.658  25.968  1.00  0.00    -0.356 N 
ATOM      3  C   UNL A   1      33.945  21.253  26.508  1.00  0.00     0.224 C 
ATOM      4  O   UNL A   1      33.781  21.451  27.716  1.00  0.00    -0.275 OA
ATOM      5  H   UNL A   1      35.648  22.272  26.538  1.00  0.00     0.163 HD
BRANCH   3   6
ATOM      6  C   UNL A   1      32.829  20.601  25.686  1.00  0.00     0.098 C 
BRANCH   6   7
ATOM      7  C   UNL A   1      33.312  19.641  24.577  1.00  0.00     0.018 C 
BRANCH   7   8
ATOM      8  C   UNL A   1      32.572  18.304  24.370  1.00  0.00    -0.017 C 
ATOM      9  C   UNL A   1      33.082  17.528  23.150  1.00  0.00     0.007 C 
ATOM     10  C   UNL A   1      32.730  17.402  25.599  1.00  0.00     0.007 C 
ENDBRANCH   7   8
ENDBRANCH   6   7
BRANCH   6  11
ATOM     11  C   UNL A   1      31.761  21.632  25.313  1.00  0.00     0.129 C 
BRANCH  11  12
ATOM     12  N   UNL A   1      31.031  22.236  26.410  1.00  0.00    -0.350 N 
ATOM     13  C   UNL A   1      30.447  23.477  26.488  1.00  0.00     0.281 C 
ATOM     14  H   UNL A   1      30.942  21.676  27.215  1.00  0.00     0.163 HD
ATOM     15  O   UNL A   1      29.575  23.606  27.354  1.00  0.00    -0.268 OA
BRANCH  13  16
ATOM     16  C   UNL A   1      30.970  24.708  25.641  1.00  0.00     0.174 C 
ATOM     17  C   UNL A   1      32.521  24.625  25.557  1.00  0.00     0.079 C 
ATOM     18  C   UNL A   1      30.640  26.101  26.232  1.00  0.00     0.082 C 
ATOM     19  C   UNL A   1      33.164  25.777  24.779  1.00  0.00     0.007 C 
ATOM     20  C   UNL A   1      31.246  27.303  25.475  1.00  0.00    -0.008 C 
ATOM     21  C   UNL A   1      32.759  27.143  25.325  1.00  0.00     0.004 C 
ATOM     22  C   UNL A   1      30.561  27.579  24.130  1.00  0.00     0.008 C 
BRANCH  16  23
ATOM     23  N   UNL A   1      30.428  24.528  24.273  1.00  0.00    -0.345 N 
ATOM     24  H   UNL A   1      30.604  23.574  23.961  1.00  0.00     0.345 HD
ATOM     25  H   UNL A   1      30.885  25.183  23.638  1.00  0.00     0.345 HD
ATOM     26  H   UNL A   1      29.424  24.705  24.278  1.00  0.00     0.345 HD
ENDBRANCH  16  23
ENDBRANCH  13  16
ENDBRANCH  11  12
ENDBRANCH   6  11
ENDBRANCH   3   6
ENDBRANCH   1   2
BRANCH   1  27
ATOM     27  C   UNL A   1      36.976  20.438  24.815  1.00  0.00     0.042 C 
BRANCH  27  28
ATOM     28  C   UNL A   1      38.236  21.184  25.233  1.00  0.00     0.118 C 
BRANCH  28  29
ATOM     29  N   UNL A   1      39.164  20.349  25.994  1.00  0.00    -0.352 N 
ATOM     30  C   UNL A   1      40.253  20.674  26.775  1.00  0.00     0.251 C 
ATOM     31  H   UNL A   1      38.979  19.384  25.938  1.00  0.00     0.163 HD
ATOM     32  O   UNL A   1      41.018  19.791  27.131  1.00  0.00    -0.269 OA
BRANCH  30  33
ATOM     33  C   UNL A   1      40.505  22.082  27.150  1.00  0.00     0.039 A 
ATOM     34  C   UNL A   1      41.454  22.378  28.134  1.00  0.00     0.014 A 
ATOM     35  C   UNL A   1      39.808  23.113  26.526  1.00  0.00     0.014 A 
ATOM     36  C   UNL A   1      41.782  23.711  28.399  1.00  0.00     0.010 A 
ATOM     37  C   UNL A   1      40.219  24.426  26.703  1.00  0.00     0.010 A 
ATOM     38  C   UNL A   1      41.216  24.744  27.638  1.00  0.00    -0.014 A 
BRANCH  38  39
ATOM     39  C   UNL A   1      41.626  26.167  27.773  1.00  0.00     0.031 A 
ATOM     40  C   UNL A   1      42.967  26.603  27.243  1.00  0.00     0.074 A 
ATOM     41  C   UNL A   1      40.870  27.022  28.493  1.00  0.00     0.049 A 
ATOM     42  N   UNL A   1      43.638  27.699  27.478  1.00  0.00    -0.248 NA
ATOM     43  C   UNL A   1      43.671  25.638  26.384  1.00  0.00     0.031 C 
ATOM     44  C   UNL A   1      39.573  26.709  29.097  1.00  0.00     0.029 A 
ATOM     45  N   UNL A   1      41.098  28.324  28.861  1.00  0.00    -0.354 N 
ATOM     46  C   UNL A   1      44.864  27.534  26.841  1.00  0.00     0.074 A 
ATOM     47  C   UNL A   1      44.860  26.208  26.262  1.00  0.00     0.031 C 
ATOM     48  C   UNL A   1      39.113  27.792  29.743  1.00  0.00     0.029 A 
ATOM     49  C   UNL A   1      40.107  28.856  29.654  1.00  0.00     0.049 A 
ATOM     50  H   UNL A   1      41.896  28.830  28.586  1.00  0.00     0.167 HD
ATOM     51  C   UNL A   1      45.890  28.415  26.735  1.00  0.00     0.034 A 
ATOM     52  C   UNL A   1      40.019  30.056  30.260  1.00  0.00     0.034 A 
ATOM     53  C   UNL A   1      45.848  29.753  27.272  1.00  0.00     0.049 A 
ATOM     54  C   UNL A   1      41.154  31.035  30.099  1.00  0.00     0.074 A 
ATOM     55  C   UNL A   1      46.792  30.758  27.164  1.00  0.00     0.029 A 
ATOM     56  N   UNL A   1      44.796  30.275  28.014  1.00  0.00    -0.354 N 
ATOM     57  N   UNL A   1      42.297  30.875  29.475  1.00  0.00    -0.248 NA
ATOM     58  C   UNL A   1      40.985  32.356  30.720  1.00  0.00     0.031 C 
ATOM     59  C   UNL A   1      46.333  31.870  27.877  1.00  0.00     0.029 A 
ATOM     60  C   UNL A   1      45.073  31.582  28.378  1.00  0.00     0.049 A 
ATOM     61  H   UNL A   1      43.973  29.788  28.247  1.00  0.00     0.167 HD
ATOM     62  C   UNL A   1      42.968  32.088  29.598  1.00  0.00     0.074 A 
ATOM     63  C   UNL A   1      42.102  32.969  30.353  1.00  0.00     0.031 C 
ATOM     64  C   UNL A   1      44.189  32.444  29.124  1.00  0.00     0.034 A 
BRANCH  51  65
ATOM     65  C   UNL A   1      47.138  27.947  26.025  1.00  0.00     0.023 A 
ATOM     66  C   UNL A   1      47.329  28.164  24.649  1.00  0.00     0.031 A 
ATOM     67  C   UNL A   1      48.130  27.232  26.719  1.00  0.00     0.131 A 
ATOM     68  C   UNL A   1      48.429  27.588  23.994  1.00  0.00     0.055 A 
ATOM     69  C   UNL A   1      49.270  26.742  26.080  1.00  0.00     0.041 A 
ATOM     70  F   UNL A   1      47.997  26.978  28.031  1.00  0.00    -0.206 F 
ATOM     71  C   UNL A   1      49.416  26.902  24.704  1.00  0.00     0.022 A 
BRANCH  68  72
ATOM     72  S   UNL A   1      48.460  27.612  22.181  1.00  0.00     0.124 S 
ATOM     73  O   UNL A   1      49.588  28.505  21.921  1.00  0.00    -0.237 OA
ATOM     74  O   UNL A   1      48.670  26.207  21.850  1.00  0.00    -0.237 OA
ATOM     75  O   UNL A   1      47.151  28.152  21.823  1.00  0.00    -0.744 OA
ENDBRANCH  68  72
ENDBRANCH  51  65
BRANCH  52  76
ATOM     76  C   UNL A   1      38.822  30.404  31.078  1.00  0.00     0.023 A 
ATOM     77  C   UNL A   1      37.732  31.075  30.503  1.00  0.00     0.031 A 
ATOM     78  C   UNL A   1      38.759  30.096  32.448  1.00  0.00     0.131 A 
ATOM     79  C   UNL A   1      36.644  31.457  31.303  1.00  0.00     0.055 A 
ATOM     80  C   UNL A   1      37.653  30.435  33.230  1.00  0.00     0.041 A 
ATOM     81  F   UNL A   1      39.770  29.443  33.045  1.00  0.00    -0.206 F 
ATOM     82  C   UNL A   1      36.592  31.131  32.660  1.00  0.00     0.022 A 
BRANCH  79  83
ATOM     83  S   UNL A   1      35.325  32.453  30.555  1.00  0.00     0.124 S 
ATOM     84  O   UNL A   1      35.090  31.743  29.303  1.00  0.00    -0.237 OA
ATOM     85  O   UNL A   1      34.269  32.356  31.557  1.00  0.00    -0.237 OA
ATOM     86  O   UNL A   1      35.934  33.774  30.419  1.00  0.00    -0.744 OA
ENDBRANCH  79  83
ENDBRANCH  52  76
BRANCH  64  87
ATOM     87  C   UNL A   1      44.623  33.868  29.352  1.00  0.00     0.023 A 
ATOM     88  C   UNL A   1      44.392  34.875  28.401  1.00  0.00     0.031 A 
ATOM     89  C   UNL A   1      45.263  34.218  30.555  1.00  0.00     0.131 A 
ATOM     90  C   UNL A   1      44.834  36.182  28.653  1.00  0.00     0.055 A 
ATOM     91  C   UNL A   1      45.657  35.530  30.819  1.00  0.00     0.041 A 
ATOM     92  F   UNL A   1      45.506  33.291  31.494  1.00  0.00    -0.206 F 
ATOM     93  C   UNL A   1      45.451  36.519  29.861  1.00  0.00     0.022 A 
BRANCH  90  94
ATOM     94  S   UNL A   1      44.641  37.434  27.354  1.00  0.00     0.124 S 
ATOM     95  O   UNL A   1      43.287  37.171  26.879  1.00  0.00    -0.237 OA
ATOM     96  O   UNL A   1      44.827  38.680  28.092  1.00  0.00    -0.237 OA
ATOM     97  O   UNL A   1      45.705  37.112  26.406  1.00  0.00    -0.744 OA
ENDBRANCH  90  94
ENDBRANCH  64  87
ENDBRANCH  38  39
ENDBRANCH  30  33
ENDBRANCH  28  29
ENDBRANCH  27  28
ENDBRANCH   1  27
TORSDOF 19
ENDMDL
