MODEL 1
REMARK VINA RESULT:     -11.9      0.000      0.000
REMARK SMILES Cc1c(Cl)cccc1S(=O)(=O)N[C@H]1C=C[C@@H](C(=O)NCCCNC(=O)c2ccc(-c3c4nc(c(-c5cc(S(=O)(=O)[O-])ccc5F)c5ccc([nH]5)c(-c5cc(S(=O)(=O)[O-])ccc5F)c5nc(c(-c6cc(S(=O)(=O)[O-])ccc6F)c6ccc3[nH]6)C=C5)C=C4)cc2)C1
REMARK SMILES IDX 21 1 20 2 19 3 17 4 18 5 16 7 13 8 14 9 89 10 15 11 12 12
REMARK SMILES IDX 9 14 10 15 11 16 8 17 1 18 2 19 3 20 4 21 5 22 7 23 6 24
REMARK SMILES IDX 22 25 23 26 24 27 25 29 26 30 27 31 88 32 28 33 87 34 29 35
REMARK SMILES IDX 30 36 31 37 81 38 32 39 86 40 80 41 82 42 33 43 85 44 79 45
REMARK SMILES IDX 78 46 34 48 66 49 46 50 65 51 47 52 50 53 64 54 83 55 48 56
REMARK SMILES IDX 49 57 63 59 84 60 51 61 35 62 36 63 44 64 37 65 43 66 45 67
REMARK SMILES IDX 42 68 38 69 39 70 40 71 41 72 67 73 68 74 76 75 69 76 75 77
REMARK SMILES IDX 77 78 74 79 70 80 71 81 72 82 73 83 52 84 53 85 61 86 54 87
REMARK SMILES IDX 60 88 62 89 59 90 55 91 56 92 57 93 58 94
REMARK H PARENT 19 6 12 13 23 28 82 47 50 58
REMARK Flexibility Score: inf
ROOT
ATOM      1  C   UNL A   1      33.794  28.465  25.566  1.00  0.00     0.042 C 
ENDROOT
BRANCH   1   2
ATOM      2  C   UNL A   1      33.091  28.616  24.209  1.00  0.00     0.117 C 
BRANCH   2   3
ATOM      3  N   UNL A   1      33.548  27.690  23.178  1.00  0.00    -0.356 N 
ATOM      4  C   UNL A   1      32.933  26.867  22.292  1.00  0.00     0.226 C 
ATOM      5  O   UNL A   1      33.686  26.293  21.490  1.00  0.00    -0.274 OA
ATOM      6  H   UNL A   1      34.530  27.656  23.109  1.00  0.00     0.163 HD
BRANCH   4   7
ATOM      7  C   UNL A   1      31.434  26.537  22.237  1.00  0.00     0.103 C 
ATOM      8  C   UNL A   1      30.265  25.416  24.098  1.00  0.00     0.093 C 
ATOM      9  C   UNL A   1      29.818  26.835  23.902  1.00  0.00    -0.011 C 
ATOM     10  C   UNL A   1      31.087  25.159  22.834  1.00  0.00     0.042 C 
ATOM     11  C   UNL A   1      30.454  27.445  22.895  1.00  0.00    -0.016 C 
BRANCH   8  12
ATOM     12  N   UNL A   1      31.098  25.376  25.299  1.00  0.00    -0.204 NA
ATOM     13  H   UNL A   1      31.957  25.880  25.081  1.00  0.00     0.142 HD
BRANCH  12  14
ATOM     14  S   UNL A   1      31.552  23.895  25.947  1.00  0.00     0.241 S 
ATOM     15  O   UNL A   1      30.685  22.888  25.372  1.00  0.00    -0.207 OA
ATOM     16  O   UNL A   1      31.582  24.129  27.375  1.00  0.00    -0.207 OA
BRANCH  14  17
ATOM     17  C   UNL A   1      33.229  23.457  25.490  1.00  0.00     0.086 A 
ATOM     18  C   UNL A   1      33.145  20.899  25.805  1.00  0.00     0.047 C 
ATOM     19  C   UNL A   1      33.834  22.185  25.499  1.00  0.00    -0.012 A 
ATOM     20  C   UNL A   1      35.202  22.097  25.141  1.00  0.00     0.045 A 
ATOM     21  Cl  UNL A   1      36.063  20.589  25.187  1.00  0.00    -0.084 Cl
ATOM     22  C   UNL A   1      35.928  23.212  24.728  1.00  0.00     0.021 A 
ATOM     23  C   UNL A   1      33.979  24.572  25.055  1.00  0.00     0.022 A 
ATOM     24  C   UNL A   1      35.310  24.451  24.667  1.00  0.00     0.003 A 
ENDBRANCH  14  17
ENDBRANCH  12  14
ENDBRANCH   8  12
ENDBRANCH   4   7
ENDBRANCH   2   3
ENDBRANCH   1   2
BRANCH   1  25
ATOM     25  C   UNL A   1      33.055  29.042  26.773  1.00  0.00     0.118 C 
BRANCH  25  26
ATOM     26  N   UNL A   1      33.312  30.461  26.924  1.00  0.00    -0.352 N 
ATOM     27  C   UNL A   1      34.308  31.097  27.627  1.00  0.00     0.251 C 
ATOM     28  H   UNL A   1      32.683  31.056  26.454  1.00  0.00     0.163 HD
ATOM     29  O   UNL A   1      34.151  32.281  27.919  1.00  0.00    -0.269 OA
BRANCH  27  30
ATOM     30  C   UNL A   1      35.554  30.394  28.034  1.00  0.00     0.039 A 
ATOM     31  C   UNL A   1      35.631  29.864  29.326  1.00  0.00     0.014 A 
ATOM     32  C   UNL A   1      36.687  30.358  27.213  1.00  0.00     0.014 A 
ATOM     33  C   UNL A   1      36.827  29.305  29.794  1.00  0.00     0.010 A 
ATOM     34  C   UNL A   1      37.865  29.746  27.660  1.00  0.00     0.010 A 
ATOM     35  C   UNL A   1      37.960  29.241  28.968  1.00  0.00    -0.014 A 
BRANCH  35  36
ATOM     36  C   UNL A   1      39.260  28.729  29.493  1.00  0.00     0.031 A 
ATOM     37  C   UNL A   1      39.898  29.378  30.698  1.00  0.00     0.074 A 
ATOM     38  C   UNL A   1      39.877  27.690  28.896  1.00  0.00     0.049 A 
ATOM     39  N   UNL A   1      41.035  29.103  31.290  1.00  0.00    -0.248 NA
ATOM     40  C   UNL A   1      39.168  30.502  31.302  1.00  0.00     0.031 C 
ATOM     41  C   UNL A   1      39.384  26.982  27.714  1.00  0.00     0.029 A 
ATOM     42  N   UNL A   1      41.054  27.048  29.198  1.00  0.00    -0.354 N 
ATOM     43  C   UNL A   1      41.161  30.026  32.325  1.00  0.00     0.074 A 
ATOM     44  C   UNL A   1      40.015  30.906  32.236  1.00  0.00     0.031 C 
ATOM     45  C   UNL A   1      40.237  25.991  27.408  1.00  0.00     0.029 A 
ATOM     46  C   UNL A   1      41.358  26.013  28.344  1.00  0.00     0.049 A 
ATOM     47  H   UNL A   1      41.627  27.306  29.957  1.00  0.00     0.167 HD
ATOM     48  C   UNL A   1      42.128  30.121  33.274  1.00  0.00     0.034 A 
ATOM     49  C   UNL A   1      42.418  25.180  28.313  1.00  0.00     0.034 A 
ATOM     50  C   UNL A   1      43.263  29.232  33.363  1.00  0.00     0.049 A 
ATOM     51  C   UNL A   1      43.488  25.310  29.370  1.00  0.00     0.074 A 
ATOM     52  C   UNL A   1      44.283  29.223  34.299  1.00  0.00     0.029 A 
ATOM     53  N   UNL A   1      43.530  28.191  32.482  1.00  0.00    -0.354 N 
ATOM     54  N   UNL A   1      43.577  26.172  30.357  1.00  0.00    -0.248 NA
ATOM     55  C   UNL A   1      44.590  24.341  29.316  1.00  0.00     0.031 C 
ATOM     56  C   UNL A   1      45.196  28.220  33.950  1.00  0.00     0.029 A 
ATOM     57  C   UNL A   1      44.705  27.548  32.842  1.00  0.00     0.049 A 
ATOM     58  H   UNL A   1      42.966  27.945  31.714  1.00  0.00     0.167 HD
ATOM     59  C   UNL A   1      44.723  25.818  31.067  1.00  0.00     0.074 A 
ATOM     60  C   UNL A   1      45.281  24.659  30.401  1.00  0.00     0.031 C 
ATOM     61  C   UNL A   1      45.259  26.392  32.174  1.00  0.00     0.034 A 
BRANCH  48  62
ATOM     62  C   UNL A   1      42.007  31.250  34.276  1.00  0.00     0.023 A 
ATOM     63  C   UNL A   1      41.017  31.249  35.274  1.00  0.00     0.031 A 
ATOM     64  C   UNL A   1      42.870  32.358  34.211  1.00  0.00     0.131 A 
ATOM     65  C   UNL A   1      40.857  32.368  36.107  1.00  0.00     0.055 A 
ATOM     66  C   UNL A   1      42.763  33.430  35.101  1.00  0.00     0.041 A 
ATOM     67  F   UNL A   1      43.825  32.428  33.271  1.00  0.00    -0.206 F 
ATOM     68  C   UNL A   1      41.741  33.448  36.045  1.00  0.00     0.022 A 
BRANCH  65  69
ATOM     69  S   UNL A   1      39.383  32.462  37.159  1.00  0.00     0.124 S 
ATOM     70  O   UNL A   1      38.712  31.204  36.840  1.00  0.00    -0.237 OA
ATOM     71  O   UNL A   1      39.956  32.559  38.497  1.00  0.00    -0.237 OA
ATOM     72  O   UNL A   1      38.697  33.663  36.684  1.00  0.00    -0.744 OA
ENDBRANCH  65  69
ENDBRANCH  48  62
BRANCH  49  73
ATOM     73  C   UNL A   1      42.532  24.140  27.249  1.00  0.00     0.023 A 
ATOM     74  C   UNL A   1      41.911  22.888  27.390  1.00  0.00     0.031 A 
ATOM     75  C   UNL A   1      43.306  24.365  26.098  1.00  0.00     0.131 A 
ATOM     76  C   UNL A   1      42.118  21.890  26.424  1.00  0.00     0.055 A 
ATOM     77  C   UNL A   1      43.464  23.389  25.112  1.00  0.00     0.041 A 
ATOM     78  F   UNL A   1      43.919  25.545  25.911  1.00  0.00    -0.206 F 
ATOM     79  C   UNL A   1      42.880  22.137  25.279  1.00  0.00     0.022 A 
BRANCH  76  80
ATOM     80  S   UNL A   1      41.449  20.233  26.728  1.00  0.00     0.124 S 
ATOM     81  O   UNL A   1      42.305  19.759  27.810  1.00  0.00    -0.237 OA
ATOM     82  O   UNL A   1      40.064  20.526  27.087  1.00  0.00    -0.237 OA
ATOM     83  O   UNL A   1      41.627  19.553  25.446  1.00  0.00    -0.744 OA
ENDBRANCH  76  80
ENDBRANCH  49  73
BRANCH  61  84
ATOM     84  C   UNL A   1      46.479  25.730  32.773  1.00  0.00     0.023 A 
ATOM     85  C   UNL A   1      46.381  24.759  33.785  1.00  0.00     0.031 A 
ATOM     86  C   UNL A   1      47.764  26.104  32.340  1.00  0.00     0.131 A 
ATOM     87  C   UNL A   1      47.546  24.249  34.381  1.00  0.00     0.055 A 
ATOM     88  C   UNL A   1      48.919  25.544  32.891  1.00  0.00     0.041 A 
ATOM     89  F   UNL A   1      47.920  27.026  31.378  1.00  0.00    -0.206 F 
ATOM     90  C   UNL A   1      48.813  24.624  33.929  1.00  0.00     0.022 A 
BRANCH  87  91
ATOM     91  S   UNL A   1      47.383  23.177  35.836  1.00  0.00     0.124 S 
ATOM     92  O   UNL A   1      46.291  22.293  35.443  1.00  0.00    -0.237 OA
ATOM     93  O   UNL A   1      48.704  22.561  35.917  1.00  0.00    -0.237 OA
ATOM     94  O   UNL A   1      47.069  24.110  36.916  1.00  0.00    -0.744 OA
ENDBRANCH  87  91
ENDBRANCH  61  84
ENDBRANCH  35  36
ENDBRANCH  27  30
ENDBRANCH  25  26
ENDBRANCH   1  25
TORSDOF 16
ENDMDL
MODEL 2
REMARK VINA RESULT:     -11.9      1.881      2.224
REMARK SMILES Cc1c(Cl)cccc1S(=O)(=O)N[C@H]1C=C[C@@H](C(=O)NCCCNC(=O)c2ccc(-c3c4nc(c(-c5cc(S(=O)(=O)[O-])ccc5F)c5ccc([nH]5)c(-c5cc(S(=O)(=O)[O-])ccc5F)c5nc(c(-c6cc(S(=O)(=O)[O-])ccc6F)c6ccc3[nH]6)C=C5)C=C4)cc2)C1
REMARK SMILES IDX 21 1 20 2 19 3 17 4 18 5 16 7 13 8 14 9 89 10 15 11 12 12
REMARK SMILES IDX 9 14 10 15 11 16 8 17 1 18 2 19 3 20 4 21 5 22 7 23 6 24
REMARK SMILES IDX 22 25 23 26 24 27 25 29 26 30 27 31 88 32 28 33 87 34 29 35
REMARK SMILES IDX 30 36 31 37 81 38 32 39 86 40 80 41 82 42 33 43 85 44 79 45
REMARK SMILES IDX 78 46 34 48 66 49 46 50 65 51 47 52 50 53 64 54 83 55 48 56
REMARK SMILES IDX 49 57 63 59 84 60 51 61 35 62 36 63 44 64 37 65 43 66 45 67
REMARK SMILES IDX 42 68 38 69 39 70 40 71 41 72 67 73 68 74 76 75 69 76 75 77
REMARK SMILES IDX 77 78 74 79 70 80 71 81 72 82 73 83 52 84 53 85 61 86 54 87
REMARK SMILES IDX 60 88 62 89 59 90 55 91 56 92 57 93 58 94
REMARK H PARENT 19 6 12 13 23 28 82 47 50 58
REMARK Flexibility Score: inf
ROOT
ATOM      1  C   UNL A   1      34.064  28.146  25.811  1.00  0.00     0.042 C 
ENDROOT
BRANCH   1   2
ATOM      2  C   UNL A   1      33.442  28.520  24.458  1.00  0.00     0.117 C 
BRANCH   2   3
ATOM      3  N   UNL A   1      33.795  27.631  23.357  1.00  0.00    -0.356 N 
ATOM      4  C   UNL A   1      33.092  26.908  22.449  1.00  0.00     0.226 C 
ATOM      5  O   UNL A   1      33.772  26.334  21.585  1.00  0.00    -0.274 OA
ATOM      6  H   UNL A   1      34.768  27.532  23.248  1.00  0.00     0.163 HD
BRANCH   4   7
ATOM      7  C   UNL A   1      31.571  26.688  22.434  1.00  0.00     0.103 C 
ATOM      8  C   UNL A   1      30.390  25.539  24.269  1.00  0.00     0.093 C 
ATOM      9  C   UNL A   1      30.041  26.996  24.175  1.00  0.00    -0.011 C 
ATOM     10  C   UNL A   1      31.147  25.303  22.961  1.00  0.00     0.042 C 
ATOM     11  C   UNL A   1      30.683  27.620  23.182  1.00  0.00    -0.016 C 
BRANCH   8  12
ATOM     12  N   UNL A   1      31.260  25.367  25.433  1.00  0.00    -0.204 NA
ATOM     13  H   UNL A   1      32.141  25.833  25.215  1.00  0.00     0.142 HD
BRANCH  12  14
ATOM     14  S   UNL A   1      31.643  23.820  25.962  1.00  0.00     0.241 S 
ATOM     15  O   UNL A   1      30.755  22.899  25.285  1.00  0.00    -0.207 OA
ATOM     16  O   UNL A   1      31.644  23.933  27.406  1.00  0.00    -0.207 OA
BRANCH  14  17
ATOM     17  C   UNL A   1      33.314  23.358  25.508  1.00  0.00     0.086 A 
ATOM     18  C   UNL A   1      33.182  20.799  25.787  1.00  0.00     0.047 C 
ATOM     19  C   UNL A   1      33.896  22.076  25.503  1.00  0.00    -0.012 A 
ATOM     20  C   UNL A   1      35.264  21.968  25.151  1.00  0.00     0.045 A 
ATOM     21  Cl  UNL A   1      36.098  20.444  25.180  1.00  0.00    -0.084 Cl
ATOM     22  C   UNL A   1      36.013  23.076  24.758  1.00  0.00     0.021 A 
ATOM     23  C   UNL A   1      34.087  24.466  25.094  1.00  0.00     0.022 A 
ATOM     24  C   UNL A   1      35.418  24.326  24.711  1.00  0.00     0.003 A 
ENDBRANCH  14  17
ENDBRANCH  12  14
ENDBRANCH   8  12
ENDBRANCH   4   7
ENDBRANCH   2   3
ENDBRANCH   1   2
BRANCH   1  25
ATOM     25  C   UNL A   1      33.409  28.766  27.046  1.00  0.00     0.118 C 
BRANCH  25  26
ATOM     26  N   UNL A   1      33.444  30.215  26.995  1.00  0.00    -0.352 N 
ATOM     27  C   UNL A   1      34.238  31.093  27.693  1.00  0.00     0.251 C 
ATOM     28  H   UNL A   1      32.806  30.629  26.368  1.00  0.00     0.163 HD
ATOM     29  O   UNL A   1      33.880  32.266  27.772  1.00  0.00    -0.269 OA
BRANCH  27  30
ATOM     30  C   UNL A   1      35.505  30.661  28.342  1.00  0.00     0.039 A 
ATOM     31  C   UNL A   1      36.717  31.109  27.806  1.00  0.00     0.014 A 
ATOM     32  C   UNL A   1      35.524  29.728  29.385  1.00  0.00     0.014 A 
ATOM     33  C   UNL A   1      37.934  30.630  28.306  1.00  0.00     0.010 A 
ATOM     34  C   UNL A   1      36.742  29.295  29.924  1.00  0.00     0.010 A 
ATOM     35  C   UNL A   1      37.963  29.715  29.369  1.00  0.00    -0.014 A 
BRANCH  35  36
ATOM     36  C   UNL A   1      39.254  29.134  29.843  1.00  0.00     0.031 A 
ATOM     37  C   UNL A   1      39.936  29.703  31.064  1.00  0.00     0.074 A 
ATOM     38  C   UNL A   1      39.823  28.104  29.186  1.00  0.00     0.049 A 
ATOM     39  N   UNL A   1      41.072  29.362  31.620  1.00  0.00    -0.248 NA
ATOM     40  C   UNL A   1      39.257  30.823  31.733  1.00  0.00     0.031 C 
ATOM     41  C   UNL A   1      39.283  27.470  27.983  1.00  0.00     0.029 A 
ATOM     42  N   UNL A   1      40.982  27.409  29.435  1.00  0.00    -0.354 N 
ATOM     43  C   UNL A   1      41.250  30.231  32.694  1.00  0.00     0.074 A 
ATOM     44  C   UNL A   1      40.134  31.153  32.668  1.00  0.00     0.031 C 
ATOM     45  C   UNL A   1      40.095  26.465  27.615  1.00  0.00     0.029 A 
ATOM     46  C   UNL A   1      41.233  26.405  28.528  1.00  0.00     0.049 A 
ATOM     47  H   UNL A   1      41.577  27.610  30.193  1.00  0.00     0.167 HD
ATOM     48  C   UNL A   1      42.237  30.248  33.627  1.00  0.00     0.034 A 
ATOM     49  C   UNL A   1      42.262  25.538  28.438  1.00  0.00     0.034 A 
ATOM     50  C   UNL A   1      43.341  29.317  33.652  1.00  0.00     0.049 A 
ATOM     51  C   UNL A   1      43.355  25.582  29.478  1.00  0.00     0.074 A 
ATOM     52  C   UNL A   1      44.377  29.229  34.566  1.00  0.00     0.029 A 
ATOM     53  N   UNL A   1      43.555  28.310  32.718  1.00  0.00    -0.354 N 
ATOM     54  N   UNL A   1      43.493  26.392  30.502  1.00  0.00    -0.248 NA
ATOM     55  C   UNL A   1      44.421  24.578  29.358  1.00  0.00     0.031 C 
ATOM     56  C   UNL A   1      45.248  28.213  34.153  1.00  0.00     0.029 A 
ATOM     57  C   UNL A   1      44.713  27.611  33.025  1.00  0.00     0.049 A 
ATOM     58  H   UNL A   1      42.969  28.119  31.951  1.00  0.00     0.167 HD
ATOM     59  C   UNL A   1      44.638  25.966  31.171  1.00  0.00     0.074 A 
ATOM     60  C   UNL A   1      45.142  24.822  30.442  1.00  0.00     0.031 C 
ATOM     61  C   UNL A   1      45.214  26.470  32.293  1.00  0.00     0.034 A 
BRANCH  48  62
ATOM     62  C   UNL A   1      42.174  31.331  34.682  1.00  0.00     0.023 A 
ATOM     63  C   UNL A   1      42.749  32.598  34.476  1.00  0.00     0.031 A 
ATOM     64  C   UNL A   1      41.564  31.084  35.925  1.00  0.00     0.131 A 
ATOM     65  C   UNL A   1      42.780  33.534  35.521  1.00  0.00     0.055 A 
ATOM     66  C   UNL A   1      41.519  32.052  36.931  1.00  0.00     0.041 A 
ATOM     67  F   UNL A   1      41.013  29.890  36.191  1.00  0.00    -0.206 F 
ATOM     68  C   UNL A   1      42.145  33.281  36.739  1.00  0.00     0.022 A 
BRANCH  65  69
ATOM     69  S   UNL A   1      43.799  35.022  35.322  1.00  0.00     0.124 S 
ATOM     70  O   UNL A   1      42.807  36.082  35.481  1.00  0.00    -0.237 OA
ATOM     71  O   UNL A   1      44.769  34.886  36.403  1.00  0.00    -0.237 OA
ATOM     72  O   UNL A   1      44.344  34.887  33.973  1.00  0.00    -0.744 OA
ENDBRANCH  65  69
ENDBRANCH  48  62
BRANCH  49  73
ATOM     73  C   UNL A   1      42.320  24.546  27.324  1.00  0.00     0.023 A 
ATOM     74  C   UNL A   1      41.559  23.365  27.365  1.00  0.00     0.031 A 
ATOM     75  C   UNL A   1      43.176  24.740  26.227  1.00  0.00     0.131 A 
ATOM     76  C   UNL A   1      41.709  22.400  26.357  1.00  0.00     0.055 A 
ATOM     77  C   UNL A   1      43.280  23.802  25.197  1.00  0.00     0.041 A 
ATOM     78  F   UNL A   1      43.922  25.852  26.136  1.00  0.00    -0.206 F 
ATOM     79  C   UNL A   1      42.554  22.616  25.266  1.00  0.00     0.022 A 
BRANCH  76  80
ATOM     80  S   UNL A   1      40.848  20.815  26.536  1.00  0.00     0.124 S 
ATOM     81  O   UNL A   1      39.547  21.114  25.949  1.00  0.00    -0.237 OA
ATOM     82  O   UNL A   1      41.706  19.916  25.771  1.00  0.00    -0.237 OA
ATOM     83  O   UNL A   1      40.845  20.589  27.980  1.00  0.00    -0.744 OA
ENDBRANCH  76  80
ENDBRANCH  49  73
BRANCH  61  84
ATOM     84  C   UNL A   1      46.420  25.738  32.837  1.00  0.00     0.023 A 
ATOM     85  C   UNL A   1      47.703  25.896  32.284  1.00  0.00     0.031 A 
ATOM     86  C   UNL A   1      46.271  24.840  33.909  1.00  0.00     0.131 A 
ATOM     87  C   UNL A   1      48.770  25.117  32.756  1.00  0.00     0.055 A 
ATOM     88  C   UNL A   1      47.351  24.116  34.419  1.00  0.00     0.041 A 
ATOM     89  F   UNL A   1      45.071  24.645  34.477  1.00  0.00    -0.206 F 
ATOM     90  C   UNL A   1      48.606  24.240  33.831  1.00  0.00     0.022 A 
BRANCH  87  91
ATOM     91  S   UNL A   1      50.354  25.178  31.870  1.00  0.00     0.124 S 
ATOM     92  O   UNL A   1      50.786  23.786  31.923  1.00  0.00    -0.237 OA
ATOM     93  O   UNL A   1      49.956  25.673  30.557  1.00  0.00    -0.237 OA
ATOM     94  O   UNL A   1      51.155  26.107  32.665  1.00  0.00    -0.744 OA
ENDBRANCH  87  91
ENDBRANCH  61  84
ENDBRANCH  35  36
ENDBRANCH  27  30
ENDBRANCH  25  26
ENDBRANCH   1  25
TORSDOF 16
ENDMDL
MODEL 3
REMARK VINA RESULT:     -11.9      4.962      9.881
REMARK SMILES Cc1c(Cl)cccc1S(=O)(=O)N[C@H]1C=C[C@@H](C(=O)NCCCNC(=O)c2ccc(-c3c4nc(c(-c5cc(S(=O)(=O)[O-])ccc5F)c5ccc([nH]5)c(-c5cc(S(=O)(=O)[O-])ccc5F)c5nc(c(-c6cc(S(=O)(=O)[O-])ccc6F)c6ccc3[nH]6)C=C5)C=C4)cc2)C1
REMARK SMILES IDX 21 1 20 2 19 3 17 4 18 5 16 7 13 8 14 9 89 10 15 11 12 12
REMARK SMILES IDX 9 14 10 15 11 16 8 17 1 18 2 19 3 20 4 21 5 22 7 23 6 24
REMARK SMILES IDX 22 25 23 26 24 27 25 29 26 30 27 31 88 32 28 33 87 34 29 35
REMARK SMILES IDX 30 36 31 37 81 38 32 39 86 40 80 41 82 42 33 43 85 44 79 45
REMARK SMILES IDX 78 46 34 48 66 49 46 50 65 51 47 52 50 53 64 54 83 55 48 56
REMARK SMILES IDX 49 57 63 59 84 60 51 61 35 62 36 63 44 64 37 65 43 66 45 67
REMARK SMILES IDX 42 68 38 69 39 70 40 71 41 72 67 73 68 74 76 75 69 76 75 77
REMARK SMILES IDX 77 78 74 79 70 80 71 81 72 82 73 83 52 84 53 85 61 86 54 87
REMARK SMILES IDX 60 88 62 89 59 90 55 91 56 92 57 93 58 94
REMARK H PARENT 19 6 12 13 23 28 82 47 50 58
REMARK Flexibility Score: inf
ROOT
ATOM      1  C   UNL A   1      35.895  21.373  24.976  1.00  0.00     0.042 C 
ENDROOT
BRANCH   1   2
ATOM      2  C   UNL A   1      34.787  21.046  25.987  1.00  0.00     0.117 C 
BRANCH   2   3
ATOM      3  N   UNL A   1      34.012  22.197  26.438  1.00  0.00    -0.356 N 
ATOM      4  C   UNL A   1      32.811  22.731  26.103  1.00  0.00     0.226 C 
ATOM      5  O   UNL A   1      32.442  23.688  26.801  1.00  0.00    -0.274 OA
ATOM      6  H   UNL A   1      34.466  22.703  27.150  1.00  0.00     0.163 HD
BRANCH   4   7
ATOM      7  C   UNL A   1      31.918  22.310  24.925  1.00  0.00     0.103 C 
ATOM      8  C   UNL A   1      31.944  23.501  22.765  1.00  0.00     0.093 C 
ATOM      9  C   UNL A   1      32.492  22.107  22.667  1.00  0.00    -0.011 C 
ATOM     10  C   UNL A   1      31.313  23.503  24.158  1.00  0.00     0.042 C 
ATOM     11  C   UNL A   1      32.481  21.461  23.838  1.00  0.00    -0.016 C 
BRANCH   8  12
ATOM     12  N   UNL A   1      33.074  24.427  22.684  1.00  0.00    -0.204 NA
ATOM     13  H   UNL A   1      33.558  24.382  23.581  1.00  0.00     0.142 HD
BRANCH  12  14
ATOM     14  S   UNL A   1      32.795  26.051  22.361  1.00  0.00     0.241 S 
ATOM     15  O   UNL A   1      31.473  26.155  21.779  1.00  0.00    -0.207 OA
ATOM     16  O   UNL A   1      33.970  26.470  21.628  1.00  0.00    -0.207 OA
BRANCH  14  17
ATOM     17  C   UNL A   1      32.779  27.033  23.860  1.00  0.00     0.086 A 
ATOM     18  C   UNL A   1      31.200  28.942  23.151  1.00  0.00     0.047 C 
ATOM     19  C   UNL A   1      32.122  28.255  24.098  1.00  0.00    -0.012 A 
ATOM     20  C   UNL A   1      32.304  28.873  25.360  1.00  0.00     0.045 A 
ATOM     21  Cl  UNL A   1      31.597  30.416  25.733  1.00  0.00    -0.084 Cl
ATOM     22  C   UNL A   1      33.054  28.276  26.372  1.00  0.00     0.021 A 
ATOM     23  C   UNL A   1      33.525  26.438  24.903  1.00  0.00     0.022 A 
ATOM     24  C   UNL A   1      33.651  27.046  26.149  1.00  0.00     0.003 A 
ENDBRANCH  14  17
ENDBRANCH  12  14
ENDBRANCH   8  12
ENDBRANCH   4   7
ENDBRANCH   2   3
ENDBRANCH   1   2
BRANCH   1  25
ATOM     25  C   UNL A   1      37.115  22.109  25.531  1.00  0.00     0.118 C 
BRANCH  25  26
ATOM     26  N   UNL A   1      38.175  21.187  25.887  1.00  0.00    -0.352 N 
ATOM     27  C   UNL A   1      39.460  21.452  26.298  1.00  0.00     0.251 C 
ATOM     28  H   UNL A   1      37.941  20.232  25.825  1.00  0.00     0.163 HD
ATOM     29  O   UNL A   1      40.296  20.555  26.211  1.00  0.00    -0.269 OA
BRANCH  27  30
ATOM     30  C   UNL A   1      39.853  22.779  26.842  1.00  0.00     0.039 A 
ATOM     31  C   UNL A   1      39.333  23.929  26.237  1.00  0.00     0.014 A 
ATOM     32  C   UNL A   1      40.814  22.914  27.849  1.00  0.00     0.014 A 
ATOM     33  C   UNL A   1      39.771  25.199  26.633  1.00  0.00     0.010 A 
ATOM     34  C   UNL A   1      41.207  24.185  28.286  1.00  0.00     0.010 A 
ATOM     35  C   UNL A   1      40.716  25.343  27.661  1.00  0.00    -0.014 A 
BRANCH  35  36
ATOM     36  C   UNL A   1      41.251  26.689  28.024  1.00  0.00     0.031 A 
ATOM     37  C   UNL A   1      42.668  27.063  27.660  1.00  0.00     0.074 A 
ATOM     38  C   UNL A   1      40.479  27.577  28.681  1.00  0.00     0.049 A 
ATOM     39  N   UNL A   1      43.330  28.166  27.909  1.00  0.00    -0.248 NA
ATOM     40  C   UNL A   1      43.450  26.047  26.941  1.00  0.00     0.031 C 
ATOM     41  C   UNL A   1      39.100  27.342  29.110  1.00  0.00     0.029 A 
ATOM     42  N   UNL A   1      40.743  28.857  29.105  1.00  0.00    -0.354 N 
ATOM     43  C   UNL A   1      44.607  27.973  27.390  1.00  0.00     0.074 A 
ATOM     44  C   UNL A   1      44.642  26.622  26.870  1.00  0.00     0.031 C 
ATOM     45  C   UNL A   1      38.632  28.447  29.712  1.00  0.00     0.029 A 
ATOM     46  C   UNL A   1      39.686  29.458  29.750  1.00  0.00     0.049 A 
ATOM     47  H   UNL A   1      41.609  29.304  28.961  1.00  0.00     0.167 HD
ATOM     48  C   UNL A   1      45.648  28.843  27.330  1.00  0.00     0.034 A 
ATOM     49  C   UNL A   1      39.577  30.680  30.311  1.00  0.00     0.034 A 
ATOM     50  C   UNL A   1      45.602  30.193  27.841  1.00  0.00     0.049 A 
ATOM     51  C   UNL A   1      40.750  31.627  30.245  1.00  0.00     0.074 A 
ATOM     52  C   UNL A   1      46.588  31.164  27.808  1.00  0.00     0.029 A 
ATOM     53  N   UNL A   1      44.509  30.766  28.481  1.00  0.00    -0.354 N 
ATOM     54  N   UNL A   1      41.941  31.437  29.726  1.00  0.00    -0.248 NA
ATOM     55  C   UNL A   1      40.554  32.962  30.826  1.00  0.00     0.031 C 
ATOM     56  C   UNL A   1      46.116  32.298  28.480  1.00  0.00     0.029 A 
ATOM     57  C   UNL A   1      44.805  32.067  28.862  1.00  0.00     0.049 A 
ATOM     58  H   UNL A   1      43.650  30.314  28.641  1.00  0.00     0.167 HD
ATOM     59  C   UNL A   1      42.619  32.645  29.880  1.00  0.00     0.074 A 
ATOM     60  C   UNL A   1      41.700  33.556  30.528  1.00  0.00     0.031 C 
ATOM     61  C   UNL A   1      43.884  32.973  29.509  1.00  0.00     0.034 A 
BRANCH  48  62
ATOM     62  C   UNL A   1      46.936  28.342  26.711  1.00  0.00     0.023 A 
ATOM     63  C   UNL A   1      47.130  28.329  25.318  1.00  0.00     0.031 A 
ATOM     64  C   UNL A   1      47.969  27.838  27.521  1.00  0.00     0.131 A 
ATOM     65  C   UNL A   1      48.285  27.745  24.776  1.00  0.00     0.055 A 
ATOM     66  C   UNL A   1      49.156  27.339  26.978  1.00  0.00     0.041 A 
ATOM     67  F   UNL A   1      47.838  27.806  28.856  1.00  0.00    -0.206 F 
ATOM     68  C   UNL A   1      49.312  27.274  25.597  1.00  0.00     0.022 A 
BRANCH  65  69
ATOM     69  S   UNL A   1      48.354  27.464  22.985  1.00  0.00     0.124 S 
ATOM     70  O   UNL A   1      48.288  26.007  22.912  1.00  0.00    -0.237 OA
ATOM     71  O   UNL A   1      47.178  28.182  22.507  1.00  0.00    -0.237 OA
ATOM     72  O   UNL A   1      49.639  28.042  22.596  1.00  0.00    -0.744 OA
ENDBRANCH  65  69
ENDBRANCH  48  62
BRANCH  49  73
ATOM     73  C   UNL A   1      38.312  31.091  30.988  1.00  0.00     0.023 A 
ATOM     74  C   UNL A   1      37.281  31.724  30.274  1.00  0.00     0.031 A 
ATOM     75  C   UNL A   1      38.137  30.904  32.369  1.00  0.00     0.131 A 
ATOM     76  C   UNL A   1      36.146  32.194  30.952  1.00  0.00     0.055 A 
ATOM     77  C   UNL A   1      36.981  31.323  33.031  1.00  0.00     0.041 A 
ATOM     78  F   UNL A   1      39.090  30.301  33.099  1.00  0.00    -0.206 F 
ATOM     79  C   UNL A   1      35.983  31.986  32.323  1.00  0.00     0.022 A 
BRANCH  76  80
ATOM     80  S   UNL A   1      34.921  33.162  30.030  1.00  0.00     0.124 S 
ATOM     81  O   UNL A   1      35.754  34.189  29.415  1.00  0.00    -0.237 OA
ATOM     82  O   UNL A   1      34.362  32.162  29.125  1.00  0.00    -0.237 OA
ATOM     83  O   UNL A   1      34.009  33.636  31.069  1.00  0.00    -0.744 OA
ENDBRANCH  76  80
ENDBRANCH  49  73
BRANCH  61  84
ATOM     84  C   UNL A   1      44.320  34.402  29.738  1.00  0.00     0.023 A 
ATOM     85  C   UNL A   1      44.034  35.428  28.820  1.00  0.00     0.031 A 
ATOM     86  C   UNL A   1      45.066  34.733  30.885  1.00  0.00     0.131 A 
ATOM     87  C   UNL A   1      44.550  36.717  29.027  1.00  0.00     0.055 A 
ATOM     88  C   UNL A   1      45.520  36.032  31.119  1.00  0.00     0.041 A 
ATOM     89  F   UNL A   1      45.371  33.796  31.796  1.00  0.00    -0.206 F 
ATOM     90  C   UNL A   1      45.277  37.029  30.178  1.00  0.00     0.022 A 
BRANCH  87  91
ATOM     91  S   UNL A   1      44.358  37.954  27.713  1.00  0.00     0.124 S 
ATOM     92  O   UNL A   1      43.020  37.661  27.211  1.00  0.00    -0.237 OA
ATOM     93  O   UNL A   1      44.505  39.208  28.444  1.00  0.00    -0.237 OA
ATOM     94  O   UNL A   1      45.448  37.645  26.790  1.00  0.00    -0.744 OA
ENDBRANCH  87  91
ENDBRANCH  61  84
ENDBRANCH  35  36
ENDBRANCH  27  30
ENDBRANCH  25  26
ENDBRANCH   1  25
TORSDOF 16
ENDMDL
