MODEL 1
REMARK VINA RESULT:     -12.2      0.000      0.000
REMARK SMILES COC(=O)c1cccc(-c2cnc(Cl)cc2C(=O)NCCCNC(=O)c2ccc(-c3c4nc(c(-c5cc(S(=O)(=O)[O-])ccc5F)c5ccc([nH]5)c(-c5cc(S(=O)(=O)[O-])ccc5F)c5nc(c(-c6cc(S(=O)(=O)[O-])ccc6F)c6ccc3[nH]6)C=C5)C=C4)cc2)c1
REMARK SMILES IDX 21 1 20 2 19 3 17 4 18 5 16 7 10 8 11 9 12 10 15 11 13 12
REMARK SMILES IDX 14 13 9 14 5 15 6 16 89 17 7 18 8 19 3 20 4 21 2 22 1 23
REMARK SMILES IDX 22 24 23 25 24 26 25 28 26 29 27 30 88 31 28 32 87 33 29 34
REMARK SMILES IDX 30 35 31 36 81 37 32 38 86 39 80 40 82 41 33 42 85 43 79 44
REMARK SMILES IDX 78 45 34 47 66 48 46 49 65 50 47 51 50 52 64 53 83 54 48 55
REMARK SMILES IDX 49 56 63 58 84 59 51 60 35 61 36 62 44 63 37 64 43 65 45 66
REMARK SMILES IDX 42 67 38 68 39 69 40 70 41 71 67 72 68 73 76 74 69 75 75 76
REMARK SMILES IDX 77 77 74 78 70 79 71 80 72 81 73 82 52 83 53 84 61 85 54 86
REMARK SMILES IDX 60 87 62 88 59 89 55 90 56 91 57 92 58 93
REMARK H PARENT 19 6 23 27 82 46 50 57
REMARK Flexibility Score: inf
ROOT
ATOM      1  C   UNL A   1      31.836  31.395  26.298  1.00  0.00     0.042 C 
ENDROOT
BRANCH   1   2
ATOM      2  C   UNL A   1      32.285  30.024  25.793  1.00  0.00     0.118 C 
BRANCH   2   3
ATOM      3  N   UNL A   1      31.769  28.959  26.635  1.00  0.00    -0.352 N 
ATOM      4  C   UNL A   1      31.760  27.592  26.639  1.00  0.00     0.252 C 
ATOM      5  O   UNL A   1      31.197  27.120  27.626  1.00  0.00    -0.269 OA
ATOM      6  H   UNL A   1      31.295  29.322  27.419  1.00  0.00     0.163 HD
BRANCH   4   7
ATOM      7  C   UNL A   1      32.394  26.693  25.608  1.00  0.00     0.052 A 
ATOM      8  C   UNL A   1      31.691  26.346  24.419  1.00  0.00     0.013 A 
ATOM      9  C   UNL A   1      32.286  25.388  23.588  1.00  0.00     0.122 A 
ATOM     10  N   UNL A   1      33.471  24.787  23.815  1.00  0.00    -0.244 NA
ATOM     11  C   UNL A   1      33.670  26.154  25.793  1.00  0.00     0.055 A 
ATOM     12  C   UNL A   1      34.138  25.205  24.900  1.00  0.00     0.129 A 
ATOM     13  Cl  UNL A   1      35.653  24.441  25.142  1.00  0.00    -0.062 Cl
BRANCH   8  14
ATOM     14  C   UNL A   1      30.412  26.930  23.973  1.00  0.00    -0.015 A 
ATOM     15  C   UNL A   1      29.167  28.746  22.910  1.00  0.00     0.060 A 
ATOM     16  C   UNL A   1      27.964  28.102  23.217  1.00  0.00     0.016 A 
ATOM     17  C   UNL A   1      30.384  28.140  23.255  1.00  0.00     0.024 A 
ATOM     18  C   UNL A   1      27.976  26.869  23.869  1.00  0.00     0.002 A 
ATOM     19  C   UNL A   1      29.190  26.292  24.251  1.00  0.00     0.009 A 
BRANCH  15  20
ATOM     20  C   UNL A   1      29.103  30.093  22.285  1.00  0.00     0.337 C 
ATOM     21  O   UNL A   1      29.381  30.303  21.115  1.00  0.00    -0.246 OA
BRANCH  20  22
ATOM     22  O   UNL A   1      28.729  31.025  23.197  1.00  0.00    -0.465 OA
ATOM     23  C   UNL A   1      28.667  32.359  22.686  1.00  0.00     0.282 C 
ENDBRANCH  20  22
ENDBRANCH  15  20
ENDBRANCH   8  14
ENDBRANCH   4   7
ENDBRANCH   2   3
ENDBRANCH   1   2
BRANCH   1  24
ATOM     24  C   UNL A   1      32.811  32.020  27.303  1.00  0.00     0.118 C 
BRANCH  24  25
ATOM     25  N   UNL A   1      32.598  33.455  27.453  1.00  0.00    -0.352 N 
ATOM     26  C   UNL A   1      33.156  34.348  28.336  1.00  0.00     0.251 C 
ATOM     27  H   UNL A   1      31.952  33.847  26.821  1.00  0.00     0.163 HD
ATOM     28  O   UNL A   1      32.644  35.456  28.476  1.00  0.00    -0.269 OA
BRANCH  26  29
ATOM     29  C   UNL A   1      34.352  33.977  29.121  1.00  0.00     0.039 A 
ATOM     30  C   UNL A   1      34.193  33.230  30.292  1.00  0.00     0.014 A 
ATOM     31  C   UNL A   1      35.625  34.383  28.716  1.00  0.00     0.014 A 
ATOM     32  C   UNL A   1      35.320  32.813  31.006  1.00  0.00     0.010 A 
ATOM     33  C   UNL A   1      36.749  33.917  29.394  1.00  0.00     0.010 A 
ATOM     34  C   UNL A   1      36.609  33.109  30.532  1.00  0.00    -0.014 A 
BRANCH  34  35
ATOM     35  C   UNL A   1      37.825  32.541  31.174  1.00  0.00     0.031 A 
ATOM     36  C   UNL A   1      38.512  31.347  30.574  1.00  0.00     0.074 A 
ATOM     37  C   UNL A   1      38.249  33.052  32.348  1.00  0.00     0.049 A 
ATOM     38  N   UNL A   1      39.480  30.618  31.067  1.00  0.00    -0.248 NA
ATOM     39  C   UNL A   1      38.035  30.902  29.256  1.00  0.00     0.031 C 
ATOM     40  C   UNL A   1      37.652  34.202  33.034  1.00  0.00     0.029 A 
ATOM     41  N   UNL A   1      39.265  32.663  33.185  1.00  0.00    -0.354 N 
ATOM     42  C   UNL A   1      39.731  29.630  30.121  1.00  0.00     0.074 A 
ATOM     43  C   UNL A   1      38.775  29.822  29.051  1.00  0.00     0.031 C 
ATOM     44  C   UNL A   1      38.315  34.426  34.179  1.00  0.00     0.029 A 
ATOM     45  C   UNL A   1      39.343  33.403  34.345  1.00  0.00     0.049 A 
ATOM     46  H   UNL A   1      39.880  31.923  32.978  1.00  0.00     0.167 HD
ATOM     47  C   UNL A   1      40.685  28.667  30.136  1.00  0.00     0.034 A 
ATOM     48  C   UNL A   1      40.126  33.254  35.431  1.00  0.00     0.034 A 
ATOM     49  C   UNL A   1      41.631  28.487  31.211  1.00  0.00     0.049 A 
ATOM     50  C   UNL A   1      41.119  32.117  35.459  1.00  0.00     0.074 A 
ATOM     51  C   UNL A   1      42.656  27.563  31.310  1.00  0.00     0.029 A 
ATOM     52  N   UNL A   1      41.665  29.243  32.375  1.00  0.00    -0.354 N 
ATOM     53  N   UNL A   1      41.365  31.214  34.538  1.00  0.00    -0.248 NA
ATOM     54  C   UNL A   1      41.938  31.978  36.671  1.00  0.00     0.031 C 
ATOM     55  C   UNL A   1      43.267  27.716  32.559  1.00  0.00     0.029 A 
ATOM     56  C   UNL A   1      42.669  28.782  33.210  1.00  0.00     0.049 A 
ATOM     57  H   UNL A   1      41.064  29.996  32.577  1.00  0.00     0.167 HD
ATOM     58  C   UNL A   1      42.386  30.420  35.052  1.00  0.00     0.074 A 
ATOM     59  C   UNL A   1      42.725  30.963  36.349  1.00  0.00     0.031 C 
ATOM     60  C   UNL A   1      42.990  29.335  34.503  1.00  0.00     0.034 A 
BRANCH  47  61
ATOM     61  C   UNL A   1      40.750  27.725  28.960  1.00  0.00     0.023 A 
ATOM     62  C   UNL A   1      41.682  27.912  27.925  1.00  0.00     0.031 A 
ATOM     63  C   UNL A   1      39.887  26.618  28.880  1.00  0.00     0.131 A 
ATOM     64  C   UNL A   1      41.697  27.034  26.831  1.00  0.00     0.055 A 
ATOM     65  C   UNL A   1      39.954  25.708  27.823  1.00  0.00     0.041 A 
ATOM     66  F   UNL A   1      38.963  26.401  29.830  1.00  0.00    -0.206 F 
ATOM     67  C   UNL A   1      40.857  25.918  26.785  1.00  0.00     0.022 A 
BRANCH  64  68
ATOM     68  S   UNL A   1      42.763  27.430  25.419  1.00  0.00     0.124 S 
ATOM     69  O   UNL A   1      42.708  26.187  24.652  1.00  0.00    -0.237 OA
ATOM     70  O   UNL A   1      42.089  28.577  24.823  1.00  0.00    -0.237 OA
ATOM     71  O   UNL A   1      44.056  27.717  26.036  1.00  0.00    -0.744 OA
ENDBRANCH  64  68
ENDBRANCH  47  61
BRANCH  48  72
ATOM     72  C   UNL A   1      39.986  34.160  36.610  1.00  0.00     0.023 A 
ATOM     73  C   UNL A   1      40.955  35.137  36.884  1.00  0.00     0.031 A 
ATOM     74  C   UNL A   1      38.933  34.005  37.530  1.00  0.00     0.131 A 
ATOM     75  C   UNL A   1      40.897  35.867  38.081  1.00  0.00     0.055 A 
ATOM     76  C   UNL A   1      38.838  34.783  38.685  1.00  0.00     0.041 A 
ATOM     77  F   UNL A   1      37.977  33.084  37.322  1.00  0.00    -0.206 F 
ATOM     78  C   UNL A   1      39.837  35.708  38.977  1.00  0.00     0.022 A 
BRANCH  75  79
ATOM     79  S   UNL A   1      42.303  36.926  38.517  1.00  0.00     0.124 S 
ATOM     80  O   UNL A   1      43.072  36.050  39.393  1.00  0.00    -0.237 OA
ATOM     81  O   UNL A   1      42.888  37.202  37.210  1.00  0.00    -0.237 OA
ATOM     82  O   UNL A   1      41.675  38.071  39.173  1.00  0.00    -0.744 OA
ENDBRANCH  75  79
ENDBRANCH  48  72
BRANCH  60  83
ATOM     83  C   UNL A   1      44.099  28.693  35.297  1.00  0.00     0.023 A 
ATOM     84  C   UNL A   1      43.852  27.620  36.169  1.00  0.00     0.031 A 
ATOM     85  C   UNL A   1      45.421  29.159  35.176  1.00  0.00     0.131 A 
ATOM     86  C   UNL A   1      44.904  27.075  36.921  1.00  0.00     0.055 A 
ATOM     87  C   UNL A   1      46.472  28.576  35.883  1.00  0.00     0.041 A 
ATOM     88  F   UNL A   1      45.711  30.184  34.357  1.00  0.00    -0.206 F 
ATOM     89  C   UNL A   1      46.214  27.534  36.770  1.00  0.00     0.022 A 
BRANCH  86  90
ATOM     90  S   UNL A   1      44.523  25.797  38.150  1.00  0.00     0.124 S 
ATOM     91  O   UNL A   1      44.164  26.595  39.317  1.00  0.00    -0.237 OA
ATOM     92  O   UNL A   1      43.428  25.068  37.516  1.00  0.00    -0.237 OA
ATOM     93  O   UNL A   1      45.775  25.052  38.269  1.00  0.00    -0.744 OA
ENDBRANCH  86  90
ENDBRANCH  60  83
ENDBRANCH  34  35
ENDBRANCH  26  29
ENDBRANCH  24  25
ENDBRANCH   1  24
TORSDOF 16
ENDMDL
MODEL 2
REMARK VINA RESULT:     -12.2      6.246     11.188
REMARK SMILES COC(=O)c1cccc(-c2cnc(Cl)cc2C(=O)NCCCNC(=O)c2ccc(-c3c4nc(c(-c5cc(S(=O)(=O)[O-])ccc5F)c5ccc([nH]5)c(-c5cc(S(=O)(=O)[O-])ccc5F)c5nc(c(-c6cc(S(=O)(=O)[O-])ccc6F)c6ccc3[nH]6)C=C5)C=C4)cc2)c1
REMARK SMILES IDX 21 1 20 2 19 3 17 4 18 5 16 7 10 8 11 9 12 10 15 11 13 12
REMARK SMILES IDX 14 13 9 14 5 15 6 16 89 17 7 18 8 19 3 20 4 21 2 22 1 23
REMARK SMILES IDX 22 24 23 25 24 26 25 28 26 29 27 30 88 31 28 32 87 33 29 34
REMARK SMILES IDX 30 35 31 36 81 37 32 38 86 39 80 40 82 41 33 42 85 43 79 44
REMARK SMILES IDX 78 45 34 47 66 48 46 49 65 50 47 51 50 52 64 53 83 54 48 55
REMARK SMILES IDX 49 56 63 58 84 59 51 60 35 61 36 62 44 63 37 64 43 65 45 66
REMARK SMILES IDX 42 67 38 68 39 69 40 70 41 71 67 72 68 73 76 74 69 75 75 76
REMARK SMILES IDX 77 77 74 78 70 79 71 80 72 81 73 82 52 83 53 84 61 85 54 86
REMARK SMILES IDX 60 87 62 88 59 89 55 90 56 91 57 92 58 93
REMARK H PARENT 19 6 23 27 82 46 50 57
REMARK Flexibility Score: inf
ROOT
ATOM      1  C   UNL A   1      37.902  20.394  24.978  1.00  0.00     0.042 C 
ENDROOT
BRANCH   1   2
ATOM      2  C   UNL A   1      36.979  21.594  24.773  1.00  0.00     0.118 C 
BRANCH   2   3
ATOM      3  N   UNL A   1      35.887  21.585  25.731  1.00  0.00    -0.352 N 
ATOM      4  C   UNL A   1      34.632  21.050  25.824  1.00  0.00     0.252 C 
ATOM      5  O   UNL A   1      34.079  21.311  26.893  1.00  0.00    -0.269 OA
ATOM      6  H   UNL A   1      36.113  22.110  26.534  1.00  0.00     0.163 HD
BRANCH   4   7
ATOM      7  C   UNL A   1      33.954  20.182  24.796  1.00  0.00     0.052 A 
ATOM      8  C   UNL A   1      32.868  20.686  24.026  1.00  0.00     0.013 A 
ATOM      9  C   UNL A   1      32.195  19.771  23.203  1.00  0.00     0.122 A 
ATOM     10  N   UNL A   1      32.506  18.467  23.072  1.00  0.00    -0.244 NA
ATOM     11  C   UNL A   1      34.347  18.857  24.581  1.00  0.00     0.055 A 
ATOM     12  C   UNL A   1      33.588  18.055  23.748  1.00  0.00     0.129 A 
ATOM     13  Cl  UNL A   1      33.971  16.397  23.535  1.00  0.00    -0.062 Cl
BRANCH   8  14
ATOM     14  C   UNL A   1      32.411  22.088  23.994  1.00  0.00    -0.015 A 
ATOM     15  C   UNL A   1      32.582  24.353  23.091  1.00  0.00     0.060 A 
ATOM     16  C   UNL A   1      31.621  24.792  24.007  1.00  0.00     0.016 A 
ATOM     17  C   UNL A   1      32.945  22.999  23.064  1.00  0.00     0.024 A 
ATOM     18  C   UNL A   1      31.032  23.888  24.892  1.00  0.00     0.002 A 
ATOM     19  C   UNL A   1      31.430  22.549  24.891  1.00  0.00     0.009 A 
BRANCH  15  20
ATOM     20  C   UNL A   1      33.238  25.366  22.222  1.00  0.00     0.337 C 
ATOM     21  O   UNL A   1      33.344  25.242  21.012  1.00  0.00    -0.246 OA
BRANCH  20  22
ATOM     22  O   UNL A   1      33.709  26.399  22.964  1.00  0.00    -0.465 OA
ATOM     23  C   UNL A   1      33.712  27.658  22.288  1.00  0.00     0.282 C 
ENDBRANCH  20  22
ENDBRANCH  15  20
ENDBRANCH   8  14
ENDBRANCH   4   7
ENDBRANCH   2   3
ENDBRANCH   1   2
BRANCH   1  24
ATOM     24  C   UNL A   1      39.037  20.664  25.973  1.00  0.00     0.118 C 
BRANCH  24  25
ATOM     25  N   UNL A   1      39.997  19.566  26.022  1.00  0.00    -0.352 N 
ATOM     26  C   UNL A   1      41.369  19.589  26.090  1.00  0.00     0.251 C 
ATOM     27  H   UNL A   1      39.598  18.666  26.003  1.00  0.00     0.163 HD
ATOM     28  O   UNL A   1      42.001  18.564  25.849  1.00  0.00    -0.269 OA
BRANCH  26  29
ATOM     29  C   UNL A   1      42.080  20.837  26.438  1.00  0.00     0.039 A 
ATOM     30  C   UNL A   1      42.504  21.688  25.413  1.00  0.00     0.014 A 
ATOM     31  C   UNL A   1      42.350  21.157  27.771  1.00  0.00     0.014 A 
ATOM     32  C   UNL A   1      43.115  22.904  25.731  1.00  0.00     0.010 A 
ATOM     33  C   UNL A   1      42.904  22.394  28.088  1.00  0.00     0.010 A 
ATOM     34  C   UNL A   1      43.272  23.290  27.072  1.00  0.00    -0.014 A 
BRANCH  34  35
ATOM     35  C   UNL A   1      43.765  24.644  27.442  1.00  0.00     0.031 A 
ATOM     36  C   UNL A   1      42.799  25.711  27.877  1.00  0.00     0.074 A 
ATOM     37  C   UNL A   1      45.074  24.931  27.294  1.00  0.00     0.049 A 
ATOM     38  N   UNL A   1      43.015  26.984  28.084  1.00  0.00    -0.248 NA
ATOM     39  C   UNL A   1      41.405  25.294  28.087  1.00  0.00     0.031 C 
ATOM     40  C   UNL A   1      46.105  23.980  26.864  1.00  0.00     0.029 A 
ATOM     41  N   UNL A   1      45.765  26.104  27.466  1.00  0.00    -0.354 N 
ATOM     42  C   UNL A   1      41.786  27.523  28.452  1.00  0.00     0.074 A 
ATOM     43  C   UNL A   1      40.820  26.446  28.384  1.00  0.00     0.031 C 
ATOM     44  C   UNL A   1      47.290  24.606  26.813  1.00  0.00     0.029 A 
ATOM     45  C   UNL A   1      47.101  26.015  27.144  1.00  0.00     0.049 A 
ATOM     46  H   UNL A   1      45.344  26.935  27.789  1.00  0.00     0.167 HD
ATOM     47  C   UNL A   1      41.499  28.792  28.830  1.00  0.00     0.034 A 
ATOM     48  C   UNL A   1      48.057  26.964  27.086  1.00  0.00     0.034 A 
ATOM     49  C   UNL A   1      42.472  29.855  28.891  1.00  0.00     0.049 A 
ATOM     50  C   UNL A   1      47.686  28.387  27.426  1.00  0.00     0.074 A 
ATOM     51  C   UNL A   1      42.291  31.167  29.291  1.00  0.00     0.029 A 
ATOM     52  N   UNL A   1      43.810  29.729  28.539  1.00  0.00    -0.354 N 
ATOM     53  N   UNL A   1      46.526  28.870  27.805  1.00  0.00    -0.248 NA
ATOM     54  C   UNL A   1      48.752  29.394  27.330  1.00  0.00     0.031 C 
ATOM     55  C   UNL A   1      43.499  31.851  29.118  1.00  0.00     0.029 A 
ATOM     56  C   UNL A   1      44.452  30.949  28.678  1.00  0.00     0.049 A 
ATOM     57  H   UNL A   1      44.237  28.897  28.234  1.00  0.00     0.167 HD
ATOM     58  C   UNL A   1      46.733  30.229  28.019  1.00  0.00     0.074 A 
ATOM     59  C   UNL A   1      48.132  30.486  27.750  1.00  0.00     0.031 C 
ATOM     60  C   UNL A   1      45.849  31.185  28.401  1.00  0.00     0.034 A 
BRANCH  47  61
ATOM     61  C   UNL A   1      40.070  29.106  29.199  1.00  0.00     0.023 A 
ATOM     62  C   UNL A   1      39.655  29.148  30.541  1.00  0.00     0.031 A 
ATOM     63  C   UNL A   1      39.118  29.388  28.203  1.00  0.00     0.131 A 
ATOM     64  C   UNL A   1      38.313  29.416  30.849  1.00  0.00     0.055 A 
ATOM     65  C   UNL A   1      37.800  29.722  28.520  1.00  0.00     0.041 A 
ATOM     66  F   UNL A   1      39.454  29.344  26.904  1.00  0.00    -0.206 F 
ATOM     67  C   UNL A   1      37.388  29.729  29.850  1.00  0.00     0.022 A 
BRANCH  64  68
ATOM     68  S   UNL A   1      37.771  29.250  32.571  1.00  0.00     0.124 S 
ATOM     69  O   UNL A   1      38.824  29.974  33.281  1.00  0.00    -0.237 OA
ATOM     70  O   UNL A   1      36.459  29.887  32.554  1.00  0.00    -0.237 OA
ATOM     71  O   UNL A   1      37.761  27.805  32.790  1.00  0.00    -0.744 OA
ENDBRANCH  64  68
ENDBRANCH  47  61
BRANCH  48  72
ATOM     72  C   UNL A   1      49.444  26.631  26.646  1.00  0.00     0.023 A 
ATOM     73  C   UNL A   1      50.494  26.558  27.574  1.00  0.00     0.031 A 
ATOM     74  C   UNL A   1      49.761  26.473  25.284  1.00  0.00     0.131 A 
ATOM     75  C   UNL A   1      51.816  26.409  27.128  1.00  0.00     0.055 A 
ATOM     76  C   UNL A   1      51.069  26.253  24.849  1.00  0.00     0.041 A 
ATOM     77  F   UNL A   1      48.798  26.536  24.349  1.00  0.00    -0.206 F 
ATOM     78  C   UNL A   1      52.110  26.241  25.773  1.00  0.00     0.022 A 
BRANCH  75  79
ATOM     79  S   UNL A   1      53.160  26.581  28.335  1.00  0.00     0.124 S 
ATOM     80  O   UNL A   1      53.504  27.991  28.194  1.00  0.00    -0.237 OA
ATOM     81  O   UNL A   1      52.498  26.202  29.578  1.00  0.00    -0.237 OA
ATOM     82  O   UNL A   1      54.170  25.641  27.854  1.00  0.00    -0.744 OA
ENDBRANCH  75  79
ENDBRANCH  48  72
BRANCH  60  83
ATOM     83  C   UNL A   1      46.383  32.583  28.580  1.00  0.00     0.023 A 
ATOM     84  C   UNL A   1      46.542  33.453  27.488  1.00  0.00     0.031 A 
ATOM     85  C   UNL A   1      46.734  33.051  29.858  1.00  0.00     0.131 A 
ATOM     86  C   UNL A   1      47.080  34.733  27.689  1.00  0.00     0.055 A 
ATOM     87  C   UNL A   1      47.214  34.344  30.060  1.00  0.00     0.041 A 
ATOM     88  F   UNL A   1      46.603  32.258  30.935  1.00  0.00    -0.206 F 
ATOM     89  C   UNL A   1      47.400  35.191  28.970  1.00  0.00     0.022 A 
BRANCH  86  90
ATOM     90  S   UNL A   1      47.417  35.772  26.241  1.00  0.00     0.124 S 
ATOM     91  O   UNL A   1      48.857  35.981  26.345  1.00  0.00    -0.237 OA
ATOM     92  O   UNL A   1      46.974  34.926  25.137  1.00  0.00    -0.237 OA
ATOM     93  O   UNL A   1      46.599  36.961  26.474  1.00  0.00    -0.744 OA
ENDBRANCH  86  90
ENDBRANCH  60  83
ENDBRANCH  34  35
ENDBRANCH  26  29
ENDBRANCH  24  25
ENDBRANCH   1  24
TORSDOF 16
ENDMDL
MODEL 3
REMARK VINA RESULT:     -12.1      1.918      2.418
REMARK SMILES COC(=O)c1cccc(-c2cnc(Cl)cc2C(=O)NCCCNC(=O)c2ccc(-c3c4nc(c(-c5cc(S(=O)(=O)[O-])ccc5F)c5ccc([nH]5)c(-c5cc(S(=O)(=O)[O-])ccc5F)c5nc(c(-c6cc(S(=O)(=O)[O-])ccc6F)c6ccc3[nH]6)C=C5)C=C4)cc2)c1
REMARK SMILES IDX 21 1 20 2 19 3 17 4 18 5 16 7 10 8 11 9 12 10 15 11 13 12
REMARK SMILES IDX 14 13 9 14 5 15 6 16 89 17 7 18 8 19 3 20 4 21 2 22 1 23
REMARK SMILES IDX 22 24 23 25 24 26 25 28 26 29 27 30 88 31 28 32 87 33 29 34
REMARK SMILES IDX 30 35 31 36 81 37 32 38 86 39 80 40 82 41 33 42 85 43 79 44
REMARK SMILES IDX 78 45 34 47 66 48 46 49 65 50 47 51 50 52 64 53 83 54 48 55
REMARK SMILES IDX 49 56 63 58 84 59 51 60 35 61 36 62 44 63 37 64 43 65 45 66
REMARK SMILES IDX 42 67 38 68 39 69 40 70 41 71 67 72 68 73 76 74 69 75 75 76
REMARK SMILES IDX 77 77 74 78 70 79 71 80 72 81 73 82 52 83 53 84 61 85 54 86
REMARK SMILES IDX 60 87 62 88 59 89 55 90 56 91 57 92 58 93
REMARK H PARENT 19 6 23 27 82 46 50 57
REMARK Flexibility Score: inf
ROOT
ATOM      1  C   UNL A   1      31.614  29.417  27.171  1.00  0.00     0.042 C 
ENDROOT
BRANCH   1   2
ATOM      2  C   UNL A   1      32.190  28.005  27.266  1.00  0.00     0.118 C 
BRANCH   2   3
ATOM      3  N   UNL A   1      31.156  27.002  27.079  1.00  0.00    -0.352 N 
ATOM      4  C   UNL A   1      30.789  26.101  26.119  1.00  0.00     0.252 C 
ATOM      5  O   UNL A   1      29.818  25.421  26.449  1.00  0.00    -0.269 OA
ATOM      6  H   UNL A   1      30.555  26.960  27.859  1.00  0.00     0.163 HD
BRANCH   4   7
ATOM      7  C   UNL A   1      31.478  25.874  24.798  1.00  0.00     0.052 A 
ATOM      8  C   UNL A   1      30.861  26.276  23.580  1.00  0.00     0.013 A 
ATOM      9  C   UNL A   1      31.496  25.892  22.391  1.00  0.00     0.122 A 
ATOM     10  N   UNL A   1      32.645  25.192  22.312  1.00  0.00    -0.244 NA
ATOM     11  C   UNL A   1      32.724  25.243  24.722  1.00  0.00     0.055 A 
ATOM     12  C   UNL A   1      33.236  24.909  23.481  1.00  0.00     0.129 A 
ATOM     13  Cl  UNL A   1      34.710  24.044  23.341  1.00  0.00    -0.062 Cl
BRANCH   8  14
ATOM     14  C   UNL A   1      29.635  27.086  23.462  1.00  0.00    -0.015 A 
ATOM     15  C   UNL A   1      28.545  29.230  23.021  1.00  0.00     0.060 A 
ATOM     16  C   UNL A   1      27.306  28.667  23.344  1.00  0.00     0.016 A 
ATOM     17  C   UNL A   1      29.695  28.430  23.045  1.00  0.00     0.024 A 
ATOM     18  C   UNL A   1      27.218  27.320  23.693  1.00  0.00     0.002 A 
ATOM     19  C   UNL A   1      28.374  26.539  23.760  1.00  0.00     0.009 A 
BRANCH  15  20
ATOM     20  C   UNL A   1      28.600  30.687  22.730  1.00  0.00     0.337 C 
ATOM     21  O   UNL A   1      29.084  31.505  23.495  1.00  0.00    -0.246 OA
BRANCH  20  22
ATOM     22  O   UNL A   1      28.020  30.957  21.534  1.00  0.00    -0.465 OA
ATOM     23  C   UNL A   1      28.058  32.336  21.158  1.00  0.00     0.282 C 
ENDBRANCH  20  22
ENDBRANCH  15  20
ENDBRANCH   8  14
ENDBRANCH   4   7
ENDBRANCH   2   3
ENDBRANCH   1   2
BRANCH   1  24
ATOM     24  C   UNL A   1      32.352  30.307  26.163  1.00  0.00     0.118 C 
BRANCH  24  25
ATOM     25  N   UNL A   1      32.197  31.725  26.467  1.00  0.00    -0.352 N 
ATOM     26  C   UNL A   1      32.920  32.537  27.307  1.00  0.00     0.251 C 
ATOM     27  H   UNL A   1      31.458  32.172  25.994  1.00  0.00     0.163 HD
ATOM     28  O   UNL A   1      32.463  33.631  27.627  1.00  0.00    -0.269 OA
BRANCH  26  29
ATOM     29  C   UNL A   1      34.229  32.094  27.832  1.00  0.00     0.039 A 
ATOM     30  C   UNL A   1      35.260  33.029  27.968  1.00  0.00     0.014 A 
ATOM     31  C   UNL A   1      34.447  30.756  28.168  1.00  0.00     0.014 A 
ATOM     32  C   UNL A   1      36.479  32.637  28.528  1.00  0.00     0.010 A 
ATOM     33  C   UNL A   1      35.640  30.381  28.780  1.00  0.00     0.010 A 
ATOM     34  C   UNL A   1      36.660  31.323  28.987  1.00  0.00    -0.014 A 
BRANCH  34  35
ATOM     35  C   UNL A   1      37.881  30.919  29.735  1.00  0.00     0.031 A 
ATOM     36  C   UNL A   1      38.837  29.920  29.144  1.00  0.00     0.074 A 
ATOM     37  C   UNL A   1      38.072  31.386  30.985  1.00  0.00     0.049 A 
ATOM     38  N   UNL A   1      39.861  29.329  29.702  1.00  0.00    -0.248 NA
ATOM     39  C   UNL A   1      38.597  29.522  27.749  1.00  0.00     0.031 C 
ATOM     40  C   UNL A   1      37.204  32.349  31.670  1.00  0.00     0.029 A 
ATOM     41  N   UNL A   1      39.043  31.105  31.914  1.00  0.00    -0.354 N 
ATOM     42  C   UNL A   1      40.392  28.489  28.728  1.00  0.00     0.074 A 
ATOM     43  C   UNL A   1      39.540  28.608  27.563  1.00  0.00     0.031 C 
ATOM     44  C   UNL A   1      37.684  32.579  32.901  1.00  0.00     0.029 A 
ATOM     45  C   UNL A   1      38.856  31.739  33.122  1.00  0.00     0.049 A 
ATOM     46  H   UNL A   1      39.803  30.504  31.734  1.00  0.00     0.167 HD
ATOM     47  C   UNL A   1      41.498  27.708  28.795  1.00  0.00     0.034 A 
ATOM     48  C   UNL A   1      39.529  31.630  34.285  1.00  0.00     0.034 A 
ATOM     49  C   UNL A   1      42.336  27.598  29.964  1.00  0.00     0.049 A 
ATOM     50  C   UNL A   1      40.703  30.685  34.357  1.00  0.00     0.074 A 
ATOM     51  C   UNL A   1      43.496  26.861  30.126  1.00  0.00     0.029 A 
ATOM     52  N   UNL A   1      42.103  28.240  31.173  1.00  0.00    -0.354 N 
ATOM     53  N   UNL A   1      41.210  29.925  33.414  1.00  0.00    -0.248 NA
ATOM     54  C   UNL A   1      41.396  30.580  35.649  1.00  0.00     0.031 C 
ATOM     55  C   UNL A   1      43.927  27.003  31.449  1.00  0.00     0.029 A 
ATOM     56  C   UNL A   1      43.076  27.886  32.094  1.00  0.00     0.049 A 
ATOM     57  H   UNL A   1      41.355  28.856  31.350  1.00  0.00     0.167 HD
ATOM     58  C   UNL A   1      42.297  29.276  33.994  1.00  0.00     0.074 A 
ATOM     59  C   UNL A   1      42.386  29.750  35.359  1.00  0.00     0.031 C 
ATOM     60  C   UNL A   1      43.146  28.367  33.452  1.00  0.00     0.034 A 
BRANCH  47  61
ATOM     61  C   UNL A   1      41.863  26.903  27.573  1.00  0.00     0.023 A 
ATOM     62  C   UNL A   1      41.604  25.524  27.503  1.00  0.00     0.031 A 
ATOM     63  C   UNL A   1      42.457  27.522  26.459  1.00  0.00     0.131 A 
ATOM     64  C   UNL A   1      41.982  24.798  26.363  1.00  0.00     0.055 A 
ATOM     65  C   UNL A   1      42.767  26.807  25.300  1.00  0.00     0.041 A 
ATOM     66  F   UNL A   1      42.745  28.833  26.477  1.00  0.00    -0.206 F 
ATOM     67  C   UNL A   1      42.537  25.435  25.250  1.00  0.00     0.022 A 
BRANCH  64  68
ATOM     68  S   UNL A   1      41.826  22.993  26.396  1.00  0.00     0.124 S 
ATOM     69  O   UNL A   1      42.572  22.656  27.607  1.00  0.00    -0.237 OA
ATOM     70  O   UNL A   1      40.383  22.799  26.461  1.00  0.00    -0.237 OA
ATOM     71  O   UNL A   1      42.457  22.572  25.147  1.00  0.00    -0.744 OA
ENDBRANCH  64  68
ENDBRANCH  47  61
BRANCH  48  72
ATOM     72  C   UNL A   1      39.097  32.388  35.497  1.00  0.00     0.023 A 
ATOM     73  C   UNL A   1      39.526  33.706  35.711  1.00  0.00     0.031 A 
ATOM     74  C   UNL A   1      38.325  31.777  36.503  1.00  0.00     0.131 A 
ATOM     75  C   UNL A   1      39.249  34.345  36.930  1.00  0.00     0.055 A 
ATOM     76  C   UNL A   1      37.990  32.443  37.684  1.00  0.00     0.041 A 
ATOM     77  F   UNL A   1      37.887  30.516  36.355  1.00  0.00    -0.206 F 
ATOM     78  C   UNL A   1      38.471  33.728  37.912  1.00  0.00     0.022 A 
BRANCH  75  79
ATOM     79  S   UNL A   1      40.042  35.941  37.268  1.00  0.00     0.124 S 
ATOM     80  O   UNL A   1      39.351  36.363  38.481  1.00  0.00    -0.237 OA
ATOM     81  O   UNL A   1      41.439  35.556  37.424  1.00  0.00    -0.237 OA
ATOM     82  O   UNL A   1      39.742  36.728  36.073  1.00  0.00    -0.744 OA
ENDBRANCH  75  79
ENDBRANCH  48  72
BRANCH  60  83
ATOM     83  C   UNL A   1      44.259  27.858  34.331  1.00  0.00     0.023 A 
ATOM     84  C   UNL A   1      44.135  26.658  35.052  1.00  0.00     0.031 A 
ATOM     85  C   UNL A   1      45.460  28.580  34.446  1.00  0.00     0.131 A 
ATOM     86  C   UNL A   1      45.177  26.237  35.891  1.00  0.00     0.055 A 
ATOM     87  C   UNL A   1      46.515  28.127  35.237  1.00  0.00     0.041 A 
ATOM     88  F   UNL A   1      45.629  29.734  33.780  1.00  0.00    -0.206 F 
ATOM     89  C   UNL A   1      46.373  26.954  35.974  1.00  0.00     0.022 A 
BRANCH  86  90
ATOM     90  S   UNL A   1      44.923  24.768  36.924  1.00  0.00     0.124 S 
ATOM     91  O   UNL A   1      44.133  25.306  38.027  1.00  0.00    -0.237 OA
ATOM     92  O   UNL A   1      44.220  23.865  36.018  1.00  0.00    -0.237 OA
ATOM     93  O   UNL A   1      46.281  24.357  37.275  1.00  0.00    -0.744 OA
ENDBRANCH  86  90
ENDBRANCH  60  83
ENDBRANCH  34  35
ENDBRANCH  26  29
ENDBRANCH  24  25
ENDBRANCH   1  24
TORSDOF 16
ENDMDL
