MODEL 1
REMARK VINA RESULT:     -12.7      0.000      0.000
REMARK SMILES CN1CCN(C(=O)N2CCC[C@H]2CC(=O)NCCCNC(=O)c2ccc(-c3c4nc(c(-c5cc(S(=O)(=O)[O-])ccc5F)c5ccc([nH]5)c(-c5cc(S(=O)(=O)[O-])ccc5F)c5nc(c(-c6cc(S(=O)(=O)[O-])ccc6F)c6ccc3[nH]6)C=C5)C=C4)cc2)C(C)(C)C1=O
REMARK SMILES IDX 18 1 17 2 16 3 14 4 15 5 13 7 12 8 8 9 9 10 10 11 11 12 6 13
REMARK SMILES IDX 7 14 5 15 1 16 2 17 3 18 89 19 4 20 86 21 90 22 87 23 88 24
REMARK SMILES IDX 19 25 20 26 21 27 22 29 23 30 24 31 85 32 25 33 84 34 26 35
REMARK SMILES IDX 27 36 28 37 78 38 29 39 83 40 77 41 79 42 30 43 82 44 76 45
REMARK SMILES IDX 75 46 31 48 63 49 43 50 62 51 44 52 47 53 61 54 80 55 45 56
REMARK SMILES IDX 46 57 60 59 81 60 48 61 32 62 33 63 41 64 34 65 40 66 42 67
REMARK SMILES IDX 39 68 35 69 36 70 37 71 38 72 64 73 65 74 73 75 66 76 72 77
REMARK SMILES IDX 74 78 71 79 67 80 68 81 69 82 70 83 49 84 50 85 58 86 51 87
REMARK SMILES IDX 57 88 59 89 56 90 52 91 53 92 54 93 55 94
REMARK H PARENT 16 6 20 28 79 47 47 58
REMARK Flexibility Score: inf
ROOT
ATOM      1  C   UNL A   1      34.924  21.738  26.832  1.00  0.00     0.042 C 
ENDROOT
BRANCH   1   2
ATOM      2  C   UNL A   1      33.529  21.316  26.372  1.00  0.00     0.117 C 
BRANCH   2   3
ATOM      3  N   UNL A   1      32.460  22.066  27.008  1.00  0.00    -0.356 N 
ATOM      4  C   UNL A   1      31.958  23.315  26.811  1.00  0.00     0.222 C 
ATOM      5  O   UNL A   1      30.989  23.634  27.507  1.00  0.00    -0.275 OA
ATOM      6  H   UNL A   1      32.007  21.569  27.727  1.00  0.00     0.163 HD
BRANCH   4   7
ATOM      7  C   UNL A   1      32.517  24.265  25.769  1.00  0.00     0.125 C 
BRANCH   7   8
ATOM      8  C   UNL A   1      31.941  24.183  24.340  1.00  0.00     0.096 C 
ATOM      9  N   UNL A   1      32.891  24.376  23.250  1.00  0.00    -0.321 N 
ATOM     10  C   UNL A   1      33.351  23.083  22.791  1.00  0.00     0.122 C 
ATOM     11  C   UNL A   1      32.064  22.273  22.813  1.00  0.00     0.024 C 
ATOM     12  C   UNL A   1      31.293  22.825  24.021  1.00  0.00     0.027 C 
BRANCH   9  13
ATOM     13  C   UNL A   1      33.154  25.625  22.746  1.00  0.00     0.321 C 
ATOM     14  O   UNL A   1      34.086  25.812  21.961  1.00  0.00    -0.248 OA
BRANCH  13  15
ATOM     15  N   UNL A   1      32.308  26.666  23.115  1.00  0.00    -0.309 N 
ATOM     16  C   UNL A   1      29.635  30.035  23.603  1.00  0.00     0.146 C 
ATOM     17  N   UNL A   1      30.582  28.948  23.427  1.00  0.00    -0.342 N 
ATOM     18  C   UNL A   1      30.180  27.841  22.572  1.00  0.00     0.140 C 
ATOM     19  C   UNL A   1      31.673  28.838  24.283  1.00  0.00     0.247 C 
ATOM     20  C   UNL A   1      31.331  26.981  22.073  1.00  0.00     0.144 C 
ATOM     21  C   UNL A   1      32.829  27.885  23.826  1.00  0.00     0.118 C 
ATOM     22  O   UNL A   1      31.824  29.618  25.226  1.00  0.00    -0.272 OA
ATOM     23  C   UNL A   1      33.707  28.730  22.869  1.00  0.00     0.045 C 
ATOM     24  C   UNL A   1      33.705  27.615  25.060  1.00  0.00     0.045 C 
ENDBRANCH  13  15
ENDBRANCH   9  13
ENDBRANCH   7   8
ENDBRANCH   4   7
ENDBRANCH   2   3
ENDBRANCH   1   2
BRANCH   1  25
ATOM     25  C   UNL A   1      35.922  22.103  25.736  1.00  0.00     0.118 C 
BRANCH  25  26
ATOM     26  N   UNL A   1      36.977  21.119  25.630  1.00  0.00    -0.352 N 
ATOM     27  C   UNL A   1      38.337  21.268  25.752  1.00  0.00     0.251 C 
ATOM     28  H   UNL A   1      36.674  20.201  25.443  1.00  0.00     0.163 HD
ATOM     29  O   UNL A   1      39.054  20.366  25.320  1.00  0.00    -0.269 OA
BRANCH  27  30
ATOM     30  C   UNL A   1      38.959  22.466  26.381  1.00  0.00     0.039 A 
ATOM     31  C   UNL A   1      38.448  23.724  26.040  1.00  0.00     0.014 A 
ATOM     32  C   UNL A   1      40.100  22.395  27.189  1.00  0.00     0.014 A 
ATOM     33  C   UNL A   1      39.076  24.893  26.487  1.00  0.00     0.010 A 
ATOM     34  C   UNL A   1      40.690  23.565  27.690  1.00  0.00     0.010 A 
ATOM     35  C   UNL A   1      40.208  24.830  27.315  1.00  0.00    -0.014 A 
BRANCH  35  36
ATOM     36  C   UNL A   1      40.921  26.081  27.711  1.00  0.00     0.031 A 
ATOM     37  C   UNL A   1      42.315  26.359  27.200  1.00  0.00     0.074 A 
ATOM     38  C   UNL A   1      40.315  26.981  28.514  1.00  0.00     0.049 A 
ATOM     39  N   UNL A   1      43.078  27.406  27.396  1.00  0.00    -0.248 NA
ATOM     40  C   UNL A   1      42.942  25.313  26.377  1.00  0.00     0.031 C 
ATOM     41  C   UNL A   1      38.983  26.826  29.103  1.00  0.00     0.029 A 
ATOM     42  N   UNL A   1      40.733  28.210  28.966  1.00  0.00    -0.354 N 
ATOM     43  C   UNL A   1      44.275  27.139  26.736  1.00  0.00     0.074 A 
ATOM     44  C   UNL A   1      44.154  25.810  26.177  1.00  0.00     0.031 C 
ATOM     45  C   UNL A   1      38.683  27.928  29.810  1.00  0.00     0.029 A 
ATOM     46  C   UNL A   1      39.808  28.857  29.755  1.00  0.00     0.049 A 
ATOM     47  H   UNL A   1      41.614  28.592  28.746  1.00  0.00     0.167 HD
ATOM     48  C   UNL A   1      45.366  27.932  26.591  1.00  0.00     0.034 A 
ATOM     49  C   UNL A   1      39.858  30.061  30.361  1.00  0.00     0.034 A 
ATOM     50  C   UNL A   1      45.468  29.271  27.120  1.00  0.00     0.049 A 
ATOM     51  C   UNL A   1      41.085  30.925  30.178  1.00  0.00     0.074 A 
ATOM     52  C   UNL A   1      46.497  30.185  26.961  1.00  0.00     0.029 A 
ATOM     53  N   UNL A   1      44.514  29.888  27.917  1.00  0.00    -0.354 N 
ATOM     54  N   UNL A   1      42.173  30.683  29.485  1.00  0.00    -0.248 NA
ATOM     55  C   UNL A   1      41.077  32.233  30.847  1.00  0.00     0.031 C 
ATOM     56  C   UNL A   1      46.195  31.325  27.714  1.00  0.00     0.029 A 
ATOM     57  C   UNL A   1      44.944  31.155  28.284  1.00  0.00     0.049 A 
ATOM     58  H   UNL A   1      43.656  29.486  28.183  1.00  0.00     0.167 HD
ATOM     59  C   UNL A   1      42.959  31.826  29.605  1.00  0.00     0.074 A 
ATOM     60  C   UNL A   1      42.209  32.763  30.414  1.00  0.00     0.031 C 
ATOM     61  C   UNL A   1      44.192  32.081  29.095  1.00  0.00     0.034 A 
BRANCH  48  62
ATOM     62  C   UNL A   1      46.554  27.366  25.849  1.00  0.00     0.023 A 
ATOM     63  C   UNL A   1      46.898  27.792  24.555  1.00  0.00     0.031 A 
ATOM     64  C   UNL A   1      47.363  26.385  26.455  1.00  0.00     0.131 A 
ATOM     65  C   UNL A   1      47.979  27.200  23.886  1.00  0.00     0.055 A 
ATOM     66  C   UNL A   1      48.481  25.852  25.812  1.00  0.00     0.041 A 
ATOM     67  F   UNL A   1      47.074  25.925  27.683  1.00  0.00    -0.206 F 
ATOM     68  C   UNL A   1      48.789  26.251  24.514  1.00  0.00     0.022 A 
BRANCH  65  69
ATOM     69  S   UNL A   1      48.249  27.605  22.138  1.00  0.00     0.124 S 
ATOM     70  O   UNL A   1      48.465  26.282  21.559  1.00  0.00    -0.237 OA
ATOM     71  O   UNL A   1      47.004  28.269  21.771  1.00  0.00    -0.237 OA
ATOM     72  O   UNL A   1      49.432  28.466  22.164  1.00  0.00    -0.744 OA
ENDBRANCH  65  69
ENDBRANCH  48  62
BRANCH  49  73
ATOM     73  C   UNL A   1      38.725  30.543  31.207  1.00  0.00     0.023 A 
ATOM     74  C   UNL A   1      37.596  31.146  30.628  1.00  0.00     0.031 A 
ATOM     75  C   UNL A   1      38.795  30.491  32.610  1.00  0.00     0.131 A 
ATOM     76  C   UNL A   1      36.618  31.734  31.445  1.00  0.00     0.055 A 
ATOM     77  C   UNL A   1      37.790  31.023  33.419  1.00  0.00     0.041 A 
ATOM     78  F   UNL A   1      39.850  29.924  33.217  1.00  0.00    -0.206 F 
ATOM     79  C   UNL A   1      36.702  31.667  32.838  1.00  0.00     0.022 A 
BRANCH  76  80
ATOM     80  S   UNL A   1      35.295  32.698  30.661  1.00  0.00     0.124 S 
ATOM     81  O   UNL A   1      35.985  33.940  30.335  1.00  0.00    -0.237 OA
ATOM     82  O   UNL A   1      34.934  31.848  29.531  1.00  0.00    -0.237 OA
ATOM     83  O   UNL A   1      34.283  32.802  31.709  1.00  0.00    -0.744 OA
ENDBRANCH  76  80
ENDBRANCH  49  73
BRANCH  61  84
ATOM     84  C   UNL A   1      44.774  33.448  29.365  1.00  0.00     0.023 A 
ATOM     85  C   UNL A   1      44.584  34.521  28.477  1.00  0.00     0.031 A 
ATOM     86  C   UNL A   1      45.565  33.669  30.508  1.00  0.00     0.131 A 
ATOM     87  C   UNL A   1      45.237  35.742  28.704  1.00  0.00     0.055 A 
ATOM     88  C   UNL A   1      46.157  34.907  30.763  1.00  0.00     0.041 A 
ATOM     89  F   UNL A   1      45.782  32.681  31.391  1.00  0.00    -0.206 F 
ATOM     90  C   UNL A   1      46.011  35.946  29.849  1.00  0.00     0.022 A 
BRANCH  87  91
ATOM     91  S   UNL A   1      45.163  37.021  27.419  1.00  0.00     0.124 S 
ATOM     92  O   UNL A   1      45.481  38.229  28.173  1.00  0.00    -0.237 OA
ATOM     93  O   UNL A   1      46.181  36.573  26.475  1.00  0.00    -0.237 OA
ATOM     94  O   UNL A   1      43.787  36.939  26.932  1.00  0.00    -0.744 OA
ENDBRANCH  87  91
ENDBRANCH  61  84
ENDBRANCH  35  36
ENDBRANCH  27  30
ENDBRANCH  25  26
ENDBRANCH   1  25
TORSDOF 16
ENDMDL
MODEL 2
REMARK VINA RESULT:     -12.5      1.774      2.154
REMARK SMILES CN1CCN(C(=O)N2CCC[C@H]2CC(=O)NCCCNC(=O)c2ccc(-c3c4nc(c(-c5cc(S(=O)(=O)[O-])ccc5F)c5ccc([nH]5)c(-c5cc(S(=O)(=O)[O-])ccc5F)c5nc(c(-c6cc(S(=O)(=O)[O-])ccc6F)c6ccc3[nH]6)C=C5)C=C4)cc2)C(C)(C)C1=O
REMARK SMILES IDX 18 1 17 2 16 3 14 4 15 5 13 7 12 8 8 9 9 10 10 11 11 12 6 13
REMARK SMILES IDX 7 14 5 15 1 16 2 17 3 18 89 19 4 20 86 21 90 22 87 23 88 24
REMARK SMILES IDX 19 25 20 26 21 27 22 29 23 30 24 31 85 32 25 33 84 34 26 35
REMARK SMILES IDX 27 36 28 37 78 38 29 39 83 40 77 41 79 42 30 43 82 44 76 45
REMARK SMILES IDX 75 46 31 48 63 49 43 50 62 51 44 52 47 53 61 54 80 55 45 56
REMARK SMILES IDX 46 57 60 59 81 60 48 61 32 62 33 63 41 64 34 65 40 66 42 67
REMARK SMILES IDX 39 68 35 69 36 70 37 71 38 72 64 73 65 74 73 75 66 76 72 77
REMARK SMILES IDX 74 78 71 79 67 80 68 81 69 82 70 83 49 84 50 85 58 86 51 87
REMARK SMILES IDX 57 88 59 89 56 90 52 91 53 92 54 93 55 94
REMARK H PARENT 16 6 20 28 79 47 47 58
REMARK Flexibility Score: inf
ROOT
ATOM      1  C   UNL A   1      35.746  20.205  24.939  1.00  0.00     0.042 C 
ENDROOT
BRANCH   1   2
ATOM      2  C   UNL A   1      34.464  20.950  25.307  1.00  0.00     0.117 C 
BRANCH   2   3
ATOM      3  N   UNL A   1      33.652  21.306  24.156  1.00  0.00    -0.356 N 
ATOM      4  C   UNL A   1      33.655  22.373  23.313  1.00  0.00     0.222 C 
ATOM      5  O   UNL A   1      32.843  22.341  22.383  1.00  0.00    -0.275 OA
ATOM      6  H   UNL A   1      32.960  20.639  23.944  1.00  0.00     0.163 HD
BRANCH   4   7
ATOM      7  C   UNL A   1      34.622  23.532  23.464  1.00  0.00     0.125 C 
BRANCH   7   8
ATOM      8  C   UNL A   1      34.148  24.761  24.267  1.00  0.00     0.096 C 
ATOM      9  N   UNL A   1      32.789  25.221  24.000  1.00  0.00    -0.321 N 
ATOM     10  C   UNL A   1      31.896  24.642  24.979  1.00  0.00     0.122 C 
ATOM     11  C   UNL A   1      32.718  24.758  26.254  1.00  0.00     0.024 C 
ATOM     12  C   UNL A   1      34.165  24.539  25.788  1.00  0.00     0.027 C 
BRANCH   9  13
ATOM     13  C   UNL A   1      32.528  26.141  23.017  1.00  0.00     0.321 C 
ATOM     14  O   UNL A   1      32.942  25.981  21.867  1.00  0.00    -0.248 OA
BRANCH  13  15
ATOM     15  N   UNL A   1      31.741  27.241  23.348  1.00  0.00    -0.309 N 
ATOM     16  C   UNL A   1      29.262  30.769  23.716  1.00  0.00     0.146 C 
ATOM     17  N   UNL A   1      30.146  29.626  23.579  1.00  0.00    -0.342 N 
ATOM     18  C   UNL A   1      29.681  28.513  22.764  1.00  0.00     0.140 C 
ATOM     19  C   UNL A   1      31.232  29.485  24.437  1.00  0.00     0.247 C 
ATOM     20  C   UNL A   1      30.781  27.572  22.296  1.00  0.00     0.144 C 
ATOM     21  C   UNL A   1      32.332  28.453  24.015  1.00  0.00     0.118 C 
ATOM     22  O   UNL A   1      31.429  30.289  25.351  1.00  0.00    -0.272 OA
ATOM     23  C   UNL A   1      33.253  29.214  23.027  1.00  0.00     0.045 C 
ATOM     24  C   UNL A   1      33.195  28.180  25.257  1.00  0.00     0.045 C 
ENDBRANCH  13  15
ENDBRANCH   9  13
ENDBRANCH   7   8
ENDBRANCH   4   7
ENDBRANCH   2   3
ENDBRANCH   1   2
BRANCH   1  25
ATOM     25  C   UNL A   1      37.062  20.926  25.225  1.00  0.00     0.118 C 
BRANCH  25  26
ATOM     26  N   UNL A   1      38.132  19.991  25.489  1.00  0.00    -0.352 N 
ATOM     27  C   UNL A   1      39.426  20.221  25.890  1.00  0.00     0.251 C 
ATOM     28  H   UNL A   1      37.899  19.043  25.363  1.00  0.00     0.163 HD
ATOM     29  O   UNL A   1      40.240  19.310  25.753  1.00  0.00    -0.269 OA
BRANCH  27  30
ATOM     30  C   UNL A   1      39.864  21.518  26.478  1.00  0.00     0.039 A 
ATOM     31  C   UNL A   1      39.412  22.697  25.872  1.00  0.00     0.014 A 
ATOM     32  C   UNL A   1      40.798  21.606  27.516  1.00  0.00     0.014 A 
ATOM     33  C   UNL A   1      39.896  23.943  26.288  1.00  0.00     0.010 A 
ATOM     34  C   UNL A   1      41.234  22.858  27.976  1.00  0.00     0.010 A 
ATOM     35  C   UNL A   1      40.817  24.040  27.342  1.00  0.00    -0.014 A 
BRANCH  35  36
ATOM     36  C   UNL A   1      41.394  25.366  27.717  1.00  0.00     0.031 A 
ATOM     37  C   UNL A   1      42.788  25.744  27.273  1.00  0.00     0.074 A 
ATOM     38  C   UNL A   1      40.666  26.243  28.439  1.00  0.00     0.049 A 
ATOM     39  N   UNL A   1      43.444  26.862  27.460  1.00  0.00    -0.248 NA
ATOM     40  C   UNL A   1      43.552  24.723  26.539  1.00  0.00     0.031 C 
ATOM     41  C   UNL A   1      39.319  25.996  28.958  1.00  0.00     0.029 A 
ATOM     42  N   UNL A   1      40.948  27.523  28.854  1.00  0.00    -0.354 N 
ATOM     43  C   UNL A   1      44.698  26.674  26.883  1.00  0.00     0.074 A 
ATOM     44  C   UNL A   1      44.726  25.316  26.384  1.00  0.00     0.031 C 
ATOM     45  C   UNL A   1      38.882  27.097  29.592  1.00  0.00     0.029 A 
ATOM     46  C   UNL A   1      39.924  28.119  29.556  1.00  0.00     0.049 A 
ATOM     47  H   UNL A   1      41.804  27.972  28.665  1.00  0.00     0.167 HD
ATOM     48  C   UNL A   1      45.723  27.554  26.762  1.00  0.00     0.034 A 
ATOM     49  C   UNL A   1      39.834  29.349  30.104  1.00  0.00     0.034 A 
ATOM     50  C   UNL A   1      45.678  28.919  27.230  1.00  0.00     0.049 A 
ATOM     51  C   UNL A   1      40.990  30.309  29.949  1.00  0.00     0.074 A 
ATOM     52  C   UNL A   1      46.632  29.912  27.085  1.00  0.00     0.029 A 
ATOM     53  N   UNL A   1      44.627  29.483  27.940  1.00  0.00    -0.354 N 
ATOM     54  N   UNL A   1      42.135  30.134  29.331  1.00  0.00    -0.248 NA
ATOM     55  C   UNL A   1      40.829  31.639  30.551  1.00  0.00     0.031 C 
ATOM     56  C   UNL A   1      46.188  31.053  27.762  1.00  0.00     0.029 A 
ATOM     57  C   UNL A   1      44.924  30.798  28.268  1.00  0.00     0.049 A 
ATOM     58  H   UNL A   1      43.792  29.018  28.176  1.00  0.00     0.167 HD
ATOM     59  C   UNL A   1      42.812  31.347  29.440  1.00  0.00     0.074 A 
ATOM     60  C   UNL A   1      41.936  32.248  30.158  1.00  0.00     0.031 C 
ATOM     61  C   UNL A   1      44.047  31.688  28.989  1.00  0.00     0.034 A 
BRANCH  48  62
ATOM     62  C   UNL A   1      46.999  27.063  26.117  1.00  0.00     0.023 A 
ATOM     63  C   UNL A   1      48.014  26.433  26.857  1.00  0.00     0.031 A 
ATOM     64  C   UNL A   1      47.197  27.224  24.733  1.00  0.00     0.131 A 
ATOM     65  C   UNL A   1      49.203  26.041  26.224  1.00  0.00     0.055 A 
ATOM     66  C   UNL A   1      48.352  26.766  24.096  1.00  0.00     0.041 A 
ATOM     67  F   UNL A   1      46.272  27.835  23.977  1.00  0.00    -0.206 F 
ATOM     68  C   UNL A   1      49.369  26.180  24.844  1.00  0.00     0.022 A 
BRANCH  65  69
ATOM     69  S   UNL A   1      50.578  25.446  27.247  1.00  0.00     0.124 S 
ATOM     70  O   UNL A   1      50.717  26.533  28.213  1.00  0.00    -0.237 OA
ATOM     71  O   UNL A   1      50.064  24.187  27.769  1.00  0.00    -0.237 OA
ATOM     72  O   UNL A   1      51.684  25.324  26.296  1.00  0.00    -0.744 OA
ENDBRANCH  65  69
ENDBRANCH  48  62
BRANCH  49  73
ATOM     73  C   UNL A   1      38.613  29.764  30.859  1.00  0.00     0.023 A 
ATOM     74  C   UNL A   1      37.618  30.548  30.252  1.00  0.00     0.031 A 
ATOM     75  C   UNL A   1      38.469  29.462  32.225  1.00  0.00     0.131 A 
ATOM     76  C   UNL A   1      36.562  31.061  31.021  1.00  0.00     0.055 A 
ATOM     77  C   UNL A   1      37.384  29.923  32.972  1.00  0.00     0.041 A 
ATOM     78  F   UNL A   1      39.388  28.714  32.856  1.00  0.00    -0.206 F 
ATOM     79  C   UNL A   1      36.432  30.744  32.374  1.00  0.00     0.022 A 
BRANCH  76  80
ATOM     80  S   UNL A   1      35.426  32.250  30.253  1.00  0.00     0.124 S 
ATOM     81  O   UNL A   1      34.432  32.432  31.303  1.00  0.00    -0.237 OA
ATOM     82  O   UNL A   1      36.307  33.385  29.998  1.00  0.00    -0.237 OA
ATOM     83  O   UNL A   1      34.956  31.549  29.060  1.00  0.00    -0.744 OA
ENDBRANCH  76  80
ENDBRANCH  49  73
BRANCH  61  84
ATOM     84  C   UNL A   1      44.491  33.112  29.224  1.00  0.00     0.023 A 
ATOM     85  C   UNL A   1      44.212  34.136  28.302  1.00  0.00     0.031 A 
ATOM     86  C   UNL A   1      45.240  33.441  30.368  1.00  0.00     0.131 A 
ATOM     87  C   UNL A   1      44.742  35.420  28.499  1.00  0.00     0.055 A 
ATOM     88  C   UNL A   1      45.708  34.736  30.593  1.00  0.00     0.041 A 
ATOM     89  F   UNL A   1      45.539  32.504  31.283  1.00  0.00    -0.206 F 
ATOM     90  C   UNL A   1      45.476  35.730  29.647  1.00  0.00     0.022 A 
BRANCH  87  91
ATOM     91  S   UNL A   1      44.564  36.648  27.176  1.00  0.00     0.124 S 
ATOM     92  O   UNL A   1      44.553  37.901  27.923  1.00  0.00    -0.237 OA
ATOM     93  O   UNL A   1      45.749  36.402  26.362  1.00  0.00    -0.237 OA
ATOM     94  O   UNL A   1      43.294  36.291  26.545  1.00  0.00    -0.744 OA
ENDBRANCH  87  91
ENDBRANCH  61  84
ENDBRANCH  35  36
ENDBRANCH  27  30
ENDBRANCH  25  26
ENDBRANCH   1  25
TORSDOF 16
ENDMDL
MODEL 3
REMARK VINA RESULT:     -12.5      1.215      1.817
REMARK SMILES CN1CCN(C(=O)N2CCC[C@H]2CC(=O)NCCCNC(=O)c2ccc(-c3c4nc(c(-c5cc(S(=O)(=O)[O-])ccc5F)c5ccc([nH]5)c(-c5cc(S(=O)(=O)[O-])ccc5F)c5nc(c(-c6cc(S(=O)(=O)[O-])ccc6F)c6ccc3[nH]6)C=C5)C=C4)cc2)C(C)(C)C1=O
REMARK SMILES IDX 18 1 17 2 16 3 14 4 15 5 13 7 12 8 8 9 9 10 10 11 11 12 6 13
REMARK SMILES IDX 7 14 5 15 1 16 2 17 3 18 89 19 4 20 86 21 90 22 87 23 88 24
REMARK SMILES IDX 19 25 20 26 21 27 22 29 23 30 24 31 85 32 25 33 84 34 26 35
REMARK SMILES IDX 27 36 28 37 78 38 29 39 83 40 77 41 79 42 30 43 82 44 76 45
REMARK SMILES IDX 75 46 31 48 63 49 43 50 62 51 44 52 47 53 61 54 80 55 45 56
REMARK SMILES IDX 46 57 60 59 81 60 48 61 32 62 33 63 41 64 34 65 40 66 42 67
REMARK SMILES IDX 39 68 35 69 36 70 37 71 38 72 64 73 65 74 73 75 66 76 72 77
REMARK SMILES IDX 74 78 71 79 67 80 68 81 69 82 70 83 49 84 50 85 58 86 51 87
REMARK SMILES IDX 57 88 59 89 56 90 52 91 53 92 54 93 55 94
REMARK H PARENT 16 6 20 28 79 47 47 58
REMARK Flexibility Score: inf
ROOT
ATOM      1  C   UNL A   1      36.147  21.202  25.686  1.00  0.00     0.042 C 
ENDROOT
BRANCH   1   2
ATOM      2  C   UNL A   1      35.113  20.320  24.987  1.00  0.00     0.117 C 
BRANCH   2   3
ATOM      3  N   UNL A   1      33.759  20.520  25.475  1.00  0.00    -0.356 N 
ATOM      4  C   UNL A   1      32.653  21.093  24.931  1.00  0.00     0.222 C 
ATOM      5  O   UNL A   1      31.622  21.052  25.610  1.00  0.00    -0.275 OA
ATOM      6  H   UNL A   1      33.614  20.168  26.382  1.00  0.00     0.163 HD
BRANCH   4   7
ATOM      7  C   UNL A   1      32.652  21.720  23.549  1.00  0.00     0.125 C 
BRANCH   7   8
ATOM      8  C   UNL A   1      33.058  23.204  23.434  1.00  0.00     0.096 C 
ATOM      9  N   UNL A   1      32.860  24.021  24.627  1.00  0.00    -0.321 N 
ATOM     10  C   UNL A   1      34.099  24.074  25.372  1.00  0.00     0.122 C 
ATOM     11  C   UNL A   1      35.123  24.231  24.258  1.00  0.00     0.024 C 
ATOM     12  C   UNL A   1      34.546  23.405  23.099  1.00  0.00     0.027 C 
BRANCH   9  13
ATOM     13  C   UNL A   1      31.677  24.676  24.854  1.00  0.00     0.321 C 
ATOM     14  O   UNL A   1      30.639  24.055  25.091  1.00  0.00    -0.248 OA
BRANCH  13  15
ATOM     15  N   UNL A   1      31.694  26.068  24.854  1.00  0.00    -0.309 N 
ATOM     16  C   UNL A   1      31.313  30.349  25.364  1.00  0.00     0.146 C 
ATOM     17  N   UNL A   1      31.380  28.913  25.164  1.00  0.00    -0.342 N 
ATOM     18  C   UNL A   1      31.798  28.097  26.295  1.00  0.00     0.140 C 
ATOM     19  C   UNL A   1      31.349  28.392  23.874  1.00  0.00     0.247 C 
ATOM     20  C   UNL A   1      31.431  26.625  26.180  1.00  0.00     0.144 C 
ATOM     21  C   UNL A   1      31.060  26.859  23.742  1.00  0.00     0.118 C 
ATOM     22  O   UNL A   1      31.318  29.134  22.889  1.00  0.00    -0.272 OA
ATOM     23  C   UNL A   1      29.517  26.723  23.799  1.00  0.00     0.045 C 
ATOM     24  C   UNL A   1      31.458  26.446  22.317  1.00  0.00     0.045 C 
ENDBRANCH  13  15
ENDBRANCH   9  13
ENDBRANCH   7   8
ENDBRANCH   4   7
ENDBRANCH   2   3
ENDBRANCH   1   2
BRANCH   1  25
ATOM     25  C   UNL A   1      37.510  21.325  25.008  1.00  0.00     0.118 C 
BRANCH  25  26
ATOM     26  N   UNL A   1      38.450  20.357  25.527  1.00  0.00    -0.352 N 
ATOM     27  C   UNL A   1      39.665  20.547  26.138  1.00  0.00     0.251 C 
ATOM     28  H   UNL A   1      38.177  19.416  25.428  1.00  0.00     0.163 HD
ATOM     29  O   UNL A   1      40.426  19.584  26.216  1.00  0.00    -0.269 OA
BRANCH  27  30
ATOM     30  C   UNL A   1      40.081  21.862  26.701  1.00  0.00     0.039 A 
ATOM     31  C   UNL A   1      39.543  23.020  26.127  1.00  0.00     0.014 A 
ATOM     32  C   UNL A   1      41.073  21.990  27.681  1.00  0.00     0.014 A 
ATOM     33  C   UNL A   1      39.998  24.286  26.517  1.00  0.00     0.010 A 
ATOM     34  C   UNL A   1      41.482  23.260  28.117  1.00  0.00     0.010 A 
ATOM     35  C   UNL A   1      40.976  24.423  27.513  1.00  0.00    -0.014 A 
BRANCH  35  36
ATOM     36  C   UNL A   1      41.517  25.772  27.855  1.00  0.00     0.031 A 
ATOM     37  C   UNL A   1      42.873  26.202  27.346  1.00  0.00     0.074 A 
ATOM     38  C   UNL A   1      40.788  26.625  28.606  1.00  0.00     0.049 A 
ATOM     39  N   UNL A   1      43.493  27.346  27.498  1.00  0.00    -0.248 NA
ATOM     40  C   UNL A   1      43.642  25.207  26.582  1.00  0.00     0.031 C 
ATOM     41  C   UNL A   1      39.477  26.328  29.187  1.00  0.00     0.029 A 
ATOM     42  N   UNL A   1      41.039  27.917  29.002  1.00  0.00    -0.354 N 
ATOM     43  C   UNL A   1      44.725  27.204  26.866  1.00  0.00     0.074 A 
ATOM     44  C   UNL A   1      44.784  25.845  26.371  1.00  0.00     0.031 C 
ATOM     45  C   UNL A   1      39.027  27.415  29.836  1.00  0.00     0.029 A 
ATOM     46  C   UNL A   1      40.025  28.477  29.748  1.00  0.00     0.049 A 
ATOM     47  H   UNL A   1      41.867  28.398  28.773  1.00  0.00     0.167 HD
ATOM     48  C   UNL A   1      45.709  28.122  26.694  1.00  0.00     0.034 A 
ATOM     49  C   UNL A   1      39.911  29.705  30.295  1.00  0.00     0.034 A 
ATOM     50  C   UNL A   1      45.631  29.487  27.158  1.00  0.00     0.049 A 
ATOM     51  C   UNL A   1      41.021  30.709  30.083  1.00  0.00     0.074 A 
ATOM     52  C   UNL A   1      46.538  30.516  26.965  1.00  0.00     0.029 A 
ATOM     53  N   UNL A   1      44.592  30.013  27.913  1.00  0.00    -0.354 N 
ATOM     54  N   UNL A   1      42.142  30.575  29.414  1.00  0.00    -0.248 NA
ATOM     55  C   UNL A   1      40.835  32.035  30.686  1.00  0.00     0.031 C 
ATOM     56  C   UNL A   1      46.080  31.643  27.657  1.00  0.00     0.029 A 
ATOM     57  C   UNL A   1      44.851  31.341  28.221  1.00  0.00     0.049 A 
ATOM     58  H   UNL A   1      43.788  29.518  28.189  1.00  0.00     0.167 HD
ATOM     59  C   UNL A   1      42.775  31.814  29.487  1.00  0.00     0.074 A 
ATOM     60  C   UNL A   1      41.898  32.685  30.241  1.00  0.00     0.031 C 
ATOM     61  C   UNL A   1      43.974  32.200  28.978  1.00  0.00     0.034 A 
BRANCH  48  62
ATOM     62  C   UNL A   1      46.972  27.678  25.994  1.00  0.00     0.023 A 
ATOM     63  C   UNL A   1      47.195  27.927  24.629  1.00  0.00     0.031 A 
ATOM     64  C   UNL A   1      47.975  26.999  26.711  1.00  0.00     0.131 A 
ATOM     65  C   UNL A   1      48.360  27.450  24.010  1.00  0.00     0.055 A 
ATOM     66  C   UNL A   1      49.165  26.590  26.106  1.00  0.00     0.041 A 
ATOM     67  F   UNL A   1      47.811  26.716  28.013  1.00  0.00    -0.206 F 
ATOM     68  C   UNL A   1      49.359  26.805  24.745  1.00  0.00     0.022 A 
BRANCH  65  69
ATOM     69  S   UNL A   1      48.506  27.584  22.207  1.00  0.00     0.124 S 
ATOM     70  O   UNL A   1      49.668  28.459  22.070  1.00  0.00    -0.237 OA
ATOM     71  O   UNL A   1      48.697  26.198  21.800  1.00  0.00    -0.237 OA
ATOM     72  O   UNL A   1      47.234  28.185  21.804  1.00  0.00    -0.744 OA
ENDBRANCH  65  69
ENDBRANCH  48  62
BRANCH  49  73
ATOM     73  C   UNL A   1      38.711  30.077  31.103  1.00  0.00     0.023 A 
ATOM     74  C   UNL A   1      37.641  30.780  30.527  1.00  0.00     0.031 A 
ATOM     75  C   UNL A   1      38.659  29.816  32.484  1.00  0.00     0.131 A 
ATOM     76  C   UNL A   1      36.599  31.259  31.337  1.00  0.00     0.055 A 
ATOM     77  C   UNL A   1      37.591  30.242  33.275  1.00  0.00     0.041 A 
ATOM     78  F   UNL A   1      39.654  29.146  33.087  1.00  0.00    -0.206 F 
ATOM     79  C   UNL A   1      36.561  30.984  32.706  1.00  0.00     0.022 A 
BRANCH  76  80
ATOM     80  S   UNL A   1      35.355  32.353  30.596  1.00  0.00     0.124 S 
ATOM     81  O   UNL A   1      36.105  33.592  30.437  1.00  0.00    -0.237 OA
ATOM     82  O   UNL A   1      35.024  31.640  29.366  1.00  0.00    -0.237 OA
ATOM     83  O   UNL A   1      34.293  32.388  31.599  1.00  0.00    -0.744 OA
ENDBRANCH  76  80
ENDBRANCH  49  73
BRANCH  61  84
ATOM     84  C   UNL A   1      44.373  33.642  29.187  1.00  0.00     0.023 A 
ATOM     85  C   UNL A   1      43.889  34.670  28.358  1.00  0.00     0.031 A 
ATOM     86  C   UNL A   1      45.281  33.986  30.205  1.00  0.00     0.131 A 
ATOM     87  C   UNL A   1      44.374  35.979  28.511  1.00  0.00     0.055 A 
ATOM     88  C   UNL A   1      45.707  35.302  30.395  1.00  0.00     0.041 A 
ATOM     89  F   UNL A   1      45.776  33.047  31.026  1.00  0.00    -0.206 F 
ATOM     90  C   UNL A   1      45.269  36.303  29.533  1.00  0.00     0.022 A 
BRANCH  87  91
ATOM     91  S   UNL A   1      43.913  37.227  27.277  1.00  0.00     0.124 S 
ATOM     92  O   UNL A   1      42.922  36.513  26.478  1.00  0.00    -0.237 OA
ATOM     93  O   UNL A   1      43.400  38.310  28.109  1.00  0.00    -0.237 OA
ATOM     94  O   UNL A   1      45.172  37.514  26.593  1.00  0.00    -0.744 OA
ENDBRANCH  87  91
ENDBRANCH  61  84
ENDBRANCH  35  36
ENDBRANCH  27  30
ENDBRANCH  25  26
ENDBRANCH   1  25
TORSDOF 16
ENDMDL
