MODEL 1
REMARK VINA RESULT:     -10.8      0.000      0.000
REMARK SMILES CCOc1cccc(OCC)c1-c1ccc([C@@H](C)C(=O)NCCCNC(=O)c2ccc(-c3c4nc(c(-c5cc(S(=O)(=O)[O-])ccc5F)c5ccc([nH]5)c(-c5cc(S(=O)(=O)[O-])ccc5F)c5nc(c(-c6cc(S(=O)(=O)[O-])ccc6F)c6ccc3[nH]6)C=C5)C=C4)cc2)cc1F
REMARK SMILES IDX 22 1 21 2 19 3 20 4 17 6 18 7 16 8 13 9 14 10 92 11 15 12
REMARK SMILES IDX 91 13 93 14 12 15 4 16 5 17 6 18 8 19 7 20 3 21 2 22 1 23
REMARK SMILES IDX 9 24 10 25 11 26 23 27 24 28 25 29 26 30 27 32 28 33 29 34
REMARK SMILES IDX 90 35 30 36 89 37 31 38 32 39 33 40 83 41 34 42 88 43 82 44
REMARK SMILES IDX 84 45 35 46 87 47 81 48 80 49 36 51 68 52 48 53 67 54 49 55
REMARK SMILES IDX 52 56 66 57 85 58 50 59 51 60 65 62 86 63 53 64 37 65 38 66
REMARK SMILES IDX 46 67 39 68 45 69 47 70 44 71 40 72 41 73 42 74 43 75 69 76
REMARK SMILES IDX 70 77 78 78 71 79 77 80 79 81 76 82 72 83 73 84 74 85 75 86
REMARK SMILES IDX 54 87 55 88 63 89 56 90 62 91 64 92 61 93 57 94 58 95 59 96
REMARK SMILES IDX 60 97
REMARK H PARENT 21 5 25 31 84 50 52 61
REMARK Flexibility Score: inf
ROOT
ATOM      1  C   UNL A   1      35.414  22.902  23.514  1.00  0.00     0.117 C 
ENDROOT
BRANCH   1   2
ATOM      2  N   UNL A   1      34.386  22.030  24.075  1.00  0.00    -0.356 N 
ATOM      3  C   UNL A   1      33.726  21.959  25.266  1.00  0.00     0.227 C 
ATOM      4  O   UNL A   1      32.914  21.025  25.357  1.00  0.00    -0.274 OA
ATOM      5  H   UNL A   1      34.104  21.328  23.445  1.00  0.00     0.163 HD
BRANCH   3   6
ATOM      6  C   UNL A   1      33.899  22.916  26.470  1.00  0.00     0.105 C 
ATOM      7  C   UNL A   1      33.445  22.347  27.810  1.00  0.00     0.023 C 
BRANCH   6   8
ATOM      8  C   UNL A   1      33.394  24.326  26.221  1.00  0.00    -0.033 A 
ATOM      9  C   UNL A   1      32.269  26.881  25.660  1.00  0.00     0.025 A 
ATOM     10  C   UNL A   1      31.517  25.858  26.229  1.00  0.00     0.012 A 
ATOM     11  C   UNL A   1      33.604  26.593  25.350  1.00  0.00     0.131 A 
ATOM     12  C   UNL A   1      32.111  24.670  26.614  1.00  0.00     0.005 A 
ATOM     13  C   UNL A   1      34.154  25.320  25.591  1.00  0.00     0.044 A 
ATOM     14  F   UNL A   1      34.387  27.527  24.786  1.00  0.00    -0.206 F 
BRANCH   9  15
ATOM     15  C   UNL A   1      31.571  28.136  25.359  1.00  0.00     0.069 A 
ATOM     16  C   UNL A   1      31.889  29.264  26.163  1.00  0.00     0.130 A 
ATOM     17  C   UNL A   1      31.425  30.547  25.866  1.00  0.00     0.047 A 
ATOM     18  C   UNL A   1      30.642  30.744  24.739  1.00  0.00     0.008 A 
ATOM     19  C   UNL A   1      30.745  28.349  24.228  1.00  0.00     0.130 A 
ATOM     20  C   UNL A   1      30.296  29.653  23.945  1.00  0.00     0.047 A 
BRANCH  16  21
ATOM     21  O   UNL A   1      32.628  29.085  27.309  1.00  0.00    -0.493 OA
BRANCH  21  22
ATOM     22  C   UNL A   1      33.613  30.105  27.511  1.00  0.00     0.226 C 
ATOM     23  C   UNL A   1      34.991  29.490  27.323  1.00  0.00     0.049 C 
ENDBRANCH  21  22
ENDBRANCH  16  21
BRANCH  19  24
ATOM     24  O   UNL A   1      30.230  27.474  23.307  1.00  0.00    -0.493 OA
BRANCH  24  25
ATOM     25  C   UNL A   1      30.793  27.204  22.034  1.00  0.00     0.226 C 
ATOM     26  C   UNL A   1      31.974  26.246  22.147  1.00  0.00     0.049 C 
ENDBRANCH  24  25
ENDBRANCH  19  24
ENDBRANCH   9  15
ENDBRANCH   6   8
ENDBRANCH   3   6
ENDBRANCH   1   2
BRANCH   1  27
ATOM     27  C   UNL A   1      36.836  22.459  23.896  1.00  0.00     0.042 C 
BRANCH  27  28
ATOM     28  C   UNL A   1      37.280  22.797  25.311  1.00  0.00     0.118 C 
BRANCH  28  29
ATOM     29  N   UNL A   1      38.379  21.961  25.760  1.00  0.00    -0.352 N 
ATOM     30  C   UNL A   1      39.598  22.284  26.309  1.00  0.00     0.251 C 
ATOM     31  H   UNL A   1      38.225  20.995  25.654  1.00  0.00     0.163 HD
ATOM     32  O   UNL A   1      40.440  21.391  26.405  1.00  0.00    -0.269 OA
BRANCH  30  33
ATOM     33  C   UNL A   1      39.935  23.662  26.759  1.00  0.00     0.039 A 
ATOM     34  C   UNL A   1      40.064  23.898  28.135  1.00  0.00     0.014 A 
ATOM     35  C   UNL A   1      40.056  24.735  25.873  1.00  0.00     0.014 A 
ATOM     36  C   UNL A   1      40.373  25.180  28.608  1.00  0.00     0.010 A 
ATOM     37  C   UNL A   1      40.443  25.996  26.339  1.00  0.00     0.010 A 
ATOM     38  C   UNL A   1      40.606  26.234  27.713  1.00  0.00    -0.014 A 
BRANCH  38  39
ATOM     39  C   UNL A   1      41.020  27.584  28.192  1.00  0.00     0.031 A 
ATOM     40  C   UNL A   1      42.479  27.931  28.334  1.00  0.00     0.074 A 
ATOM     41  C   UNL A   1      40.080  28.479  28.557  1.00  0.00     0.049 A 
ATOM     42  N   UNL A   1      43.031  29.012  28.826  1.00  0.00    -0.248 NA
ATOM     43  C   UNL A   1      43.445  26.916  27.888  1.00  0.00     0.031 C 
ATOM     44  C   UNL A   1      38.634  28.258  28.490  1.00  0.00     0.029 A 
ATOM     45  N   UNL A   1      40.195  29.749  29.069  1.00  0.00    -0.354 N 
ATOM     46  C   UNL A   1      44.405  28.805  28.760  1.00  0.00     0.074 A 
ATOM     47  C   UNL A   1      44.598  27.470  28.230  1.00  0.00     0.031 C 
ATOM     48  C   UNL A   1      37.999  29.357  28.926  1.00  0.00     0.029 A 
ATOM     49  C   UNL A   1      38.986  30.342  29.355  1.00  0.00     0.049 A 
ATOM     50  H   UNL A   1      41.061  30.193  29.217  1.00  0.00     0.167 HD
ATOM     51  C   UNL A   1      45.411  29.653  29.094  1.00  0.00     0.034 A 
ATOM     52  C   UNL A   1      38.702  31.534  29.919  1.00  0.00     0.034 A 
ATOM     53  C   UNL A   1      45.205  30.984  29.613  1.00  0.00     0.049 A 
ATOM     54  C   UNL A   1      39.837  32.441  30.321  1.00  0.00     0.074 A 
ATOM     55  C   UNL A   1      46.152  31.943  29.929  1.00  0.00     0.029 A 
ATOM     56  N   UNL A   1      43.966  31.544  29.902  1.00  0.00    -0.354 N 
ATOM     57  N   UNL A   1      41.130  32.243  30.212  1.00  0.00    -0.248 NA
ATOM     58  C   UNL A   1      39.473  33.734  30.916  1.00  0.00     0.031 C 
ATOM     59  C   UNL A   1      45.493  33.051  30.473  1.00  0.00     0.029 A 
ATOM     60  C   UNL A   1      44.128  32.817  30.427  1.00  0.00     0.049 A 
ATOM     61  H   UNL A   1      43.099  31.101  29.755  1.00  0.00     0.167 HD
ATOM     62  C   UNL A   1      41.733  33.398  30.704  1.00  0.00     0.074 A 
ATOM     63  C   UNL A   1      40.661  34.293  31.089  1.00  0.00     0.031 C 
ATOM     64  C   UNL A   1      43.051  33.694  30.826  1.00  0.00     0.034 A 
BRANCH  51  65
ATOM     65  C   UNL A   1      46.828  29.151  28.935  1.00  0.00     0.023 A 
ATOM     66  C   UNL A   1      47.457  29.096  27.679  1.00  0.00     0.031 A 
ATOM     67  C   UNL A   1      47.558  28.709  30.054  1.00  0.00     0.131 A 
ATOM     68  C   UNL A   1      48.744  28.547  27.562  1.00  0.00     0.055 A 
ATOM     69  C   UNL A   1      48.867  28.238  29.942  1.00  0.00     0.041 A 
ATOM     70  F   UNL A   1      47.005  28.719  31.277  1.00  0.00    -0.206 F 
ATOM     71  C   UNL A   1      49.463  28.140  28.687  1.00  0.00     0.022 A 
BRANCH  68  72
ATOM     72  S   UNL A   1      49.410  28.241  25.902  1.00  0.00     0.124 S 
ATOM     73  O   UNL A   1      48.209  28.360  25.078  1.00  0.00    -0.237 OA
ATOM     74  O   UNL A   1      50.392  29.314  25.756  1.00  0.00    -0.237 OA
ATOM     75  O   UNL A   1      49.964  26.897  25.995  1.00  0.00    -0.744 OA
ENDBRANCH  68  72
ENDBRANCH  51  65
BRANCH  52  76
ATOM     76  C   UNL A   1      37.287  31.935  30.165  1.00  0.00     0.023 A 
ATOM     77  C   UNL A   1      36.554  32.636  29.195  1.00  0.00     0.031 A 
ATOM     78  C   UNL A   1      36.659  31.664  31.395  1.00  0.00     0.131 A 
ATOM     79  C   UNL A   1      35.256  33.084  29.485  1.00  0.00     0.055 A 
ATOM     80  C   UNL A   1      35.347  32.064  31.658  1.00  0.00     0.041 A 
ATOM     81  F   UNL A   1      37.313  30.996  32.358  1.00  0.00    -0.206 F 
ATOM     82  C   UNL A   1      34.643  32.791  30.705  1.00  0.00     0.022 A 
BRANCH  79  83
ATOM     83  S   UNL A   1      34.411  34.139  28.274  1.00  0.00     0.124 S 
ATOM     84  O   UNL A   1      33.270  33.311  27.904  1.00  0.00    -0.237 OA
ATOM     85  O   UNL A   1      34.112  35.328  29.067  1.00  0.00    -0.237 OA
ATOM     86  O   UNL A   1      35.415  34.325  27.228  1.00  0.00    -0.744 OA
ENDBRANCH  79  83
ENDBRANCH  52  76
BRANCH  64  87
ATOM     87  C   UNL A   1      43.399  35.057  31.373  1.00  0.00     0.023 A 
ATOM     88  C   UNL A   1      43.489  36.186  30.539  1.00  0.00     0.031 A 
ATOM     89  C   UNL A   1      43.663  35.225  32.744  1.00  0.00     0.131 A 
ATOM     90  C   UNL A   1      43.891  37.420  31.073  1.00  0.00     0.055 A 
ATOM     91  C   UNL A   1      44.002  36.469  33.280  1.00  0.00     0.041 A 
ATOM     92  F   UNL A   1      43.595  34.182  33.587  1.00  0.00    -0.206 F 
ATOM     93  C   UNL A   1      44.132  37.572  32.441  1.00  0.00     0.022 A 
BRANCH  90  94
ATOM     94  S   UNL A   1      44.185  38.804  29.939  1.00  0.00     0.124 S 
ATOM     95  O   UNL A   1      43.616  38.301  28.693  1.00  0.00    -0.237 OA
ATOM     96  O   UNL A   1      43.456  39.893  30.579  1.00  0.00    -0.237 OA
ATOM     97  O   UNL A   1      45.641  38.947  29.943  1.00  0.00    -0.744 OA
ENDBRANCH  90  94
ENDBRANCH  64  87
ENDBRANCH  38  39
ENDBRANCH  30  33
ENDBRANCH  28  29
ENDBRANCH  27  28
ENDBRANCH   1  27
TORSDOF 19
ENDMDL
MODEL 2
REMARK VINA RESULT:     -10.7      4.351      9.658
REMARK SMILES CCOc1cccc(OCC)c1-c1ccc([C@@H](C)C(=O)NCCCNC(=O)c2ccc(-c3c4nc(c(-c5cc(S(=O)(=O)[O-])ccc5F)c5ccc([nH]5)c(-c5cc(S(=O)(=O)[O-])ccc5F)c5nc(c(-c6cc(S(=O)(=O)[O-])ccc6F)c6ccc3[nH]6)C=C5)C=C4)cc2)cc1F
REMARK SMILES IDX 22 1 21 2 19 3 20 4 17 6 18 7 16 8 13 9 14 10 92 11 15 12
REMARK SMILES IDX 91 13 93 14 12 15 4 16 5 17 6 18 8 19 7 20 3 21 2 22 1 23
REMARK SMILES IDX 9 24 10 25 11 26 23 27 24 28 25 29 26 30 27 32 28 33 29 34
REMARK SMILES IDX 90 35 30 36 89 37 31 38 32 39 33 40 83 41 34 42 88 43 82 44
REMARK SMILES IDX 84 45 35 46 87 47 81 48 80 49 36 51 68 52 48 53 67 54 49 55
REMARK SMILES IDX 52 56 66 57 85 58 50 59 51 60 65 62 86 63 53 64 37 65 38 66
REMARK SMILES IDX 46 67 39 68 45 69 47 70 44 71 40 72 41 73 42 74 43 75 69 76
REMARK SMILES IDX 70 77 78 78 71 79 77 80 79 81 76 82 72 83 73 84 74 85 75 86
REMARK SMILES IDX 54 87 55 88 63 89 56 90 62 91 64 92 61 93 57 94 58 95 59 96
REMARK SMILES IDX 60 97
REMARK H PARENT 21 5 25 31 84 50 52 61
REMARK Flexibility Score: inf
ROOT
ATOM      1  C   UNL A   1      32.159  28.073  27.141  1.00  0.00     0.117 C 
ENDROOT
BRANCH   1   2
ATOM      2  N   UNL A   1      31.420  27.659  25.952  1.00  0.00    -0.356 N 
ATOM      3  C   UNL A   1      31.761  27.260  24.693  1.00  0.00     0.227 C 
ATOM      4  O   UNL A   1      30.802  27.007  23.949  1.00  0.00    -0.274 OA
ATOM      5  H   UNL A   1      30.445  27.671  26.091  1.00  0.00     0.163 HD
BRANCH   3   6
ATOM      6  C   UNL A   1      33.198  27.100  24.139  1.00  0.00     0.105 C 
ATOM      7  C   UNL A   1      33.407  27.653  22.734  1.00  0.00     0.023 C 
BRANCH   6   8
ATOM      8  C   UNL A   1      33.785  25.712  24.327  1.00  0.00    -0.033 A 
ATOM      9  C   UNL A   1      34.730  23.035  24.543  1.00  0.00     0.025 A 
ATOM     10  C   UNL A   1      34.420  23.606  23.313  1.00  0.00     0.012 A 
ATOM     11  C   UNL A   1      34.535  23.828  25.681  1.00  0.00     0.131 A 
ATOM     12  C   UNL A   1      34.089  24.944  23.215  1.00  0.00     0.005 A 
ATOM     13  C   UNL A   1      34.032  25.139  25.582  1.00  0.00     0.044 A 
ATOM     14  F   UNL A   1      34.799  23.341  26.903  1.00  0.00    -0.206 F 
BRANCH   9  15
ATOM     15  C   UNL A   1      35.151  21.629  24.542  1.00  0.00     0.069 A 
ATOM     16  C   UNL A   1      36.541  21.368  24.683  1.00  0.00     0.130 A 
ATOM     17  C   UNL A   1      37.043  20.078  24.869  1.00  0.00     0.047 A 
ATOM     18  C   UNL A   1      36.163  19.009  24.940  1.00  0.00     0.008 A 
ATOM     19  C   UNL A   1      34.268  20.523  24.586  1.00  0.00     0.130 A 
ATOM     20  C   UNL A   1      34.798  19.233  24.784  1.00  0.00     0.047 A 
BRANCH  16  21
ATOM     21  O   UNL A   1      37.435  22.408  24.572  1.00  0.00    -0.493 OA
BRANCH  21  22
ATOM     22  C   UNL A   1      38.314  22.520  25.698  1.00  0.00     0.226 C 
ATOM     23  C   UNL A   1      38.203  23.929  26.259  1.00  0.00     0.049 C 
ENDBRANCH  21  22
ENDBRANCH  16  21
BRANCH  19  24
ATOM     24  O   UNL A   1      32.908  20.444  24.432  1.00  0.00    -0.493 OA
BRANCH  24  25
ATOM     25  C   UNL A   1      32.245  19.964  23.273  1.00  0.00     0.226 C 
ATOM     26  C   UNL A   1      32.043  21.078  22.253  1.00  0.00     0.049 C 
ENDBRANCH  24  25
ENDBRANCH  19  24
ENDBRANCH   9  15
ENDBRANCH   6   8
ENDBRANCH   3   6
ENDBRANCH   1   2
BRANCH   1  27
ATOM     27  C   UNL A   1      32.293  29.601  27.250  1.00  0.00     0.042 C 
BRANCH  27  28
ATOM     28  C   UNL A   1      33.714  30.142  27.300  1.00  0.00     0.118 C 
BRANCH  28  29
ATOM     29  N   UNL A   1      33.784  31.455  27.917  1.00  0.00    -0.352 N 
ATOM     30  C   UNL A   1      34.672  31.983  28.825  1.00  0.00     0.251 C 
ATOM     31  H   UNL A   1      33.073  32.075  27.635  1.00  0.00     0.163 HD
ATOM     32  O   UNL A   1      34.382  33.057  29.353  1.00  0.00    -0.269 OA
BRANCH  30  33
ATOM     33  C   UNL A   1      35.936  31.297  29.203  1.00  0.00     0.039 A 
ATOM     34  C   UNL A   1      37.135  31.756  28.639  1.00  0.00     0.014 A 
ATOM     35  C   UNL A   1      35.965  30.176  30.035  1.00  0.00     0.014 A 
ATOM     36  C   UNL A   1      38.351  31.138  28.958  1.00  0.00     0.010 A 
ATOM     37  C   UNL A   1      37.187  29.610  30.416  1.00  0.00     0.010 A 
ATOM     38  C   UNL A   1      38.395  30.084  29.882  1.00  0.00    -0.014 A 
BRANCH  38  39
ATOM     39  C   UNL A   1      39.687  29.470  30.300  1.00  0.00     0.031 A 
ATOM     40  C   UNL A   1      40.485  30.062  31.432  1.00  0.00     0.074 A 
ATOM     41  C   UNL A   1      40.174  28.411  29.619  1.00  0.00     0.049 A 
ATOM     42  N   UNL A   1      41.672  29.730  31.874  1.00  0.00    -0.248 NA
ATOM     43  C   UNL A   1      39.877  31.194  32.147  1.00  0.00     0.031 C 
ATOM     44  C   UNL A   1      39.511  27.760  28.488  1.00  0.00     0.029 A 
ATOM     45  N   UNL A   1      41.343  27.705  29.767  1.00  0.00    -0.354 N 
ATOM     46  C   UNL A   1      41.960  30.617  32.906  1.00  0.00     0.074 A 
ATOM     47  C   UNL A   1      40.841  31.534  32.988  1.00  0.00     0.031 C 
ATOM     48  C   UNL A   1      40.272  26.742  28.057  1.00  0.00     0.029 A 
ATOM     49  C   UNL A   1      41.502  26.699  28.841  1.00  0.00     0.049 A 
ATOM     50  H   UNL A   1      42.005  27.901  30.468  1.00  0.00     0.167 HD
ATOM     51  C   UNL A   1      43.045  30.652  33.722  1.00  0.00     0.034 A 
ATOM     52  C   UNL A   1      42.530  25.851  28.631  1.00  0.00     0.034 A 
ATOM     53  C   UNL A   1      44.148  29.725  33.636  1.00  0.00     0.049 A 
ATOM     54  C   UNL A   1      43.742  25.938  29.522  1.00  0.00     0.074 A 
ATOM     55  C   UNL A   1      45.266  29.639  34.447  1.00  0.00     0.029 A 
ATOM     56  N   UNL A   1      44.279  28.729  32.677  1.00  0.00    -0.354 N 
ATOM     57  N   UNL A   1      43.976  26.758  30.520  1.00  0.00    -0.248 NA
ATOM     58  C   UNL A   1      44.826  24.981  29.261  1.00  0.00     0.031 C 
ATOM     59  C   UNL A   1      46.105  28.641  33.938  1.00  0.00     0.029 A 
ATOM     60  C   UNL A   1      45.476  28.050  32.853  1.00  0.00     0.049 A 
ATOM     61  H   UNL A   1      43.618  28.533  31.973  1.00  0.00     0.167 HD
ATOM     62  C   UNL A   1      45.226  26.398  31.021  1.00  0.00     0.074 A 
ATOM     63  C   UNL A   1      45.682  25.276  30.227  1.00  0.00     0.031 C 
ATOM     64  C   UNL A   1      45.931  26.944  32.043  1.00  0.00     0.034 A 
BRANCH  51  65
ATOM     65  C   UNL A   1      43.102  31.751  34.758  1.00  0.00     0.023 A 
ATOM     66  C   UNL A   1      42.389  31.665  35.968  1.00  0.00     0.031 A 
ATOM     67  C   UNL A   1      43.872  32.906  34.531  1.00  0.00     0.131 A 
ATOM     68  C   UNL A   1      42.403  32.742  36.867  1.00  0.00     0.055 A 
ATOM     69  C   UNL A   1      43.945  33.940  35.467  1.00  0.00     0.041 A 
ATOM     70  F   UNL A   1      44.559  33.055  33.388  1.00  0.00    -0.206 F 
ATOM     71  C   UNL A   1      43.195  33.868  36.638  1.00  0.00     0.022 A 
BRANCH  68  72
ATOM     72  S   UNL A   1      41.262  32.710  38.277  1.00  0.00     0.124 S 
ATOM     73  O   UNL A   1      41.954  31.807  39.195  1.00  0.00    -0.237 OA
ATOM     74  O   UNL A   1      41.219  34.115  38.678  1.00  0.00    -0.237 OA
ATOM     75  O   UNL A   1      40.027  32.185  37.710  1.00  0.00    -0.744 OA
ENDBRANCH  68  72
ENDBRANCH  51  65
BRANCH  52  76
ATOM     76  C   UNL A   1      42.476  24.861  27.516  1.00  0.00     0.023 A 
ATOM     77  C   UNL A   1      41.977  23.565  27.723  1.00  0.00     0.031 A 
ATOM     78  C   UNL A   1      42.968  25.180  26.237  1.00  0.00     0.131 A 
ATOM     79  C   UNL A   1      42.023  22.623  26.684  1.00  0.00     0.055 A 
ATOM     80  C   UNL A   1      42.961  24.256  25.191  1.00  0.00     0.041 A 
ATOM     81  F   UNL A   1      43.457  26.405  25.985  1.00  0.00    -0.206 F 
ATOM     82  C   UNL A   1      42.500  22.964  25.416  1.00  0.00     0.022 A 
BRANCH  79  83
ATOM     83  S   UNL A   1      41.535  20.913  27.041  1.00  0.00     0.124 S 
ATOM     84  O   UNL A   1      41.146  20.432  25.722  1.00  0.00    -0.237 OA
ATOM     85  O   UNL A   1      42.768  20.356  27.591  1.00  0.00    -0.237 OA
ATOM     86  O   UNL A   1      40.442  21.065  27.999  1.00  0.00    -0.744 OA
ENDBRANCH  79  83
ENDBRANCH  52  76
BRANCH  64  87
ATOM     87  C   UNL A   1      47.259  26.308  32.375  1.00  0.00     0.023 A 
ATOM     88  C   UNL A   1      47.371  25.299  33.348  1.00  0.00     0.031 A 
ATOM     89  C   UNL A   1      48.431  26.730  31.722  1.00  0.00     0.131 A 
ATOM     90  C   UNL A   1      48.634  24.787  33.683  1.00  0.00     0.055 A 
ATOM     91  C   UNL A   1      49.677  26.174  32.016  1.00  0.00     0.041 A 
ATOM     92  F   UNL A   1      48.384  27.692  30.787  1.00  0.00    -0.206 F 
ATOM     93  C   UNL A   1      49.786  25.207  33.011  1.00  0.00     0.022 A 
BRANCH  90  94
ATOM     94  S   UNL A   1      48.764  23.632  35.075  1.00  0.00     0.124 S 
ATOM     95  O   UNL A   1      47.480  23.816  35.742  1.00  0.00    -0.237 OA
ATOM     96  O   UNL A   1      48.955  22.352  34.401  1.00  0.00    -0.237 OA
ATOM     97  O   UNL A   1      49.925  24.120  35.818  1.00  0.00    -0.744 OA
ENDBRANCH  90  94
ENDBRANCH  64  87
ENDBRANCH  38  39
ENDBRANCH  30  33
ENDBRANCH  28  29
ENDBRANCH  27  28
ENDBRANCH   1  27
TORSDOF 19
ENDMDL
MODEL 3
REMARK VINA RESULT:     -10.5      2.177      2.780
REMARK SMILES CCOc1cccc(OCC)c1-c1ccc([C@@H](C)C(=O)NCCCNC(=O)c2ccc(-c3c4nc(c(-c5cc(S(=O)(=O)[O-])ccc5F)c5ccc([nH]5)c(-c5cc(S(=O)(=O)[O-])ccc5F)c5nc(c(-c6cc(S(=O)(=O)[O-])ccc6F)c6ccc3[nH]6)C=C5)C=C4)cc2)cc1F
REMARK SMILES IDX 22 1 21 2 19 3 20 4 17 6 18 7 16 8 13 9 14 10 92 11 15 12
REMARK SMILES IDX 91 13 93 14 12 15 4 16 5 17 6 18 8 19 7 20 3 21 2 22 1 23
REMARK SMILES IDX 9 24 10 25 11 26 23 27 24 28 25 29 26 30 27 32 28 33 29 34
REMARK SMILES IDX 90 35 30 36 89 37 31 38 32 39 33 40 83 41 34 42 88 43 82 44
REMARK SMILES IDX 84 45 35 46 87 47 81 48 80 49 36 51 68 52 48 53 67 54 49 55
REMARK SMILES IDX 52 56 66 57 85 58 50 59 51 60 65 62 86 63 53 64 37 65 38 66
REMARK SMILES IDX 46 67 39 68 45 69 47 70 44 71 40 72 41 73 42 74 43 75 69 76
REMARK SMILES IDX 70 77 78 78 71 79 77 80 79 81 76 82 72 83 73 84 74 85 75 86
REMARK SMILES IDX 54 87 55 88 63 89 56 90 62 91 64 92 61 93 57 94 58 95 59 96
REMARK SMILES IDX 60 97
REMARK H PARENT 21 5 25 31 84 50 52 61
REMARK Flexibility Score: inf
ROOT
ATOM      1  C   UNL A   1      35.670  21.965  26.024  1.00  0.00     0.117 C 
ENDROOT
BRANCH   1   2
ATOM      2  N   UNL A   1      34.223  21.846  25.866  1.00  0.00    -0.356 N 
ATOM      3  C   UNL A   1      33.288  22.437  25.069  1.00  0.00     0.227 C 
ATOM      4  O   UNL A   1      32.122  22.061  25.268  1.00  0.00    -0.274 OA
ATOM      5  H   UNL A   1      33.831  21.184  26.480  1.00  0.00     0.163 HD
BRANCH   3   6
ATOM      6  C   UNL A   1      33.553  23.499  23.974  1.00  0.00     0.105 C 
ATOM      7  C   UNL A   1      34.811  23.262  23.145  1.00  0.00     0.023 C 
BRANCH   6   8
ATOM      8  C   UNL A   1      33.416  24.933  24.452  1.00  0.00    -0.033 A 
ATOM      9  C   UNL A   1      32.946  27.582  25.382  1.00  0.00     0.025 A 
ATOM     10  C   UNL A   1      32.450  26.471  26.056  1.00  0.00     0.012 A 
ATOM     11  C   UNL A   1      33.670  27.345  24.207  1.00  0.00     0.131 A 
ATOM     12  C   UNL A   1      32.798  25.191  25.665  1.00  0.00     0.005 A 
ATOM     13  C   UNL A   1      33.873  26.039  23.723  1.00  0.00     0.044 A 
ATOM     14  F   UNL A   1      34.166  28.370  23.496  1.00  0.00    -0.206 F 
BRANCH   9  15
ATOM     15  C   UNL A   1      32.591  28.902  25.918  1.00  0.00     0.069 A 
ATOM     16  C   UNL A   1      33.510  29.504  26.820  1.00  0.00     0.130 A 
ATOM     17  C   UNL A   1      33.369  30.822  27.260  1.00  0.00     0.047 A 
ATOM     18  C   UNL A   1      32.313  31.587  26.790  1.00  0.00     0.008 A 
ATOM     19  C   UNL A   1      31.501  29.687  25.471  1.00  0.00     0.130 A 
ATOM     20  C   UNL A   1      31.386  31.017  25.921  1.00  0.00     0.047 A 
BRANCH  16  21
ATOM     21  O   UNL A   1      34.540  28.750  27.333  1.00  0.00    -0.493 OA
BRANCH  21  22
ATOM     22  C   UNL A   1      35.439  29.505  28.152  1.00  0.00     0.226 C 
ATOM     23  C   UNL A   1      36.778  29.602  27.437  1.00  0.00     0.049 C 
ENDBRANCH  21  22
ENDBRANCH  16  21
BRANCH  19  24
ATOM     24  O   UNL A   1      30.441  29.383  24.657  1.00  0.00    -0.493 OA
BRANCH  24  25
ATOM     25  C   UNL A   1      30.445  29.476  23.242  1.00  0.00     0.226 C 
ATOM     26  C   UNL A   1      30.096  28.138  22.601  1.00  0.00     0.049 C 
ENDBRANCH  24  25
ENDBRANCH  19  24
ENDBRANCH   9  15
ENDBRANCH   6   8
ENDBRANCH   3   6
ENDBRANCH   1   2
BRANCH   1  27
ATOM     27  C   UNL A   1      36.433  20.798  25.375  1.00  0.00     0.042 C 
BRANCH  27  28
ATOM     28  C   UNL A   1      37.890  21.067  25.032  1.00  0.00     0.118 C 
BRANCH  28  29
ATOM     29  N   UNL A   1      38.801  20.246  25.810  1.00  0.00    -0.352 N 
ATOM     30  C   UNL A   1      39.940  20.570  26.509  1.00  0.00     0.251 C 
ATOM     31  H   UNL A   1      38.562  19.292  25.842  1.00  0.00     0.163 HD
ATOM     32  O   UNL A   1      40.652  19.648  26.907  1.00  0.00    -0.269 OA
BRANCH  30  33
ATOM     33  C   UNL A   1      40.346  21.977  26.773  1.00  0.00     0.039 A 
ATOM     34  C   UNL A   1      41.387  22.209  27.682  1.00  0.00     0.014 A 
ATOM     35  C   UNL A   1      39.684  23.070  26.208  1.00  0.00     0.014 A 
ATOM     36  C   UNL A   1      41.801  23.517  27.969  1.00  0.00     0.010 A 
ATOM     37  C   UNL A   1      40.148  24.371  26.433  1.00  0.00     0.010 A 
ATOM     38  C   UNL A   1      41.212  24.610  27.317  1.00  0.00    -0.014 A 
BRANCH  38  39
ATOM     39  C   UNL A   1      41.695  26.002  27.543  1.00  0.00     0.031 A 
ATOM     40  C   UNL A   1      43.040  26.439  27.027  1.00  0.00     0.074 A 
ATOM     41  C   UNL A   1      40.945  26.858  28.268  1.00  0.00     0.049 A 
ATOM     42  N   UNL A   1      43.672  27.572  27.209  1.00  0.00    -0.248 NA
ATOM     43  C   UNL A   1      43.786  25.463  26.219  1.00  0.00     0.031 C 
ATOM     44  C   UNL A   1      39.635  26.550  28.845  1.00  0.00     0.029 A 
ATOM     45  N   UNL A   1      41.180  28.155  28.657  1.00  0.00    -0.354 N 
ATOM     46  C   UNL A   1      44.891  27.442  26.552  1.00  0.00     0.074 A 
ATOM     47  C   UNL A   1      44.930  26.098  26.012  1.00  0.00     0.031 C 
ATOM     48  C   UNL A   1      39.176  27.630  29.497  1.00  0.00     0.029 A 
ATOM     49  C   UNL A   1      40.177  28.690  29.433  1.00  0.00     0.049 A 
ATOM     50  H   UNL A   1      41.989  28.654  28.404  1.00  0.00     0.167 HD
ATOM     51  C   UNL A   1      45.878  28.361  26.397  1.00  0.00     0.034 A 
ATOM     52  C   UNL A   1      40.081  29.888  30.045  1.00  0.00     0.034 A 
ATOM     53  C   UNL A   1      45.822  29.701  26.931  1.00  0.00     0.049 A 
ATOM     54  C   UNL A   1      41.209  30.876  29.894  1.00  0.00     0.074 A 
ATOM     55  C   UNL A   1      46.740  30.727  26.785  1.00  0.00     0.029 A 
ATOM     56  N   UNL A   1      44.796  30.201  27.724  1.00  0.00    -0.354 N 
ATOM     57  N   UNL A   1      42.337  30.749  29.233  1.00  0.00    -0.248 NA
ATOM     58  C   UNL A   1      41.048  32.173  30.566  1.00  0.00     0.031 C 
ATOM     59  C   UNL A   1      46.306  31.820  27.544  1.00  0.00     0.029 A 
ATOM     60  C   UNL A   1      45.078  31.505  28.104  1.00  0.00     0.049 A 
ATOM     61  H   UNL A   1      43.986  29.702  27.979  1.00  0.00     0.167 HD
ATOM     62  C   UNL A   1      43.008  31.959  29.392  1.00  0.00     0.074 A 
ATOM     63  C   UNL A   1      42.149  32.807  30.193  1.00  0.00     0.031 C 
ATOM     64  C   UNL A   1      44.223  32.336  28.920  1.00  0.00     0.034 A 
BRANCH  51  65
ATOM     65  C   UNL A   1      47.116  27.935  25.642  1.00  0.00     0.023 A 
ATOM     66  C   UNL A   1      47.256  28.161  24.261  1.00  0.00     0.031 A 
ATOM     67  C   UNL A   1      48.169  27.283  26.310  1.00  0.00     0.131 A 
ATOM     68  C   UNL A   1      48.384  27.677  23.582  1.00  0.00     0.055 A 
ATOM     69  C   UNL A   1      49.325  26.875  25.642  1.00  0.00     0.041 A 
ATOM     70  F   UNL A   1      48.087  27.022  27.624  1.00  0.00    -0.206 F 
ATOM     71  C   UNL A   1      49.432  27.057  24.266  1.00  0.00     0.022 A 
BRANCH  68  72
ATOM     72  S   UNL A   1      48.401  27.744  21.769  1.00  0.00     0.124 S 
ATOM     73  O   UNL A   1      47.065  28.262  21.482  1.00  0.00    -0.237 OA
ATOM     74  O   UNL A   1      49.511  28.656  21.499  1.00  0.00    -0.237 OA
ATOM     75  O   UNL A   1      48.623  26.359  21.375  1.00  0.00    -0.744 OA
ENDBRANCH  68  72
ENDBRANCH  51  65
BRANCH  52  76
ATOM     76  C   UNL A   1      38.890  30.218  30.879  1.00  0.00     0.023 A 
ATOM     77  C   UNL A   1      37.914  31.118  30.423  1.00  0.00     0.031 A 
ATOM     78  C   UNL A   1      38.732  29.673  32.167  1.00  0.00     0.131 A 
ATOM     79  C   UNL A   1      36.851  31.484  31.263  1.00  0.00     0.055 A 
ATOM     80  C   UNL A   1      37.643  29.998  32.978  1.00  0.00     0.041 A 
ATOM     81  F   UNL A   1      39.635  28.807  32.653  1.00  0.00    -0.206 F 
ATOM     82  C   UNL A   1      36.702  30.920  32.532  1.00  0.00     0.022 A 
BRANCH  79  83
ATOM     83  S   UNL A   1      35.712  32.781  30.707  1.00  0.00     0.124 S 
ATOM     84  O   UNL A   1      36.252  33.958  31.376  1.00  0.00    -0.237 OA
ATOM     85  O   UNL A   1      35.883  32.731  29.257  1.00  0.00    -0.237 OA
ATOM     86  O   UNL A   1      34.412  32.325  31.194  1.00  0.00    -0.744 OA
ENDBRANCH  79  83
ENDBRANCH  52  76
BRANCH  64  87
ATOM     87  C   UNL A   1      44.674  33.740  29.236  1.00  0.00     0.023 A 
ATOM     88  C   UNL A   1      44.268  34.839  28.458  1.00  0.00     0.031 A 
ATOM     89  C   UNL A   1      45.538  33.981  30.319  1.00  0.00     0.131 A 
ATOM     90  C   UNL A   1      44.771  36.119  28.737  1.00  0.00     0.055 A 
ATOM     91  C   UNL A   1      45.987  35.266  30.631  1.00  0.00     0.041 A 
ATOM     92  F   UNL A   1      45.961  32.970  31.095  1.00  0.00    -0.206 F 
ATOM     93  C   UNL A   1      45.615  36.342  29.829  1.00  0.00     0.022 A 
BRANCH  90  94
ATOM     94  S   UNL A   1      44.382  37.475  27.598  1.00  0.00     0.124 S 
ATOM     95  O   UNL A   1      43.370  36.868  26.739  1.00  0.00    -0.237 OA
ATOM     96  O   UNL A   1      43.908  38.517  28.503  1.00  0.00    -0.237 OA
ATOM     97  O   UNL A   1      45.662  37.755  26.948  1.00  0.00    -0.744 OA
ENDBRANCH  90  94
ENDBRANCH  64  87
ENDBRANCH  38  39
ENDBRANCH  30  33
ENDBRANCH  28  29
ENDBRANCH  27  28
ENDBRANCH   1  27
TORSDOF 19
ENDMDL
