MODEL 1
REMARK VINA RESULT:     -13.4      0.000      0.000
REMARK SMILES Cc1nc2ccc(Cl)cc2cc1C(=O)N1CCC(C(=O)NCCCNC(=O)c2ccc(-c3c4nc(c(-c5cc(S(=O)(=O)[O-])ccc5F)c5ccc([nH]5)c(-c5cc(S(=O)(=O)[O-])ccc5F)c5nc(c(-c6cc(S(=O)(=O)[O-])ccc6F)c6ccc3[nH]6)C=C5)C=C4)cc2)CC1
REMARK SMILES IDX 24 1 23 2 22 3 21 4 19 5 20 6 18 8 13 9 14 10 15 11 16 12
REMARK SMILES IDX 92 13 17 14 91 15 12 16 1 17 2 18 3 19 4 20 11 21 5 22 10 23
REMARK SMILES IDX 6 24 9 25 7 26 8 27 25 28 26 29 27 31 28 32 29 33 90 34
REMARK SMILES IDX 30 35 89 36 31 37 32 38 33 39 83 40 34 41 88 42 82 43 84 44
REMARK SMILES IDX 35 45 87 46 81 47 80 48 36 50 68 51 48 52 67 53 49 54 52 55
REMARK SMILES IDX 66 56 85 57 50 58 51 59 65 61 86 62 53 63 37 64 38 65 46 66
REMARK SMILES IDX 39 67 45 68 47 69 44 70 40 71 41 72 42 73 43 74 69 75 70 76
REMARK SMILES IDX 78 77 71 78 77 79 79 80 76 81 72 82 73 83 74 84 75 85 54 86
REMARK SMILES IDX 55 87 63 88 56 89 62 90 64 91 61 92 57 93 58 94 59 95 60 96
REMARK H PARENT 21 7 25 30 84 49 52 60
REMARK Flexibility Score: inf
ROOT
ATOM      1  C   UNL A   1      33.034  32.091  27.160  1.00  0.00     0.118 C 
ENDROOT
BRANCH   1   2
ATOM      2  C   UNL A   1      31.758  31.283  26.994  1.00  0.00     0.042 C 
BRANCH   2   3
ATOM      3  C   UNL A   1      31.857  30.206  25.925  1.00  0.00     0.117 C 
BRANCH   3   4
ATOM      4  N   UNL A   1      30.982  30.466  24.790  1.00  0.00    -0.356 N 
ATOM      5  C   UNL A   1      30.479  29.632  23.840  1.00  0.00     0.223 C 
ATOM      6  O   UNL A   1      29.747  30.111  22.972  1.00  0.00    -0.275 OA
ATOM      7  H   UNL A   1      30.708  31.406  24.693  1.00  0.00     0.163 HD
BRANCH   5   8
ATOM      8  C   UNL A   1      30.791  28.146  23.846  1.00  0.00     0.082 C 
ATOM      9  C   UNL A   1      33.181  25.070  22.156  1.00  0.00     0.255 C 
ATOM     10  O   UNL A   1      33.263  25.115  20.933  1.00  0.00    -0.269 OA
ATOM     11  N   UNL A   1      32.350  25.934  22.876  1.00  0.00    -0.339 N 
ATOM     12  C   UNL A   1      30.996  26.094  22.374  1.00  0.00     0.120 C 
ATOM     13  C   UNL A   1      32.616  26.420  24.230  1.00  0.00     0.120 C 
ATOM     14  C   UNL A   1      30.497  27.517  22.481  1.00  0.00     0.035 C 
ATOM     15  C   UNL A   1      32.191  27.870  24.410  1.00  0.00     0.035 C 
BRANCH   9  16
ATOM     16  C   UNL A   1      33.801  23.928  22.883  1.00  0.00     0.061 A 
ATOM     17  C   UNL A   1      31.727  22.436  22.779  1.00  0.00     0.067 C 
ATOM     18  C   UNL A   1      33.134  22.746  23.202  1.00  0.00     0.051 A 
ATOM     19  N   UNL A   1      33.700  21.791  24.005  1.00  0.00    -0.252 NA
ATOM     20  C   UNL A   1      34.933  21.987  24.505  1.00  0.00     0.071 A 
ATOM     21  C   UNL A   1      35.072  24.121  23.435  1.00  0.00     0.026 A 
ATOM     22  C   UNL A   1      35.514  21.046  25.347  1.00  0.00     0.030 A 
ATOM     23  C   UNL A   1      35.673  23.144  24.221  1.00  0.00     0.002 A 
ATOM     24  C   UNL A   1      36.804  21.219  25.868  1.00  0.00     0.023 A 
ATOM     25  C   UNL A   1      36.969  23.328  24.726  1.00  0.00     0.030 A 
ATOM     26  C   UNL A   1      37.532  22.357  25.540  1.00  0.00     0.041 A 
ATOM     27  Cl  UNL A   1      39.129  22.567  26.139  1.00  0.00    -0.084 Cl
ENDBRANCH   9  16
ENDBRANCH   5   8
ENDBRANCH   3   4
ENDBRANCH   2   3
ENDBRANCH   1   2
BRANCH   1  28
ATOM     28  N   UNL A   1      32.768  33.488  27.473  1.00  0.00    -0.352 N 
ATOM     29  C   UNL A   1      33.274  34.275  28.476  1.00  0.00     0.251 C 
ATOM     30  H   UNL A   1      32.127  33.935  26.873  1.00  0.00     0.163 HD
ATOM     31  O   UNL A   1      32.748  35.362  28.712  1.00  0.00    -0.269 OA
BRANCH  29  32
ATOM     32  C   UNL A   1      34.423  33.807  29.277  1.00  0.00     0.039 A 
ATOM     33  C   UNL A   1      34.203  32.918  30.332  1.00  0.00     0.014 A 
ATOM     34  C   UNL A   1      35.719  34.243  28.989  1.00  0.00     0.014 A 
ATOM     35  C   UNL A   1      35.291  32.414  31.049  1.00  0.00     0.010 A 
ATOM     36  C   UNL A   1      36.805  33.662  29.634  1.00  0.00     0.010 A 
ATOM     37  C   UNL A   1      36.604  32.747  30.678  1.00  0.00    -0.014 A 
BRANCH  37  38
ATOM     38  C   UNL A   1      37.779  32.167  31.376  1.00  0.00     0.031 A 
ATOM     39  C   UNL A   1      38.538  31.030  30.747  1.00  0.00     0.074 A 
ATOM     40  C   UNL A   1      38.113  32.608  32.604  1.00  0.00     0.049 A 
ATOM     41  N   UNL A   1      39.522  30.318  31.235  1.00  0.00    -0.248 NA
ATOM     42  C   UNL A   1      38.104  30.613  29.406  1.00  0.00     0.031 C 
ATOM     43  C   UNL A   1      37.421  33.670  33.338  1.00  0.00     0.029 A 
ATOM     44  N   UNL A   1      39.109  32.209  33.461  1.00  0.00    -0.354 N 
ATOM     45  C   UNL A   1      39.815  29.364  30.266  1.00  0.00     0.074 A 
ATOM     46  C   UNL A   1      38.851  29.540  29.202  1.00  0.00     0.031 C 
ATOM     47  C   UNL A   1      38.022  33.849  34.524  1.00  0.00     0.029 A 
ATOM     48  C   UNL A   1      39.107  32.883  34.661  1.00  0.00     0.049 A 
ATOM     49  H   UNL A   1      39.763  31.508  33.238  1.00  0.00     0.167 HD
ATOM     50  C   UNL A   1      40.814  28.445  30.254  1.00  0.00     0.034 A 
ATOM     51  C   UNL A   1      39.875  32.725  35.758  1.00  0.00     0.034 A 
ATOM     52  C   UNL A   1      41.765  28.288  31.327  1.00  0.00     0.049 A 
ATOM     53  C   UNL A   1      40.959  31.678  35.740  1.00  0.00     0.074 A 
ATOM     54  C   UNL A   1      42.849  27.431  31.401  1.00  0.00     0.029 A 
ATOM     55  N   UNL A   1      41.739  28.997  32.524  1.00  0.00    -0.354 N 
ATOM     56  N   UNL A   1      41.264  30.821  34.792  1.00  0.00    -0.248 NA
ATOM     57  C   UNL A   1      41.810  31.585  36.932  1.00  0.00     0.031 C 
ATOM     58  C   UNL A   1      43.427  27.563  32.668  1.00  0.00     0.029 A 
ATOM     59  C   UNL A   1      42.764  28.568  33.355  1.00  0.00     0.049 A 
ATOM     60  H   UNL A   1      41.089  29.700  32.748  1.00  0.00     0.167 HD
ATOM     61  C   UNL A   1      42.361  30.105  35.265  1.00  0.00     0.074 A 
ATOM     62  C   UNL A   1      42.670  30.642  36.575  1.00  0.00     0.031 C 
ATOM     63  C   UNL A   1      43.052  29.100  34.667  1.00  0.00     0.034 A 
BRANCH  50  64
ATOM     64  C   UNL A   1      40.894  27.528  29.054  1.00  0.00     0.023 A 
ATOM     65  C   UNL A   1      41.860  27.713  28.047  1.00  0.00     0.031 A 
ATOM     66  C   UNL A   1      39.961  26.491  28.881  1.00  0.00     0.131 A 
ATOM     67  C   UNL A   1      41.807  26.946  26.873  1.00  0.00     0.055 A 
ATOM     68  C   UNL A   1      39.976  25.665  27.754  1.00  0.00     0.041 A 
ATOM     69  F   UNL A   1      39.000  26.274  29.793  1.00  0.00    -0.206 F 
ATOM     70  C   UNL A   1      40.889  25.904  26.731  1.00  0.00     0.022 A 
BRANCH  67  71
ATOM     71  S   UNL A   1      42.829  27.457  25.463  1.00  0.00     0.124 S 
ATOM     72  O   UNL A   1      42.892  26.224  24.682  1.00  0.00    -0.237 OA
ATOM     73  O   UNL A   1      42.045  28.541  24.884  1.00  0.00    -0.237 OA
ATOM     74  O   UNL A   1      44.090  27.859  26.083  1.00  0.00    -0.744 OA
ENDBRANCH  67  71
ENDBRANCH  50  64
BRANCH  51  75
ATOM     75  C   UNL A   1      39.628  33.558  36.968  1.00  0.00     0.023 A 
ATOM     76  C   UNL A   1      38.915  33.057  38.068  1.00  0.00     0.031 A 
ATOM     77  C   UNL A   1      40.094  34.885  37.035  1.00  0.00     0.131 A 
ATOM     78  C   UNL A   1      38.655  33.886  39.171  1.00  0.00     0.055 A 
ATOM     79  C   UNL A   1      39.881  35.687  38.157  1.00  0.00     0.041 A 
ATOM     80  F   UNL A   1      40.785  35.413  36.013  1.00  0.00    -0.206 F 
ATOM     81  C   UNL A   1      39.147  35.191  39.230  1.00  0.00     0.022 A 
BRANCH  78  82
ATOM     82  S   UNL A   1      37.598  33.257  40.504  1.00  0.00     0.124 S 
ATOM     83  O   UNL A   1      38.417  32.181  41.050  1.00  0.00    -0.237 OA
ATOM     84  O   UNL A   1      37.440  34.436  41.349  1.00  0.00    -0.237 OA
ATOM     85  O   UNL A   1      36.388  32.828  39.805  1.00  0.00    -0.744 OA
ENDBRANCH  78  82
ENDBRANCH  51  75
BRANCH  63  86
ATOM     86  C   UNL A   1      44.243  28.546  35.413  1.00  0.00     0.023 A 
ATOM     87  C   UNL A   1      44.112  27.526  36.372  1.00  0.00     0.031 A 
ATOM     88  C   UNL A   1      45.531  29.048  35.155  1.00  0.00     0.131 A 
ATOM     89  C   UNL A   1      45.242  27.078  37.075  1.00  0.00     0.055 A 
ATOM     90  C   UNL A   1      46.659  28.553  35.811  1.00  0.00     0.041 A 
ATOM     91  F   UNL A   1      45.716  30.026  34.254  1.00  0.00    -0.206 F 
ATOM     92  C   UNL A   1      46.516  27.570  36.786  1.00  0.00     0.022 A 
BRANCH  89  93
ATOM     93  S   UNL A   1      45.011  25.906  38.440  1.00  0.00     0.124 S 
ATOM     94  O   UNL A   1      44.067  26.618  39.294  1.00  0.00    -0.237 OA
ATOM     95  O   UNL A   1      44.490  24.727  37.757  1.00  0.00    -0.237 OA
ATOM     96  O   UNL A   1      46.356  25.756  38.994  1.00  0.00    -0.744 OA
ENDBRANCH  89  93
ENDBRANCH  63  86
ENDBRANCH  37  38
ENDBRANCH  29  32
ENDBRANCH   1  28
TORSDOF 14
ENDMDL
MODEL 2
REMARK VINA RESULT:     -13.3      1.256      1.649
REMARK SMILES Cc1nc2ccc(Cl)cc2cc1C(=O)N1CCC(C(=O)NCCCNC(=O)c2ccc(-c3c4nc(c(-c5cc(S(=O)(=O)[O-])ccc5F)c5ccc([nH]5)c(-c5cc(S(=O)(=O)[O-])ccc5F)c5nc(c(-c6cc(S(=O)(=O)[O-])ccc6F)c6ccc3[nH]6)C=C5)C=C4)cc2)CC1
REMARK SMILES IDX 24 1 23 2 22 3 21 4 19 5 20 6 18 8 13 9 14 10 15 11 16 12
REMARK SMILES IDX 92 13 17 14 91 15 12 16 1 17 2 18 3 19 4 20 11 21 5 22 10 23
REMARK SMILES IDX 6 24 9 25 7 26 8 27 25 28 26 29 27 31 28 32 29 33 90 34
REMARK SMILES IDX 30 35 89 36 31 37 32 38 33 39 83 40 34 41 88 42 82 43 84 44
REMARK SMILES IDX 35 45 87 46 81 47 80 48 36 50 68 51 48 52 67 53 49 54 52 55
REMARK SMILES IDX 66 56 85 57 50 58 51 59 65 61 86 62 53 63 37 64 38 65 46 66
REMARK SMILES IDX 39 67 45 68 47 69 44 70 40 71 41 72 42 73 43 74 69 75 70 76
REMARK SMILES IDX 78 77 71 78 77 79 79 80 76 81 72 82 73 83 74 84 75 85 54 86
REMARK SMILES IDX 55 87 63 88 56 89 62 90 64 91 61 92 57 93 58 94 59 95 60 96
REMARK H PARENT 21 7 25 30 84 49 52 60
REMARK Flexibility Score: inf
ROOT
ATOM      1  C   UNL A   1      33.025  31.852  27.133  1.00  0.00     0.118 C 
ENDROOT
BRANCH   1   2
ATOM      2  C   UNL A   1      31.742  31.093  26.837  1.00  0.00     0.042 C 
BRANCH   2   3
ATOM      3  C   UNL A   1      31.790  30.305  25.537  1.00  0.00     0.117 C 
BRANCH   3   4
ATOM      4  N   UNL A   1      30.686  30.636  24.645  1.00  0.00    -0.356 N 
ATOM      5  C   UNL A   1      29.965  29.861  23.792  1.00  0.00     0.223 C 
ATOM      6  O   UNL A   1      29.065  30.394  23.139  1.00  0.00    -0.275 OA
ATOM      7  H   UNL A   1      30.417  31.583  24.663  1.00  0.00     0.163 HD
BRANCH   5   8
ATOM      8  C   UNL A   1      30.239  28.374  23.648  1.00  0.00     0.082 C 
ATOM      9  C   UNL A   1      33.203  25.421  22.924  1.00  0.00     0.255 C 
ATOM     10  O   UNL A   1      33.951  25.682  21.987  1.00  0.00    -0.269 OA
ATOM     11  N   UNL A   1      32.101  26.223  23.239  1.00  0.00    -0.339 N 
ATOM     12  C   UNL A   1      31.253  26.620  22.129  1.00  0.00     0.120 C 
ATOM     13  C   UNL A   1      31.563  26.419  24.585  1.00  0.00     0.120 C 
ATOM     14  C   UNL A   1      30.762  28.044  22.248  1.00  0.00     0.035 C 
ATOM     15  C   UNL A   1      31.092  27.848  24.810  1.00  0.00     0.035 C 
BRANCH   9  16
ATOM     16  C   UNL A   1      33.328  24.104  23.606  1.00  0.00     0.061 A 
ATOM     17  C   UNL A   1      34.779  24.975  25.523  1.00  0.00     0.067 C 
ATOM     18  C   UNL A   1      34.073  23.888  24.764  1.00  0.00     0.051 A 
ATOM     19  N   UNL A   1      34.283  22.630  25.265  1.00  0.00    -0.252 NA
ATOM     20  C   UNL A   1      33.760  21.565  24.631  1.00  0.00     0.071 A 
ATOM     21  C   UNL A   1      32.814  22.979  22.950  1.00  0.00     0.026 A 
ATOM     22  C   UNL A   1      33.986  20.278  25.103  1.00  0.00     0.030 A 
ATOM     23  C   UNL A   1      32.989  21.701  23.467  1.00  0.00     0.002 A 
ATOM     24  C   UNL A   1      33.438  19.153  24.469  1.00  0.00     0.023 A 
ATOM     25  C   UNL A   1      32.424  20.586  22.827  1.00  0.00     0.030 A 
ATOM     26  C   UNL A   1      32.645  19.317  23.340  1.00  0.00     0.041 A 
ATOM     27  Cl  UNL A   1      31.934  17.952  22.574  1.00  0.00    -0.084 Cl
ENDBRANCH   9  16
ENDBRANCH   5   8
ENDBRANCH   3   4
ENDBRANCH   2   3
ENDBRANCH   1   2
BRANCH   1  28
ATOM     28  N   UNL A   1      32.785  33.268  27.379  1.00  0.00    -0.352 N 
ATOM     29  C   UNL A   1      33.311  34.093  28.341  1.00  0.00     0.251 C 
ATOM     30  H   UNL A   1      32.149  33.697  26.762  1.00  0.00     0.163 HD
ATOM     31  O   UNL A   1      32.807  35.199  28.526  1.00  0.00    -0.269 OA
BRANCH  29  32
ATOM     32  C   UNL A   1      34.457  33.644  29.158  1.00  0.00     0.039 A 
ATOM     33  C   UNL A   1      34.249  32.696  30.163  1.00  0.00     0.014 A 
ATOM     34  C   UNL A   1      35.738  34.154  28.933  1.00  0.00     0.014 A 
ATOM     35  C   UNL A   1      35.337  32.211  30.891  1.00  0.00     0.010 A 
ATOM     36  C   UNL A   1      36.831  33.596  29.587  1.00  0.00     0.010 A 
ATOM     37  C   UNL A   1      36.643  32.625  30.581  1.00  0.00    -0.014 A 
BRANCH  37  38
ATOM     38  C   UNL A   1      37.823  32.069  31.290  1.00  0.00     0.031 A 
ATOM     39  C   UNL A   1      38.623  30.960  30.661  1.00  0.00     0.074 A 
ATOM     40  C   UNL A   1      38.127  32.506  32.528  1.00  0.00     0.049 A 
ATOM     41  N   UNL A   1      39.619  30.270  31.156  1.00  0.00    -0.248 NA
ATOM     42  C   UNL A   1      38.220  30.546  29.309  1.00  0.00     0.031 C 
ATOM     43  C   UNL A   1      37.395  33.540  33.262  1.00  0.00     0.029 A 
ATOM     44  N   UNL A   1      39.120  32.124  33.396  1.00  0.00    -0.354 N 
ATOM     45  C   UNL A   1      39.952  29.335  30.182  1.00  0.00     0.074 A 
ATOM     46  C   UNL A   1      38.999  29.496  29.105  1.00  0.00     0.031 C 
ATOM     47  C   UNL A   1      37.973  33.722  34.459  1.00  0.00     0.029 A 
ATOM     48  C   UNL A   1      39.081  32.785  34.602  1.00  0.00     0.049 A 
ATOM     49  H   UNL A   1      39.796  31.444  33.175  1.00  0.00     0.167 HD
ATOM     50  C   UNL A   1      40.976  28.444  30.175  1.00  0.00     0.034 A 
ATOM     51  C   UNL A   1      39.837  32.636  35.709  1.00  0.00     0.034 A 
ATOM     52  C   UNL A   1      41.915  28.302  31.261  1.00  0.00     0.049 A 
ATOM     53  C   UNL A   1      40.950  31.620  35.697  1.00  0.00     0.074 A 
ATOM     54  C   UNL A   1      43.021  27.474  31.342  1.00  0.00     0.029 A 
ATOM     55  N   UNL A   1      41.851  28.996  32.464  1.00  0.00    -0.354 N 
ATOM     56  N   UNL A   1      41.293  30.782  34.744  1.00  0.00    -0.248 NA
ATOM     57  C   UNL A   1      41.785  31.537  36.901  1.00  0.00     0.031 C 
ATOM     58  C   UNL A   1      43.576  27.608  32.619  1.00  0.00     0.029 A 
ATOM     59  C   UNL A   1      42.875  28.586  33.306  1.00  0.00     0.049 A 
ATOM     60  H   UNL A   1      41.179  29.679  32.686  1.00  0.00     0.167 HD
ATOM     61  C   UNL A   1      42.402  30.091  35.226  1.00  0.00     0.074 A 
ATOM     62  C   UNL A   1      42.676  30.622  36.546  1.00  0.00     0.031 C 
ATOM     63  C   UNL A   1      43.129  29.112  34.629  1.00  0.00     0.034 A 
BRANCH  50  64
ATOM     64  C   UNL A   1      41.100  27.543  28.966  1.00  0.00     0.023 A 
ATOM     65  C   UNL A   1      42.111  27.730  28.006  1.00  0.00     0.031 A 
ATOM     66  C   UNL A   1      40.163  26.519  28.738  1.00  0.00     0.131 A 
ATOM     67  C   UNL A   1      42.102  26.980  26.820  1.00  0.00     0.055 A 
ATOM     68  C   UNL A   1      40.219  25.710  27.600  1.00  0.00     0.041 A 
ATOM     69  F   UNL A   1      39.161  26.302  29.603  1.00  0.00    -0.206 F 
ATOM     70  C   UNL A   1      41.180  25.952  26.623  1.00  0.00     0.022 A 
BRANCH  67  71
ATOM     71  S   UNL A   1      43.192  27.499  25.465  1.00  0.00     0.124 S 
ATOM     72  O   UNL A   1      42.256  28.194  24.584  1.00  0.00    -0.237 OA
ATOM     73  O   UNL A   1      44.168  28.337  26.149  1.00  0.00    -0.237 OA
ATOM     74  O   UNL A   1      43.709  26.236  24.940  1.00  0.00    -0.744 OA
ENDBRANCH  67  71
ENDBRANCH  50  64
BRANCH  51  75
ATOM     75  C   UNL A   1      39.549  33.449  36.924  1.00  0.00     0.023 A 
ATOM     76  C   UNL A   1      38.854  32.909  38.017  1.00  0.00     0.031 A 
ATOM     77  C   UNL A   1      39.957  34.794  37.003  1.00  0.00     0.131 A 
ATOM     78  C   UNL A   1      38.554  33.718  39.125  1.00  0.00     0.055 A 
ATOM     79  C   UNL A   1      39.705  35.578  38.129  1.00  0.00     0.041 A 
ATOM     80  F   UNL A   1      40.629  35.359  35.987  1.00  0.00    -0.206 F 
ATOM     81  C   UNL A   1      38.989  35.043  39.195  1.00  0.00     0.022 A 
BRANCH  78  82
ATOM     82  S   UNL A   1      37.519  33.034  40.449  1.00  0.00     0.124 S 
ATOM     83  O   UNL A   1      38.274  31.846  40.832  1.00  0.00    -0.237 OA
ATOM     84  O   UNL A   1      37.504  34.125  41.417  1.00  0.00    -0.237 OA
ATOM     85  O   UNL A   1      36.244  32.775  39.784  1.00  0.00    -0.744 OA
ENDBRANCH  78  82
ENDBRANCH  51  75
BRANCH  63  86
ATOM     86  C   UNL A   1      44.324  28.582  35.387  1.00  0.00     0.023 A 
ATOM     87  C   UNL A   1      44.205  27.555  36.340  1.00  0.00     0.031 A 
ATOM     88  C   UNL A   1      45.603  29.116  35.147  1.00  0.00     0.131 A 
ATOM     89  C   UNL A   1      45.336  27.131  37.054  1.00  0.00     0.055 A 
ATOM     90  C   UNL A   1      46.734  28.644  35.813  1.00  0.00     0.041 A 
ATOM     91  F   UNL A   1      45.776  30.102  34.251  1.00  0.00    -0.206 F 
ATOM     92  C   UNL A   1      46.603  27.654  36.783  1.00  0.00     0.022 A 
BRANCH  89  93
ATOM     93  S   UNL A   1      45.117  25.947  38.412  1.00  0.00     0.124 S 
ATOM     94  O   UNL A   1      44.176  26.651  39.277  1.00  0.00    -0.237 OA
ATOM     95  O   UNL A   1      44.594  24.773  37.722  1.00  0.00    -0.237 OA
ATOM     96  O   UNL A   1      46.466  25.796  38.955  1.00  0.00    -0.744 OA
ENDBRANCH  89  93
ENDBRANCH  63  86
ENDBRANCH  37  38
ENDBRANCH  29  32
ENDBRANCH   1  28
TORSDOF 14
ENDMDL
MODEL 3
REMARK VINA RESULT:     -13.2      1.697      2.073
REMARK SMILES Cc1nc2ccc(Cl)cc2cc1C(=O)N1CCC(C(=O)NCCCNC(=O)c2ccc(-c3c4nc(c(-c5cc(S(=O)(=O)[O-])ccc5F)c5ccc([nH]5)c(-c5cc(S(=O)(=O)[O-])ccc5F)c5nc(c(-c6cc(S(=O)(=O)[O-])ccc6F)c6ccc3[nH]6)C=C5)C=C4)cc2)CC1
REMARK SMILES IDX 24 1 23 2 22 3 21 4 19 5 20 6 18 8 13 9 14 10 15 11 16 12
REMARK SMILES IDX 92 13 17 14 91 15 12 16 1 17 2 18 3 19 4 20 11 21 5 22 10 23
REMARK SMILES IDX 6 24 9 25 7 26 8 27 25 28 26 29 27 31 28 32 29 33 90 34
REMARK SMILES IDX 30 35 89 36 31 37 32 38 33 39 83 40 34 41 88 42 82 43 84 44
REMARK SMILES IDX 35 45 87 46 81 47 80 48 36 50 68 51 48 52 67 53 49 54 52 55
REMARK SMILES IDX 66 56 85 57 50 58 51 59 65 61 86 62 53 63 37 64 38 65 46 66
REMARK SMILES IDX 39 67 45 68 47 69 44 70 40 71 41 72 42 73 43 74 69 75 70 76
REMARK SMILES IDX 78 77 71 78 77 79 79 80 76 81 72 82 73 83 74 84 75 85 54 86
REMARK SMILES IDX 55 87 63 88 56 89 62 90 64 91 61 92 57 93 58 94 59 95 60 96
REMARK H PARENT 21 7 25 30 84 49 52 60
REMARK Flexibility Score: inf
ROOT
ATOM      1  C   UNL A   1      32.974  33.327  27.240  1.00  0.00     0.118 C 
ENDROOT
BRANCH   1   2
ATOM      2  C   UNL A   1      31.675  32.730  26.727  1.00  0.00     0.042 C 
BRANCH   2   3
ATOM      3  C   UNL A   1      31.733  31.222  26.540  1.00  0.00     0.117 C 
BRANCH   3   4
ATOM      4  N   UNL A   1      30.972  30.774  25.381  1.00  0.00    -0.356 N 
ATOM      5  C   UNL A   1      31.040  29.624  24.658  1.00  0.00     0.223 C 
ATOM      6  O   UNL A   1      30.268  29.488  23.707  1.00  0.00    -0.275 OA
ATOM      7  H   UNL A   1      30.293  31.414  25.067  1.00  0.00     0.163 HD
BRANCH   5   8
ATOM      8  C   UNL A   1      32.023  28.523  25.012  1.00  0.00     0.082 C 
ATOM      9  C   UNL A   1      32.449  24.478  26.232  1.00  0.00     0.255 C 
ATOM     10  O   UNL A   1      31.703  24.150  27.149  1.00  0.00    -0.269 OA
ATOM     11  N   UNL A   1      32.526  25.797  25.773  1.00  0.00    -0.339 N 
ATOM     12  C   UNL A   1      32.641  26.828  26.790  1.00  0.00     0.120 C 
ATOM     13  C   UNL A   1      32.822  26.191  24.396  1.00  0.00     0.120 C 
ATOM     14  C   UNL A   1      31.838  28.065  26.462  1.00  0.00     0.035 C 
ATOM     15  C   UNL A   1      32.012  27.404  23.962  1.00  0.00     0.035 C 
BRANCH   9  16
ATOM     16  C   UNL A   1      33.464  23.505  25.740  1.00  0.00     0.061 A 
ATOM     17  C   UNL A   1      31.759  21.869  24.763  1.00  0.00     0.067 C 
ATOM     18  C   UNL A   1      33.156  22.302  25.107  1.00  0.00     0.051 A 
ATOM     19  N   UNL A   1      34.118  21.372  24.814  1.00  0.00    -0.252 NA
ATOM     20  C   UNL A   1      35.400  21.615  25.139  1.00  0.00     0.071 A 
ATOM     21  C   UNL A   1      34.801  23.726  26.091  1.00  0.00     0.026 A 
ATOM     22  C   UNL A   1      36.388  20.674  24.879  1.00  0.00     0.030 A 
ATOM     23  C   UNL A   1      35.792  22.807  25.766  1.00  0.00     0.002 A 
ATOM     24  C   UNL A   1      37.734  20.910  25.193  1.00  0.00     0.023 A 
ATOM     25  C   UNL A   1      37.136  23.064  26.078  1.00  0.00     0.030 A 
ATOM     26  C   UNL A   1      38.103  22.115  25.779  1.00  0.00     0.041 A 
ATOM     27  Cl  UNL A   1      39.753  22.437  26.136  1.00  0.00    -0.084 Cl
ENDBRANCH   9  16
ENDBRANCH   5   8
ENDBRANCH   3   4
ENDBRANCH   2   3
ENDBRANCH   1   2
BRANCH   1  28
ATOM     28  N   UNL A   1      32.757  34.543  28.013  1.00  0.00    -0.352 N 
ATOM     29  C   UNL A   1      33.314  34.937  29.203  1.00  0.00     0.251 C 
ATOM     30  H   UNL A   1      32.112  35.176  27.623  1.00  0.00     0.163 HD
ATOM     31  O   UNL A   1      32.827  35.891  29.809  1.00  0.00    -0.269 OA
BRANCH  29  32
ATOM     32  C   UNL A   1      34.473  34.209  29.757  1.00  0.00     0.039 A 
ATOM     33  C   UNL A   1      35.755  34.511  29.291  1.00  0.00     0.014 A 
ATOM     34  C   UNL A   1      34.299  33.229  30.738  1.00  0.00     0.014 A 
ATOM     35  C   UNL A   1      36.863  33.880  29.860  1.00  0.00     0.010 A 
ATOM     36  C   UNL A   1      35.407  32.680  31.374  1.00  0.00     0.010 A 
ATOM     37  C   UNL A   1      36.702  32.992  30.936  1.00  0.00    -0.014 A 
BRANCH  37  38
ATOM     38  C   UNL A   1      37.869  32.365  31.608  1.00  0.00     0.031 A 
ATOM     39  C   UNL A   1      38.592  31.223  30.946  1.00  0.00     0.074 A 
ATOM     40  C   UNL A   1      38.227  32.770  32.842  1.00  0.00     0.049 A 
ATOM     41  N   UNL A   1      39.562  30.475  31.408  1.00  0.00    -0.248 NA
ATOM     42  C   UNL A   1      38.133  30.848  29.601  1.00  0.00     0.031 C 
ATOM     43  C   UNL A   1      37.571  33.832  33.607  1.00  0.00     0.029 A 
ATOM     44  N   UNL A   1      39.220  32.325  33.680  1.00  0.00    -0.354 N 
ATOM     45  C   UNL A   1      39.819  29.536  30.415  1.00  0.00     0.074 A 
ATOM     46  C   UNL A   1      38.849  29.761  29.365  1.00  0.00     0.031 C 
ATOM     47  C   UNL A   1      38.188  33.969  34.790  1.00  0.00     0.029 A 
ATOM     48  C   UNL A   1      39.248  32.972  34.894  1.00  0.00     0.049 A 
ATOM     49  H   UNL A   1      39.853  31.613  33.434  1.00  0.00     0.167 HD
ATOM     50  C   UNL A   1      40.793  28.592  30.372  1.00  0.00     0.034 A 
ATOM     51  C   UNL A   1      40.022  32.769  35.979  1.00  0.00     0.034 A 
ATOM     52  C   UNL A   1      41.751  28.386  31.431  1.00  0.00     0.049 A 
ATOM     53  C   UNL A   1      41.078  31.695  35.927  1.00  0.00     0.074 A 
ATOM     54  C   UNL A   1      42.812  27.500  31.474  1.00  0.00     0.029 A 
ATOM     55  N   UNL A   1      41.755  29.068  32.643  1.00  0.00    -0.354 N 
ATOM     56  N   UNL A   1      41.351  30.852  34.956  1.00  0.00    -0.248 NA
ATOM     57  C   UNL A   1      41.938  31.553  37.107  1.00  0.00     0.031 C 
ATOM     58  C   UNL A   1      43.406  27.588  32.738  1.00  0.00     0.029 A 
ATOM     59  C   UNL A   1      42.777  28.594  33.454  1.00  0.00     0.049 A 
ATOM     60  H   UNL A   1      41.126  29.783  32.890  1.00  0.00     0.167 HD
ATOM     61  C   UNL A   1      42.434  30.098  35.401  1.00  0.00     0.074 A 
ATOM     62  C   UNL A   1      42.770  30.597  36.720  1.00  0.00     0.031 C 
ATOM     63  C   UNL A   1      43.092  29.088  34.775  1.00  0.00     0.034 A 
BRANCH  50  64
ATOM     64  C   UNL A   1      40.838  27.700  29.150  1.00  0.00     0.023 A 
ATOM     65  C   UNL A   1      41.786  27.894  28.128  1.00  0.00     0.031 A 
ATOM     66  C   UNL A   1      39.888  26.679  28.974  1.00  0.00     0.131 A 
ATOM     67  C   UNL A   1      41.699  27.154  26.940  1.00  0.00     0.055 A 
ATOM     68  C   UNL A   1      39.869  25.878  27.829  1.00  0.00     0.041 A 
ATOM     69  F   UNL A   1      38.942  26.455  29.901  1.00  0.00    -0.206 F 
ATOM     70  C   UNL A   1      40.765  26.128  26.794  1.00  0.00     0.022 A 
BRANCH  67  71
ATOM     71  S   UNL A   1      42.699  27.683  25.521  1.00  0.00     0.124 S 
ATOM     72  O   UNL A   1      42.644  26.501  24.664  1.00  0.00    -0.237 OA
ATOM     73  O   UNL A   1      41.974  28.853  25.043  1.00  0.00    -0.237 OA
ATOM     74  O   UNL A   1      44.009  27.956  26.109  1.00  0.00    -0.744 OA
ENDBRANCH  67  71
ENDBRANCH  50  64
BRANCH  51  75
ATOM     75  C   UNL A   1      39.809  33.581  37.211  1.00  0.00     0.023 A 
ATOM     76  C   UNL A   1      40.580  34.724  37.475  1.00  0.00     0.031 A 
ATOM     77  C   UNL A   1      38.832  33.213  38.155  1.00  0.00     0.131 A 
ATOM     78  C   UNL A   1      40.387  35.436  38.670  1.00  0.00     0.055 A 
ATOM     79  C   UNL A   1      38.607  33.956  39.314  1.00  0.00     0.041 A 
ATOM     80  F   UNL A   1      38.064  32.131  37.948  1.00  0.00    -0.206 F 
ATOM     81  C   UNL A   1      39.396  35.069  39.583  1.00  0.00     0.022 A 
BRANCH  78  82
ATOM     82  S   UNL A   1      41.506  36.812  39.054  1.00  0.00     0.124 S 
ATOM     83  O   UNL A   1      42.141  36.346  40.281  1.00  0.00    -0.237 OA
ATOM     84  O   UNL A   1      42.354  36.854  37.867  1.00  0.00    -0.237 OA
ATOM     85  O   UNL A   1      40.603  37.950  39.211  1.00  0.00    -0.744 OA
ENDBRANCH  78  82
ENDBRANCH  51  75
BRANCH  63  86
ATOM     86  C   UNL A   1      44.276  28.487  35.495  1.00  0.00     0.023 A 
ATOM     87  C   UNL A   1      44.125  27.466  36.451  1.00  0.00     0.031 A 
ATOM     88  C   UNL A   1      45.576  28.944  35.217  1.00  0.00     0.131 A 
ATOM     89  C   UNL A   1      45.250  26.973  37.130  1.00  0.00     0.055 A 
ATOM     90  C   UNL A   1      46.697  28.404  35.849  1.00  0.00     0.041 A 
ATOM     91  F   UNL A   1      45.780  29.920  34.318  1.00  0.00    -0.206 F 
ATOM     92  C   UNL A   1      46.536  27.421  36.821  1.00  0.00     0.022 A 
BRANCH  89  93
ATOM     93  S   UNL A   1      45.002  25.801  38.492  1.00  0.00     0.124 S 
ATOM     94  O   UNL A   1      46.337  25.727  39.075  1.00  0.00    -0.237 OA
ATOM     95  O   UNL A   1      43.988  26.470  39.301  1.00  0.00    -0.237 OA
ATOM     96  O   UNL A   1      44.551  24.584  37.819  1.00  0.00    -0.744 OA
ENDBRANCH  89  93
ENDBRANCH  63  86
ENDBRANCH  37  38
ENDBRANCH  29  32
ENDBRANCH   1  28
TORSDOF 14
ENDMDL
