MODEL 1
REMARK VINA RESULT:     -11.0      0.000      0.000
REMARK SMILES N#C[C@H]1CN(C(=O)c2csc(/C=C/C(=O)NCCCNC(=O)c3ccc(-c4c5nc(c(-c6cc(S(=O)(=O)[O-])ccc6F)c6ccc([nH]6)c(-c6cc(S(=O)(=O)[O-])ccc6F)c6nc(c(-c7cc(S(=O)(=O)[O-])ccc7F)c7ccc4[nH]7)C=C6)C=C5)cc3)c2)CCO1
REMARK SMILES IDX 17 1 16 2 14 3 15 4 13 6 12 7 11 8 8 9 9 10 86 11 10 12 6 13
REMARK SMILES IDX 7 14 5 15 3 16 4 17 89 18 88 19 87 20 2 21 1 22 18 23 19 24
REMARK SMILES IDX 20 25 21 26 22 28 23 29 24 30 85 31 25 32 84 33 26 34 27 35
REMARK SMILES IDX 28 36 78 37 29 38 83 39 77 40 79 41 30 42 82 43 76 44 75 45
REMARK SMILES IDX 31 47 63 48 43 49 62 50 44 51 47 52 61 53 80 54 45 55 46 56
REMARK SMILES IDX 60 58 81 59 48 60 32 61 33 62 41 63 34 64 40 65 42 66 39 67
REMARK SMILES IDX 35 68 36 69 37 70 38 71 64 72 65 73 73 74 66 75 72 76 74 77
REMARK SMILES IDX 71 78 67 79 68 80 69 81 70 82 49 83 50 84 58 85 51 86 57 87
REMARK SMILES IDX 59 88 56 89 52 90 53 91 54 92 55 93
REMARK H PARENT 16 5 20 27 79 46 47 57
REMARK Flexibility Score: inf
ROOT
ATOM      1  C   UNL A   1      31.941  30.704  26.921  1.00  0.00     0.118 C 
ENDROOT
BRANCH   1   2
ATOM      2  N   UNL A   1      33.207  30.384  27.558  1.00  0.00    -0.352 N 
ATOM      3  C   UNL A   1      34.067  29.346  27.394  1.00  0.00     0.244 C 
ATOM      4  O   UNL A   1      35.128  29.347  28.017  1.00  0.00    -0.270 OA
ATOM      5  H   UNL A   1      33.494  31.040  28.232  1.00  0.00     0.163 HD
BRANCH   3   6
ATOM      6  C   UNL A   1      33.817  28.262  26.417  1.00  0.00     0.072 C 
ATOM      7  C   UNL A   1      32.924  27.274  26.565  1.00  0.00     0.024 C 
BRANCH   7   8
ATOM      8  C   UNL A   1      32.667  26.272  25.586  1.00  0.00     0.028 A 
ATOM      9  C   UNL A   1      33.099  24.630  23.952  1.00  0.00     0.051 A 
ATOM     10  C   UNL A   1      31.729  24.768  23.851  1.00  0.00     0.079 A 
ATOM     11  C   UNL A   1      33.617  25.452  25.001  1.00  0.00     0.033 A 
ATOM     12  S   UNL A   1      31.113  25.939  24.932  1.00  0.00    -0.144 S 
BRANCH   9  13
ATOM     13  C   UNL A   1      33.906  23.750  23.120  1.00  0.00     0.254 C 
ATOM     14  O   UNL A   1      33.978  23.934  21.909  1.00  0.00    -0.269 OA
BRANCH  13  15
ATOM     15  N   UNL A   1      34.519  22.676  23.753  1.00  0.00    -0.333 N 
ATOM     16  C   UNL A   1      36.275  22.286  25.471  1.00  0.00     0.240 C 
ATOM     17  C   UNL A   1      35.966  22.503  23.976  1.00  0.00     0.167 C 
ATOM     18  O   UNL A   1      35.475  21.201  25.992  1.00  0.00    -0.360 OA
ATOM     19  C   UNL A   1      34.072  21.480  25.850  1.00  0.00     0.183 C 
ATOM     20  C   UNL A   1      33.695  21.638  24.374  1.00  0.00     0.148 C 
BRANCH  16  21
ATOM     21  C   UNL A   1      37.712  21.988  25.629  1.00  0.00     0.096 C 
ATOM     22  N   UNL A   1      38.840  21.779  25.797  1.00  0.00    -0.195 NA
ENDBRANCH  16  21
ENDBRANCH  13  15
ENDBRANCH   9  13
ENDBRANCH   7   8
ENDBRANCH   3   6
ENDBRANCH   1   2
BRANCH   1  23
ATOM     23  C   UNL A   1      31.689  32.212  26.933  1.00  0.00     0.042 C 
BRANCH  23  24
ATOM     24  C   UNL A   1      32.971  33.026  27.079  1.00  0.00     0.118 C 
BRANCH  24  25
ATOM     25  N   UNL A   1      32.724  34.294  27.750  1.00  0.00    -0.352 N 
ATOM     26  C   UNL A   1      33.194  34.775  28.943  1.00  0.00     0.251 C 
ATOM     27  H   UNL A   1      32.121  34.906  27.267  1.00  0.00     0.163 HD
ATOM     28  O   UNL A   1      32.624  35.733  29.458  1.00  0.00    -0.269 OA
BRANCH  26  29
ATOM     29  C   UNL A   1      34.367  34.159  29.601  1.00  0.00     0.039 A 
ATOM     30  C   UNL A   1      35.644  34.499  29.150  1.00  0.00     0.014 A 
ATOM     31  C   UNL A   1      34.216  33.199  30.604  1.00  0.00     0.014 A 
ATOM     32  C   UNL A   1      36.763  33.890  29.716  1.00  0.00     0.010 A 
ATOM     33  C   UNL A   1      35.335  32.669  31.239  1.00  0.00     0.010 A 
ATOM     34  C   UNL A   1      36.621  32.981  30.778  1.00  0.00    -0.014 A 
BRANCH  34  35
ATOM     35  C   UNL A   1      37.808  32.314  31.372  1.00  0.00     0.031 A 
ATOM     36  C   UNL A   1      38.362  32.794  32.689  1.00  0.00     0.074 A 
ATOM     37  C   UNL A   1      38.389  31.287  30.723  1.00  0.00     0.049 A 
ATOM     38  N   UNL A   1      39.391  32.349  33.364  1.00  0.00    -0.248 NA
ATOM     39  C   UNL A   1      37.691  33.944  33.313  1.00  0.00     0.031 C 
ATOM     40  C   UNL A   1      37.958  30.759  29.426  1.00  0.00     0.029 A 
ATOM     41  N   UNL A   1      39.456  30.497  31.063  1.00  0.00    -0.354 N 
ATOM     42  C   UNL A   1      39.490  33.167  34.486  1.00  0.00     0.074 A 
ATOM     43  C   UNL A   1      38.469  34.182  34.357  1.00  0.00     0.031 C 
ATOM     44  C   UNL A   1      38.722  29.703  29.105  1.00  0.00     0.029 A 
ATOM     45  C   UNL A   1      39.733  29.513  30.141  1.00  0.00     0.049 A 
ATOM     46  H   UNL A   1      39.977  30.622  31.889  1.00  0.00     0.167 HD
ATOM     47  C   UNL A   1      40.334  33.061  35.541  1.00  0.00     0.034 A 
ATOM     48  C   UNL A   1      40.694  28.570  30.129  1.00  0.00     0.034 A 
ATOM     49  C   UNL A   1      41.346  32.038  35.652  1.00  0.00     0.049 A 
ATOM     50  C   UNL A   1      41.651  28.500  31.293  1.00  0.00     0.074 A 
ATOM     51  C   UNL A   1      42.234  31.814  36.688  1.00  0.00     0.029 A 
ATOM     52  N   UNL A   1      41.614  31.075  34.686  1.00  0.00    -0.354 N 
ATOM     53  N   UNL A   1      41.705  29.255  32.368  1.00  0.00    -0.248 NA
ATOM     54  C   UNL A   1      42.664  27.440  31.250  1.00  0.00     0.031 C 
ATOM     55  C   UNL A   1      43.094  30.778  36.313  1.00  0.00     0.029 A 
ATOM     56  C   UNL A   1      42.674  30.278  35.089  1.00  0.00     0.049 A 
ATOM     57  H   UNL A   1      41.121  30.973  33.840  1.00  0.00     0.167 HD
ATOM     58  C   UNL A   1      42.731  28.728  33.149  1.00  0.00     0.074 A 
ATOM     59  C   UNL A   1      43.254  27.587  32.428  1.00  0.00     0.031 C 
ATOM     60  C   UNL A   1      43.192  29.145  34.358  1.00  0.00     0.034 A 
BRANCH  47  61
ATOM     61  C   UNL A   1      40.216  34.096  36.637  1.00  0.00     0.023 A 
ATOM     62  C   UNL A   1      41.177  35.109  36.807  1.00  0.00     0.031 A 
ATOM     63  C   UNL A   1      39.143  34.054  37.544  1.00  0.00     0.131 A 
ATOM     64  C   UNL A   1      41.090  35.983  37.902  1.00  0.00     0.055 A 
ATOM     65  C   UNL A   1      39.011  34.987  38.575  1.00  0.00     0.041 A 
ATOM     66  F   UNL A   1      38.207  33.095  37.454  1.00  0.00    -0.206 F 
ATOM     67  C   UNL A   1      39.996  35.949  38.769  1.00  0.00     0.022 A 
BRANCH  64  68
ATOM     68  S   UNL A   1      42.508  37.052  38.270  1.00  0.00     0.124 S 
ATOM     69  O   UNL A   1      43.400  36.127  38.968  1.00  0.00    -0.237 OA
ATOM     70  O   UNL A   1      42.939  37.476  36.944  1.00  0.00    -0.237 OA
ATOM     71  O   UNL A   1      41.937  38.104  39.108  1.00  0.00    -0.744 OA
ENDBRANCH  64  68
ENDBRANCH  47  61
BRANCH  48  72
ATOM     72  C   UNL A   1      40.811  27.620  28.985  1.00  0.00     0.023 A 
ATOM     73  C   UNL A   1      41.757  27.820  27.967  1.00  0.00     0.031 A 
ATOM     74  C   UNL A   1      39.937  26.523  28.863  1.00  0.00     0.131 A 
ATOM     75  C   UNL A   1      41.769  26.975  26.846  1.00  0.00     0.055 A 
ATOM     76  C   UNL A   1      40.000  25.646  27.779  1.00  0.00     0.041 A 
ATOM     77  F   UNL A   1      39.013  26.283  29.806  1.00  0.00    -0.206 F 
ATOM     78  C   UNL A   1      40.909  25.880  26.754  1.00  0.00     0.022 A 
BRANCH  75  79
ATOM     79  S   UNL A   1      42.851  27.398  25.451  1.00  0.00     0.124 S 
ATOM     80  O   UNL A   1      44.061  27.836  26.139  1.00  0.00    -0.237 OA
ATOM     81  O   UNL A   1      42.939  26.128  24.740  1.00  0.00    -0.237 OA
ATOM     82  O   UNL A   1      42.112  28.449  24.757  1.00  0.00    -0.744 OA
ENDBRANCH  75  79
ENDBRANCH  48  72
BRANCH  60  83
ATOM     83  C   UNL A   1      44.275  28.312  35.005  1.00  0.00     0.023 A 
ATOM     84  C   UNL A   1      43.987  27.311  35.947  1.00  0.00     0.031 A 
ATOM     85  C   UNL A   1      45.626  28.551  34.691  1.00  0.00     0.131 A 
ATOM     86  C   UNL A   1      45.033  26.647  36.605  1.00  0.00     0.055 A 
ATOM     87  C   UNL A   1      46.660  27.825  35.283  1.00  0.00     0.041 A 
ATOM     88  F   UNL A   1      45.966  29.498  33.802  1.00  0.00    -0.206 F 
ATOM     89  C   UNL A   1      46.368  26.881  36.262  1.00  0.00     0.022 A 
BRANCH  86  90
ATOM     90  S   UNL A   1      44.634  25.584  38.019  1.00  0.00     0.124 S 
ATOM     91  O   UNL A   1      43.544  24.771  37.488  1.00  0.00    -0.237 OA
ATOM     92  O   UNL A   1      45.895  24.886  38.250  1.00  0.00    -0.237 OA
ATOM     93  O   UNL A   1      44.250  26.531  39.063  1.00  0.00    -0.744 OA
ENDBRANCH  86  90
ENDBRANCH  60  83
ENDBRANCH  34  35
ENDBRANCH  26  29
ENDBRANCH  24  25
ENDBRANCH  23  24
ENDBRANCH   1  23
TORSDOF 17
ENDMDL
MODEL 2
REMARK VINA RESULT:     -11.0      1.005      7.629
REMARK SMILES N#C[C@H]1CN(C(=O)c2csc(/C=C/C(=O)NCCCNC(=O)c3ccc(-c4c5nc(c(-c6cc(S(=O)(=O)[O-])ccc6F)c6ccc([nH]6)c(-c6cc(S(=O)(=O)[O-])ccc6F)c6nc(c(-c7cc(S(=O)(=O)[O-])ccc7F)c7ccc4[nH]7)C=C6)C=C5)cc3)c2)CCO1
REMARK SMILES IDX 17 1 16 2 14 3 15 4 13 6 12 7 11 8 8 9 9 10 86 11 10 12 6 13
REMARK SMILES IDX 7 14 5 15 3 16 4 17 89 18 88 19 87 20 2 21 1 22 18 23 19 24
REMARK SMILES IDX 20 25 21 26 22 28 23 29 24 30 85 31 25 32 84 33 26 34 27 35
REMARK SMILES IDX 28 36 78 37 29 38 83 39 77 40 79 41 30 42 82 43 76 44 75 45
REMARK SMILES IDX 31 47 63 48 43 49 62 50 44 51 47 52 61 53 80 54 45 55 46 56
REMARK SMILES IDX 60 58 81 59 48 60 32 61 33 62 41 63 34 64 40 65 42 66 39 67
REMARK SMILES IDX 35 68 36 69 37 70 38 71 64 72 65 73 73 74 66 75 72 76 74 77
REMARK SMILES IDX 71 78 67 79 68 80 69 81 70 82 49 83 50 84 58 85 51 86 57 87
REMARK SMILES IDX 59 88 56 89 52 90 53 91 54 92 55 93
REMARK H PARENT 16 5 20 27 79 46 47 57
REMARK Flexibility Score: inf
ROOT
ATOM      1  C   UNL A   1      31.883  30.696  26.914  1.00  0.00     0.118 C 
ENDROOT
BRANCH   1   2
ATOM      2  N   UNL A   1      33.092  30.362  27.647  1.00  0.00    -0.352 N 
ATOM      3  C   UNL A   1      34.101  29.492  27.385  1.00  0.00     0.244 C 
ATOM      4  O   UNL A   1      35.066  29.451  28.147  1.00  0.00    -0.270 OA
ATOM      5  H   UNL A   1      33.200  30.859  28.489  1.00  0.00     0.163 HD
BRANCH   3   6
ATOM      6  C   UNL A   1      34.126  28.660  26.160  1.00  0.00     0.072 C 
ATOM      7  C   UNL A   1      33.425  27.534  25.972  1.00  0.00     0.024 C 
BRANCH   7   8
ATOM      8  C   UNL A   1      33.428  26.780  24.764  1.00  0.00     0.028 A 
ATOM      9  C   UNL A   1      33.664  24.927  23.328  1.00  0.00     0.051 A 
ATOM     10  C   UNL A   1      33.489  25.957  22.425  1.00  0.00     0.079 A 
ATOM     11  C   UNL A   1      33.558  25.404  24.671  1.00  0.00     0.033 A 
ATOM     12  S   UNL A   1      33.307  27.470  23.195  1.00  0.00    -0.144 S 
BRANCH   9  13
ATOM     13  C   UNL A   1      33.900  23.537  22.963  1.00  0.00     0.254 C 
ATOM     14  O   UNL A   1      33.881  23.192  21.787  1.00  0.00    -0.269 OA
BRANCH  13  15
ATOM     15  N   UNL A   1      34.077  22.636  24.007  1.00  0.00    -0.333 N 
ATOM     16  C   UNL A   1      33.826  20.196  24.417  1.00  0.00     0.240 C 
ATOM     17  C   UNL A   1      33.137  21.576  24.413  1.00  0.00     0.167 C 
ATOM     18  O   UNL A   1      35.029  20.242  25.217  1.00  0.00    -0.360 OA
ATOM     19  C   UNL A   1      35.954  21.214  24.702  1.00  0.00     0.183 C 
ATOM     20  C   UNL A   1      35.344  22.618  24.738  1.00  0.00     0.148 C 
BRANCH  16  21
ATOM     21  C   UNL A   1      32.889  19.189  24.954  1.00  0.00     0.096 C 
ATOM     22  N   UNL A   1      32.188  18.385  25.408  1.00  0.00    -0.195 NA
ENDBRANCH  16  21
ENDBRANCH  13  15
ENDBRANCH   9  13
ENDBRANCH   7   8
ENDBRANCH   3   6
ENDBRANCH   1   2
BRANCH   1  23
ATOM     23  C   UNL A   1      31.650  32.207  26.901  1.00  0.00     0.042 C 
BRANCH  23  24
ATOM     24  C   UNL A   1      32.947  33.007  26.971  1.00  0.00     0.118 C 
BRANCH  24  25
ATOM     25  N   UNL A   1      32.757  34.270  27.670  1.00  0.00    -0.352 N 
ATOM     26  C   UNL A   1      33.246  34.700  28.875  1.00  0.00     0.251 C 
ATOM     27  H   UNL A   1      32.185  34.919  27.201  1.00  0.00     0.163 HD
ATOM     28  O   UNL A   1      32.720  35.671  29.411  1.00  0.00    -0.269 OA
BRANCH  26  29
ATOM     29  C   UNL A   1      34.388  34.016  29.520  1.00  0.00     0.039 A 
ATOM     30  C   UNL A   1      34.127  32.990  30.432  1.00  0.00     0.014 A 
ATOM     31  C   UNL A   1      35.704  34.425  29.291  1.00  0.00     0.014 A 
ATOM     32  C   UNL A   1      35.184  32.369  31.096  1.00  0.00     0.010 A 
ATOM     33  C   UNL A   1      36.762  33.736  29.875  1.00  0.00     0.010 A 
ATOM     34  C   UNL A   1      36.514  32.723  30.811  1.00  0.00    -0.014 A 
BRANCH  34  35
ATOM     35  C   UNL A   1      37.643  32.079  31.529  1.00  0.00     0.031 A 
ATOM     36  C   UNL A   1      38.417  30.966  30.870  1.00  0.00     0.074 A 
ATOM     37  C   UNL A   1      37.962  32.488  32.772  1.00  0.00     0.049 A 
ATOM     38  N   UNL A   1      39.427  30.275  31.334  1.00  0.00    -0.248 NA
ATOM     39  C   UNL A   1      37.980  30.555  29.527  1.00  0.00     0.031 C 
ATOM     40  C   UNL A   1      37.260  33.534  33.520  1.00  0.00     0.029 A 
ATOM     41  N   UNL A   1      38.958  32.085  33.622  1.00  0.00    -0.354 N 
ATOM     42  C   UNL A   1      39.740  29.349  30.344  1.00  0.00     0.074 A 
ATOM     43  C   UNL A   1      38.762  29.514  29.292  1.00  0.00     0.031 C 
ATOM     44  C   UNL A   1      37.878  33.723  34.696  1.00  0.00     0.029 A 
ATOM     45  C   UNL A   1      38.983  32.775  34.813  1.00  0.00     0.049 A 
ATOM     46  H   UNL A   1      39.597  31.368  33.403  1.00  0.00     0.167 HD
ATOM     47  C   UNL A   1      40.767  28.465  30.302  1.00  0.00     0.034 A 
ATOM     48  C   UNL A   1      39.798  32.654  35.878  1.00  0.00     0.034 A 
ATOM     49  C   UNL A   1      41.734  28.318  31.362  1.00  0.00     0.049 A 
ATOM     50  C   UNL A   1      40.906  31.632  35.827  1.00  0.00     0.074 A 
ATOM     51  C   UNL A   1      42.834  27.481  31.414  1.00  0.00     0.029 A 
ATOM     52  N   UNL A   1      41.711  29.016  32.564  1.00  0.00    -0.354 N 
ATOM     53  N   UNL A   1      41.215  30.793  34.864  1.00  0.00    -0.248 NA
ATOM     54  C   UNL A   1      41.786  31.556  36.998  1.00  0.00     0.031 C 
ATOM     55  C   UNL A   1      43.421  27.605  32.677  1.00  0.00     0.029 A 
ATOM     56  C   UNL A   1      42.756  28.603  33.374  1.00  0.00     0.049 A 
ATOM     57  H   UNL A   1      41.050  29.704  32.803  1.00  0.00     0.167 HD
ATOM     58  C   UNL A   1      42.355  30.121  35.299  1.00  0.00     0.074 A 
ATOM     59  C   UNL A   1      42.682  30.664  36.601  1.00  0.00     0.031 C 
ATOM     60  C   UNL A   1      43.071  29.148  34.675  1.00  0.00     0.034 A 
BRANCH  47  61
ATOM     61  C   UNL A   1      40.873  27.574  29.085  1.00  0.00     0.023 A 
ATOM     62  C   UNL A   1      41.857  27.775  28.101  1.00  0.00     0.031 A 
ATOM     63  C   UNL A   1      39.960  26.522  28.890  1.00  0.00     0.131 A 
ATOM     64  C   UNL A   1      41.855  26.995  26.935  1.00  0.00     0.055 A 
ATOM     65  C   UNL A   1      40.022  25.688  27.772  1.00  0.00     0.041 A 
ATOM     66  F   UNL A   1      38.978  26.295  29.778  1.00  0.00    -0.206 F 
ATOM     67  C   UNL A   1      40.963  25.932  26.777  1.00  0.00     0.022 A 
BRANCH  64  68
ATOM     68  S   UNL A   1      42.922  27.497  25.557  1.00  0.00     0.124 S 
ATOM     69  O   UNL A   1      42.054  28.428  24.836  1.00  0.00    -0.237 OA
ATOM     70  O   UNL A   1      44.066  28.089  26.240  1.00  0.00    -0.237 OA
ATOM     71  O   UNL A   1      43.192  26.242  24.857  1.00  0.00    -0.744 OA
ENDBRANCH  64  68
ENDBRANCH  47  61
BRANCH  48  72
ATOM     72  C   UNL A   1      39.602  33.511  37.084  1.00  0.00     0.023 A 
ATOM     73  C   UNL A   1      40.374  34.666  37.289  1.00  0.00     0.031 A 
ATOM     74  C   UNL A   1      38.674  33.157  38.080  1.00  0.00     0.131 A 
ATOM     75  C   UNL A   1      40.249  35.389  38.486  1.00  0.00     0.055 A 
ATOM     76  C   UNL A   1      38.504  33.919  39.237  1.00  0.00     0.041 A 
ATOM     77  F   UNL A   1      37.908  32.063  37.938  1.00  0.00    -0.206 F 
ATOM     78  C   UNL A   1      39.307  35.034  39.453  1.00  0.00     0.022 A 
BRANCH  75  79
ATOM     79  S   UNL A   1      41.418  36.738  38.811  1.00  0.00     0.124 S 
ATOM     80  O   UNL A   1      40.537  37.767  39.353  1.00  0.00    -0.237 OA
ATOM     81  O   UNL A   1      42.340  36.118  39.757  1.00  0.00    -0.237 OA
ATOM     82  O   UNL A   1      41.979  37.025  37.494  1.00  0.00    -0.744 OA
ENDBRANCH  75  79
ENDBRANCH  48  72
BRANCH  60  83
ATOM     83  C   UNL A   1      44.322  28.663  35.370  1.00  0.00     0.023 A 
ATOM     84  C   UNL A   1      44.298  27.629  36.321  1.00  0.00     0.031 A 
ATOM     85  C   UNL A   1      45.560  29.274  35.093  1.00  0.00     0.131 A 
ATOM     86  C   UNL A   1      45.467  27.295  37.021  1.00  0.00     0.055 A 
ATOM     87  C   UNL A   1      46.737  28.877  35.730  1.00  0.00     0.041 A 
ATOM     88  F   UNL A   1      45.647  30.271  34.199  1.00  0.00    -0.206 F 
ATOM     89  C   UNL A   1      46.691  27.897  36.716  1.00  0.00     0.022 A 
BRANCH  86  90
ATOM     90  S   UNL A   1      45.337  26.174  38.441  1.00  0.00     0.124 S 
ATOM     91  O   UNL A   1      44.569  25.067  37.883  1.00  0.00    -0.237 OA
ATOM     92  O   UNL A   1      46.737  25.891  38.743  1.00  0.00    -0.237 OA
ATOM     93  O   UNL A   1      44.636  26.972  39.445  1.00  0.00    -0.744 OA
ENDBRANCH  86  90
ENDBRANCH  60  83
ENDBRANCH  34  35
ENDBRANCH  26  29
ENDBRANCH  24  25
ENDBRANCH  23  24
ENDBRANCH   1  23
TORSDOF 17
ENDMDL
MODEL 3
REMARK VINA RESULT:     -11.0      1.657      2.137
REMARK SMILES N#C[C@H]1CN(C(=O)c2csc(/C=C/C(=O)NCCCNC(=O)c3ccc(-c4c5nc(c(-c6cc(S(=O)(=O)[O-])ccc6F)c6ccc([nH]6)c(-c6cc(S(=O)(=O)[O-])ccc6F)c6nc(c(-c7cc(S(=O)(=O)[O-])ccc7F)c7ccc4[nH]7)C=C6)C=C5)cc3)c2)CCO1
REMARK SMILES IDX 17 1 16 2 14 3 15 4 13 6 12 7 11 8 8 9 9 10 86 11 10 12 6 13
REMARK SMILES IDX 7 14 5 15 3 16 4 17 89 18 88 19 87 20 2 21 1 22 18 23 19 24
REMARK SMILES IDX 20 25 21 26 22 28 23 29 24 30 85 31 25 32 84 33 26 34 27 35
REMARK SMILES IDX 28 36 78 37 29 38 83 39 77 40 79 41 30 42 82 43 76 44 75 45
REMARK SMILES IDX 31 47 63 48 43 49 62 50 44 51 47 52 61 53 80 54 45 55 46 56
REMARK SMILES IDX 60 58 81 59 48 60 32 61 33 62 41 63 34 64 40 65 42 66 39 67
REMARK SMILES IDX 35 68 36 69 37 70 38 71 64 72 65 73 73 74 66 75 72 76 74 77
REMARK SMILES IDX 71 78 67 79 68 80 69 81 70 82 49 83 50 84 58 85 51 86 57 87
REMARK SMILES IDX 59 88 56 89 52 90 53 91 54 92 55 93
REMARK H PARENT 16 5 20 27 79 46 47 57
REMARK Flexibility Score: inf
ROOT
ATOM      1  C   UNL A   1      31.741  30.654  26.898  1.00  0.00     0.118 C 
ENDROOT
BRANCH   1   2
ATOM      2  N   UNL A   1      32.991  30.366  27.581  1.00  0.00    -0.352 N 
ATOM      3  C   UNL A   1      34.023  29.539  27.274  1.00  0.00     0.244 C 
ATOM      4  O   UNL A   1      35.017  29.533  27.999  1.00  0.00    -0.270 OA
ATOM      5  H   UNL A   1      33.111  30.862  28.422  1.00  0.00     0.163 HD
BRANCH   3   6
ATOM      6  C   UNL A   1      34.034  28.716  26.044  1.00  0.00     0.072 C 
ATOM      7  C   UNL A   1      33.581  27.459  25.946  1.00  0.00     0.024 C 
BRANCH   7   8
ATOM      8  C   UNL A   1      33.556  26.707  24.737  1.00  0.00     0.028 A 
ATOM      9  C   UNL A   1      33.624  24.833  23.309  1.00  0.00     0.051 A 
ATOM     10  C   UNL A   1      33.653  25.874  22.403  1.00  0.00     0.079 A 
ATOM     11  C   UNL A   1      33.499  25.326  24.645  1.00  0.00     0.033 A 
ATOM     12  S   UNL A   1      33.634  27.401  23.167  1.00  0.00    -0.144 S 
BRANCH   9  13
ATOM     13  C   UNL A   1      33.686  23.423  22.954  1.00  0.00     0.254 C 
ATOM     14  O   UNL A   1      33.491  23.065  21.798  1.00  0.00    -0.269 OA
BRANCH  13  15
ATOM     15  N   UNL A   1      33.908  22.524  23.991  1.00  0.00    -0.333 N 
ATOM     16  C   UNL A   1      33.726  20.077  24.399  1.00  0.00     0.240 C 
ATOM     17  C   UNL A   1      33.004  21.440  24.415  1.00  0.00     0.167 C 
ATOM     18  O   UNL A   1      34.945  20.150  25.172  1.00  0.00    -0.360 OA
ATOM     19  C   UNL A   1      35.834  21.146  24.640  1.00  0.00     0.183 C 
ATOM     20  C   UNL A   1      35.192  22.535  24.693  1.00  0.00     0.148 C 
BRANCH  16  21
ATOM     21  C   UNL A   1      32.825  19.047  24.955  1.00  0.00     0.096 C 
ATOM     22  N   UNL A   1      32.154  18.204  25.383  1.00  0.00    -0.195 NA
ENDBRANCH  16  21
ENDBRANCH  13  15
ENDBRANCH   9  13
ENDBRANCH   7   8
ENDBRANCH   3   6
ENDBRANCH   1   2
BRANCH   1  23
ATOM     23  C   UNL A   1      31.457  32.156  26.887  1.00  0.00     0.042 C 
BRANCH  23  24
ATOM     24  C   UNL A   1      32.727  32.999  26.828  1.00  0.00     0.118 C 
BRANCH  24  25
ATOM     25  N   UNL A   1      32.602  34.207  27.631  1.00  0.00    -0.352 N 
ATOM     26  C   UNL A   1      33.201  34.554  28.813  1.00  0.00     0.251 C 
ATOM     27  H   UNL A   1      31.988  34.884  27.265  1.00  0.00     0.163 HD
ATOM     28  O   UNL A   1      32.726  35.481  29.464  1.00  0.00    -0.269 OA
BRANCH  26  29
ATOM     29  C   UNL A   1      34.398  33.834  29.299  1.00  0.00     0.039 A 
ATOM     30  C   UNL A   1      34.221  32.702  30.098  1.00  0.00     0.014 A 
ATOM     31  C   UNL A   1      35.686  34.306  29.036  1.00  0.00     0.014 A 
ATOM     32  C   UNL A   1      35.334  32.039  30.615  1.00  0.00     0.010 A 
ATOM     33  C   UNL A   1      36.796  33.586  29.466  1.00  0.00     0.010 A 
ATOM     34  C   UNL A   1      36.633  32.464  30.290  1.00  0.00    -0.014 A 
BRANCH  34  35
ATOM     35  C   UNL A   1      37.822  31.774  30.853  1.00  0.00     0.031 A 
ATOM     36  C   UNL A   1      38.306  32.117  32.239  1.00  0.00     0.074 A 
ATOM     37  C   UNL A   1      38.469  30.852  30.114  1.00  0.00     0.049 A 
ATOM     38  N   UNL A   1      39.325  31.633  32.901  1.00  0.00    -0.248 NA
ATOM     39  C   UNL A   1      37.565  33.161  32.963  1.00  0.00     0.031 C 
ATOM     40  C   UNL A   1      38.109  30.465  28.748  1.00  0.00     0.029 A 
ATOM     41  N   UNL A   1      39.554  30.067  30.406  1.00  0.00    -0.354 N 
ATOM     42  C   UNL A   1      39.349  32.316  34.113  1.00  0.00     0.074 A 
ATOM     43  C   UNL A   1      38.293  33.302  34.059  1.00  0.00     0.031 C 
ATOM     44  C   UNL A   1      38.927  29.482  28.340  1.00  0.00     0.029 A 
ATOM     45  C   UNL A   1      39.905  29.208  29.389  1.00  0.00     0.049 A 
ATOM     46  H   UNL A   1      40.037  30.112  31.262  1.00  0.00     0.167 HD
ATOM     47  C   UNL A   1      40.156  32.117  35.184  1.00  0.00     0.034 A 
ATOM     48  C   UNL A   1      40.903  28.308  29.309  1.00  0.00     0.034 A 
ATOM     49  C   UNL A   1      41.203  31.125  35.219  1.00  0.00     0.049 A 
ATOM     50  C   UNL A   1      41.817  28.137  30.497  1.00  0.00     0.074 A 
ATOM     51  C   UNL A   1      42.059  30.813  36.259  1.00  0.00     0.029 A 
ATOM     52  N   UNL A   1      41.546  30.292  34.160  1.00  0.00    -0.354 N 
ATOM     53  N   UNL A   1      41.799  28.762  31.653  1.00  0.00    -0.248 NA
ATOM     54  C   UNL A   1      42.873  27.125  30.375  1.00  0.00     0.031 C 
ATOM     55  C   UNL A   1      42.974  29.860  35.803  1.00  0.00     0.029 A 
ATOM     56  C   UNL A   1      42.621  29.492  34.513  1.00  0.00     0.049 A 
ATOM     57  H   UNL A   1      41.091  30.272  33.288  1.00  0.00     0.167 HD
ATOM     58  C   UNL A   1      42.815  28.183  32.411  1.00  0.00     0.074 A 
ATOM     59  C   UNL A   1      43.411  27.154  31.585  1.00  0.00     0.031 C 
ATOM     60  C   UNL A   1      43.213  28.472  33.679  1.00  0.00     0.034 A 
BRANCH  47  61
ATOM     61  C   UNL A   1      39.954  33.011  36.387  1.00  0.00     0.023 A 
ATOM     62  C   UNL A   1      40.733  34.164  36.593  1.00  0.00     0.031 A 
ATOM     63  C   UNL A   1      38.987  32.694  37.357  1.00  0.00     0.131 A 
ATOM     64  C   UNL A   1      40.590  34.907  37.775  1.00  0.00     0.055 A 
ATOM     65  C   UNL A   1      38.784  33.491  38.485  1.00  0.00     0.041 A 
ATOM     66  F   UNL A   1      38.230  31.592  37.234  1.00  0.00    -0.206 F 
ATOM     67  C   UNL A   1      39.599  34.596  38.708  1.00  0.00     0.022 A 
BRANCH  64  68
ATOM     68  S   UNL A   1      41.826  36.179  38.152  1.00  0.00     0.124 S 
ATOM     69  O   UNL A   1      42.768  35.436  38.987  1.00  0.00    -0.237 OA
ATOM     70  O   UNL A   1      42.306  36.557  36.829  1.00  0.00    -0.237 OA
ATOM     71  O   UNL A   1      41.059  37.205  38.856  1.00  0.00    -0.744 OA
ENDBRANCH  64  68
ENDBRANCH  47  61
BRANCH  48  72
ATOM     72  C   UNL A   1      41.102  27.503  28.068  1.00  0.00     0.023 A 
ATOM     73  C   UNL A   1      40.756  26.144  28.020  1.00  0.00     0.031 A 
ATOM     74  C   UNL A   1      41.694  28.071  26.925  1.00  0.00     0.131 A 
ATOM     75  C   UNL A   1      41.058  25.384  26.879  1.00  0.00     0.055 A 
ATOM     76  C   UNL A   1      41.929  27.327  25.767  1.00  0.00     0.041 A 
ATOM     77  F   UNL A   1      42.045  29.367  26.914  1.00  0.00    -0.206 F 
ATOM     78  C   UNL A   1      41.626  25.971  25.746  1.00  0.00     0.022 A 
BRANCH  75  79
ATOM     79  S   UNL A   1      40.803  23.588  26.939  1.00  0.00     0.124 S 
ATOM     80  O   UNL A   1      41.149  23.288  28.324  1.00  0.00    -0.237 OA
ATOM     81  O   UNL A   1      39.392  23.471  26.588  1.00  0.00    -0.237 OA
ATOM     82  O   UNL A   1      41.737  23.080  25.937  1.00  0.00    -0.744 OA
ENDBRANCH  75  79
ENDBRANCH  48  72
BRANCH  60  83
ATOM     83  C   UNL A   1      44.303  27.608  34.270  1.00  0.00     0.023 A 
ATOM     84  C   UNL A   1      44.048  26.321  34.773  1.00  0.00     0.031 A 
ATOM     85  C   UNL A   1      45.619  28.101  34.359  1.00  0.00     0.131 A 
ATOM     86  C   UNL A   1      45.070  25.607  35.418  1.00  0.00     0.055 A 
ATOM     87  C   UNL A   1      46.651  27.349  34.922  1.00  0.00     0.041 A 
ATOM     88  F   UNL A   1      45.924  29.325  33.901  1.00  0.00    -0.206 F 
ATOM     89  C   UNL A   1      46.375  26.103  35.474  1.00  0.00     0.022 A 
BRANCH  86  90
ATOM     90  S   UNL A   1      44.637  24.091  36.313  1.00  0.00     0.124 S 
ATOM     91  O   UNL A   1      43.254  23.880  35.900  1.00  0.00    -0.237 OA
ATOM     92  O   UNL A   1      45.610  23.134  35.794  1.00  0.00    -0.237 OA
ATOM     93  O   UNL A   1      44.816  24.458  37.716  1.00  0.00    -0.744 OA
ENDBRANCH  86  90
ENDBRANCH  60  83
ENDBRANCH  34  35
ENDBRANCH  26  29
ENDBRANCH  24  25
ENDBRANCH  23  24
ENDBRANCH   1  23
TORSDOF 17
ENDMDL
