MODEL 1
REMARK VINA RESULT:     -12.9      0.000      0.000
REMARK SMILES Cc1nc(-c2cccc(N3C[C@H](C(=O)NCCCNC(=O)c4ccc(-c5c6nc(c(-c7cc(S(=O)(=O)[O-])ccc7F)c7ccc([nH]7)c(-c7cc(S(=O)(=O)[O-])ccc7F)c7nc(c(-c8cc(S(=O)(=O)[O-])ccc8F)c8ccc5[nH]8)C=C7)C=C6)cc4)CC3=O)c2)no1
REMARK SMILES IDX 17 1 16 2 15 3 13 4 14 5 12 7 10 8 11 9 86 10 85 11 87 12
REMARK SMILES IDX 9 13 5 14 6 15 88 16 7 17 8 18 4 19 1 20 2 21 3 22 90 23
REMARK SMILES IDX 89 24 18 25 19 26 20 27 21 29 22 30 23 31 84 32 24 33 83 34
REMARK SMILES IDX 25 35 26 36 27 37 77 38 28 39 82 40 76 41 78 42 29 43 81 44
REMARK SMILES IDX 75 45 74 46 30 48 62 49 42 50 61 51 43 52 46 53 60 54 79 55
REMARK SMILES IDX 44 56 45 57 59 59 80 60 47 61 31 62 32 63 40 64 33 65 39 66
REMARK SMILES IDX 41 67 38 68 34 69 35 70 36 71 37 72 63 73 64 74 72 75 65 76
REMARK SMILES IDX 71 77 73 78 70 79 66 80 67 81 68 82 69 83 48 84 49 85 57 86
REMARK SMILES IDX 50 87 56 88 58 89 55 90 51 91 52 92 53 93 54 94
REMARK H PARENT 15 6 19 28 78 47 46 58
REMARK Flexibility Score: inf
ROOT
ATOM      1  C   UNL A   1      31.795  29.248  26.947  1.00  0.00     0.042 C 
ENDROOT
BRANCH   1   2
ATOM      2  C   UNL A   1      32.024  27.889  27.603  1.00  0.00     0.117 C 
BRANCH   2   3
ATOM      3  N   UNL A   1      31.372  26.819  26.865  1.00  0.00    -0.356 N 
ATOM      4  C   UNL A   1      31.773  26.174  25.730  1.00  0.00     0.225 C 
ATOM      5  O   UNL A   1      31.010  25.363  25.211  1.00  0.00    -0.275 OA
ATOM      6  H   UNL A   1      30.513  26.515  27.238  1.00  0.00     0.163 HD
BRANCH   4   7
ATOM      7  C   UNL A   1      33.177  26.417  25.218  1.00  0.00     0.107 C 
ATOM      8  N   UNL A   1      34.227  24.418  24.562  1.00  0.00    -0.312 N 
ATOM      9  C   UNL A   1      34.057  25.278  25.704  1.00  0.00     0.139 C 
ATOM     10  C   UNL A   1      33.854  25.036  23.370  1.00  0.00     0.227 C 
ATOM     11  C   UNL A   1      33.282  26.390  23.697  1.00  0.00     0.116 C 
ATOM     12  O   UNL A   1      33.964  24.606  22.230  1.00  0.00    -0.274 OA
BRANCH   8  13
ATOM     13  C   UNL A   1      34.826  23.145  24.650  1.00  0.00     0.044 A 
ATOM     14  C   UNL A   1      34.620  20.728  24.867  1.00  0.00     0.025 A 
ATOM     15  C   UNL A   1      36.015  20.614  24.888  1.00  0.00     0.012 A 
ATOM     16  C   UNL A   1      34.034  21.998  24.778  1.00  0.00     0.038 A 
ATOM     17  C   UNL A   1      36.811  21.753  24.764  1.00  0.00     0.003 A 
ATOM     18  C   UNL A   1      36.219  23.009  24.618  1.00  0.00     0.026 A 
BRANCH  14  19
ATOM     19  C   UNL A   1      33.778  19.546  24.865  1.00  0.00     0.202 A 
ATOM     20  C   UNL A   1      33.152  16.058  24.596  1.00  0.00     0.114 C 
ATOM     21  C   UNL A   1      33.252  17.521  24.727  1.00  0.00     0.223 A 
ATOM     22  N   UNL A   1      34.276  18.310  24.509  1.00  0.00    -0.191 NA
ATOM     23  O   UNL A   1      32.143  18.179  25.166  1.00  0.00    -0.339 OA
ATOM     24  N   UNL A   1      32.500  19.524  25.278  1.00  0.00    -0.057 NA
ENDBRANCH  14  19
ENDBRANCH   8  13
ENDBRANCH   4   7
ENDBRANCH   2   3
ENDBRANCH   1   2
BRANCH   1  25
ATOM     25  C   UNL A   1      33.077  29.935  26.476  1.00  0.00     0.118 C 
BRANCH  25  26
ATOM     26  N   UNL A   1      33.100  31.353  26.801  1.00  0.00    -0.352 N 
ATOM     27  C   UNL A   1      33.940  32.063  27.624  1.00  0.00     0.251 C 
ATOM     28  H   UNL A   1      32.402  31.890  26.362  1.00  0.00     0.163 HD
ATOM     29  O   UNL A   1      33.651  33.225  27.901  1.00  0.00    -0.269 OA
BRANCH  27  30
ATOM     30  C   UNL A   1      35.161  31.443  28.189  1.00  0.00     0.039 A 
ATOM     31  C   UNL A   1      36.354  32.172  28.166  1.00  0.00     0.014 A 
ATOM     32  C   UNL A   1      35.151  30.143  28.700  1.00  0.00     0.014 A 
ATOM     33  C   UNL A   1      37.519  31.622  28.707  1.00  0.00     0.010 A 
ATOM     34  C   UNL A   1      36.297  29.622  29.304  1.00  0.00     0.010 A 
ATOM     35  C   UNL A   1      37.493  30.354  29.311  1.00  0.00    -0.014 A 
BRANCH  35  36
ATOM     36  C   UNL A   1      38.709  29.782  29.948  1.00  0.00     0.031 A 
ATOM     37  C   UNL A   1      39.150  30.256  31.307  1.00  0.00     0.074 A 
ATOM     38  C   UNL A   1      39.449  28.876  29.277  1.00  0.00     0.049 A 
ATOM     39  N   UNL A   1      40.214  29.928  31.995  1.00  0.00    -0.248 NA
ATOM     40  C   UNL A   1      38.293  31.253  31.966  1.00  0.00     0.031 C 
ATOM     41  C   UNL A   1      39.146  28.364  27.939  1.00  0.00     0.029 A 
ATOM     42  N   UNL A   1      40.610  28.230  29.622  1.00  0.00    -0.354 N 
ATOM     43  C   UNL A   1      40.165  30.688  33.159  1.00  0.00     0.074 A 
ATOM     44  C   UNL A   1      38.995  31.535  33.053  1.00  0.00     0.031 C 
ATOM     45  C   UNL A   1      40.080  27.467  27.589  1.00  0.00     0.029 A 
ATOM     46  C   UNL A   1      41.074  27.371  28.654  1.00  0.00     0.049 A 
ATOM     47  H   UNL A   1      41.067  28.370  30.484  1.00  0.00     0.167 HD
ATOM     48  C   UNL A   1      41.004  30.667  34.225  1.00  0.00     0.034 A 
ATOM     49  C   UNL A   1      42.180  26.601  28.622  1.00  0.00     0.034 A 
ATOM     50  C   UNL A   1      42.159  29.805  34.320  1.00  0.00     0.049 A 
ATOM     51  C   UNL A   1      43.111  26.611  29.808  1.00  0.00     0.074 A 
ATOM     52  C   UNL A   1      43.041  29.659  35.377  1.00  0.00     0.029 A 
ATOM     53  N   UNL A   1      42.600  28.950  33.319  1.00  0.00    -0.354 N 
ATOM     54  N   UNL A   1      43.021  27.296  30.924  1.00  0.00    -0.248 NA
ATOM     55  C   UNL A   1      44.285  25.734  29.733  1.00  0.00     0.031 C 
ATOM     56  C   UNL A   1      44.050  28.770  34.990  1.00  0.00     0.029 A 
ATOM     57  C   UNL A   1      43.758  28.300  33.720  1.00  0.00     0.049 A 
ATOM     58  H   UNL A   1      42.157  28.824  32.449  1.00  0.00     0.167 HD
ATOM     59  C   UNL A   1      44.110  26.905  31.697  1.00  0.00     0.074 A 
ATOM     60  C   UNL A   1      44.832  25.915  30.925  1.00  0.00     0.031 C 
ATOM     61  C   UNL A   1      44.477  27.323  32.937  1.00  0.00     0.034 A 
BRANCH  48  62
ATOM     62  C   UNL A   1      40.716  31.627  35.356  1.00  0.00     0.023 A 
ATOM     63  C   UNL A   1      39.614  31.452  36.212  1.00  0.00     0.031 A 
ATOM     64  C   UNL A   1      41.535  32.750  35.565  1.00  0.00     0.131 A 
ATOM     65  C   UNL A   1      39.313  32.424  37.178  1.00  0.00     0.055 A 
ATOM     66  C   UNL A   1      41.281  33.669  36.586  1.00  0.00     0.041 A 
ATOM     67  F   UNL A   1      42.591  32.983  34.770  1.00  0.00    -0.206 F 
ATOM     68  C   UNL A   1      40.154  33.518  37.388  1.00  0.00     0.022 A 
BRANCH  65  69
ATOM     69  S   UNL A   1      37.726  32.316  38.050  1.00  0.00     0.124 S 
ATOM     70  O   UNL A   1      36.895  33.223  37.261  1.00  0.00    -0.237 OA
ATOM     71  O   UNL A   1      37.403  30.898  37.944  1.00  0.00    -0.237 OA
ATOM     72  O   UNL A   1      38.042  32.787  39.397  1.00  0.00    -0.744 OA
ENDBRANCH  65  69
ENDBRANCH  48  62
BRANCH  49  73
ATOM     73  C   UNL A   1      42.479  25.757  27.429  1.00  0.00     0.023 A 
ATOM     74  C   UNL A   1      42.063  24.419  27.371  1.00  0.00     0.031 A 
ATOM     75  C   UNL A   1      43.223  26.264  26.350  1.00  0.00     0.131 A 
ATOM     76  C   UNL A   1      42.433  23.617  26.281  1.00  0.00     0.055 A 
ATOM     77  C   UNL A   1      43.545  25.477  25.242  1.00  0.00     0.041 A 
ATOM     78  F   UNL A   1      43.641  27.540  26.351  1.00  0.00    -0.206 F 
ATOM     79  C   UNL A   1      43.161  24.140  25.210  1.00  0.00     0.022 A 
BRANCH  76  80
ATOM     80  S   UNL A   1      42.020  21.851  26.322  1.00  0.00     0.124 S 
ATOM     81  O   UNL A   1      40.594  21.872  26.020  1.00  0.00    -0.237 OA
ATOM     82  O   UNL A   1      42.890  21.313  25.281  1.00  0.00    -0.237 OA
ATOM     83  O   UNL A   1      42.366  21.453  27.685  1.00  0.00    -0.744 OA
ENDBRANCH  76  80
ENDBRANCH  49  73
BRANCH  61  84
ATOM     84  C   UNL A   1      45.692  26.665  33.548  1.00  0.00     0.023 A 
ATOM     85  C   UNL A   1      45.613  25.422  34.199  1.00  0.00     0.031 A 
ATOM     86  C   UNL A   1      46.943  27.307  33.495  1.00  0.00     0.131 A 
ATOM     87  C   UNL A   1      46.751  24.887  34.824  1.00  0.00     0.055 A 
ATOM     88  C   UNL A   1      48.084  26.741  34.063  1.00  0.00     0.041 A 
ATOM     89  F   UNL A   1      47.075  28.498  32.889  1.00  0.00    -0.206 F 
ATOM     90  C   UNL A   1      47.989  25.531  34.745  1.00  0.00     0.022 A 
BRANCH  87  91
ATOM     91  S   UNL A   1      46.571  23.387  35.827  1.00  0.00     0.124 S 
ATOM     92  O   UNL A   1      45.166  23.050  35.618  1.00  0.00    -0.237 OA
ATOM     93  O   UNL A   1      47.540  22.484  35.215  1.00  0.00    -0.237 OA
ATOM     94  O   UNL A   1      46.906  23.833  37.177  1.00  0.00    -0.744 OA
ENDBRANCH  87  91
ENDBRANCH  61  84
ENDBRANCH  35  36
ENDBRANCH  27  30
ENDBRANCH  25  26
ENDBRANCH   1  25
TORSDOF 15
ENDMDL
MODEL 2
REMARK VINA RESULT:     -12.8      4.867     10.405
REMARK SMILES Cc1nc(-c2cccc(N3C[C@H](C(=O)NCCCNC(=O)c4ccc(-c5c6nc(c(-c7cc(S(=O)(=O)[O-])ccc7F)c7ccc([nH]7)c(-c7cc(S(=O)(=O)[O-])ccc7F)c7nc(c(-c8cc(S(=O)(=O)[O-])ccc8F)c8ccc5[nH]8)C=C7)C=C6)cc4)CC3=O)c2)no1
REMARK SMILES IDX 17 1 16 2 15 3 13 4 14 5 12 7 10 8 11 9 86 10 85 11 87 12
REMARK SMILES IDX 9 13 5 14 6 15 88 16 7 17 8 18 4 19 1 20 2 21 3 22 90 23
REMARK SMILES IDX 89 24 18 25 19 26 20 27 21 29 22 30 23 31 84 32 24 33 83 34
REMARK SMILES IDX 25 35 26 36 27 37 77 38 28 39 82 40 76 41 78 42 29 43 81 44
REMARK SMILES IDX 75 45 74 46 30 48 62 49 42 50 61 51 43 52 46 53 60 54 79 55
REMARK SMILES IDX 44 56 45 57 59 59 80 60 47 61 31 62 32 63 40 64 33 65 39 66
REMARK SMILES IDX 41 67 38 68 34 69 35 70 36 71 37 72 63 73 64 74 72 75 65 76
REMARK SMILES IDX 71 77 73 78 70 79 66 80 67 81 68 82 69 83 48 84 49 85 57 86
REMARK SMILES IDX 50 87 56 88 58 89 55 90 51 91 52 92 53 93 54 94
REMARK H PARENT 15 6 19 28 78 47 46 58
REMARK Flexibility Score: inf
ROOT
ATOM      1  C   UNL A   1      35.881  22.161  24.490  1.00  0.00     0.042 C 
ENDROOT
BRANCH   1   2
ATOM      2  C   UNL A   1      34.564  21.399  24.611  1.00  0.00     0.117 C 
BRANCH   2   3
ATOM      3  N   UNL A   1      33.507  22.027  23.834  1.00  0.00    -0.356 N 
ATOM      4  C   UNL A   1      32.488  22.837  24.246  1.00  0.00     0.225 C 
ATOM      5  O   UNL A   1      31.637  23.177  23.427  1.00  0.00    -0.275 OA
ATOM      6  H   UNL A   1      33.530  21.841  22.868  1.00  0.00     0.163 HD
BRANCH   4   7
ATOM      7  C   UNL A   1      32.507  23.358  25.668  1.00  0.00     0.107 C 
ATOM      8  N   UNL A   1      31.663  25.549  25.808  1.00  0.00    -0.312 N 
ATOM      9  C   UNL A   1      32.895  24.826  25.625  1.00  0.00     0.139 C 
ATOM     10  C   UNL A   1      30.637  24.736  26.286  1.00  0.00     0.227 C 
ATOM     11  C   UNL A   1      31.142  23.319  26.346  1.00  0.00     0.116 C 
ATOM     12  O   UNL A   1      29.508  25.067  26.625  1.00  0.00    -0.274 OA
BRANCH   8  13
ATOM     13  C   UNL A   1      31.568  26.944  25.641  1.00  0.00     0.044 A 
ATOM     14  C   UNL A   1      30.853  28.867  24.329  1.00  0.00     0.025 A 
ATOM     15  C   UNL A   1      31.429  29.723  25.274  1.00  0.00     0.012 A 
ATOM     16  C   UNL A   1      30.953  27.480  24.504  1.00  0.00     0.038 A 
ATOM     17  C   UNL A   1      32.047  29.197  26.409  1.00  0.00     0.003 A 
ATOM     18  C   UNL A   1      32.091  27.815  26.605  1.00  0.00     0.026 A 
BRANCH  14  19
ATOM     19  C   UNL A   1      30.095  29.398  23.209  1.00  0.00     0.202 A 
ATOM     20  C   UNL A   1      28.310  31.922  21.458  1.00  0.00     0.114 C 
ATOM     21  C   UNL A   1      29.015  30.778  22.060  1.00  0.00     0.223 A 
ATOM     22  N   UNL A   1      29.501  30.641  23.269  1.00  0.00    -0.191 NA
ATOM     23  O   UNL A   1      29.239  29.700  21.259  1.00  0.00    -0.339 OA
ATOM     24  N   UNL A   1      29.977  28.790  22.018  1.00  0.00    -0.057 NA
ENDBRANCH  14  19
ENDBRANCH   8  13
ENDBRANCH   4   7
ENDBRANCH   2   3
ENDBRANCH   1   2
BRANCH   1  25
ATOM     25  C   UNL A   1      36.620  22.339  25.817  1.00  0.00     0.118 C 
BRANCH  25  26
ATOM     26  N   UNL A   1      37.724  21.402  25.969  1.00  0.00    -0.352 N 
ATOM     27  C   UNL A   1      39.048  21.627  26.255  1.00  0.00     0.251 C 
ATOM     28  H   UNL A   1      37.482  20.456  25.848  1.00  0.00     0.163 HD
ATOM     29  O   UNL A   1      39.841  20.695  26.143  1.00  0.00    -0.269 OA
BRANCH  27  30
ATOM     30  C   UNL A   1      39.525  22.966  26.669  1.00  0.00     0.039 A 
ATOM     31  C   UNL A   1      40.456  23.054  27.708  1.00  0.00     0.014 A 
ATOM     32  C   UNL A   1      39.034  24.133  26.076  1.00  0.00     0.014 A 
ATOM     33  C   UNL A   1      40.938  24.302  28.110  1.00  0.00     0.010 A 
ATOM     34  C   UNL A   1      39.568  25.373  26.430  1.00  0.00     0.010 A 
ATOM     35  C   UNL A   1      40.523  25.471  27.452  1.00  0.00    -0.014 A 
BRANCH  35  36
ATOM     36  C   UNL A   1      41.075  26.801  27.826  1.00  0.00     0.031 A 
ATOM     37  C   UNL A   1      42.509  27.141  27.521  1.00  0.00     0.074 A 
ATOM     38  C   UNL A   1      40.300  27.680  28.492  1.00  0.00     0.049 A 
ATOM     39  N   UNL A   1      43.189  28.217  27.826  1.00  0.00    -0.248 NA
ATOM     40  C   UNL A   1      43.288  26.123  26.801  1.00  0.00     0.031 C 
ATOM     41  C   UNL A   1      38.905  27.453  28.877  1.00  0.00     0.029 A 
ATOM     42  N   UNL A   1      40.574  28.938  28.970  1.00  0.00    -0.354 N 
ATOM     43  C   UNL A   1      44.479  28.001  27.352  1.00  0.00     0.074 A 
ATOM     44  C   UNL A   1      44.497  26.666  26.792  1.00  0.00     0.031 C 
ATOM     45  C   UNL A   1      38.440  28.543  29.507  1.00  0.00     0.029 A 
ATOM     46  C   UNL A   1      39.511  29.528  29.614  1.00  0.00     0.049 A 
ATOM     47  H   UNL A   1      41.449  29.375  28.861  1.00  0.00     0.167 HD
ATOM     48  C   UNL A   1      45.543  28.843  27.364  1.00  0.00     0.034 A 
ATOM     49  C   UNL A   1      39.414  30.723  30.230  1.00  0.00     0.034 A 
ATOM     50  C   UNL A   1      45.503  30.177  27.914  1.00  0.00     0.049 A 
ATOM     51  C   UNL A   1      40.615  31.633  30.251  1.00  0.00     0.074 A 
ATOM     52  C   UNL A   1      46.502  31.136  27.925  1.00  0.00     0.029 A 
ATOM     53  N   UNL A   1      44.411  30.741  28.562  1.00  0.00    -0.354 N 
ATOM     54  N   UNL A   1      41.812  31.434  29.750  1.00  0.00    -0.248 NA
ATOM     55  C   UNL A   1      40.447  32.935  30.910  1.00  0.00     0.031 C 
ATOM     56  C   UNL A   1      46.039  32.248  28.636  1.00  0.00     0.029 A 
ATOM     57  C   UNL A   1      44.723  32.018  29.003  1.00  0.00     0.049 A 
ATOM     58  H   UNL A   1      43.541  30.298  28.690  1.00  0.00     0.167 HD
ATOM     59  C   UNL A   1      42.528  32.601  30.006  1.00  0.00     0.074 A 
ATOM     60  C   UNL A   1      41.623  33.501  30.691  1.00  0.00     0.031 C 
ATOM     61  C   UNL A   1      43.816  32.903  29.697  1.00  0.00     0.034 A 
BRANCH  48  62
ATOM     62  C   UNL A   1      46.843  28.329  26.790  1.00  0.00     0.023 A 
ATOM     63  C   UNL A   1      47.084  28.313  25.405  1.00  0.00     0.031 A 
ATOM     64  C   UNL A   1      47.845  27.821  27.636  1.00  0.00     0.131 A 
ATOM     65  C   UNL A   1      48.256  27.725  24.903  1.00  0.00     0.055 A 
ATOM     66  C   UNL A   1      49.047  27.317  27.135  1.00  0.00     0.041 A 
ATOM     67  F   UNL A   1      47.666  27.793  28.966  1.00  0.00    -0.206 F 
ATOM     68  C   UNL A   1      49.250  27.250  25.760  1.00  0.00     0.022 A 
BRANCH  65  69
ATOM     69  S   UNL A   1      48.389  27.450  23.115  1.00  0.00     0.124 S 
ATOM     70  O   UNL A   1      48.280  25.996  23.031  1.00  0.00    -0.237 OA
ATOM     71  O   UNL A   1      47.256  28.207  22.594  1.00  0.00    -0.237 OA
ATOM     72  O   UNL A   1      49.706  27.989  22.782  1.00  0.00    -0.744 OA
ENDBRANCH  65  69
ENDBRANCH  48  62
BRANCH  49  73
ATOM     73  C   UNL A   1      38.138  31.135  30.883  1.00  0.00     0.023 A 
ATOM     74  C   UNL A   1      37.140  31.804  30.158  1.00  0.00     0.031 A 
ATOM     75  C   UNL A   1      37.916  30.903  32.252  1.00  0.00     0.131 A 
ATOM     76  C   UNL A   1      35.987  32.263  30.813  1.00  0.00     0.055 A 
ATOM     77  C   UNL A   1      36.744  31.315  32.888  1.00  0.00     0.041 A 
ATOM     78  F   UNL A   1      38.835  30.262  32.991  1.00  0.00    -0.206 F 
ATOM     79  C   UNL A   1      35.776  32.012  32.170  1.00  0.00     0.022 A 
BRANCH  76  80
ATOM     80  S   UNL A   1      34.801  33.269  29.879  1.00  0.00     0.124 S 
ATOM     81  O   UNL A   1      34.040  33.901  30.950  1.00  0.00    -0.237 OA
ATOM     82  O   UNL A   1      35.684  34.144  29.114  1.00  0.00    -0.237 OA
ATOM     83  O   UNL A   1      34.068  32.283  29.088  1.00  0.00    -0.744 OA
ENDBRANCH  76  80
ENDBRANCH  49  73
BRANCH  61  84
ATOM     84  C   UNL A   1      44.299  34.288  30.058  1.00  0.00     0.023 A 
ATOM     85  C   UNL A   1      44.105  35.387  29.204  1.00  0.00     0.031 A 
ATOM     86  C   UNL A   1      44.984  34.502  31.268  1.00  0.00     0.131 A 
ATOM     87  C   UNL A   1      44.643  36.639  29.543  1.00  0.00     0.055 A 
ATOM     88  C   UNL A   1      45.461  35.762  31.629  1.00  0.00     0.041 A 
ATOM     89  F   UNL A   1      45.200  33.488  32.120  1.00  0.00    -0.206 F 
ATOM     90  C   UNL A   1      45.305  36.836  30.758  1.00  0.00     0.022 A 
BRANCH  87  91
ATOM     91  S   UNL A   1      44.554  37.984  28.329  1.00  0.00     0.124 S 
ATOM     92  O   UNL A   1      43.431  38.770  28.831  1.00  0.00    -0.237 OA
ATOM     93  O   UNL A   1      45.869  38.601  28.450  1.00  0.00    -0.237 OA
ATOM     94  O   UNL A   1      44.308  37.291  27.066  1.00  0.00    -0.744 OA
ENDBRANCH  87  91
ENDBRANCH  61  84
ENDBRANCH  35  36
ENDBRANCH  27  30
ENDBRANCH  25  26
ENDBRANCH   1  25
TORSDOF 15
ENDMDL
MODEL 3
REMARK VINA RESULT:     -12.7      4.498     10.020
REMARK SMILES Cc1nc(-c2cccc(N3C[C@H](C(=O)NCCCNC(=O)c4ccc(-c5c6nc(c(-c7cc(S(=O)(=O)[O-])ccc7F)c7ccc([nH]7)c(-c7cc(S(=O)(=O)[O-])ccc7F)c7nc(c(-c8cc(S(=O)(=O)[O-])ccc8F)c8ccc5[nH]8)C=C7)C=C6)cc4)CC3=O)c2)no1
REMARK SMILES IDX 17 1 16 2 15 3 13 4 14 5 12 7 10 8 11 9 86 10 85 11 87 12
REMARK SMILES IDX 9 13 5 14 6 15 88 16 7 17 8 18 4 19 1 20 2 21 3 22 90 23
REMARK SMILES IDX 89 24 18 25 19 26 20 27 21 29 22 30 23 31 84 32 24 33 83 34
REMARK SMILES IDX 25 35 26 36 27 37 77 38 28 39 82 40 76 41 78 42 29 43 81 44
REMARK SMILES IDX 75 45 74 46 30 48 62 49 42 50 61 51 43 52 46 53 60 54 79 55
REMARK SMILES IDX 44 56 45 57 59 59 80 60 47 61 31 62 32 63 40 64 33 65 39 66
REMARK SMILES IDX 41 67 38 68 34 69 35 70 36 71 37 72 63 73 64 74 72 75 65 76
REMARK SMILES IDX 71 77 73 78 70 79 66 80 67 81 68 82 69 83 48 84 49 85 57 86
REMARK SMILES IDX 50 87 56 88 58 89 55 90 51 91 52 92 53 93 54 94
REMARK H PARENT 15 6 19 28 78 47 46 58
REMARK Flexibility Score: inf
ROOT
ATOM      1  C   UNL A   1      36.065  22.759  24.338  1.00  0.00     0.042 C 
ENDROOT
BRANCH   1   2
ATOM      2  C   UNL A   1      34.880  21.808  24.495  1.00  0.00     0.117 C 
BRANCH   2   3
ATOM      3  N   UNL A   1      33.711  22.283  23.774  1.00  0.00    -0.356 N 
ATOM      4  C   UNL A   1      32.601  22.926  24.241  1.00  0.00     0.225 C 
ATOM      5  O   UNL A   1      31.676  23.147  23.464  1.00  0.00    -0.275 OA
ATOM      6  H   UNL A   1      33.721  22.116  22.804  1.00  0.00     0.163 HD
BRANCH   4   7
ATOM      7  C   UNL A   1      32.602  23.423  25.672  1.00  0.00     0.107 C 
ATOM      8  N   UNL A   1      31.716  25.595  25.844  1.00  0.00    -0.312 N 
ATOM      9  C   UNL A   1      32.962  24.898  25.656  1.00  0.00     0.139 C 
ATOM     10  C   UNL A   1      30.702  24.755  26.302  1.00  0.00     0.227 C 
ATOM     11  C   UNL A   1      31.234  23.347  26.341  1.00  0.00     0.116 C 
ATOM     12  O   UNL A   1      29.566  25.058  26.640  1.00  0.00    -0.274 OA
BRANCH   8  13
ATOM     13  C   UNL A   1      31.595  26.991  25.700  1.00  0.00     0.044 A 
ATOM     14  C   UNL A   1      30.875  28.922  24.403  1.00  0.00     0.025 A 
ATOM     15  C   UNL A   1      31.406  29.773  25.380  1.00  0.00     0.012 A 
ATOM     16  C   UNL A   1      31.000  27.535  24.556  1.00  0.00     0.038 A 
ATOM     17  C   UNL A   1      32.003  29.239  26.522  1.00  0.00     0.003 A 
ATOM     18  C   UNL A   1      32.072  27.854  26.693  1.00  0.00     0.026 A 
BRANCH  14  19
ATOM     19  C   UNL A   1      30.137  29.458  23.273  1.00  0.00     0.202 A 
ATOM     20  C   UNL A   1      28.256  31.939  21.559  1.00  0.00     0.114 C 
ATOM     21  C   UNL A   1      29.015  30.818  22.139  1.00  0.00     0.223 A 
ATOM     22  N   UNL A   1      29.447  30.649  23.365  1.00  0.00    -0.191 NA
ATOM     23  O   UNL A   1      29.361  29.805  21.296  1.00  0.00    -0.339 OA
ATOM     24  N   UNL A   1      30.126  28.910  22.047  1.00  0.00    -0.057 NA
ENDBRANCH  14  19
ENDBRANCH   8  13
ENDBRANCH   4   7
ENDBRANCH   2   3
ENDBRANCH   1   2
BRANCH   1  25
ATOM     25  C   UNL A   1      36.753  23.118  25.655  1.00  0.00     0.118 C 
BRANCH  25  26
ATOM     26  N   UNL A   1      37.863  22.229  25.963  1.00  0.00    -0.352 N 
ATOM     27  C   UNL A   1      39.133  22.511  26.403  1.00  0.00     0.251 C 
ATOM     28  H   UNL A   1      37.674  21.272  25.836  1.00  0.00     0.163 HD
ATOM     29  O   UNL A   1      39.968  21.610  26.411  1.00  0.00    -0.269 OA
BRANCH  27  30
ATOM     30  C   UNL A   1      39.505  23.877  26.840  1.00  0.00     0.039 A 
ATOM     31  C   UNL A   1      39.350  24.214  28.188  1.00  0.00     0.014 A 
ATOM     32  C   UNL A   1      39.962  24.836  25.932  1.00  0.00     0.014 A 
ATOM     33  C   UNL A   1      39.709  25.489  28.634  1.00  0.00     0.010 A 
ATOM     34  C   UNL A   1      40.386  26.084  26.391  1.00  0.00     0.010 A 
ATOM     35  C   UNL A   1      40.261  26.424  27.745  1.00  0.00    -0.014 A 
BRANCH  35  36
ATOM     36  C   UNL A   1      40.707  27.763  28.218  1.00  0.00     0.031 A 
ATOM     37  C   UNL A   1      42.173  28.094  28.288  1.00  0.00     0.074 A 
ATOM     38  C   UNL A   1      39.792  28.659  28.639  1.00  0.00     0.049 A 
ATOM     39  N   UNL A   1      42.758  29.177  28.733  1.00  0.00    -0.248 NA
ATOM     40  C   UNL A   1      43.105  27.058  27.820  1.00  0.00     0.031 C 
ATOM     41  C   UNL A   1      38.343  28.443  28.654  1.00  0.00     0.029 A 
ATOM     42  N   UNL A   1      39.941  29.928  29.141  1.00  0.00    -0.354 N 
ATOM     43  C   UNL A   1      44.125  28.948  28.616  1.00  0.00     0.074 A 
ATOM     44  C   UNL A   1      44.279  27.599  28.111  1.00  0.00     0.031 C 
ATOM     45  C   UNL A   1      37.739  29.548  29.116  1.00  0.00     0.029 A 
ATOM     46  C   UNL A   1      38.753  30.535  29.473  1.00  0.00     0.049 A 
ATOM     47  H   UNL A   1      40.818  30.362  29.253  1.00  0.00     0.167 HD
ATOM     48  C   UNL A   1      45.156  29.789  28.883  1.00  0.00     0.034 A 
ATOM     49  C   UNL A   1      38.507  31.745  30.014  1.00  0.00     0.034 A 
ATOM     50  C   UNL A   1      44.985  31.137  29.373  1.00  0.00     0.049 A 
ATOM     51  C   UNL A   1      39.669  32.654  30.325  1.00  0.00     0.074 A 
ATOM     52  C   UNL A   1      45.954  32.094  29.620  1.00  0.00     0.029 A 
ATOM     53  N   UNL A   1      43.766  31.717  29.701  1.00  0.00    -0.354 N 
ATOM     54  N   UNL A   1      40.953  32.442  30.157  1.00  0.00    -0.248 NA
ATOM     55  C   UNL A   1      39.344  33.972  30.886  1.00  0.00     0.031 C 
ATOM     56  C   UNL A   1      45.330  33.224  30.159  1.00  0.00     0.029 A 
ATOM     57  C   UNL A   1      43.962  33.005  30.178  1.00  0.00     0.049 A 
ATOM     58  H   UNL A   1      42.890  31.278  29.609  1.00  0.00     0.167 HD
ATOM     59  C   UNL A   1      41.586  33.614  30.562  1.00  0.00     0.074 A 
ATOM     60  C   UNL A   1      40.541  34.531  30.967  1.00  0.00     0.031 C 
ATOM     61  C   UNL A   1      42.913  33.907  30.591  1.00  0.00     0.034 A 
BRANCH  48  62
ATOM     62  C   UNL A   1      46.557  29.260  28.679  1.00  0.00     0.023 A 
ATOM     63  C   UNL A   1      47.094  29.066  27.394  1.00  0.00     0.031 A 
ATOM     64  C   UNL A   1      47.358  28.917  29.783  1.00  0.00     0.131 A 
ATOM     65  C   UNL A   1      48.354  28.467  27.243  1.00  0.00     0.055 A 
ATOM     66  C   UNL A   1      48.647  28.403  29.627  1.00  0.00     0.041 A 
ATOM     67  F   UNL A   1      46.895  29.063  31.034  1.00  0.00    -0.206 F 
ATOM     68  C   UNL A   1      49.145  28.158  28.350  1.00  0.00     0.022 A 
BRANCH  65  69
ATOM     69  S   UNL A   1      48.876  27.958  25.582  1.00  0.00     0.124 S 
ATOM     70  O   UNL A   1      47.748  28.404  24.768  1.00  0.00    -0.237 OA
ATOM     71  O   UNL A   1      50.123  28.693  25.403  1.00  0.00    -0.237 OA
ATOM     72  O   UNL A   1      49.017  26.508  25.696  1.00  0.00    -0.744 OA
ENDBRANCH  65  69
ENDBRANCH  48  62
BRANCH  49  73
ATOM     73  C   UNL A   1      37.108  32.174  30.304  1.00  0.00     0.023 A 
ATOM     74  C   UNL A   1      36.243  32.557  29.268  1.00  0.00     0.031 A 
ATOM     75  C   UNL A   1      36.631  32.248  31.624  1.00  0.00     0.131 A 
ATOM     76  C   UNL A   1      34.962  33.044  29.570  1.00  0.00     0.055 A 
ATOM     77  C   UNL A   1      35.337  32.684  31.916  1.00  0.00     0.041 A 
ATOM     78  F   UNL A   1      37.416  31.888  32.652  1.00  0.00    -0.206 F 
ATOM     79  C   UNL A   1      34.498  33.098  30.885  1.00  0.00     0.022 A 
BRANCH  76  80
ATOM     80  S   UNL A   1      33.937  33.685  28.218  1.00  0.00     0.124 S 
ATOM     81  O   UNL A   1      34.920  34.401  27.413  1.00  0.00    -0.237 OA
ATOM     82  O   UNL A   1      33.401  32.458  27.637  1.00  0.00    -0.237 OA
ATOM     83  O   UNL A   1      32.957  34.525  28.904  1.00  0.00    -0.744 OA
ENDBRANCH  76  80
ENDBRANCH  49  73
BRANCH  61  84
ATOM     84  C   UNL A   1      43.295  35.300  31.032  1.00  0.00     0.023 A 
ATOM     85  C   UNL A   1      43.390  35.648  32.390  1.00  0.00     0.031 A 
ATOM     86  C   UNL A   1      43.546  36.299  30.073  1.00  0.00     0.131 A 
ATOM     87  C   UNL A   1      43.669  36.975  32.754  1.00  0.00     0.055 A 
ATOM     88  C   UNL A   1      43.885  37.602  30.440  1.00  0.00     0.041 A 
ATOM     89  F   UNL A   1      43.466  36.024  28.762  1.00  0.00    -0.206 F 
ATOM     90  C   UNL A   1      43.933  37.950  31.787  1.00  0.00     0.022 A 
BRANCH  87  91
ATOM     91  S   UNL A   1      43.583  37.435  34.506  1.00  0.00     0.124 S 
ATOM     92  O   UNL A   1      43.920  38.855  34.463  1.00  0.00    -0.237 OA
ATOM     93  O   UNL A   1      42.201  37.118  34.845  1.00  0.00    -0.237 OA
ATOM     94  O   UNL A   1      44.588  36.580  35.136  1.00  0.00    -0.744 OA
ENDBRANCH  87  91
ENDBRANCH  61  84
ENDBRANCH  35  36
ENDBRANCH  27  30
ENDBRANCH  25  26
ENDBRANCH   1  25
TORSDOF 15
ENDMDL
