MODEL 1
REMARK VINA RESULT:     -11.7      0.000      0.000
REMARK SMILES O=C(CN(Cc1ccccc1Cl)S(=O)(=O)c1ccc(Cl)cc1)NCCCNC(=O)c1ccc(-c2c3nc(c(-c4cc(S(=O)(=O)[O-])ccc4F)c4ccc([nH]4)c(-c4cc(S(=O)(=O)[O-])ccc4F)c4nc(c(-c5cc(S(=O)(=O)[O-])ccc5F)c5ccc2[nH]5)C=C4)C=C3)cc1
REMARK SMILES IDX 25 1 24 2 23 3 1 4 2 5 3 7 4 8 5 9 6 10 7 11 11 12 8 13
REMARK SMILES IDX 10 14 12 15 9 16 13 17 14 18 15 19 16 20 17 21 22 22 18 23
REMARK SMILES IDX 21 24 19 25 20 26 26 27 27 28 28 29 29 31 30 32 31 33 92 34
REMARK SMILES IDX 32 35 91 36 33 37 34 38 35 39 85 40 36 41 90 42 84 43 86 44
REMARK SMILES IDX 37 45 89 46 83 47 82 48 38 50 70 51 50 52 69 53 51 54 54 55
REMARK SMILES IDX 68 56 87 57 52 58 53 59 67 61 88 62 55 63 39 64 40 65 48 66
REMARK SMILES IDX 41 67 47 68 49 69 46 70 42 71 43 72 44 73 45 74 71 75 72 76
REMARK SMILES IDX 80 77 73 78 79 79 81 80 78 81 74 82 75 83 76 84 77 85 56 86
REMARK SMILES IDX 57 87 65 88 58 89 64 90 66 91 63 92 59 93 60 94 61 95 62 96
REMARK H PARENT 23 6 27 30 86 49 54 60
REMARK Flexibility Score: inf
ROOT
ATOM      1  C   UNL A   1      35.938  23.293  25.838  1.00  0.00     0.042 C 
ENDROOT
BRANCH   1   2
ATOM      2  C   UNL A   1      34.818  22.290  25.601  1.00  0.00     0.117 C 
BRANCH   2   3
ATOM      3  N   UNL A   1      33.547  22.912  25.283  1.00  0.00    -0.355 N 
ATOM      4  O   UNL A   1      32.577  21.021  24.411  1.00  0.00    -0.274 OA
ATOM      5  C   UNL A   1      32.481  22.180  24.806  1.00  0.00     0.235 C 
ATOM      6  H   UNL A   1      33.444  23.882  25.409  1.00  0.00     0.163 HD
BRANCH   5   7
ATOM      7  C   UNL A   1      31.173  22.943  24.711  1.00  0.00     0.202 C 
BRANCH   7   8
ATOM      8  N   UNL A   1      31.177  24.451  24.767  1.00  0.00    -0.184 NA
BRANCH   8   9
ATOM      9  C   UNL A   1      30.530  25.000  23.535  1.00  0.00     0.140 C 
BRANCH   9  10
ATOM     10  C   UNL A   1      30.592  26.495  23.249  1.00  0.00    -0.014 A 
ATOM     11  C   UNL A   1      29.479  27.323  23.477  1.00  0.00     0.006 A 
ATOM     12  C   UNL A   1      31.770  27.136  22.815  1.00  0.00     0.045 A 
ATOM     13  C   UNL A   1      29.505  28.700  23.234  1.00  0.00     0.000 A 
ATOM     14  C   UNL A   1      31.802  28.521  22.583  1.00  0.00     0.021 A 
ATOM     15  Cl  UNL A   1      33.254  26.285  22.560  1.00  0.00    -0.084 Cl
ATOM     16  C   UNL A   1      30.667  29.301  22.782  1.00  0.00     0.002 A 
ENDBRANCH   9  10
ENDBRANCH   8   9
BRANCH   8  17
ATOM     17  S   UNL A   1      30.910  25.114  26.314  1.00  0.00     0.243 S 
ATOM     18  O   UNL A   1      29.511  25.477  26.441  1.00  0.00    -0.207 OA
ATOM     19  O   UNL A   1      31.499  24.199  27.260  1.00  0.00    -0.207 OA
BRANCH  17  20
ATOM     20  C   UNL A   1      31.850  26.630  26.492  1.00  0.00     0.082 A 
ATOM     21  C   UNL A   1      31.327  27.768  27.112  1.00  0.00     0.023 A 
ATOM     22  C   UNL A   1      33.209  26.608  26.140  1.00  0.00     0.023 A 
ATOM     23  C   UNL A   1      32.129  28.899  27.304  1.00  0.00     0.022 A 
ATOM     24  C   UNL A   1      34.021  27.723  26.374  1.00  0.00     0.022 A 
ATOM     25  C   UNL A   1      33.473  28.869  26.943  1.00  0.00     0.041 A 
ATOM     26  Cl  UNL A   1      34.466  30.243  27.234  1.00  0.00    -0.084 Cl
ENDBRANCH  17  20
ENDBRANCH   8  17
ENDBRANCH   7   8
ENDBRANCH   5   7
ENDBRANCH   2   3
ENDBRANCH   1   2
BRANCH   1  27
ATOM     27  C   UNL A   1      37.185  23.070  24.990  1.00  0.00     0.118 C 
BRANCH  27  28
ATOM     28  N   UNL A   1      38.154  22.175  25.609  1.00  0.00    -0.352 N 
ATOM     29  C   UNL A   1      39.270  22.449  26.362  1.00  0.00     0.251 C 
ATOM     30  H   UNL A   1      37.979  21.218  25.464  1.00  0.00     0.163 HD
ATOM     31  O   UNL A   1      40.012  21.522  26.680  1.00  0.00    -0.269 OA
BRANCH  29  32
ATOM     32  C   UNL A   1      39.606  23.835  26.765  1.00  0.00     0.039 A 
ATOM     33  C   UNL A   1      39.356  24.225  28.086  1.00  0.00     0.014 A 
ATOM     34  C   UNL A   1      40.132  24.761  25.860  1.00  0.00     0.014 A 
ATOM     35  C   UNL A   1      39.697  25.512  28.513  1.00  0.00     0.010 A 
ATOM     36  C   UNL A   1      40.536  26.022  26.305  1.00  0.00     0.010 A 
ATOM     37  C   UNL A   1      40.326  26.411  27.636  1.00  0.00    -0.014 A 
BRANCH  37  38
ATOM     38  C   UNL A   1      40.770  27.754  28.098  1.00  0.00     0.031 A 
ATOM     39  C   UNL A   1      42.236  28.085  28.178  1.00  0.00     0.074 A 
ATOM     40  C   UNL A   1      39.855  28.658  28.502  1.00  0.00     0.049 A 
ATOM     41  N   UNL A   1      42.819  29.169  28.624  1.00  0.00    -0.248 NA
ATOM     42  C   UNL A   1      43.171  27.045  27.725  1.00  0.00     0.031 C 
ATOM     43  C   UNL A   1      38.405  28.446  28.513  1.00  0.00     0.029 A 
ATOM     44  N   UNL A   1      40.005  29.931  28.992  1.00  0.00    -0.354 N 
ATOM     45  C   UNL A   1      44.187  28.938  28.519  1.00  0.00     0.074 A 
ATOM     46  C   UNL A   1      44.342  27.588  28.020  1.00  0.00     0.031 C 
ATOM     47  C   UNL A   1      37.801  29.555  28.965  1.00  0.00     0.029 A 
ATOM     48  C   UNL A   1      38.816  30.544  29.317  1.00  0.00     0.049 A 
ATOM     49  H   UNL A   1      40.881  30.366  29.100  1.00  0.00     0.167 HD
ATOM     50  C   UNL A   1      45.216  29.779  28.793  1.00  0.00     0.034 A 
ATOM     51  C   UNL A   1      38.570  31.757  29.849  1.00  0.00     0.034 A 
ATOM     52  C   UNL A   1      45.046  31.130  29.275  1.00  0.00     0.049 A 
ATOM     53  C   UNL A   1      39.728  32.672  30.153  1.00  0.00     0.074 A 
ATOM     54  C   UNL A   1      46.018  32.082  29.530  1.00  0.00     0.029 A 
ATOM     55  N   UNL A   1      43.826  31.718  29.583  1.00  0.00    -0.354 N 
ATOM     56  N   UNL A   1      41.015  32.453  30.004  1.00  0.00    -0.248 NA
ATOM     57  C   UNL A   1      39.400  34.000  30.687  1.00  0.00     0.031 C 
ATOM     58  C   UNL A   1      45.391  33.224  30.046  1.00  0.00     0.029 A 
ATOM     59  C   UNL A   1      44.023  33.010  30.049  1.00  0.00     0.049 A 
ATOM     60  H   UNL A   1      42.949  31.281  29.484  1.00  0.00     0.167 HD
ATOM     61  C   UNL A   1      41.646  33.630  30.398  1.00  0.00     0.074 A 
ATOM     62  C   UNL A   1      40.599  34.556  30.778  1.00  0.00     0.031 C 
ATOM     63  C   UNL A   1      42.971  33.919  30.438  1.00  0.00     0.034 A 
BRANCH  50  64
ATOM     64  C   UNL A   1      46.617  29.246  28.598  1.00  0.00     0.023 A 
ATOM     65  C   UNL A   1      47.151  29.024  27.317  1.00  0.00     0.031 A 
ATOM     66  C   UNL A   1      47.418  28.929  29.709  1.00  0.00     0.131 A 
ATOM     67  C   UNL A   1      48.412  28.427  27.177  1.00  0.00     0.055 A 
ATOM     68  C   UNL A   1      48.707  28.411  29.562  1.00  0.00     0.041 A 
ATOM     69  F   UNL A   1      46.958  29.101  30.958  1.00  0.00    -0.206 F 
ATOM     70  C   UNL A   1      49.205  28.141  28.291  1.00  0.00     0.022 A 
BRANCH  67  71
ATOM     71  S   UNL A   1      48.940  27.894  25.526  1.00  0.00     0.124 S 
ATOM     72  O   UNL A   1      49.013  26.444  25.693  1.00  0.00    -0.237 OA
ATOM     73  O   UNL A   1      47.862  28.385  24.676  1.00  0.00    -0.237 OA
ATOM     74  O   UNL A   1      50.229  28.558  25.346  1.00  0.00    -0.744 OA
ENDBRANCH  67  71
ENDBRANCH  50  64
BRANCH  51  75
ATOM     75  C   UNL A   1      37.172  32.183  30.138  1.00  0.00     0.023 A 
ATOM     76  C   UNL A   1      36.404  32.849  29.169  1.00  0.00     0.031 A 
ATOM     77  C   UNL A   1      36.597  31.968  31.402  1.00  0.00     0.131 A 
ATOM     78  C   UNL A   1      35.120  33.315  29.492  1.00  0.00     0.055 A 
ATOM     79  C   UNL A   1      35.301  32.390  31.705  1.00  0.00     0.041 A 
ATOM     80  F   UNL A   1      37.287  31.331  32.363  1.00  0.00    -0.206 F 
ATOM     81  C   UNL A   1      34.560  33.080  30.750  1.00  0.00     0.022 A 
BRANCH  78  82
ATOM     82  S   UNL A   1      34.222  34.304  28.267  1.00  0.00     0.124 S 
ATOM     83  O   UNL A   1      35.198  34.397  27.186  1.00  0.00    -0.237 OA
ATOM     84  O   UNL A   1      33.052  33.472  28.006  1.00  0.00    -0.237 OA
ATOM     85  O   UNL A   1      33.950  35.555  28.972  1.00  0.00    -0.744 OA
ENDBRANCH  78  82
ENDBRANCH  51  75
BRANCH  63  86
ATOM     86  C   UNL A   1      43.352  35.315  30.868  1.00  0.00     0.023 A 
ATOM     87  C   UNL A   1      43.504  35.657  32.223  1.00  0.00     0.031 A 
ATOM     88  C   UNL A   1      43.543  36.322  29.905  1.00  0.00     0.131 A 
ATOM     89  C   UNL A   1      43.784  36.985  32.581  1.00  0.00     0.055 A 
ATOM     90  C   UNL A   1      43.875  37.629  30.264  1.00  0.00     0.041 A 
ATOM     91  F   UNL A   1      43.408  36.051  28.597  1.00  0.00    -0.206 F 
ATOM     92  C   UNL A   1      43.984  37.970  31.610  1.00  0.00     0.022 A 
BRANCH  89  93
ATOM     93  S   UNL A   1      43.793  37.430  34.340  1.00  0.00     0.124 S 
ATOM     94  O   UNL A   1      45.035  38.189  34.456  1.00  0.00    -0.237 OA
ATOM     95  O   UNL A   1      42.560  38.200  34.473  1.00  0.00    -0.237 OA
ATOM     96  O   UNL A   1      43.791  36.137  35.022  1.00  0.00    -0.744 OA
ENDBRANCH  89  93
ENDBRANCH  63  86
ENDBRANCH  37  38
ENDBRANCH  29  32
ENDBRANCH  27  28
ENDBRANCH   1  27
TORSDOF 18
ENDMDL
MODEL 2
REMARK VINA RESULT:     -11.6      1.295      1.753
REMARK SMILES O=C(CN(Cc1ccccc1Cl)S(=O)(=O)c1ccc(Cl)cc1)NCCCNC(=O)c1ccc(-c2c3nc(c(-c4cc(S(=O)(=O)[O-])ccc4F)c4ccc([nH]4)c(-c4cc(S(=O)(=O)[O-])ccc4F)c4nc(c(-c5cc(S(=O)(=O)[O-])ccc5F)c5ccc2[nH]5)C=C4)C=C3)cc1
REMARK SMILES IDX 25 1 24 2 23 3 1 4 2 5 3 7 4 8 5 9 6 10 7 11 11 12 8 13
REMARK SMILES IDX 10 14 12 15 9 16 13 17 14 18 15 19 16 20 17 21 22 22 18 23
REMARK SMILES IDX 21 24 19 25 20 26 26 27 27 28 28 29 29 31 30 32 31 33 92 34
REMARK SMILES IDX 32 35 91 36 33 37 34 38 35 39 85 40 36 41 90 42 84 43 86 44
REMARK SMILES IDX 37 45 89 46 83 47 82 48 38 50 70 51 50 52 69 53 51 54 54 55
REMARK SMILES IDX 68 56 87 57 52 58 53 59 67 61 88 62 55 63 39 64 40 65 48 66
REMARK SMILES IDX 41 67 47 68 49 69 46 70 42 71 43 72 44 73 45 74 71 75 72 76
REMARK SMILES IDX 80 77 73 78 79 79 81 80 78 81 74 82 75 83 76 84 77 85 56 86
REMARK SMILES IDX 57 87 65 88 58 89 64 90 66 91 63 92 59 93 60 94 61 95 62 96
REMARK H PARENT 23 6 27 30 86 49 54 60
REMARK Flexibility Score: inf
ROOT
ATOM      1  C   UNL A   1      36.071  23.372  23.902  1.00  0.00     0.042 C 
ENDROOT
BRANCH   1   2
ATOM      2  C   UNL A   1      34.957  22.341  24.015  1.00  0.00     0.117 C 
BRANCH   2   3
ATOM      3  N   UNL A   1      33.661  22.924  24.306  1.00  0.00    -0.355 N 
ATOM      4  O   UNL A   1      32.429  21.153  23.516  1.00  0.00    -0.274 OA
ATOM      5  C   UNL A   1      32.492  22.218  24.126  1.00  0.00     0.235 C 
ATOM      6  H   UNL A   1      33.617  23.848  24.639  1.00  0.00     0.163 HD
BRANCH   5   7
ATOM      7  C   UNL A   1      31.245  22.898  24.661  1.00  0.00     0.202 C 
BRANCH   7   8
ATOM      8  N   UNL A   1      31.197  24.403  24.765  1.00  0.00    -0.184 NA
BRANCH   8   9
ATOM      9  C   UNL A   1      30.524  24.967  23.555  1.00  0.00     0.140 C 
BRANCH   9  10
ATOM     10  C   UNL A   1      30.615  26.460  23.264  1.00  0.00    -0.014 A 
ATOM     11  C   UNL A   1      29.514  27.308  23.479  1.00  0.00     0.006 A 
ATOM     12  C   UNL A   1      31.808  27.079  22.840  1.00  0.00     0.045 A 
ATOM     13  C   UNL A   1      29.566  28.683  23.233  1.00  0.00     0.000 A 
ATOM     14  C   UNL A   1      31.865  28.463  22.603  1.00  0.00     0.021 A 
ATOM     15  Cl  UNL A   1      33.278  26.202  22.601  1.00  0.00    -0.084 Cl
ATOM     16  C   UNL A   1      30.742  29.263  22.789  1.00  0.00     0.002 A 
ENDBRANCH   9  10
ENDBRANCH   8   9
BRANCH   8  17
ATOM     17  S   UNL A   1      30.916  25.007  26.334  1.00  0.00     0.243 S 
ATOM     18  O   UNL A   1      29.531  25.424  26.442  1.00  0.00    -0.207 OA
ATOM     19  O   UNL A   1      31.441  24.026  27.251  1.00  0.00    -0.207 OA
BRANCH  17  20
ATOM     20  C   UNL A   1      31.914  26.471  26.605  1.00  0.00     0.082 A 
ATOM     21  C   UNL A   1      33.235  26.571  26.160  1.00  0.00     0.023 A 
ATOM     22  C   UNL A   1      31.286  27.608  27.139  1.00  0.00     0.023 A 
ATOM     23  C   UNL A   1      33.946  27.765  26.319  1.00  0.00     0.022 A 
ATOM     24  C   UNL A   1      31.984  28.815  27.255  1.00  0.00     0.022 A 
ATOM     25  C   UNL A   1      33.316  28.884  26.858  1.00  0.00     0.041 A 
ATOM     26  Cl  UNL A   1      34.179  30.364  26.999  1.00  0.00    -0.084 Cl
ENDBRANCH  17  20
ENDBRANCH   8  17
ENDBRANCH   7   8
ENDBRANCH   5   7
ENDBRANCH   2   3
ENDBRANCH   1   2
BRANCH   1  27
ATOM     27  C   UNL A   1      36.811  23.659  25.204  1.00  0.00     0.118 C 
BRANCH  27  28
ATOM     28  N   UNL A   1      37.730  22.598  25.594  1.00  0.00    -0.352 N 
ATOM     29  C   UNL A   1      38.936  22.657  26.248  1.00  0.00     0.251 C 
ATOM     30  H   UNL A   1      37.438  21.691  25.348  1.00  0.00     0.163 HD
ATOM     31  O   UNL A   1      39.599  21.627  26.362  1.00  0.00    -0.269 OA
BRANCH  29  32
ATOM     32  C   UNL A   1      39.460  23.935  26.787  1.00  0.00     0.039 A 
ATOM     33  C   UNL A   1      40.140  24.796  25.919  1.00  0.00     0.014 A 
ATOM     34  C   UNL A   1      39.320  24.281  28.134  1.00  0.00     0.014 A 
ATOM     35  C   UNL A   1      40.613  26.028  26.381  1.00  0.00     0.010 A 
ATOM     36  C   UNL A   1      39.730  25.540  28.578  1.00  0.00     0.010 A 
ATOM     37  C   UNL A   1      40.379  26.429  27.707  1.00  0.00    -0.014 A 
BRANCH  37  38
ATOM     38  C   UNL A   1      40.802  27.770  28.192  1.00  0.00     0.031 A 
ATOM     39  C   UNL A   1      42.264  28.109  28.316  1.00  0.00     0.074 A 
ATOM     40  C   UNL A   1      39.871  28.665  28.578  1.00  0.00     0.049 A 
ATOM     41  N   UNL A   1      42.827  29.193  28.787  1.00  0.00    -0.248 NA
ATOM     42  C   UNL A   1      43.217  27.078  27.880  1.00  0.00     0.031 C 
ATOM     43  C   UNL A   1      38.423  28.444  28.547  1.00  0.00     0.029 A 
ATOM     44  N   UNL A   1      40.000  29.935  29.083  1.00  0.00    -0.354 N 
ATOM     45  C   UNL A   1      44.199  28.970  28.718  1.00  0.00     0.074 A 
ATOM     46  C   UNL A   1      44.376  27.625  28.212  1.00  0.00     0.031 C 
ATOM     47  C   UNL A   1      37.800  29.547  28.992  1.00  0.00     0.029 A 
ATOM     48  C   UNL A   1      38.798  30.538  29.380  1.00  0.00     0.049 A 
ATOM     49  H   UNL A   1      40.870  30.374  29.219  1.00  0.00     0.167 HD
ATOM     50  C   UNL A   1      45.215  29.815  29.028  1.00  0.00     0.034 A 
ATOM     51  C   UNL A   1      38.530  31.745  29.916  1.00  0.00     0.034 A 
ATOM     52  C   UNL A   1      45.024  31.160  29.517  1.00  0.00     0.049 A 
ATOM     53  C   UNL A   1      39.674  32.663  30.260  1.00  0.00     0.074 A 
ATOM     54  C   UNL A   1      45.982  32.116  29.807  1.00  0.00     0.029 A 
ATOM     55  N   UNL A   1      43.792  31.738  29.795  1.00  0.00    -0.354 N 
ATOM     56  N   UNL A   1      40.966  32.454  30.145  1.00  0.00    -0.248 NA
ATOM     57  C   UNL A   1      39.324  33.985  30.796  1.00  0.00     0.031 C 
ATOM     58  C   UNL A   1      45.335  33.250  30.315  1.00  0.00     0.029 A 
ATOM     59  C   UNL A   1      43.968  33.028  30.278  1.00  0.00     0.049 A 
ATOM     60  H   UNL A   1      42.920  31.298  29.668  1.00  0.00     0.167 HD
ATOM     61  C   UNL A   1      41.579  33.631  30.566  1.00  0.00     0.074 A 
ATOM     62  C   UNL A   1      40.516  34.548  30.925  1.00  0.00     0.031 C 
ATOM     63  C   UNL A   1      42.900  33.928  30.646  1.00  0.00     0.034 A 
BRANCH  50  64
ATOM     64  C   UNL A   1      46.624  29.292  28.868  1.00  0.00     0.023 A 
ATOM     65  C   UNL A   1      47.217  29.144  27.602  1.00  0.00     0.031 A 
ATOM     66  C   UNL A   1      47.374  28.909  29.994  1.00  0.00     0.131 A 
ATOM     67  C   UNL A   1      48.484  28.553  27.486  1.00  0.00     0.055 A 
ATOM     68  C   UNL A   1      48.668  28.399  29.877  1.00  0.00     0.041 A 
ATOM     69  F   UNL A   1      46.856  29.009  31.228  1.00  0.00    -0.206 F 
ATOM     70  C   UNL A   1      49.225  28.202  28.616  1.00  0.00     0.022 A 
BRANCH  67  71
ATOM     71  S   UNL A   1      49.088  28.117  25.832  1.00  0.00     0.124 S 
ATOM     72  O   UNL A   1      47.959  28.511  24.993  1.00  0.00    -0.237 OA
ATOM     73  O   UNL A   1      50.290  28.931  25.710  1.00  0.00    -0.237 OA
ATOM     74  O   UNL A   1      49.316  26.676  25.920  1.00  0.00    -0.744 OA
ENDBRANCH  67  71
ENDBRANCH  50  64
BRANCH  51  75
ATOM     75  C   UNL A   1      37.122  32.160  30.169  1.00  0.00     0.023 A 
ATOM     76  C   UNL A   1      36.381  32.839  29.189  1.00  0.00     0.031 A 
ATOM     77  C   UNL A   1      36.510  31.921  31.412  1.00  0.00     0.131 A 
ATOM     78  C   UNL A   1      35.086  33.294  29.481  1.00  0.00     0.055 A 
ATOM     79  C   UNL A   1      35.203  32.333  31.682  1.00  0.00     0.041 A 
ATOM     80  F   UNL A   1      37.173  31.270  32.382  1.00  0.00    -0.206 F 
ATOM     81  C   UNL A   1      34.489  33.036  30.717  1.00  0.00     0.022 A 
BRANCH  78  82
ATOM     82  S   UNL A   1      34.221  34.301  28.246  1.00  0.00     0.124 S 
ATOM     83  O   UNL A   1      33.083  33.451  27.913  1.00  0.00    -0.237 OA
ATOM     84  O   UNL A   1      33.918  35.512  29.002  1.00  0.00    -0.237 OA
ATOM     85  O   UNL A   1      35.212  34.463  27.184  1.00  0.00    -0.744 OA
ENDBRANCH  78  82
ENDBRANCH  51  75
BRANCH  63  86
ATOM     86  C   UNL A   1      43.260  35.322  31.098  1.00  0.00     0.023 A 
ATOM     87  C   UNL A   1      43.477  36.364  30.181  1.00  0.00     0.031 A 
ATOM     88  C   UNL A   1      43.409  35.603  32.468  1.00  0.00     0.131 A 
ATOM     89  C   UNL A   1      43.884  37.626  30.640  1.00  0.00     0.055 A 
ATOM     90  C   UNL A   1      43.761  36.874  32.923  1.00  0.00     0.041 A 
ATOM     91  F   UNL A   1      43.216  34.643  33.387  1.00  0.00    -0.206 F 
ATOM     92  C   UNL A   1      44.014  37.891  32.007  1.00  0.00     0.022 A 
BRANCH  89  93
ATOM     93  S   UNL A   1      44.332  38.895  29.424  1.00  0.00     0.124 S 
ATOM     94  O   UNL A   1      44.074  40.128  30.161  1.00  0.00    -0.237 OA
ATOM     95  O   UNL A   1      45.736  38.592  29.160  1.00  0.00    -0.237 OA
ATOM     96  O   UNL A   1      43.424  38.638  28.308  1.00  0.00    -0.744 OA
ENDBRANCH  89  93
ENDBRANCH  63  86
ENDBRANCH  37  38
ENDBRANCH  29  32
ENDBRANCH  27  28
ENDBRANCH   1  27
TORSDOF 18
ENDMDL
MODEL 3
REMARK VINA RESULT:     -11.6      2.025      2.393
REMARK SMILES O=C(CN(Cc1ccccc1Cl)S(=O)(=O)c1ccc(Cl)cc1)NCCCNC(=O)c1ccc(-c2c3nc(c(-c4cc(S(=O)(=O)[O-])ccc4F)c4ccc([nH]4)c(-c4cc(S(=O)(=O)[O-])ccc4F)c4nc(c(-c5cc(S(=O)(=O)[O-])ccc5F)c5ccc2[nH]5)C=C4)C=C3)cc1
REMARK SMILES IDX 25 1 24 2 23 3 1 4 2 5 3 7 4 8 5 9 6 10 7 11 11 12 8 13
REMARK SMILES IDX 10 14 12 15 9 16 13 17 14 18 15 19 16 20 17 21 22 22 18 23
REMARK SMILES IDX 21 24 19 25 20 26 26 27 27 28 28 29 29 31 30 32 31 33 92 34
REMARK SMILES IDX 32 35 91 36 33 37 34 38 35 39 85 40 36 41 90 42 84 43 86 44
REMARK SMILES IDX 37 45 89 46 83 47 82 48 38 50 70 51 50 52 69 53 51 54 54 55
REMARK SMILES IDX 68 56 87 57 52 58 53 59 67 61 88 62 55 63 39 64 40 65 48 66
REMARK SMILES IDX 41 67 47 68 49 69 46 70 42 71 43 72 44 73 45 74 71 75 72 76
REMARK SMILES IDX 80 77 73 78 79 79 81 80 78 81 74 82 75 83 76 84 77 85 56 86
REMARK SMILES IDX 57 87 65 88 58 89 64 90 66 91 63 92 59 93 60 94 61 95 62 96
REMARK H PARENT 23 6 27 30 86 49 54 60
REMARK Flexibility Score: inf
ROOT
ATOM      1  C   UNL A   1      36.215  21.896  25.732  1.00  0.00     0.042 C 
ENDROOT
BRANCH   1   2
ATOM      2  C   UNL A   1      35.176  21.148  24.910  1.00  0.00     0.117 C 
BRANCH   2   3
ATOM      3  N   UNL A   1      33.860  21.756  24.956  1.00  0.00    -0.355 N 
ATOM      4  O   UNL A   1      32.715  19.883  24.281  1.00  0.00    -0.274 OA
ATOM      5  C   UNL A   1      32.714  21.023  24.738  1.00  0.00     0.235 C 
ATOM      6  H   UNL A   1      33.784  22.719  25.147  1.00  0.00     0.163 HD
BRANCH   5   7
ATOM      7  C   UNL A   1      31.419  21.763  25.016  1.00  0.00     0.202 C 
BRANCH   7   8
ATOM      8  N   UNL A   1      31.396  23.272  24.996  1.00  0.00    -0.184 NA
BRANCH   8   9
ATOM      9  C   UNL A   1      30.616  23.745  23.811  1.00  0.00     0.140 C 
BRANCH   9  10
ATOM     10  C   UNL A   1      30.649  25.218  23.420  1.00  0.00    -0.014 A 
ATOM     11  C   UNL A   1      29.581  26.075  23.737  1.00  0.00     0.006 A 
ATOM     12  C   UNL A   1      31.764  25.812  22.796  1.00  0.00     0.045 A 
ATOM     13  C   UNL A   1      29.583  27.433  23.403  1.00  0.00     0.000 A 
ATOM     14  C   UNL A   1      31.773  27.179  22.471  1.00  0.00     0.021 A 
ATOM     15  Cl  UNL A   1      33.196  24.925  22.405  1.00  0.00    -0.084 Cl
ATOM     16  C   UNL A   1      30.679  27.987  22.764  1.00  0.00     0.002 A 
ENDBRANCH   9  10
ENDBRANCH   8   9
BRANCH   8  17
ATOM     17  S   UNL A   1      31.273  24.011  26.527  1.00  0.00     0.243 S 
ATOM     18  O   UNL A   1      29.873  24.184  26.861  1.00  0.00    -0.207 OA
ATOM     19  O   UNL A   1      32.132  23.264  27.412  1.00  0.00    -0.207 OA
BRANCH  17  20
ATOM     20  C   UNL A   1      31.992  25.652  26.465  1.00  0.00     0.082 A 
ATOM     21  C   UNL A   1      33.273  25.890  25.960  1.00  0.00     0.023 A 
ATOM     22  C   UNL A   1      31.169  26.744  26.785  1.00  0.00     0.023 A 
ATOM     23  C   UNL A   1      33.758  27.199  25.853  1.00  0.00     0.022 A 
ATOM     24  C   UNL A   1      31.639  28.053  26.634  1.00  0.00     0.022 A 
ATOM     25  C   UNL A   1      32.937  28.274  26.182  1.00  0.00     0.041 A 
ATOM     26  Cl  UNL A   1      33.519  29.881  25.994  1.00  0.00    -0.084 Cl
ENDBRANCH  17  20
ENDBRANCH   8  17
ENDBRANCH   7   8
ENDBRANCH   5   7
ENDBRANCH   2   3
ENDBRANCH   1   2
BRANCH   1  27
ATOM     27  C   UNL A   1      37.602  21.963  25.100  1.00  0.00     0.118 C 
BRANCH  27  28
ATOM     28  N   UNL A   1      38.561  21.053  25.710  1.00  0.00    -0.352 N 
ATOM     29  C   UNL A   1      39.693  21.308  26.446  1.00  0.00     0.251 C 
ATOM     30  H   UNL A   1      38.367  20.098  25.572  1.00  0.00     0.163 HD
ATOM     31  O   UNL A   1      40.422  20.369  26.758  1.00  0.00    -0.269 OA
BRANCH  29  32
ATOM     32  C   UNL A   1      40.060  22.690  26.840  1.00  0.00     0.039 A 
ATOM     33  C   UNL A   1      40.930  22.867  27.921  1.00  0.00     0.014 A 
ATOM     34  C   UNL A   1      39.539  23.808  26.183  1.00  0.00     0.014 A 
ATOM     35  C   UNL A   1      41.331  24.153  28.296  1.00  0.00     0.010 A 
ATOM     36  C   UNL A   1      39.994  25.087  26.512  1.00  0.00     0.010 A 
ATOM     37  C   UNL A   1      40.896  25.274  27.571  1.00  0.00    -0.014 A 
BRANCH  37  38
ATOM     38  C   UNL A   1      41.379  26.642  27.904  1.00  0.00     0.031 A 
ATOM     39  C   UNL A   1      42.791  27.050  27.582  1.00  0.00     0.074 A 
ATOM     40  C   UNL A   1      40.563  27.498  28.551  1.00  0.00     0.049 A 
ATOM     41  N   UNL A   1      43.416  28.167  27.860  1.00  0.00    -0.248 NA
ATOM     42  C   UNL A   1      43.619  26.058  26.881  1.00  0.00     0.031 C 
ATOM     43  C   UNL A   1      39.186  27.209  28.958  1.00  0.00     0.029 A 
ATOM     44  N   UNL A   1      40.775  28.780  28.992  1.00  0.00    -0.354 N 
ATOM     45  C   UNL A   1      44.713  28.008  27.382  1.00  0.00     0.074 A 
ATOM     46  C   UNL A   1      44.796  26.665  26.847  1.00  0.00     0.031 C 
ATOM     47  C   UNL A   1      38.672  28.288  29.568  1.00  0.00     0.029 A 
ATOM     48  C   UNL A   1      39.690  29.331  29.637  1.00  0.00     0.049 A 
ATOM     49  H   UNL A   1      41.623  29.262  28.860  1.00  0.00     0.167 HD
ATOM     50  C   UNL A   1      45.731  28.904  27.370  1.00  0.00     0.034 A 
ATOM     51  C   UNL A   1      39.535  30.533  30.226  1.00  0.00     0.034 A 
ATOM     52  C   UNL A   1      45.630  30.247  27.892  1.00  0.00     0.049 A 
ATOM     53  C   UNL A   1      40.683  31.509  30.209  1.00  0.00     0.074 A 
ATOM     54  C   UNL A   1      46.582  31.252  27.879  1.00  0.00     0.029 A 
ATOM     55  N   UNL A   1      44.511  30.771  28.527  1.00  0.00    -0.354 N 
ATOM     56  N   UNL A   1      41.889  31.359  29.710  1.00  0.00    -0.248 NA
ATOM     57  C   UNL A   1      40.445  32.822  30.823  1.00  0.00     0.031 C 
ATOM     58  C   UNL A   1      46.062  32.361  28.557  1.00  0.00     0.029 A 
ATOM     59  C   UNL A   1      44.760  32.075  28.933  1.00  0.00     0.049 A 
ATOM     60  H   UNL A   1      43.665  30.288  28.669  1.00  0.00     0.167 HD
ATOM     61  C   UNL A   1      42.541  32.570  29.926  1.00  0.00     0.074 A 
ATOM     62  C   UNL A   1      41.591  33.442  30.587  1.00  0.00     0.031 C 
ATOM     63  C   UNL A   1      43.809  32.930  29.604  1.00  0.00     0.034 A 
BRANCH  50  64
ATOM     64  C   UNL A   1      47.051  28.445  26.794  1.00  0.00     0.023 A 
ATOM     65  C   UNL A   1      47.252  28.332  25.407  1.00  0.00     0.031 A 
ATOM     66  C   UNL A   1      48.114  28.089  27.643  1.00  0.00     0.131 A 
ATOM     67  C   UNL A   1      48.452  27.799  24.914  1.00  0.00     0.055 A 
ATOM     68  C   UNL A   1      49.336  27.637  27.142  1.00  0.00     0.041 A 
ATOM     69  F   UNL A   1      47.977  28.159  28.977  1.00  0.00    -0.206 F 
ATOM     70  C   UNL A   1      49.506  27.474  25.770  1.00  0.00     0.022 A 
BRANCH  67  71
ATOM     71  S   UNL A   1      48.561  27.400  23.148  1.00  0.00     0.124 S 
ATOM     72  O   UNL A   1      48.376  25.950  23.161  1.00  0.00    -0.237 OA
ATOM     73  O   UNL A   1      47.467  28.178  22.580  1.00  0.00    -0.237 OA
ATOM     74  O   UNL A   1      49.902  27.845  22.777  1.00  0.00    -0.744 OA
ENDBRANCH  67  71
ENDBRANCH  50  64
BRANCH  51  75
ATOM     75  C   UNL A   1      38.250  30.886  30.891  1.00  0.00     0.023 A 
ATOM     76  C   UNL A   1      37.257  31.607  30.209  1.00  0.00     0.031 A 
ATOM     77  C   UNL A   1      38.012  30.542  32.233  1.00  0.00     0.131 A 
ATOM     78  C   UNL A   1      36.091  32.001  30.883  1.00  0.00     0.055 A 
ATOM     79  C   UNL A   1      36.828  30.894  32.886  1.00  0.00     0.041 A 
ATOM     80  F   UNL A   1      38.927  29.847  32.929  1.00  0.00    -0.206 F 
ATOM     81  C   UNL A   1      35.865  31.639  32.213  1.00  0.00     0.022 A 
BRANCH  78  82
ATOM     82  S   UNL A   1      34.905  33.063  30.016  1.00  0.00     0.124 S 
ATOM     83  O   UNL A   1      34.081  33.551  31.117  1.00  0.00    -0.237 OA
ATOM     84  O   UNL A   1      35.782  34.045  29.386  1.00  0.00    -0.237 OA
ATOM     85  O   UNL A   1      34.237  32.146  29.094  1.00  0.00    -0.744 OA
ENDBRANCH  78  82
ENDBRANCH  51  75
BRANCH  63  86
ATOM     86  C   UNL A   1      44.218  34.346  29.925  1.00  0.00     0.023 A 
ATOM     87  C   UNL A   1      43.890  35.420  29.080  1.00  0.00     0.031 A 
ATOM     88  C   UNL A   1      44.968  34.619  31.083  1.00  0.00     0.131 A 
ATOM     89  C   UNL A   1      44.356  36.711  29.377  1.00  0.00     0.055 A 
ATOM     90  C   UNL A   1      45.382  35.912  31.402  1.00  0.00     0.041 A 
ATOM     91  F   UNL A   1      45.311  33.630  31.924  1.00  0.00    -0.206 F 
ATOM     92  C   UNL A   1      45.089  36.965  30.540  1.00  0.00     0.022 A 
BRANCH  89  93
ATOM     93  S   UNL A   1      44.072  38.039  28.176  1.00  0.00     0.124 S 
ATOM     94  O   UNL A   1      43.799  37.291  26.952  1.00  0.00    -0.237 OA
ATOM     95  O   UNL A   1      42.935  38.747  28.756  1.00  0.00    -0.237 OA
ATOM     96  O   UNL A   1      45.331  38.782  28.180  1.00  0.00    -0.744 OA
ENDBRANCH  89  93
ENDBRANCH  63  86
ENDBRANCH  37  38
ENDBRANCH  29  32
ENDBRANCH  27  28
ENDBRANCH   1  27
TORSDOF 18
ENDMDL
