MODEL 1
REMARK VINA RESULT:     -11.1      0.000      0.000
REMARK SMILES Cc1ccc([C@H]2CC(c3cccs3)=NN2C(=O)CCC(=O)NCCCNC(=O)c2ccc(-c3c4nc(c(-c5cc(S(=O)(=O)[O-])ccc5F)c5ccc([nH]5)c(-c5cc(S(=O)(=O)[O-])ccc5F)c5nc(c(-c6cc(S(=O)(=O)[O-])ccc6F)c6ccc3[nH]6)C=C5)C=C4)cc2)o1
REMARK SMILES IDX 23 1 22 2 20 3 21 4 19 6 18 7 16 8 17 9 15 10 6 11 7 12 8 13
REMARK SMILES IDX 14 14 5 15 1 16 2 17 3 18 92 19 4 20 9 21 10 22 13 23 11 24
REMARK SMILES IDX 12 25 24 26 25 27 26 28 27 29 28 31 29 32 30 33 91 34 31 35
REMARK SMILES IDX 90 36 32 37 33 38 34 39 84 40 35 41 89 42 83 43 85 44 36 45
REMARK SMILES IDX 88 46 82 47 81 48 37 50 69 51 49 52 68 53 50 54 53 55 67 56
REMARK SMILES IDX 86 57 51 58 52 59 66 61 87 62 54 63 38 64 39 65 47 66 40 67
REMARK SMILES IDX 46 68 48 69 45 70 41 71 42 72 43 73 44 74 70 75 71 76 79 77
REMARK SMILES IDX 72 78 78 79 80 80 77 81 73 82 74 83 75 84 76 85 55 86 56 87
REMARK SMILES IDX 64 88 57 89 63 90 65 91 62 92 58 93 59 94 60 95 61 96
REMARK H PARENT 22 5 26 30 85 49 53 60
REMARK Flexibility Score: inf
ROOT
ATOM      1  C   UNL A   1      33.085  28.732  27.357  1.00  0.00     0.117 C 
ENDROOT
BRANCH   1   2
ATOM      2  N   UNL A   1      33.938  28.154  26.334  1.00  0.00    -0.356 N 
ATOM      3  C   UNL A   1      33.683  27.021  25.609  1.00  0.00     0.220 C 
ATOM      4  O   UNL A   1      33.884  27.029  24.394  1.00  0.00    -0.275 OA
ATOM      5  H   UNL A   1      34.783  28.622  26.144  1.00  0.00     0.163 HD
BRANCH   3   6
ATOM      6  C   UNL A   1      33.205  25.764  26.302  1.00  0.00     0.110 C 
BRANCH   6   7
ATOM      7  C   UNL A   1      31.678  25.619  26.334  1.00  0.00     0.112 C 
BRANCH   7   8
ATOM      8  C   UNL A   1      31.228  24.179  26.268  1.00  0.00     0.243 C 
ATOM      9  O   UNL A   1      30.532  23.746  27.192  1.00  0.00    -0.273 OA
BRANCH   8  10
ATOM     10  N   UNL A   1      31.733  23.373  25.264  1.00  0.00    -0.222 N 
ATOM     11  C   UNL A   1      31.311  23.230  23.862  1.00  0.00     0.183 C 
ATOM     12  C   UNL A   1      31.876  21.868  23.444  1.00  0.00     0.095 C 
ATOM     13  C   UNL A   1      32.678  21.534  24.657  1.00  0.00     0.081 C 
ATOM     14  N   UNL A   1      32.493  22.311  25.667  1.00  0.00    -0.173 NA
BRANCH  11  15
ATOM     15  C   UNL A   1      31.790  24.315  22.963  1.00  0.00     0.129 A 
ATOM     16  C   UNL A   1      30.990  27.659  22.007  1.00  0.00     0.087 C 
ATOM     17  C   UNL A   1      31.613  26.326  22.095  1.00  0.00     0.101 A 
ATOM     18  C   UNL A   1      32.685  25.731  21.469  1.00  0.00     0.045 A 
ATOM     19  O   UNL A   1      31.053  25.464  22.985  1.00  0.00    -0.464 OA
ATOM     20  C   UNL A   1      32.794  24.430  22.020  1.00  0.00     0.048 A 
ENDBRANCH  11  15
BRANCH  13  21
ATOM     21  C   UNL A   1      33.584  20.421  24.708  1.00  0.00     0.050 A 
ATOM     22  C   UNL A   1      35.272  20.343  24.846  1.00  0.00     0.022 A 
ATOM     23  S   UNL A   1      32.578  18.372  24.415  1.00  0.00    -0.142 S 
ATOM     24  C   UNL A   1      36.064  18.653  24.717  1.00  0.00     0.012 A 
ATOM     25  C   UNL A   1      34.887  17.365  24.454  1.00  0.00     0.065 A 
ENDBRANCH  13  21
ENDBRANCH   8  10
ENDBRANCH   7   8
ENDBRANCH   6   7
ENDBRANCH   3   6
ENDBRANCH   1   2
BRANCH   1  26
ATOM     26  C   UNL A   1      32.900  30.245  27.416  1.00  0.00     0.042 C 
BRANCH  26  27
ATOM     27  C   UNL A   1      34.092  31.219  27.375  1.00  0.00     0.118 C 
BRANCH  27  28
ATOM     28  N   UNL A   1      34.188  32.264  28.390  1.00  0.00    -0.352 N 
ATOM     29  C   UNL A   1      34.947  32.332  29.560  1.00  0.00     0.251 C 
ATOM     30  H   UNL A   1      33.624  33.054  28.220  1.00  0.00     0.163 HD
ATOM     31  O   UNL A   1      34.713  33.256  30.338  1.00  0.00    -0.269 OA
BRANCH  29  32
ATOM     32  C   UNL A   1      35.967  31.176  29.939  1.00  0.00     0.039 A 
ATOM     33  C   UNL A   1      37.331  31.530  28.882  1.00  0.00     0.014 A 
ATOM     34  C   UNL A   1      36.206  29.604  31.248  1.00  0.00     0.014 A 
ATOM     35  C   UNL A   1      38.739  30.629  29.073  1.00  0.00     0.010 A 
ATOM     36  C   UNL A   1      37.771  28.794  31.283  1.00  0.00     0.010 A 
ATOM     37  C   UNL A   1      38.993  29.373  30.236  1.00  0.00    -0.014 A 
BRANCH  37  38
ATOM     38  C   UNL A   1      40.401  28.860  30.382  1.00  0.00     0.031 A 
ATOM     39  C   UNL A   1      41.322  29.453  31.415  1.00  0.00     0.074 A 
ATOM     40  C   UNL A   1      40.864  27.881  29.567  1.00  0.00     0.049 A 
ATOM     41  N   UNL A   1      42.604  29.254  31.594  1.00  0.00    -0.248 NA
ATOM     42  C   UNL A   1      40.742  30.436  32.340  1.00  0.00     0.031 C 
ATOM     43  C   UNL A   1      40.114  27.242  28.481  1.00  0.00     0.029 A 
ATOM     44  N   UNL A   1      42.077  27.227  29.526  1.00  0.00    -0.354 N 
ATOM     45  C   UNL A   1      42.985  30.124  32.609  1.00  0.00     0.074 A 
ATOM     46  C   UNL A   1      41.818  30.907  32.949  1.00  0.00     0.031 C 
ATOM     47  C   UNL A   1      40.823  26.225  27.973  1.00  0.00     0.029 A 
ATOM     48  C   UNL A   1      42.144  26.222  28.580  1.00  0.00     0.049 A 
ATOM     49  H   UNL A   1      42.830  27.455  30.119  1.00  0.00     0.167 HD
ATOM     50  C   UNL A   1      44.185  30.234  33.231  1.00  0.00     0.034 A 
ATOM     51  C   UNL A   1      43.156  25.414  28.201  1.00  0.00     0.034 A 
ATOM     52  C   UNL A   1      45.322  29.406  32.922  1.00  0.00     0.049 A 
ATOM     53  C   UNL A   1      44.492  25.593  28.875  1.00  0.00     0.074 A 
ATOM     54  C   UNL A   1      46.571  29.407  33.517  1.00  0.00     0.029 A 
ATOM     55  N   UNL A   1      45.348  28.426  31.939  1.00  0.00    -0.354 N 
ATOM     56  N   UNL A   1      44.824  26.422  29.838  1.00  0.00    -0.248 NA
ATOM     57  C   UNL A   1      45.592  24.739  28.408  1.00  0.00     0.031 C 
ATOM     58  C   UNL A   1      47.377  28.492  32.836  1.00  0.00     0.029 A 
ATOM     59  C   UNL A   1      46.603  27.843  31.887  1.00  0.00     0.049 A 
ATOM     60  H   UNL A   1      44.587  28.181  31.364  1.00  0.00     0.167 HD
ATOM     61  C   UNL A   1      46.164  26.164  30.111  1.00  0.00     0.074 A 
ATOM     62  C   UNL A   1      46.568  25.087  29.231  1.00  0.00     0.031 C 
ATOM     63  C   UNL A   1      46.988  26.766  31.006  1.00  0.00     0.034 A 
BRANCH  50  64
ATOM     64  C   UNL A   1      44.327  31.303  34.288  1.00  0.00     0.023 A 
ATOM     65  C   UNL A   1      43.955  31.079  35.625  1.00  0.00     0.031 A 
ATOM     66  C   UNL A   1      44.812  32.578  33.947  1.00  0.00     0.131 A 
ATOM     67  C   UNL A   1      43.985  32.134  36.547  1.00  0.00     0.055 A 
ATOM     68  C   UNL A   1      44.936  33.597  34.894  1.00  0.00     0.041 A 
ATOM     69  F   UNL A   1      45.159  32.863  32.682  1.00  0.00    -0.206 F 
ATOM     70  C   UNL A   1      44.504  33.383  36.199  1.00  0.00     0.022 A 
BRANCH  67  71
ATOM     71  S   UNL A   1      43.171  31.900  38.150  1.00  0.00     0.124 S 
ATOM     72  O   UNL A   1      44.102  30.995  38.822  1.00  0.00    -0.237 OA
ATOM     73  O   UNL A   1      43.111  33.260  38.675  1.00  0.00    -0.237 OA
ATOM     74  O   UNL A   1      41.882  31.308  37.798  1.00  0.00    -0.744 OA
ENDBRANCH  67  71
ENDBRANCH  50  64
BRANCH  51  75
ATOM     75  C   UNL A   1      42.989  24.409  27.100  1.00  0.00     0.023 A 
ATOM     76  C   UNL A   1      42.295  23.205  27.313  1.00  0.00     0.031 A 
ATOM     77  C   UNL A   1      43.590  24.596  25.841  1.00  0.00     0.131 A 
ATOM     78  C   UNL A   1      42.280  22.215  26.315  1.00  0.00     0.055 A 
ATOM     79  C   UNL A   1      43.500  23.644  24.823  1.00  0.00     0.041 A 
ATOM     80  F   UNL A   1      44.281  25.717  25.576  1.00  0.00    -0.206 F 
ATOM     81  C   UNL A   1      42.858  22.435  25.064  1.00  0.00     0.022 A 
BRANCH  78  82
ATOM     82  S   UNL A   1      41.618  20.574  26.726  1.00  0.00     0.124 S 
ATOM     83  O   UNL A   1      40.938  20.840  27.989  1.00  0.00    -0.237 OA
ATOM     84  O   UNL A   1      40.760  20.296  25.581  1.00  0.00    -0.237 OA
ATOM     85  O   UNL A   1      42.815  19.740  26.827  1.00  0.00    -0.744 OA
ENDBRANCH  78  82
ENDBRANCH  51  75
BRANCH  63  86
ATOM     86  C   UNL A   1      48.392  26.229  31.118  1.00  0.00     0.023 A 
ATOM     87  C   UNL A   1      48.727  25.218  32.032  1.00  0.00     0.031 A 
ATOM     88  C   UNL A   1      49.409  26.743  30.294  1.00  0.00     0.131 A 
ATOM     89  C   UNL A   1      50.059  24.798  32.146  1.00  0.00     0.055 A 
ATOM     90  C   UNL A   1      50.715  26.258  30.351  1.00  0.00     0.041 A 
ATOM     91  F   UNL A   1      49.147  27.718  29.409  1.00  0.00    -0.206 F 
ATOM     92  C   UNL A   1      51.050  25.290  31.293  1.00  0.00     0.022 A 
BRANCH  89  93
ATOM     93  S   UNL A   1      50.502  23.688  33.510  1.00  0.00     0.124 S 
ATOM     94  O   UNL A   1      49.282  23.694  34.310  1.00  0.00    -0.237 OA
ATOM     95  O   UNL A   1      50.801  22.441  32.814  1.00  0.00    -0.237 OA
ATOM     96  O   UNL A   1      51.653  24.347  34.126  1.00  0.00    -0.744 OA
ENDBRANCH  89  93
ENDBRANCH  63  86
ENDBRANCH  37  38
ENDBRANCH  29  32
ENDBRANCH  27  28
ENDBRANCH  26  27
ENDBRANCH   1  26
TORSDOF 18
ENDMDL
MODEL 2
REMARK VINA RESULT:     -10.7      1.210      2.037
REMARK SMILES Cc1ccc([C@H]2CC(c3cccs3)=NN2C(=O)CCC(=O)NCCCNC(=O)c2ccc(-c3c4nc(c(-c5cc(S(=O)(=O)[O-])ccc5F)c5ccc([nH]5)c(-c5cc(S(=O)(=O)[O-])ccc5F)c5nc(c(-c6cc(S(=O)(=O)[O-])ccc6F)c6ccc3[nH]6)C=C5)C=C4)cc2)o1
REMARK SMILES IDX 23 1 22 2 20 3 21 4 19 6 18 7 16 8 17 9 15 10 6 11 7 12 8 13
REMARK SMILES IDX 14 14 5 15 1 16 2 17 3 18 92 19 4 20 9 21 10 22 13 23 11 24
REMARK SMILES IDX 12 25 24 26 25 27 26 28 27 29 28 31 29 32 30 33 91 34 31 35
REMARK SMILES IDX 90 36 32 37 33 38 34 39 84 40 35 41 89 42 83 43 85 44 36 45
REMARK SMILES IDX 88 46 82 47 81 48 37 50 69 51 49 52 68 53 50 54 53 55 67 56
REMARK SMILES IDX 86 57 51 58 52 59 66 61 87 62 54 63 38 64 39 65 47 66 40 67
REMARK SMILES IDX 46 68 48 69 45 70 41 71 42 72 43 73 44 74 70 75 71 76 79 77
REMARK SMILES IDX 72 78 78 79 80 80 77 81 73 82 74 83 75 84 76 85 55 86 56 87
REMARK SMILES IDX 64 88 57 89 63 90 65 91 62 92 58 93 59 94 60 95 61 96
REMARK H PARENT 22 5 26 30 85 49 53 60
REMARK Flexibility Score: inf
ROOT
ATOM      1  C   UNL A   1      31.797  29.221  26.110  1.00  0.00     0.117 C 
ENDROOT
BRANCH   1   2
ATOM      2  N   UNL A   1      32.696  28.470  25.253  1.00  0.00    -0.356 N 
ATOM      3  C   UNL A   1      32.570  27.153  24.899  1.00  0.00     0.220 C 
ATOM      4  O   UNL A   1      32.747  26.828  23.724  1.00  0.00    -0.275 OA
ATOM      5  H   UNL A   1      33.474  28.954  24.891  1.00  0.00     0.163 HD
BRANCH   3   6
ATOM      6  C   UNL A   1      32.263  26.108  25.950  1.00  0.00     0.110 C 
BRANCH   6   7
ATOM      7  C   UNL A   1      31.538  24.873  25.398  1.00  0.00     0.112 C 
BRANCH   7   8
ATOM      8  C   UNL A   1      31.848  23.619  26.180  1.00  0.00     0.243 C 
ATOM      9  O   UNL A   1      31.494  23.571  27.363  1.00  0.00    -0.273 OA
BRANCH   8  10
ATOM     10  N   UNL A   1      32.637  22.648  25.590  1.00  0.00    -0.222 N 
ATOM     11  C   UNL A   1      33.673  22.772  24.553  1.00  0.00     0.183 C 
ATOM     12  C   UNL A   1      33.786  21.357  23.975  1.00  0.00     0.095 C 
ATOM     13  C   UNL A   1      32.890  20.619  24.911  1.00  0.00     0.081 C 
ATOM     14  N   UNL A   1      32.197  21.360  25.704  1.00  0.00    -0.173 NA
BRANCH  11  15
ATOM     15  C   UNL A   1      34.988  23.259  25.053  1.00  0.00     0.129 A 
ATOM     16  C   UNL A   1      38.313  22.104  25.643  1.00  0.00     0.087 C 
ATOM     17  C   UNL A   1      37.096  22.933  25.582  1.00  0.00     0.101 A 
ATOM     18  C   UNL A   1      36.814  24.239  25.914  1.00  0.00     0.045 A 
ATOM     19  O   UNL A   1      35.986  22.328  25.080  1.00  0.00    -0.464 OA
ATOM     20  C   UNL A   1      35.452  24.448  25.583  1.00  0.00     0.048 A 
ENDBRANCH  11  15
BRANCH  13  21
ATOM     21  C   UNL A   1      32.792  19.186  24.928  1.00  0.00     0.050 A 
ATOM     22  C   UNL A   1      32.836  18.064  26.197  1.00  0.00     0.022 A 
ATOM     23  S   UNL A   1      32.690  18.225  22.839  1.00  0.00    -0.142 S 
ATOM     24  C   UNL A   1      32.825  16.251  25.739  1.00  0.00     0.012 A 
ATOM     25  C   UNL A   1      32.777  15.988  23.994  1.00  0.00     0.065 A 
ENDBRANCH  13  21
ENDBRANCH   8  10
ENDBRANCH   7   8
ENDBRANCH   6   7
ENDBRANCH   3   6
ENDBRANCH   1   2
BRANCH   1  26
ATOM     26  C   UNL A   1      32.270  30.532  26.732  1.00  0.00     0.042 C 
BRANCH  26  27
ATOM     27  C   UNL A   1      33.628  30.657  27.448  1.00  0.00     0.118 C 
BRANCH  27  28
ATOM     28  N   UNL A   1      33.946  31.895  28.153  1.00  0.00    -0.352 N 
ATOM     29  C   UNL A   1      34.905  32.166  29.130  1.00  0.00     0.251 C 
ATOM     30  H   UNL A   1      33.392  32.668  27.895  1.00  0.00     0.163 HD
ATOM     31  O   UNL A   1      34.851  33.261  29.692  1.00  0.00    -0.269 OA
BRANCH  29  32
ATOM     32  C   UNL A   1      35.930  31.050  29.600  1.00  0.00     0.039 A 
ATOM     33  C   UNL A   1      37.269  31.287  28.481  1.00  0.00     0.014 A 
ATOM     34  C   UNL A   1      36.195  29.618  31.057  1.00  0.00     0.014 A 
ATOM     35  C   UNL A   1      38.678  30.402  28.729  1.00  0.00     0.010 A 
ATOM     36  C   UNL A   1      37.758  28.807  31.137  1.00  0.00     0.010 A 
ATOM     37  C   UNL A   1      38.956  29.269  30.008  1.00  0.00    -0.014 A 
BRANCH  37  38
ATOM     38  C   UNL A   1      40.366  28.766  30.171  1.00  0.00     0.031 A 
ATOM     39  C   UNL A   1      41.285  29.397  31.184  1.00  0.00     0.074 A 
ATOM     40  C   UNL A   1      40.832  27.761  29.390  1.00  0.00     0.049 A 
ATOM     41  N   UNL A   1      42.567  29.208  31.370  1.00  0.00    -0.248 NA
ATOM     42  C   UNL A   1      40.701  30.408  32.074  1.00  0.00     0.031 C 
ATOM     43  C   UNL A   1      40.085  27.083  28.327  1.00  0.00     0.029 A 
ATOM     44  N   UNL A   1      42.047  27.110  29.372  1.00  0.00    -0.354 N 
ATOM     45  C   UNL A   1      42.946  30.113  32.355  1.00  0.00     0.074 A 
ATOM     46  C   UNL A   1      41.776  30.903  32.667  1.00  0.00     0.031 C 
ATOM     47  C   UNL A   1      40.797  26.052  27.853  1.00  0.00     0.029 A 
ATOM     48  C   UNL A   1      42.117  26.073  28.461  1.00  0.00     0.049 A 
ATOM     49  H   UNL A   1      42.799  27.360  29.956  1.00  0.00     0.167 HD
ATOM     50  C   UNL A   1      44.144  30.247  32.973  1.00  0.00     0.034 A 
ATOM     51  C   UNL A   1      43.133  25.255  28.109  1.00  0.00     0.034 A 
ATOM     52  C   UNL A   1      45.284  29.413  32.693  1.00  0.00     0.049 A 
ATOM     53  C   UNL A   1      44.468  25.461  28.777  1.00  0.00     0.074 A 
ATOM     54  C   UNL A   1      46.533  29.438  33.287  1.00  0.00     0.029 A 
ATOM     55  N   UNL A   1      45.314  28.401  31.743  1.00  0.00    -0.354 N 
ATOM     56  N   UNL A   1      44.797  26.324  29.712  1.00  0.00    -0.248 NA
ATOM     57  C   UNL A   1      45.570  24.595  28.341  1.00  0.00     0.031 C 
ATOM     58  C   UNL A   1      47.342  28.503  32.638  1.00  0.00     0.029 A 
ATOM     59  C   UNL A   1      46.571  27.820  31.712  1.00  0.00     0.049 A 
ATOM     60  H   UNL A   1      44.554  28.133  31.177  1.00  0.00     0.167 HD
ATOM     61  C   UNL A   1      46.138  26.080  29.994  1.00  0.00     0.074 A 
ATOM     62  C   UNL A   1      46.545  24.975  29.151  1.00  0.00     0.031 C 
ATOM     63  C   UNL A   1      46.959  26.715  30.868  1.00  0.00     0.034 A 
BRANCH  50  64
ATOM     64  C   UNL A   1      44.283  31.352  33.993  1.00  0.00     0.023 A 
ATOM     65  C   UNL A   1      44.021  31.139  35.357  1.00  0.00     0.031 A 
ATOM     66  C   UNL A   1      44.651  32.648  33.590  1.00  0.00     0.131 A 
ATOM     67  C   UNL A   1      44.040  32.219  36.251  1.00  0.00     0.055 A 
ATOM     68  C   UNL A   1      44.768  33.699  34.502  1.00  0.00     0.041 A 
ATOM     69  F   UNL A   1      44.889  32.922  32.297  1.00  0.00    -0.206 F 
ATOM     70  C   UNL A   1      44.443  33.492  35.840  1.00  0.00     0.022 A 
BRANCH  67  71
ATOM     71  S   UNL A   1      43.358  31.974  37.912  1.00  0.00     0.124 S 
ATOM     72  O   UNL A   1      43.004  33.341  38.289  1.00  0.00    -0.237 OA
ATOM     73  O   UNL A   1      42.240  31.069  37.666  1.00  0.00    -0.237 OA
ATOM     74  O   UNL A   1      44.474  31.398  38.660  1.00  0.00    -0.744 OA
ENDBRANCH  67  71
ENDBRANCH  50  64
BRANCH  51  75
ATOM     75  C   UNL A   1      42.968  24.214  27.043  1.00  0.00     0.023 A 
ATOM     76  C   UNL A   1      42.289  23.010  27.301  1.00  0.00     0.031 A 
ATOM     77  C   UNL A   1      43.560  24.365  25.775  1.00  0.00     0.131 A 
ATOM     78  C   UNL A   1      42.278  21.987  26.336  1.00  0.00     0.055 A 
ATOM     79  C   UNL A   1      43.473  23.379  24.790  1.00  0.00     0.041 A 
ATOM     80  F   UNL A   1      44.237  25.483  25.469  1.00  0.00    -0.206 F 
ATOM     81  C   UNL A   1      42.846  22.172  25.075  1.00  0.00     0.022 A 
BRANCH  78  82
ATOM     82  S   UNL A   1      41.636  20.354  26.806  1.00  0.00     0.124 S 
ATOM     83  O   UNL A   1      40.598  20.712  27.766  1.00  0.00    -0.237 OA
ATOM     84  O   UNL A   1      41.174  19.829  25.527  1.00  0.00    -0.237 OA
ATOM     85  O   UNL A   1      42.804  19.680  27.372  1.00  0.00    -0.744 OA
ENDBRANCH  78  82
ENDBRANCH  51  75
BRANCH  63  86
ATOM     86  C   UNL A   1      48.365  26.186  30.999  1.00  0.00     0.023 A 
ATOM     87  C   UNL A   1      48.701  25.203  31.943  1.00  0.00     0.031 A 
ATOM     88  C   UNL A   1      49.382  26.679  30.162  1.00  0.00     0.131 A 
ATOM     89  C   UNL A   1      50.035  24.791  32.072  1.00  0.00     0.055 A 
ATOM     90  C   UNL A   1      50.690  26.201  30.236  1.00  0.00     0.041 A 
ATOM     91  F   UNL A   1      49.118  27.627  29.248  1.00  0.00    -0.206 F 
ATOM     92  C   UNL A   1      51.026  25.262  31.207  1.00  0.00     0.022 A 
BRANCH  89  93
ATOM     93  S   UNL A   1      50.478  23.723  33.468  1.00  0.00     0.124 S 
ATOM     94  O   UNL A   1      51.027  22.554  32.789  1.00  0.00    -0.237 OA
ATOM     95  O   UNL A   1      51.439  24.545  34.197  1.00  0.00    -0.237 OA
ATOM     96  O   UNL A   1      49.204  23.504  34.149  1.00  0.00    -0.744 OA
ENDBRANCH  89  93
ENDBRANCH  63  86
ENDBRANCH  37  38
ENDBRANCH  29  32
ENDBRANCH  27  28
ENDBRANCH  26  27
ENDBRANCH   1  26
TORSDOF 18
ENDMDL
MODEL 3
REMARK VINA RESULT:     -10.7      3.713      9.112
REMARK SMILES Cc1ccc([C@H]2CC(c3cccs3)=NN2C(=O)CCC(=O)NCCCNC(=O)c2ccc(-c3c4nc(c(-c5cc(S(=O)(=O)[O-])ccc5F)c5ccc([nH]5)c(-c5cc(S(=O)(=O)[O-])ccc5F)c5nc(c(-c6cc(S(=O)(=O)[O-])ccc6F)c6ccc3[nH]6)C=C5)C=C4)cc2)o1
REMARK SMILES IDX 23 1 22 2 20 3 21 4 19 6 18 7 16 8 17 9 15 10 6 11 7 12 8 13
REMARK SMILES IDX 14 14 5 15 1 16 2 17 3 18 92 19 4 20 9 21 10 22 13 23 11 24
REMARK SMILES IDX 12 25 24 26 25 27 26 28 27 29 28 31 29 32 30 33 91 34 31 35
REMARK SMILES IDX 90 36 32 37 33 38 34 39 84 40 35 41 89 42 83 43 85 44 36 45
REMARK SMILES IDX 88 46 82 47 81 48 37 50 69 51 49 52 68 53 50 54 53 55 67 56
REMARK SMILES IDX 86 57 51 58 52 59 66 61 87 62 54 63 38 64 39 65 47 66 40 67
REMARK SMILES IDX 46 68 48 69 45 70 41 71 42 72 43 73 44 74 70 75 71 76 79 77
REMARK SMILES IDX 72 78 78 79 80 80 77 81 73 82 74 83 75 84 76 85 55 86 56 87
REMARK SMILES IDX 64 88 57 89 63 90 65 91 62 92 58 93 59 94 60 95 61 96
REMARK H PARENT 22 5 26 30 85 49 53 60
REMARK Flexibility Score: inf
ROOT
ATOM      1  C   UNL A   1      42.180  24.513  26.723  1.00  0.00     0.117 C 
ENDROOT
BRANCH   1   2
ATOM      2  N   UNL A   1      41.064  25.421  26.528  1.00  0.00    -0.356 N 
ATOM      3  C   UNL A   1      39.843  25.351  27.144  1.00  0.00     0.220 C 
ATOM      4  O   UNL A   1      39.339  26.381  27.594  1.00  0.00    -0.275 OA
ATOM      5  H   UNL A   1      41.198  26.159  25.890  1.00  0.00     0.163 HD
BRANCH   3   6
ATOM      6  C   UNL A   1      39.106  24.032  27.226  1.00  0.00     0.110 C 
BRANCH   6   7
ATOM      7  C   UNL A   1      37.818  23.991  26.392  1.00  0.00     0.112 C 
BRANCH   7   8
ATOM      8  C   UNL A   1      37.526  22.618  25.839  1.00  0.00     0.243 C 
ATOM      9  O   UNL A   1      38.477  21.945  25.425  1.00  0.00    -0.273 OA
BRANCH   8  10
ATOM     10  N   UNL A   1      36.207  22.234  25.680  1.00  0.00    -0.222 N 
ATOM     11  C   UNL A   1      34.995  22.708  26.365  1.00  0.00     0.183 C 
ATOM     12  C   UNL A   1      33.983  21.577  26.147  1.00  0.00     0.095 C 
ATOM     13  C   UNL A   1      34.759  20.706  25.218  1.00  0.00     0.081 C 
ATOM     14  N   UNL A   1      35.997  21.028  25.071  1.00  0.00    -0.173 NA
BRANCH  11  15
ATOM     15  C   UNL A   1      34.472  24.007  25.862  1.00  0.00     0.129 A 
ATOM     16  C   UNL A   1      31.870  26.365  26.500  1.00  0.00     0.087 C 
ATOM     17  C   UNL A   1      33.017  25.654  25.908  1.00  0.00     0.101 A 
ATOM     18  C   UNL A   1      33.862  25.916  24.853  1.00  0.00     0.045 A 
ATOM     19  O   UNL A   1      33.369  24.486  26.510  1.00  0.00    -0.464 OA
ATOM     20  C   UNL A   1      34.794  24.850  24.815  1.00  0.00     0.048 A 
ENDBRANCH  11  15
BRANCH  13  21
ATOM     21  C   UNL A   1      34.180  19.580  24.540  1.00  0.00     0.050 A 
ATOM     22  C   UNL A   1      34.617  17.944  24.489  1.00  0.00     0.022 A 
ATOM     23  S   UNL A   1      32.415  20.116  23.164  1.00  0.00    -0.142 S 
ATOM     24  C   UNL A   1      33.651  16.835  23.333  1.00  0.00     0.012 A 
ATOM     25  C   UNL A   1      32.399  17.702  22.442  1.00  0.00     0.065 A 
ENDBRANCH  13  21
ENDBRANCH   8  10
ENDBRANCH   7   8
ENDBRANCH   6   7
ENDBRANCH   3   6
ENDBRANCH   1   2
BRANCH   1  26
ATOM     26  C   UNL A   1      43.025  24.092  25.525  1.00  0.00     0.042 C 
BRANCH  26  27
ATOM     27  C   UNL A   1      44.194  24.948  25.003  1.00  0.00     0.118 C 
BRANCH  27  28
ATOM     28  N   UNL A   1      45.561  24.468  25.183  1.00  0.00    -0.352 N 
ATOM     29  C   UNL A   1      46.340  24.348  26.335  1.00  0.00     0.251 C 
ATOM     30  H   UNL A   1      46.007  24.181  24.353  1.00  0.00     0.163 HD
ATOM     31  O   UNL A   1      47.532  24.077  26.190  1.00  0.00    -0.269 OA
BRANCH  29  32
ATOM     32  C   UNL A   1      45.743  24.694  27.764  1.00  0.00     0.039 A 
ATOM     33  C   UNL A   1      45.996  26.435  27.855  1.00  0.00     0.014 A 
ATOM     34  C   UNL A   1      44.751  23.828  29.348  1.00  0.00     0.014 A 
ATOM     35  C   UNL A   1      45.346  27.264  29.166  1.00  0.00     0.010 A 
ATOM     36  C   UNL A   1      44.152  24.889  30.622  1.00  0.00     0.010 A 
ATOM     37  C   UNL A   1      44.423  26.569  30.455  1.00  0.00    -0.014 A 
BRANCH  37  38
ATOM     38  C   UNL A   1      43.747  27.528  31.398  1.00  0.00     0.031 A 
ATOM     39  C   UNL A   1      44.394  27.885  32.711  1.00  0.00     0.074 A 
ATOM     40  C   UNL A   1      42.538  28.057  31.091  1.00  0.00     0.049 A 
ATOM     41  N   UNL A   1      43.906  28.568  33.716  1.00  0.00    -0.248 NA
ATOM     42  C   UNL A   1      45.748  27.368  32.949  1.00  0.00     0.031 C 
ATOM     43  C   UNL A   1      41.756  27.769  29.885  1.00  0.00     0.029 A 
ATOM     44  N   UNL A   1      41.746  28.969  31.756  1.00  0.00    -0.354 N 
ATOM     45  C   UNL A   1      44.870  28.512  34.716  1.00  0.00     0.074 A 
ATOM     46  C   UNL A   1      45.932  27.663  34.226  1.00  0.00     0.031 C 
ATOM     47  C   UNL A   1      40.679  28.564  29.836  1.00  0.00     0.029 A 
ATOM     48  C   UNL A   1      40.596  29.319  31.075  1.00  0.00     0.049 A 
ATOM     49  H   UNL A   1      41.980  29.340  32.638  1.00  0.00     0.167 HD
ATOM     50  C   UNL A   1      44.890  29.143  35.916  1.00  0.00     0.034 A 
ATOM     51  C   UNL A   1      39.561  30.116  31.415  1.00  0.00     0.034 A 
ATOM     52  C   UNL A   1      43.851  30.033  36.366  1.00  0.00     0.049 A 
ATOM     53  C   UNL A   1      39.586  30.764  32.776  1.00  0.00     0.074 A 
ATOM     54  C   UNL A   1      43.790  30.754  37.545  1.00  0.00     0.029 A 
ATOM     55  N   UNL A   1      42.696  30.331  35.655  1.00  0.00    -0.354 N 
ATOM     56  N   UNL A   1      40.515  30.698  33.702  1.00  0.00    -0.248 NA
ATOM     57  C   UNL A   1      38.425  31.584  33.143  1.00  0.00     0.031 C 
ATOM     58  C   UNL A   1      42.561  31.416  37.587  1.00  0.00     0.029 A 
ATOM     59  C   UNL A   1      41.900  31.195  36.389  1.00  0.00     0.049 A 
ATOM     60  H   UNL A   1      42.475  29.980  34.762  1.00  0.00     0.167 HD
ATOM     61  C   UNL A   1      40.060  31.495  34.749  1.00  0.00     0.074 A 
ATOM     62  C   UNL A   1      38.791  32.049  34.327  1.00  0.00     0.031 C 
ATOM     63  C   UNL A   1      40.638  31.743  35.951  1.00  0.00     0.034 A 
BRANCH  50  64
ATOM     64  C   UNL A   1      46.061  28.869  36.829  1.00  0.00     0.023 A 
ATOM     65  C   UNL A   1      46.033  27.837  37.782  1.00  0.00     0.031 A 
ATOM     66  C   UNL A   1      47.212  29.675  36.768  1.00  0.00     0.131 A 
ATOM     67  C   UNL A   1      47.088  27.696  38.693  1.00  0.00     0.055 A 
ATOM     68  C   UNL A   1      48.304  29.464  37.612  1.00  0.00     0.041 A 
ATOM     69  F   UNL A   1      47.289  30.694  35.897  1.00  0.00    -0.206 F 
ATOM     70  C   UNL A   1      48.239  28.481  38.594  1.00  0.00     0.022 A 
BRANCH  67  71
ATOM     71  S   UNL A   1      46.857  26.596  40.116  1.00  0.00     0.124 S 
ATOM     72  O   UNL A   1      48.239  26.310  40.493  1.00  0.00    -0.237 OA
ATOM     73  O   UNL A   1      46.102  27.432  41.043  1.00  0.00    -0.237 OA
ATOM     74  O   UNL A   1      46.123  25.462  39.557  1.00  0.00    -0.744 OA
ENDBRANCH  67  71
ENDBRANCH  50  64
BRANCH  51  75
ATOM     75  C   UNL A   1      38.386  30.308  30.503  1.00  0.00     0.023 A 
ATOM     76  C   UNL A   1      38.035  31.584  30.027  1.00  0.00     0.031 A 
ATOM     77  C   UNL A   1      37.542  29.235  30.162  1.00  0.00     0.131 A 
ATOM     78  C   UNL A   1      36.846  31.761  29.298  1.00  0.00     0.055 A 
ATOM     79  C   UNL A   1      36.406  29.404  29.367  1.00  0.00     0.041 A 
ATOM     80  F   UNL A   1      37.809  27.993  30.597  1.00  0.00    -0.206 F 
ATOM     81  C   UNL A   1      36.042  30.677  28.946  1.00  0.00     0.022 A 
BRANCH  78  82
ATOM     82  S   UNL A   1      36.288  33.453  28.942  1.00  0.00     0.124 S 
ATOM     83  O   UNL A   1      37.541  34.196  29.013  1.00  0.00    -0.237 OA
ATOM     84  O   UNL A   1      35.703  33.307  27.614  1.00  0.00    -0.237 OA
ATOM     85  O   UNL A   1      35.336  33.730  30.016  1.00  0.00    -0.744 OA
ENDBRANCH  78  82
ENDBRANCH  51  75
BRANCH  63  86
ATOM     86  C   UNL A   1      39.928  32.703  36.871  1.00  0.00     0.023 A 
ATOM     87  C   UNL A   1      39.034  32.259  37.858  1.00  0.00     0.031 A 
ATOM     88  C   UNL A   1      40.154  34.086  36.754  1.00  0.00     0.131 A 
ATOM     89  C   UNL A   1      38.347  33.194  38.645  1.00  0.00     0.055 A 
ATOM     90  C   UNL A   1      39.535  35.006  37.599  1.00  0.00     0.041 A 
ATOM     91  F   UNL A   1      40.992  34.567  35.821  1.00  0.00    -0.206 F 
ATOM     92  C   UNL A   1      38.612  34.562  38.542  1.00  0.00     0.022 A 
BRANCH  89  93
ATOM     93  S   UNL A   1      37.012  32.604  39.720  1.00  0.00     0.124 S 
ATOM     94  O   UNL A   1      37.069  33.560  40.821  1.00  0.00    -0.237 OA
ATOM     95  O   UNL A   1      35.844  32.703  38.850  1.00  0.00    -0.237 OA
ATOM     96  O   UNL A   1      37.421  31.243  40.057  1.00  0.00    -0.744 OA
ENDBRANCH  89  93
ENDBRANCH  63  86
ENDBRANCH  37  38
ENDBRANCH  29  32
ENDBRANCH  27  28
ENDBRANCH  26  27
ENDBRANCH   1  26
TORSDOF 18
ENDMDL
