MODEL 1
REMARK VINA RESULT:     -12.8      0.000      0.000
REMARK SMILES Cc1cc(Cl)cc2c1O[C@H](C(F)(F)F)C(C(=O)NCCCNC(=O)c1ccc(-c3c4nc(c(-c5cc(S(=O)(=O)[O-])ccc5F)c5ccc([nH]5)c(-c5cc(S(=O)(=O)[O-])ccc5F)c5nc(c(-c6cc(S(=O)(=O)[O-])ccc6F)c6ccc3[nH]6)C=C5)C=C4)cc1)=C2
REMARK SMILES IDX 21 1 20 2 19 3 18 4 16 5 17 6 15 8 1 9 2 10 3 11 8 12 4 13
REMARK SMILES IDX 7 14 9 15 5 16 6 17 88 18 10 19 11 20 12 21 13 22 14 23
REMARK SMILES IDX 22 24 23 25 24 27 25 28 26 29 87 30 27 31 86 32 28 33 29 34
REMARK SMILES IDX 30 35 80 36 31 37 85 38 79 39 81 40 32 41 84 42 78 43 77 44
REMARK SMILES IDX 33 46 65 47 45 48 64 49 46 50 49 51 63 52 82 53 47 54 48 55
REMARK SMILES IDX 62 57 83 58 50 59 34 60 35 61 43 62 36 63 42 64 44 65 41 66
REMARK SMILES IDX 37 67 38 68 39 69 40 70 66 71 67 72 75 73 68 74 74 75 76 76
REMARK SMILES IDX 73 77 69 78 70 79 71 80 72 81 51 82 52 83 60 84 53 85 59 86
REMARK SMILES IDX 61 87 58 88 54 89 55 90 56 91 57 92
REMARK H PARENT 18 7 22 26 81 45 49 56
REMARK Flexibility Score: inf
ROOT
ATOM      1  C   UNL A   1      33.130  28.791  25.263  1.00  0.00     0.118 C 
ENDROOT
BRANCH   1   2
ATOM      2  C   UNL A   1      33.322  28.681  23.756  1.00  0.00     0.042 C 
BRANCH   2   3
ATOM      3  C   UNL A   1      32.104  28.088  23.066  1.00  0.00     0.118 C 
BRANCH   3   4
ATOM      4  N   UNL A   1      32.474  27.177  21.993  1.00  0.00    -0.352 N 
ATOM      5  C   UNL A   1      32.929  25.907  21.881  1.00  0.00     0.251 C 
ATOM      6  O   UNL A   1      33.106  25.508  20.726  1.00  0.00    -0.270 OA
ATOM      7  H   UNL A   1      32.365  27.598  21.110  1.00  0.00     0.163 HD
BRANCH   5   8
ATOM      8  C   UNL A   1      33.210  24.996  23.028  1.00  0.00     0.067 C 
ATOM      9  C   UNL A   1      33.349  22.451  27.510  1.00  0.00     0.048 C 
ATOM     10  C   UNL A   1      34.197  22.508  26.271  1.00  0.00    -0.007 A 
ATOM     11  C   UNL A   1      35.303  21.657  26.159  1.00  0.00     0.027 A 
ATOM     12  C   UNL A   1      33.911  23.380  25.211  1.00  0.00     0.131 A 
ATOM     13  C   UNL A   1      36.101  21.685  25.015  1.00  0.00     0.042 A 
ATOM     14  C   UNL A   1      34.708  23.408  24.060  1.00  0.00     0.019 A 
ATOM     15  O   UNL A   1      32.857  24.234  25.371  1.00  0.00    -0.475 OA
ATOM     16  Cl  UNL A   1      37.460  20.634  24.899  1.00  0.00    -0.084 Cl
ATOM     17  C   UNL A   1      35.811  22.556  23.965  1.00  0.00     0.032 A 
ATOM     18  C   UNL A   1      34.387  24.345  22.989  1.00  0.00     0.025 C 
ATOM     19  C   UNL A   1      32.254  24.755  24.159  1.00  0.00     0.314 C 
BRANCH  19  20
ATOM     20  C   UNL A   1      31.069  23.856  23.758  1.00  0.00     0.429 C 
ATOM     21  F   UNL A   1      30.569  23.217  24.845  1.00  0.00    -0.167 F 
ATOM     22  F   UNL A   1      30.042  24.553  23.216  1.00  0.00    -0.167 F 
ATOM     23  F   UNL A   1      31.415  22.909  22.857  1.00  0.00    -0.167 F 
ENDBRANCH  19  20
ENDBRANCH   5   8
ENDBRANCH   3   4
ENDBRANCH   2   3
ENDBRANCH   1   2
BRANCH   1  24
ATOM     24  N   UNL A   1      32.638  30.113  25.647  1.00  0.00    -0.352 N 
ATOM     25  C   UNL A   1      32.990  30.912  26.705  1.00  0.00     0.251 C 
ATOM     26  H   UNL A   1      31.948  30.488  25.055  1.00  0.00     0.163 HD
ATOM     27  O   UNL A   1      32.250  31.840  27.032  1.00  0.00    -0.269 OA
BRANCH  25  28
ATOM     28  C   UNL A   1      34.242  30.655  27.442  1.00  0.00     0.039 A 
ATOM     29  C   UNL A   1      35.162  31.691  27.622  1.00  0.00     0.014 A 
ATOM     30  C   UNL A   1      34.518  29.377  27.934  1.00  0.00     0.014 A 
ATOM     31  C   UNL A   1      36.327  31.455  28.352  1.00  0.00     0.010 A 
ATOM     32  C   UNL A   1      35.624  29.171  28.745  1.00  0.00     0.010 A 
ATOM     33  C   UNL A   1      36.550  30.203  28.947  1.00  0.00    -0.014 A 
BRANCH  33  34
ATOM     34  C   UNL A   1      37.767  29.931  29.748  1.00  0.00     0.031 A 
ATOM     35  C   UNL A   1      38.858  29.071  29.171  1.00  0.00     0.074 A 
ATOM     36  C   UNL A   1      37.866  30.417  31.000  1.00  0.00     0.049 A 
ATOM     37  N   UNL A   1      39.959  28.648  29.733  1.00  0.00    -0.248 NA
ATOM     38  C   UNL A   1      38.671  28.597  27.788  1.00  0.00     0.031 C 
ATOM     39  C   UNL A   1      36.855  31.240  31.670  1.00  0.00     0.029 A 
ATOM     40  N   UNL A   1      38.865  30.297  31.933  1.00  0.00    -0.354 N 
ATOM     41  C   UNL A   1      40.591  27.859  28.778  1.00  0.00     0.074 A 
ATOM     42  C   UNL A   1      39.716  27.801  27.629  1.00  0.00     0.031 C 
ATOM     43  C   UNL A   1      37.309  31.589  32.885  1.00  0.00     0.029 A 
ATOM     44  C   UNL A   1      38.615  30.977  33.102  1.00  0.00     0.049 A 
ATOM     45  H   UNL A   1      39.684  29.773  31.779  1.00  0.00     0.167 HD
ATOM     46  C   UNL A   1      41.807  27.267  28.841  1.00  0.00     0.034 A 
ATOM     47  C   UNL A   1      39.357  31.090  34.221  1.00  0.00     0.034 A 
ATOM     48  C   UNL A   1      42.681  27.360  29.981  1.00  0.00     0.049 A 
ATOM     49  C   UNL A   1      40.687  30.387  34.283  1.00  0.00     0.074 A 
ATOM     50  C   UNL A   1      43.949  26.833  30.136  1.00  0.00     0.029 A 
ATOM     51  N   UNL A   1      42.377  28.028  31.159  1.00  0.00    -0.354 N 
ATOM     52  N   UNL A   1      41.273  29.653  33.367  1.00  0.00    -0.248 NA
ATOM     53  C   UNL A   1      41.453  30.525  35.528  1.00  0.00     0.031 C 
ATOM     54  C   UNL A   1      44.390  27.133  31.428  1.00  0.00     0.029 A 
ATOM     55  C   UNL A   1      43.424  27.903  32.056  1.00  0.00     0.049 A 
ATOM     56  H   UNL A   1      41.540  28.518  31.331  1.00  0.00     0.167 HD
ATOM     57  C   UNL A   1      42.487  29.257  33.917  1.00  0.00     0.074 A 
ATOM     58  C   UNL A   1      42.553  29.841  35.242  1.00  0.00     0.031 C 
ATOM     59  C   UNL A   1      43.461  28.482  33.377  1.00  0.00     0.034 A 
BRANCH  46  60
ATOM     60  C   UNL A   1      42.260  26.473  27.644  1.00  0.00     0.023 A 
ATOM     61  C   UNL A   1      41.923  25.117  27.497  1.00  0.00     0.031 A 
ATOM     62  C   UNL A   1      43.028  27.079  26.634  1.00  0.00     0.131 A 
ATOM     63  C   UNL A   1      42.393  24.397  26.389  1.00  0.00     0.055 A 
ATOM     64  C   UNL A   1      43.435  26.374  25.501  1.00  0.00     0.041 A 
ATOM     65  F   UNL A   1      43.395  28.366  26.735  1.00  0.00    -0.206 F 
ATOM     66  C   UNL A   1      43.125  25.022  25.377  1.00  0.00     0.022 A 
BRANCH  63  67
ATOM     67  S   UNL A   1      42.107  22.608  26.333  1.00  0.00     0.124 S 
ATOM     68  O   UNL A   1      40.648  22.544  26.332  1.00  0.00    -0.237 OA
ATOM     69  O   UNL A   1      42.764  22.220  25.090  1.00  0.00    -0.237 OA
ATOM     70  O   UNL A   1      42.746  22.121  27.554  1.00  0.00    -0.744 OA
ENDBRANCH  63  67
ENDBRANCH  46  60
BRANCH  47  71
ATOM     71  C   UNL A   1      38.862  31.904  35.365  1.00  0.00     0.023 A 
ATOM     72  C   UNL A   1      38.257  31.291  36.473  1.00  0.00     0.031 A 
ATOM     73  C   UNL A   1      38.992  33.304  35.371  1.00  0.00     0.131 A 
ATOM     74  C   UNL A   1      37.784  32.078  37.535  1.00  0.00     0.055 A 
ATOM     75  C   UNL A   1      38.554  34.079  36.447  1.00  0.00     0.041 A 
ATOM     76  F   UNL A   1      39.572  33.937  34.339  1.00  0.00    -0.206 F 
ATOM     77  C   UNL A   1      37.940  33.466  37.535  1.00  0.00     0.022 A 
BRANCH  74  78
ATOM     78  S   UNL A   1      36.931  31.261  38.911  1.00  0.00     0.124 S 
ATOM     79  O   UNL A   1      36.770  29.906  38.398  1.00  0.00    -0.237 OA
ATOM     80  O   UNL A   1      37.885  31.426  40.003  1.00  0.00    -0.237 OA
ATOM     81  O   UNL A   1      35.695  32.029  39.048  1.00  0.00    -0.744 OA
ENDBRANCH  74  78
ENDBRANCH  47  71
BRANCH  59  82
ATOM     82  C   UNL A   1      44.688  28.231  34.210  1.00  0.00     0.023 A 
ATOM     83  C   UNL A   1      44.776  27.118  35.061  1.00  0.00     0.031 A 
ATOM     84  C   UNL A   1      45.804  29.081  34.103  1.00  0.00     0.131 A 
ATOM     85  C   UNL A   1      45.949  26.895  35.794  1.00  0.00     0.055 A 
ATOM     86  C   UNL A   1      46.985  28.828  34.797  1.00  0.00     0.041 A 
ATOM     87  F   UNL A   1      45.768  30.154  33.297  1.00  0.00    -0.206 F 
ATOM     88  C   UNL A   1      47.061  27.732  35.653  1.00  0.00     0.022 A 
BRANCH  85  89
ATOM     89  S   UNL A   1      45.995  25.511  36.963  1.00  0.00     0.124 S 
ATOM     90  O   UNL A   1      46.427  26.168  38.193  1.00  0.00    -0.237 OA
ATOM     91  O   UNL A   1      44.616  25.035  36.945  1.00  0.00    -0.237 OA
ATOM     92  O   UNL A   1      46.972  24.596  36.373  1.00  0.00    -0.744 OA
ENDBRANCH  85  89
ENDBRANCH  59  82
ENDBRANCH  33  34
ENDBRANCH  25  28
ENDBRANCH   1  24
TORSDOF 14
ENDMDL
MODEL 2
REMARK VINA RESULT:     -12.8      5.168     10.022
REMARK SMILES Cc1cc(Cl)cc2c1O[C@H](C(F)(F)F)C(C(=O)NCCCNC(=O)c1ccc(-c3c4nc(c(-c5cc(S(=O)(=O)[O-])ccc5F)c5ccc([nH]5)c(-c5cc(S(=O)(=O)[O-])ccc5F)c5nc(c(-c6cc(S(=O)(=O)[O-])ccc6F)c6ccc3[nH]6)C=C5)C=C4)cc1)=C2
REMARK SMILES IDX 21 1 20 2 19 3 18 4 16 5 17 6 15 8 1 9 2 10 3 11 8 12 4 13
REMARK SMILES IDX 7 14 9 15 5 16 6 17 88 18 10 19 11 20 12 21 13 22 14 23
REMARK SMILES IDX 22 24 23 25 24 27 25 28 26 29 87 30 27 31 86 32 28 33 29 34
REMARK SMILES IDX 30 35 80 36 31 37 85 38 79 39 81 40 32 41 84 42 78 43 77 44
REMARK SMILES IDX 33 46 65 47 45 48 64 49 46 50 49 51 63 52 82 53 47 54 48 55
REMARK SMILES IDX 62 57 83 58 50 59 34 60 35 61 43 62 36 63 42 64 44 65 41 66
REMARK SMILES IDX 37 67 38 68 39 69 40 70 66 71 67 72 75 73 68 74 74 75 76 76
REMARK SMILES IDX 73 77 69 78 70 79 71 80 72 81 51 82 52 83 60 84 53 85 59 86
REMARK SMILES IDX 61 87 58 88 54 89 55 90 56 91 57 92
REMARK H PARENT 18 7 22 26 81 45 49 56
REMARK Flexibility Score: inf
ROOT
ATOM      1  C   UNL A   1      35.696  22.495  25.973  1.00  0.00     0.118 C 
ENDROOT
BRANCH   1   2
ATOM      2  C   UNL A   1      34.533  22.143  26.892  1.00  0.00     0.042 C 
BRANCH   2   3
ATOM      3  C   UNL A   1      33.307  21.690  26.116  1.00  0.00     0.118 C 
BRANCH   3   4
ATOM      4  N   UNL A   1      32.074  22.212  26.687  1.00  0.00    -0.352 N 
ATOM      5  C   UNL A   1      31.386  23.377  26.665  1.00  0.00     0.251 C 
ATOM      6  O   UNL A   1      30.332  23.380  27.309  1.00  0.00    -0.270 OA
ATOM      7  H   UNL A   1      31.620  21.536  27.239  1.00  0.00     0.163 HD
BRANCH   5   8
ATOM      8  C   UNL A   1      31.805  24.605  25.931  1.00  0.00     0.067 C 
ATOM      9  C   UNL A   1      33.715  28.095  22.652  1.00  0.00     0.048 C 
ATOM     10  C   UNL A   1      33.109  28.119  24.026  1.00  0.00    -0.007 A 
ATOM     11  C   UNL A   1      32.902  29.350  24.662  1.00  0.00     0.027 A 
ATOM     12  C   UNL A   1      32.729  26.948  24.694  1.00  0.00     0.131 A 
ATOM     13  C   UNL A   1      32.333  29.399  25.934  1.00  0.00     0.042 A 
ATOM     14  C   UNL A   1      32.155  26.994  25.970  1.00  0.00     0.019 A 
ATOM     15  O   UNL A   1      32.990  25.760  24.072  1.00  0.00    -0.475 OA
ATOM     16  Cl  UNL A   1      32.092  30.922  26.700  1.00  0.00    -0.084 Cl
ATOM     17  C   UNL A   1      31.959  28.229  26.593  1.00  0.00     0.032 A 
ATOM     18  C   UNL A   1      31.793  25.749  26.639  1.00  0.00     0.025 C 
ATOM     19  C   UNL A   1      32.189  24.622  24.481  1.00  0.00     0.314 C 
BRANCH  19  20
ATOM     20  C   UNL A   1      30.975  24.497  23.540  1.00  0.00     0.429 C 
ATOM     21  F   UNL A   1      31.250  25.050  22.333  1.00  0.00    -0.167 F 
ATOM     22  F   UNL A   1      30.626  23.210  23.303  1.00  0.00    -0.167 F 
ATOM     23  F   UNL A   1      29.874  25.114  24.025  1.00  0.00    -0.167 F 
ENDBRANCH  19  20
ENDBRANCH   5   8
ENDBRANCH   3   4
ENDBRANCH   2   3
ENDBRANCH   1   2
BRANCH   1  24
ATOM     24  N   UNL A   1      36.627  21.379  25.833  1.00  0.00    -0.352 N 
ATOM     25  C   UNL A   1      37.998  21.376  25.768  1.00  0.00     0.251 C 
ATOM     26  H   UNL A   1      36.208  20.491  25.777  1.00  0.00     0.163 HD
ATOM     27  O   UNL A   1      38.579  20.379  25.340  1.00  0.00    -0.269 OA
BRANCH  25  28
ATOM     28  C   UNL A   1      38.762  22.561  26.204  1.00  0.00     0.039 A 
ATOM     29  C   UNL A   1      39.919  22.393  26.968  1.00  0.00     0.014 A 
ATOM     30  C   UNL A   1      38.316  23.843  25.877  1.00  0.00     0.014 A 
ATOM     31  C   UNL A   1      40.660  23.513  27.347  1.00  0.00     0.010 A 
ATOM     32  C   UNL A   1      39.106  24.946  26.164  1.00  0.00     0.010 A 
ATOM     33  C   UNL A   1      40.278  24.794  26.918  1.00  0.00    -0.014 A 
BRANCH  33  34
ATOM     34  C   UNL A   1      41.059  26.000  27.285  1.00  0.00     0.031 A 
ATOM     35  C   UNL A   1      40.434  27.050  28.162  1.00  0.00     0.074 A 
ATOM     36  C   UNL A   1      42.302  26.165  26.794  1.00  0.00     0.049 A 
ATOM     37  N   UNL A   1      40.913  28.208  28.531  1.00  0.00    -0.248 NA
ATOM     38  C   UNL A   1      39.077  26.775  28.667  1.00  0.00     0.031 C 
ATOM     39  C   UNL A   1      42.996  25.222  25.912  1.00  0.00     0.029 A 
ATOM     40  N   UNL A   1      43.207  27.180  26.969  1.00  0.00    -0.354 N 
ATOM     41  C   UNL A   1      39.920  28.799  29.303  1.00  0.00     0.074 A 
ATOM     42  C   UNL A   1      38.783  27.906  29.288  1.00  0.00     0.031 C 
ATOM     43  C   UNL A   1      44.233  25.682  25.665  1.00  0.00     0.029 A 
ATOM     44  C   UNL A   1      44.405  26.971  26.325  1.00  0.00     0.049 A 
ATOM     45  H   UNL A   1      43.017  27.984  27.505  1.00  0.00     0.167 HD
ATOM     46  C   UNL A   1      39.965  29.964  29.991  1.00  0.00     0.034 A 
ATOM     47  C   UNL A   1      45.513  27.735  26.275  1.00  0.00     0.034 A 
ATOM     48  C   UNL A   1      41.116  30.828  30.021  1.00  0.00     0.049 A 
ATOM     49  C   UNL A   1      45.524  29.047  27.014  1.00  0.00     0.074 A 
ATOM     50  C   UNL A   1      41.284  32.011  30.717  1.00  0.00     0.029 A 
ATOM     51  N   UNL A   1      42.296  30.599  29.329  1.00  0.00    -0.354 N 
ATOM     52  N   UNL A   1      44.578  29.586  27.747  1.00  0.00    -0.248 NA
ATOM     53  C   UNL A   1      46.747  29.854  26.916  1.00  0.00     0.031 C 
ATOM     54  C   UNL A   1      42.544  32.527  30.399  1.00  0.00     0.029 A 
ATOM     55  C   UNL A   1      43.187  31.633  29.558  1.00  0.00     0.049 A 
ATOM     56  H   UNL A   1      42.474  29.817  28.757  1.00  0.00     0.167 HD
ATOM     57  C   UNL A   1      45.099  30.787  28.216  1.00  0.00     0.074 A 
ATOM     58  C   UNL A   1      46.446  30.890  27.689  1.00  0.00     0.031 C 
ATOM     59  C   UNL A   1      44.519  31.721  29.011  1.00  0.00     0.034 A 
BRANCH  46  60
ATOM     60  C   UNL A   1      38.738  30.365  30.767  1.00  0.00     0.023 A 
ATOM     61  C   UNL A   1      37.679  31.055  30.154  1.00  0.00     0.031 A 
ATOM     62  C   UNL A   1      38.619  30.045  32.131  1.00  0.00     0.131 A 
ATOM     63  C   UNL A   1      36.567  31.447  30.913  1.00  0.00     0.055 A 
ATOM     64  C   UNL A   1      37.481  30.378  32.865  1.00  0.00     0.041 A 
ATOM     65  F   UNL A   1      39.610  29.405  32.771  1.00  0.00    -0.206 F 
ATOM     66  C   UNL A   1      36.449  31.091  32.259  1.00  0.00     0.022 A 
BRANCH  63  67
ATOM     67  S   UNL A   1      35.317  32.505  30.138  1.00  0.00     0.124 S 
ATOM     68  O   UNL A   1      34.917  31.695  28.991  1.00  0.00    -0.237 OA
ATOM     69  O   UNL A   1      34.323  32.649  31.196  1.00  0.00    -0.237 OA
ATOM     70  O   UNL A   1      36.055  33.722  29.809  1.00  0.00    -0.744 OA
ENDBRANCH  63  67
ENDBRANCH  46  60
BRANCH  47  71
ATOM     71  C   UNL A   1      46.702  27.276  25.504  1.00  0.00     0.023 A 
ATOM     72  C   UNL A   1      46.919  27.718  24.190  1.00  0.00     0.031 A 
ATOM     73  C   UNL A   1      47.640  26.396  26.071  1.00  0.00     0.131 A 
ATOM     74  C   UNL A   1      48.038  27.261  23.476  1.00  0.00     0.055 A 
ATOM     75  C   UNL A   1      48.772  25.975  25.370  1.00  0.00     0.041 A 
ATOM     76  F   UNL A   1      47.482  25.953  27.328  1.00  0.00    -0.206 F 
ATOM     77  C   UNL A   1      48.972  26.403  24.062  1.00  0.00     0.022 A 
BRANCH  74  78
ATOM     78  S   UNL A   1      48.243  27.784  21.752  1.00  0.00     0.124 S 
ATOM     79  O   UNL A   1      46.953  28.405  21.475  1.00  0.00    -0.237 OA
ATOM     80  O   UNL A   1      49.386  28.687  21.840  1.00  0.00    -0.237 OA
ATOM     81  O   UNL A   1      48.497  26.531  21.044  1.00  0.00    -0.744 OA
ENDBRANCH  74  78
ENDBRANCH  47  71
BRANCH  59  82
ATOM     82  C   UNL A   1      45.339  32.929  29.373  1.00  0.00     0.023 A 
ATOM     83  C   UNL A   1      45.283  34.104  28.609  1.00  0.00     0.031 A 
ATOM     84  C   UNL A   1      46.138  32.921  30.531  1.00  0.00     0.131 A 
ATOM     85  C   UNL A   1      46.033  35.223  28.997  1.00  0.00     0.055 A 
ATOM     86  C   UNL A   1      46.844  34.052  30.939  1.00  0.00     0.041 A 
ATOM     87  F   UNL A   1      46.220  31.822  31.296  1.00  0.00    -0.206 F 
ATOM     88  C   UNL A   1      46.798  35.210  30.168  1.00  0.00     0.022 A 
BRANCH  85  89
ATOM     89  S   UNL A   1      46.021  36.690  27.934  1.00  0.00     0.124 S 
ATOM     90  O   UNL A   1      46.644  37.692  28.794  1.00  0.00    -0.237 OA
ATOM     91  O   UNL A   1      46.810  36.256  26.786  1.00  0.00    -0.237 OA
ATOM     92  O   UNL A   1      44.600  36.905  27.660  1.00  0.00    -0.744 OA
ENDBRANCH  85  89
ENDBRANCH  59  82
ENDBRANCH  33  34
ENDBRANCH  25  28
ENDBRANCH   1  24
TORSDOF 14
ENDMDL
MODEL 3
REMARK VINA RESULT:     -12.6      2.895      3.853
REMARK SMILES Cc1cc(Cl)cc2c1O[C@H](C(F)(F)F)C(C(=O)NCCCNC(=O)c1ccc(-c3c4nc(c(-c5cc(S(=O)(=O)[O-])ccc5F)c5ccc([nH]5)c(-c5cc(S(=O)(=O)[O-])ccc5F)c5nc(c(-c6cc(S(=O)(=O)[O-])ccc6F)c6ccc3[nH]6)C=C5)C=C4)cc1)=C2
REMARK SMILES IDX 21 1 20 2 19 3 18 4 16 5 17 6 15 8 1 9 2 10 3 11 8 12 4 13
REMARK SMILES IDX 7 14 9 15 5 16 6 17 88 18 10 19 11 20 12 21 13 22 14 23
REMARK SMILES IDX 22 24 23 25 24 27 25 28 26 29 87 30 27 31 86 32 28 33 29 34
REMARK SMILES IDX 30 35 80 36 31 37 85 38 79 39 81 40 32 41 84 42 78 43 77 44
REMARK SMILES IDX 33 46 65 47 45 48 64 49 46 50 49 51 63 52 82 53 47 54 48 55
REMARK SMILES IDX 62 57 83 58 50 59 34 60 35 61 43 62 36 63 42 64 44 65 41 66
REMARK SMILES IDX 37 67 38 68 39 69 40 70 66 71 67 72 75 73 68 74 74 75 76 76
REMARK SMILES IDX 73 77 69 78 70 79 71 80 72 81 51 82 52 83 60 84 53 85 59 86
REMARK SMILES IDX 61 87 58 88 54 89 55 90 56 91 57 92
REMARK H PARENT 18 7 22 26 81 45 49 56
REMARK Flexibility Score: inf
ROOT
ATOM      1  C   UNL A   1      32.644  32.781  27.273  1.00  0.00     0.118 C 
ENDROOT
BRANCH   1   2
ATOM      2  C   UNL A   1      31.404  32.284  26.542  1.00  0.00     0.042 C 
BRANCH   2   3
ATOM      3  C   UNL A   1      31.401  30.771  26.386  1.00  0.00     0.118 C 
BRANCH   3   4
ATOM      4  N   UNL A   1      31.267  30.366  24.995  1.00  0.00    -0.352 N 
ATOM      5  C   UNL A   1      31.425  29.233  24.271  1.00  0.00     0.251 C 
ATOM      6  O   UNL A   1      31.182  29.337  23.065  1.00  0.00    -0.270 OA
ATOM      7  H   UNL A   1      30.988  31.119  24.426  1.00  0.00     0.163 HD
BRANCH   5   8
ATOM      8  C   UNL A   1      31.849  27.916  24.827  1.00  0.00     0.067 C 
ATOM      9  C   UNL A   1      34.347  23.659  26.319  1.00  0.00     0.048 C 
ATOM     10  C   UNL A   1      32.914  24.107  26.255  1.00  0.00    -0.007 A 
ATOM     11  C   UNL A   1      31.911  23.266  26.753  1.00  0.00     0.027 A 
ATOM     12  C   UNL A   1      32.544  25.349  25.722  1.00  0.00     0.131 A 
ATOM     13  C   UNL A   1      30.574  23.663  26.713  1.00  0.00     0.042 A 
ATOM     14  C   UNL A   1      31.204  25.752  25.683  1.00  0.00     0.019 A 
ATOM     15  O   UNL A   1      33.538  26.126  25.197  1.00  0.00    -0.475 OA
ATOM     16  Cl  UNL A   1      29.356  22.613  27.325  1.00  0.00    -0.084 Cl
ATOM     17  C   UNL A   1      30.214  24.901  26.180  1.00  0.00     0.032 A 
ATOM     18  C   UNL A   1      30.861  27.045  25.102  1.00  0.00     0.025 C 
ATOM     19  C   UNL A   1      33.275  27.550  25.114  1.00  0.00     0.314 C 
BRANCH  19  20
ATOM     20  C   UNL A   1      33.825  28.238  26.378  1.00  0.00     0.429 C 
ATOM     21  F   UNL A   1      34.119  29.537  26.122  1.00  0.00    -0.167 F 
ATOM     22  F   UNL A   1      32.939  28.240  27.402  1.00  0.00    -0.167 F 
ATOM     23  F   UNL A   1      34.953  27.653  26.842  1.00  0.00    -0.167 F 
ENDBRANCH  19  20
ENDBRANCH   5   8
ENDBRANCH   3   4
ENDBRANCH   2   3
ENDBRANCH   1   2
BRANCH   1  24
ATOM     24  N   UNL A   1      32.533  34.196  27.620  1.00  0.00    -0.352 N 
ATOM     25  C   UNL A   1      33.086  34.896  28.662  1.00  0.00     0.251 C 
ATOM     26  H   UNL A   1      31.973  34.731  27.012  1.00  0.00     0.163 HD
ATOM     27  O   UNL A   1      32.628  35.999  28.959  1.00  0.00    -0.269 OA
BRANCH  25  28
ATOM     28  C   UNL A   1      34.217  34.326  29.418  1.00  0.00     0.039 A 
ATOM     29  C   UNL A   1      33.969  33.567  30.564  1.00  0.00     0.014 A 
ATOM     30  C   UNL A   1      35.530  34.566  29.005  1.00  0.00     0.014 A 
ATOM     31  C   UNL A   1      35.038  32.997  31.255  1.00  0.00     0.010 A 
ATOM     32  C   UNL A   1      36.583  33.915  29.632  1.00  0.00     0.010 A 
ATOM     33  C   UNL A   1      36.350  33.138  30.775  1.00  0.00    -0.014 A 
BRANCH  33  34
ATOM     34  C   UNL A   1      37.503  32.524  31.474  1.00  0.00     0.031 A 
ATOM     35  C   UNL A   1      38.232  31.374  30.835  1.00  0.00     0.074 A 
ATOM     36  C   UNL A   1      37.860  32.971  32.693  1.00  0.00     0.049 A 
ATOM     37  N   UNL A   1      39.207  30.647  31.313  1.00  0.00    -0.248 NA
ATOM     38  C   UNL A   1      37.782  30.964  29.493  1.00  0.00     0.031 C 
ATOM     39  C   UNL A   1      37.206  34.063  33.419  1.00  0.00     0.029 A 
ATOM     40  N   UNL A   1      38.863  32.568  33.538  1.00  0.00    -0.354 N 
ATOM     41  C   UNL A   1      39.484  29.698  30.335  1.00  0.00     0.074 A 
ATOM     42  C   UNL A   1      38.525  29.892  29.272  1.00  0.00     0.031 C 
ATOM     43  C   UNL A   1      37.856  34.273  34.576  1.00  0.00     0.029 A 
ATOM     44  C   UNL A   1      38.938  33.302  34.699  1.00  0.00     0.049 A 
ATOM     45  H   UNL A   1      39.472  31.822  33.332  1.00  0.00     0.167 HD
ATOM     46  C   UNL A   1      40.472  28.771  30.313  1.00  0.00     0.034 A 
ATOM     47  C   UNL A   1      39.783  33.200  35.743  1.00  0.00     0.034 A 
ATOM     48  C   UNL A   1      41.439  28.612  31.367  1.00  0.00     0.049 A 
ATOM     49  C   UNL A   1      40.847  32.134  35.713  1.00  0.00     0.074 A 
ATOM     50  C   UNL A   1      42.504  27.733  31.429  1.00  0.00     0.029 A 
ATOM     51  N   UNL A   1      41.459  29.350  32.541  1.00  0.00    -0.354 N 
ATOM     52  N   UNL A   1      41.100  31.250  34.776  1.00  0.00    -0.248 NA
ATOM     53  C   UNL A   1      41.734  32.049  36.880  1.00  0.00     0.031 C 
ATOM     54  C   UNL A   1      43.134  27.900  32.665  1.00  0.00     0.029 A 
ATOM     55  C   UNL A   1      42.503  28.928  33.347  1.00  0.00     0.049 A 
ATOM     56  H   UNL A   1      40.825  30.069  32.769  1.00  0.00     0.167 HD
ATOM     57  C   UNL A   1      42.190  30.516  35.232  1.00  0.00     0.074 A 
ATOM     58  C   UNL A   1      42.551  31.066  36.523  1.00  0.00     0.031 C 
ATOM     59  C   UNL A   1      42.835  29.482  34.637  1.00  0.00     0.034 A 
BRANCH  46  60
ATOM     60  C   UNL A   1      40.554  27.868  29.111  1.00  0.00     0.023 A 
ATOM     61  C   UNL A   1      41.464  28.119  28.070  1.00  0.00     0.031 A 
ATOM     62  C   UNL A   1      39.724  26.739  29.008  1.00  0.00     0.131 A 
ATOM     63  C   UNL A   1      41.489  27.279  26.947  1.00  0.00     0.055 A 
ATOM     64  C   UNL A   1      39.800  25.869  27.920  1.00  0.00     0.041 A 
ATOM     65  F   UNL A   1      38.822  26.464  29.965  1.00  0.00    -0.206 F 
ATOM     66  C   UNL A   1      40.681  26.141  26.876  1.00  0.00     0.022 A 
BRANCH  63  67
ATOM     67  S   UNL A   1      42.531  27.745  25.540  1.00  0.00     0.124 S 
ATOM     68  O   UNL A   1      43.819  27.970  26.190  1.00  0.00    -0.237 OA
ATOM     69  O   UNL A   1      42.446  26.570  24.679  1.00  0.00    -0.237 OA
ATOM     70  O   UNL A   1      41.884  28.947  25.018  1.00  0.00    -0.744 OA
ENDBRANCH  63  67
ENDBRANCH  46  60
BRANCH  47  71
ATOM     71  C   UNL A   1      39.662  34.135  36.895  1.00  0.00     0.023 A 
ATOM     72  C   UNL A   1      39.110  33.706  38.112  1.00  0.00     0.031 A 
ATOM     73  C   UNL A   1      40.101  35.467  36.800  1.00  0.00     0.131 A 
ATOM     74  C   UNL A   1      38.991  34.607  39.182  1.00  0.00     0.055 A 
ATOM     75  C   UNL A   1      40.017  36.349  37.879  1.00  0.00     0.041 A 
ATOM     76  F   UNL A   1      40.646  35.922  35.661  1.00  0.00    -0.206 F 
ATOM     77  C   UNL A   1      39.453  35.922  39.077  1.00  0.00     0.022 A 
BRANCH  74  78
ATOM     78  S   UNL A   1      38.195  34.044  40.710  1.00  0.00     0.124 S 
ATOM     79  O   UNL A   1      37.959  35.305  41.403  1.00  0.00    -0.237 OA
ATOM     80  O   UNL A   1      37.011  33.357  40.203  1.00  0.00    -0.237 OA
ATOM     81  O   UNL A   1      39.202  33.176  41.318  1.00  0.00    -0.744 OA
ENDBRANCH  74  78
ENDBRANCH  47  71
BRANCH  59  82
ATOM     82  C   UNL A   1      44.007  28.885  35.367  1.00  0.00     0.023 A 
ATOM     83  C   UNL A   1      43.835  27.853  36.302  1.00  0.00     0.031 A 
ATOM     84  C   UNL A   1      45.316  29.313  35.077  1.00  0.00     0.131 A 
ATOM     85  C   UNL A   1      44.953  27.295  36.936  1.00  0.00     0.055 A 
ATOM     86  C   UNL A   1      46.427  28.722  35.674  1.00  0.00     0.041 A 
ATOM     87  F   UNL A   1      45.531  30.293  34.185  1.00  0.00    -0.206 F 
ATOM     88  C   UNL A   1      46.249  27.709  36.614  1.00  0.00     0.022 A 
BRANCH  85  89
ATOM     89  S   UNL A   1      44.692  26.038  38.214  1.00  0.00     0.124 S 
ATOM     90  O   UNL A   1      43.409  26.445  38.781  1.00  0.00    -0.237 OA
ATOM     91  O   UNL A   1      44.683  24.799  37.443  1.00  0.00    -0.237 OA
ATOM     92  O   UNL A   1      45.842  26.205  39.102  1.00  0.00    -0.744 OA
ENDBRANCH  85  89
ENDBRANCH  59  82
ENDBRANCH  33  34
ENDBRANCH  25  28
ENDBRANCH   1  24
TORSDOF 14
ENDMDL
