MODEL 1
REMARK VINA RESULT:     -10.6      0.000      0.000
REMARK SMILES CCCCCC[C@@H](C(=O)NCCCNC(=O)c1ccc(-c2c3nc(c(-c4cc(S(=O)(=O)[O-])ccc4F)c4ccc([nH]4)c(-c4cc(S(=O)(=O)[O-])ccc4F)c4nc(c(-c5cc(S(=O)(=O)[O-])ccc5F)c5ccc2[nH]5)C=C4)C=C3)cc1)c1ccccc1C
REMARK SMILES IDX 11 1 10 2 8 3 9 4 7 6 6 7 5 8 4 9 3 10 2 11 1 12 80 13 81 14
REMARK SMILES IDX 85 15 82 16 84 17 86 18 83 19 12 20 13 21 14 22 15 23 16 25
REMARK SMILES IDX 17 26 18 27 79 28 19 29 78 30 20 31 21 32 22 33 72 34 23 35
REMARK SMILES IDX 77 36 71 37 73 38 24 39 76 40 70 41 69 42 25 44 57 45 37 46
REMARK SMILES IDX 56 47 38 48 41 49 55 50 74 51 39 52 40 53 54 55 75 56 42 57
REMARK SMILES IDX 26 58 27 59 35 60 28 61 34 62 36 63 33 64 29 65 30 66 31 67
REMARK SMILES IDX 32 68 58 69 59 70 67 71 60 72 66 73 68 74 65 75 61 76 62 77
REMARK SMILES IDX 63 78 64 79 43 80 44 81 52 82 45 83 51 84 53 85 50 86 46 87
REMARK SMILES IDX 47 88 48 89 49 90
REMARK H PARENT 10 5 14 24 73 43 41 54
REMARK Flexibility Score: inf
ROOT
ATOM      1  C   UNL A   1      33.799  22.431  27.770  1.00  0.00     0.117 C 
ENDROOT
BRANCH   1   2
ATOM      2  N   UNL A   1      32.353  22.367  27.660  1.00  0.00    -0.356 N 
ATOM      3  C   UNL A   1      31.452  23.251  27.137  1.00  0.00     0.227 C 
ATOM      4  O   UNL A   1      30.281  23.076  27.490  1.00  0.00    -0.274 OA
ATOM      5  H   UNL A   1      31.953  21.545  28.024  1.00  0.00     0.163 HD
BRANCH   3   6
ATOM      6  C   UNL A   1      31.887  24.411  26.196  1.00  0.00     0.109 C 
BRANCH   6   7
ATOM      7  C   UNL A   1      30.625  25.291  25.974  1.00  0.00     0.018 C 
BRANCH   7   8
ATOM      8  C   UNL A   1      30.711  26.821  26.154  1.00  0.00     0.001 C 
BRANCH   8   9
ATOM      9  C   UNL A   1      31.508  27.676  25.158  1.00  0.00     0.000 C 
BRANCH   9  10
ATOM     10  C   UNL A   1      31.013  27.643  23.710  1.00  0.00    -0.000 C 
BRANCH  10  11
ATOM     11  C   UNL A   1      32.045  27.258  22.650  1.00  0.00    -0.003 C 
ATOM     12  C   UNL A   1      31.570  26.179  21.691  1.00  0.00     0.004 C 
ENDBRANCH  10  11
ENDBRANCH   9  10
ENDBRANCH   8   9
ENDBRANCH   7   8
ENDBRANCH   6   7
BRANCH   6  13
ATOM     13  C   UNL A   1      32.526  23.947  24.843  1.00  0.00    -0.033 A 
ATOM     14  C   UNL A   1      31.896  22.959  24.053  1.00  0.00     0.005 A 
ATOM     15  C   UNL A   1      33.777  24.427  24.363  1.00  0.00    -0.047 A 
ATOM     16  C   UNL A   1      32.388  22.568  22.802  1.00  0.00     0.000 A 
ATOM     17  C   UNL A   1      34.241  24.049  23.082  1.00  0.00     0.004 A 
ATOM     18  C   UNL A   1      34.685  25.354  25.123  1.00  0.00     0.044 C 
ATOM     19  C   UNL A   1      33.548  23.135  22.303  1.00  0.00     0.000 A 
ENDBRANCH   6  13
ENDBRANCH   3   6
ENDBRANCH   1   2
BRANCH   1  20
ATOM     20  C   UNL A   1      34.464  21.499  26.757  1.00  0.00     0.042 C 
BRANCH  20  21
ATOM     21  C   UNL A   1      35.794  21.996  26.208  1.00  0.00     0.118 C 
BRANCH  21  22
ATOM     22  N   UNL A   1      36.716  20.914  25.907  1.00  0.00    -0.352 N 
ATOM     23  C   UNL A   1      38.084  20.927  25.742  1.00  0.00     0.251 C 
ATOM     24  H   UNL A   1      36.296  20.030  25.803  1.00  0.00     0.163 HD
ATOM     25  O   UNL A   1      38.632  19.923  25.293  1.00  0.00    -0.269 OA
BRANCH  23  26
ATOM     26  C   UNL A   1      38.890  22.132  26.065  1.00  0.00     0.039 A 
ATOM     27  C   UNL A   1      38.463  23.376  25.588  1.00  0.00     0.014 A 
ATOM     28  C   UNL A   1      40.074  22.051  26.800  1.00  0.00     0.014 A 
ATOM     29  C   UNL A   1      39.178  24.535  25.909  1.00  0.00     0.010 A 
ATOM     30  C   UNL A   1      40.731  23.213  27.202  1.00  0.00     0.010 A 
ATOM     31  C   UNL A   1      40.296  24.470  26.756  1.00  0.00    -0.014 A 
BRANCH  31  32
ATOM     32  C   UNL A   1      41.032  25.697  27.174  1.00  0.00     0.031 A 
ATOM     33  C   UNL A   1      40.356  26.729  28.037  1.00  0.00     0.074 A 
ATOM     34  C   UNL A   1      42.284  25.914  26.727  1.00  0.00     0.049 A 
ATOM     35  N   UNL A   1      40.796  27.894  28.441  1.00  0.00    -0.248 NA
ATOM     36  C   UNL A   1      38.987  26.420  28.475  1.00  0.00     0.031 C 
ATOM     37  C   UNL A   1      43.041  25.006  25.862  1.00  0.00     0.029 A 
ATOM     38  N   UNL A   1      43.142  26.965  26.933  1.00  0.00    -0.354 N 
ATOM     39  C   UNL A   1      39.756  28.462  29.169  1.00  0.00     0.074 A 
ATOM     40  C   UNL A   1      38.638  27.546  29.075  1.00  0.00     0.031 C 
ATOM     41  C   UNL A   1      44.263  25.518  25.651  1.00  0.00     0.029 A 
ATOM     42  C   UNL A   1      44.361  26.815  26.313  1.00  0.00     0.049 A 
ATOM     43  H   UNL A   1      42.907  27.753  27.475  1.00  0.00     0.167 HD
ATOM     44  C   UNL A   1      39.740  29.622  29.874  1.00  0.00     0.034 A 
ATOM     45  C   UNL A   1      45.432  27.632  26.274  1.00  0.00     0.034 A 
ATOM     46  C   UNL A   1      40.864  30.526  29.952  1.00  0.00     0.049 A 
ATOM     47  C   UNL A   1      45.371  28.952  26.999  1.00  0.00     0.074 A 
ATOM     48  C   UNL A   1      40.979  31.703  30.671  1.00  0.00     0.029 A 
ATOM     49  N   UNL A   1      42.065  30.360  29.273  1.00  0.00    -0.354 N 
ATOM     50  N   UNL A   1      44.396  29.454  27.721  1.00  0.00    -0.248 NA
ATOM     51  C   UNL A   1      46.557  29.811  26.905  1.00  0.00     0.031 C 
ATOM     52  C   UNL A   1      42.213  32.288  30.363  1.00  0.00     0.029 A 
ATOM     53  C   UNL A   1      42.908  31.435  29.520  1.00  0.00     0.049 A 
ATOM     54  H   UNL A   1      42.288  29.592  28.698  1.00  0.00     0.167 HD
ATOM     55  C   UNL A   1      44.866  30.678  28.193  1.00  0.00     0.074 A 
ATOM     56  C   UNL A   1      46.213  30.829  27.681  1.00  0.00     0.031 C 
ATOM     57  C   UNL A   1      44.242  31.587  28.986  1.00  0.00     0.034 A 
BRANCH  44  58
ATOM     58  C   UNL A   1      38.450  29.981  30.581  1.00  0.00     0.023 A 
ATOM     59  C   UNL A   1      37.429  30.699  29.929  1.00  0.00     0.031 A 
ATOM     60  C   UNL A   1      38.263  29.672  31.939  1.00  0.00     0.131 A 
ATOM     61  C   UNL A   1      36.336  31.185  30.660  1.00  0.00     0.055 A 
ATOM     62  C   UNL A   1      37.119  30.068  32.636  1.00  0.00     0.041 A 
ATOM     63  F   UNL A   1      39.204  29.005  32.625  1.00  0.00    -0.206 F 
ATOM     64  C   UNL A   1      36.158  30.851  32.003  1.00  0.00     0.022 A 
BRANCH  61  65
ATOM     65  S   UNL A   1      35.267  32.429  29.882  1.00  0.00     0.124 S 
ATOM     66  O   UNL A   1      34.376  32.783  30.986  1.00  0.00    -0.237 OA
ATOM     67  O   UNL A   1      36.220  33.455  29.477  1.00  0.00    -0.237 OA
ATOM     68  O   UNL A   1      34.630  31.699  28.788  1.00  0.00    -0.744 OA
ENDBRANCH  61  65
ENDBRANCH  44  58
BRANCH  45  69
ATOM     69  C   UNL A   1      46.659  27.227  25.532  1.00  0.00     0.023 A 
ATOM     70  C   UNL A   1      46.886  27.682  24.223  1.00  0.00     0.031 A 
ATOM     71  C   UNL A   1      47.614  26.369  26.107  1.00  0.00     0.131 A 
ATOM     72  C   UNL A   1      48.024  27.255  23.521  1.00  0.00     0.055 A 
ATOM     73  C   UNL A   1      48.768  25.987  25.423  1.00  0.00     0.041 A 
ATOM     74  F   UNL A   1      47.446  25.908  27.357  1.00  0.00    -0.206 F 
ATOM     75  C   UNL A   1      48.974  26.423  24.117  1.00  0.00     0.022 A 
BRANCH  72  76
ATOM     76  S   UNL A   1      48.214  27.757  21.789  1.00  0.00     0.124 S 
ATOM     77  O   UNL A   1      49.379  28.631  21.859  1.00  0.00    -0.237 OA
ATOM     78  O   UNL A   1      48.411  26.475  21.120  1.00  0.00    -0.237 OA
ATOM     79  O   UNL A   1      46.949  28.425  21.488  1.00  0.00    -0.744 OA
ENDBRANCH  72  76
ENDBRANCH  45  69
BRANCH  57  80
ATOM     80  C   UNL A   1      45.033  32.814  29.377  1.00  0.00     0.023 A 
ATOM     81  C   UNL A   1      44.968  34.007  28.636  1.00  0.00     0.031 A 
ATOM     82  C   UNL A   1      45.869  32.784  30.508  1.00  0.00     0.131 A 
ATOM     83  C   UNL A   1      45.764  35.103  29.003  1.00  0.00     0.055 A 
ATOM     84  C   UNL A   1      46.610  33.898  30.905  1.00  0.00     0.041 A 
ATOM     85  F   UNL A   1      45.976  31.671  31.250  1.00  0.00    -0.206 F 
ATOM     86  C   UNL A   1      46.569  35.063  30.144  1.00  0.00     0.022 A 
BRANCH  83  87
ATOM     87  S   UNL A   1      45.804  36.555  27.917  1.00  0.00     0.124 S 
ATOM     88  O   UNL A   1      46.931  37.308  28.459  1.00  0.00    -0.237 OA
ATOM     89  O   UNL A   1      46.011  35.958  26.602  1.00  0.00    -0.237 OA
ATOM     90  O   UNL A   1      44.493  37.170  28.118  1.00  0.00    -0.744 OA
ENDBRANCH  83  87
ENDBRANCH  57  80
ENDBRANCH  31  32
ENDBRANCH  23  26
ENDBRANCH  21  22
ENDBRANCH  20  21
ENDBRANCH   1  20
TORSDOF 19
ENDMDL
MODEL 2
REMARK VINA RESULT:     -10.2      4.987      9.905
REMARK SMILES CCCCCC[C@@H](C(=O)NCCCNC(=O)c1ccc(-c2c3nc(c(-c4cc(S(=O)(=O)[O-])ccc4F)c4ccc([nH]4)c(-c4cc(S(=O)(=O)[O-])ccc4F)c4nc(c(-c5cc(S(=O)(=O)[O-])ccc5F)c5ccc2[nH]5)C=C4)C=C3)cc1)c1ccccc1C
REMARK SMILES IDX 11 1 10 2 8 3 9 4 7 6 6 7 5 8 4 9 3 10 2 11 1 12 80 13 81 14
REMARK SMILES IDX 85 15 82 16 84 17 86 18 83 19 12 20 13 21 14 22 15 23 16 25
REMARK SMILES IDX 17 26 18 27 79 28 19 29 78 30 20 31 21 32 22 33 72 34 23 35
REMARK SMILES IDX 77 36 71 37 73 38 24 39 76 40 70 41 69 42 25 44 57 45 37 46
REMARK SMILES IDX 56 47 38 48 41 49 55 50 74 51 39 52 40 53 54 55 75 56 42 57
REMARK SMILES IDX 26 58 27 59 35 60 28 61 34 62 36 63 33 64 29 65 30 66 31 67
REMARK SMILES IDX 32 68 58 69 59 70 67 71 60 72 66 73 68 74 65 75 61 76 62 77
REMARK SMILES IDX 63 78 64 79 43 80 44 81 52 82 45 83 51 84 53 85 50 86 46 87
REMARK SMILES IDX 47 88 48 89 49 90
REMARK H PARENT 10 5 14 24 73 43 41 54
REMARK Flexibility Score: inf
ROOT
ATOM      1  C   UNL A   1      31.999  27.444  24.600  1.00  0.00     0.117 C 
ENDROOT
BRANCH   1   2
ATOM      2  N   UNL A   1      31.854  26.607  25.777  1.00  0.00    -0.356 N 
ATOM      3  C   UNL A   1      31.707  25.255  25.905  1.00  0.00     0.227 C 
ATOM      4  O   UNL A   1      31.270  24.876  26.996  1.00  0.00    -0.274 OA
ATOM      5  H   UNL A   1      31.863  27.098  26.630  1.00  0.00     0.163 HD
BRANCH   3   6
ATOM      6  C   UNL A   1      32.036  24.277  24.740  1.00  0.00     0.109 C 
BRANCH   6   7
ATOM      7  C   UNL A   1      31.278  22.955  25.050  1.00  0.00     0.018 C 
BRANCH   7   8
ATOM      8  C   UNL A   1      32.057  21.717  25.540  1.00  0.00     0.001 C 
BRANCH   8   9
ATOM      9  C   UNL A   1      32.152  20.463  24.660  1.00  0.00     0.000 C 
BRANCH   9  10
ATOM     10  C   UNL A   1      33.530  19.799  24.596  1.00  0.00    -0.000 C 
BRANCH  10  11
ATOM     11  C   UNL A   1      34.682  20.564  25.245  1.00  0.00    -0.003 C 
ATOM     12  C   UNL A   1      36.049  19.944  25.003  1.00  0.00     0.004 C 
ENDBRANCH  10  11
ENDBRANCH   9  10
ENDBRANCH   8   9
ENDBRANCH   7   8
ENDBRANCH   6   7
BRANCH   6  13
ATOM     13  C   UNL A   1      33.566  24.035  24.505  1.00  0.00    -0.033 A 
ATOM     14  C   UNL A   1      34.504  24.341  25.516  1.00  0.00     0.005 A 
ATOM     15  C   UNL A   1      34.104  23.566  23.273  1.00  0.00    -0.047 A 
ATOM     16  C   UNL A   1      35.872  24.072  25.380  1.00  0.00     0.000 A 
ATOM     17  C   UNL A   1      35.481  23.265  23.166  1.00  0.00     0.004 A 
ATOM     18  C   UNL A   1      33.301  23.337  22.022  1.00  0.00     0.044 C 
ATOM     19  C   UNL A   1      36.358  23.506  24.214  1.00  0.00     0.000 A 
ENDBRANCH   6  13
ENDBRANCH   3   6
ENDBRANCH   1   2
BRANCH   1  20
ATOM     20  C   UNL A   1      33.470  27.776  24.347  1.00  0.00     0.042 C 
BRANCH  20  21
ATOM     21  C   UNL A   1      33.794  29.263  24.327  1.00  0.00     0.118 C 
BRANCH  21  22
ATOM     22  N   UNL A   1      32.805  30.063  25.030  1.00  0.00    -0.352 N 
ATOM     23  C   UNL A   1      32.784  30.517  26.330  1.00  0.00     0.251 C 
ATOM     24  H   UNL A   1      32.023  30.321  24.489  1.00  0.00     0.163 HD
ATOM     25  O   UNL A   1      31.746  31.010  26.765  1.00  0.00    -0.269 OA
BRANCH  23  26
ATOM     26  C   UNL A   1      33.972  30.390  27.212  1.00  0.00     0.039 A 
ATOM     27  C   UNL A   1      34.318  29.125  27.700  1.00  0.00     0.014 A 
ATOM     28  C   UNL A   1      34.731  31.500  27.591  1.00  0.00     0.014 A 
ATOM     29  C   UNL A   1      35.456  28.967  28.499  1.00  0.00     0.010 A 
ATOM     30  C   UNL A   1      35.915  31.329  28.304  1.00  0.00     0.010 A 
ATOM     31  C   UNL A   1      36.291  30.061  28.774  1.00  0.00    -0.014 A 
BRANCH  31  32
ATOM     32  C   UNL A   1      37.547  29.907  29.560  1.00  0.00     0.031 A 
ATOM     33  C   UNL A   1      38.705  29.127  28.995  1.00  0.00     0.074 A 
ATOM     34  C   UNL A   1      37.626  30.413  30.806  1.00  0.00     0.049 A 
ATOM     35  N   UNL A   1      39.848  28.815  29.550  1.00  0.00    -0.248 NA
ATOM     36  C   UNL A   1      38.535  28.601  27.633  1.00  0.00     0.031 C 
ATOM     37  C   UNL A   1      36.565  31.165  31.481  1.00  0.00     0.029 A 
ATOM     38  N   UNL A   1      38.640  30.372  31.730  1.00  0.00    -0.354 N 
ATOM     39  C   UNL A   1      40.528  28.046  28.612  1.00  0.00     0.074 A 
ATOM     40  C   UNL A   1      39.630  27.873  27.489  1.00  0.00     0.031 C 
ATOM     41  C   UNL A   1      37.001  31.551  32.690  1.00  0.00     0.029 A 
ATOM     42  C   UNL A   1      38.347  31.028  32.904  1.00  0.00     0.049 A 
ATOM     43  H   UNL A   1      39.497  29.915  31.568  1.00  0.00     0.167 HD
ATOM     44  C   UNL A   1      41.793  27.553  28.665  1.00  0.00     0.034 A 
ATOM     45  C   UNL A   1      39.075  31.183  34.027  1.00  0.00     0.034 A 
ATOM     46  C   UNL A   1      42.673  27.732  29.795  1.00  0.00     0.049 A 
ATOM     47  C   UNL A   1      40.448  30.565  34.100  1.00  0.00     0.074 A 
ATOM     48  C   UNL A   1      43.987  27.320  29.943  1.00  0.00     0.029 A 
ATOM     49  N   UNL A   1      42.324  28.364  30.983  1.00  0.00    -0.354 N 
ATOM     50  N   UNL A   1      41.095  29.879  33.186  1.00  0.00    -0.248 NA
ATOM     51  C   UNL A   1      41.186  30.747  35.355  1.00  0.00     0.031 C 
ATOM     52  C   UNL A   1      44.401  27.629  31.243  1.00  0.00     0.029 A 
ATOM     53  C   UNL A   1      43.379  28.313  31.882  1.00  0.00     0.049 A 
ATOM     54  H   UNL A   1      41.452  28.787  31.162  1.00  0.00     0.167 HD
ATOM     55  C   UNL A   1      42.332  29.574  33.748  1.00  0.00     0.074 A 
ATOM     56  C   UNL A   1      42.341  30.160  35.073  1.00  0.00     0.031 C 
ATOM     57  C   UNL A   1      43.370  28.881  33.211  1.00  0.00     0.034 A 
BRANCH  44  58
ATOM     58  C   UNL A   1      42.269  26.748  27.474  1.00  0.00     0.023 A 
ATOM     59  C   UNL A   1      42.057  25.359  27.393  1.00  0.00     0.031 A 
ATOM     60  C   UNL A   1      43.008  27.356  26.444  1.00  0.00     0.131 A 
ATOM     61  C   UNL A   1      42.675  24.612  26.380  1.00  0.00     0.055 A 
ATOM     62  C   UNL A   1      43.532  26.619  25.379  1.00  0.00     0.041 A 
ATOM     63  F   UNL A   1      43.261  28.673  26.468  1.00  0.00    -0.206 F 
ATOM     64  C   UNL A   1      43.389  25.235  25.356  1.00  0.00     0.022 A 
BRANCH  61  65
ATOM     65  S   UNL A   1      42.710  22.805  26.545  1.00  0.00     0.124 S 
ATOM     66  O   UNL A   1      41.501  22.558  27.330  1.00  0.00    -0.237 OA
ATOM     67  O   UNL A   1      42.672  22.361  25.157  1.00  0.00    -0.237 OA
ATOM     68  O   UNL A   1      43.963  22.548  27.251  1.00  0.00    -0.744 OA
ENDBRANCH  61  65
ENDBRANCH  44  58
BRANCH  45  69
ATOM     69  C   UNL A   1      38.529  31.963  35.174  1.00  0.00     0.023 A 
ATOM     70  C   UNL A   1      38.155  31.319  36.364  1.00  0.00     0.031 A 
ATOM     71  C   UNL A   1      38.356  33.357  35.096  1.00  0.00     0.131 A 
ATOM     72  C   UNL A   1      37.600  32.061  37.417  1.00  0.00     0.055 A 
ATOM     73  C   UNL A   1      37.850  34.098  36.165  1.00  0.00     0.041 A 
ATOM     74  F   UNL A   1      38.701  34.022  33.982  1.00  0.00    -0.206 F 
ATOM     75  C   UNL A   1      37.460  33.448  37.332  1.00  0.00     0.022 A 
BRANCH  72  76
ATOM     76  S   UNL A   1      37.007  31.176  38.885  1.00  0.00     0.124 S 
ATOM     77  O   UNL A   1      35.687  31.768  39.075  1.00  0.00    -0.237 OA
ATOM     78  O   UNL A   1      37.030  29.789  38.433  1.00  0.00    -0.237 OA
ATOM     79  O   UNL A   1      37.996  31.512  39.907  1.00  0.00    -0.744 OA
ENDBRANCH  72  76
ENDBRANCH  45  69
BRANCH  57  80
ATOM     80  C   UNL A   1      44.618  28.752  34.053  1.00  0.00     0.023 A 
ATOM     81  C   UNL A   1      44.816  27.671  34.928  1.00  0.00     0.031 A 
ATOM     82  C   UNL A   1      45.624  29.734  33.979  1.00  0.00     0.131 A 
ATOM     83  C   UNL A   1      45.965  27.622  35.732  1.00  0.00     0.055 A 
ATOM     84  C   UNL A   1      46.793  29.648  34.735  1.00  0.00     0.041 A 
ATOM     85  F   UNL A   1      45.486  30.793  33.166  1.00  0.00    -0.206 F 
ATOM     86  C   UNL A   1      46.964  28.593  35.627  1.00  0.00     0.022 A 
BRANCH  83  87
ATOM     87  S   UNL A   1      46.097  26.319  36.987  1.00  0.00     0.124 S 
ATOM     88  O   UNL A   1      47.263  25.572  36.527  1.00  0.00    -0.237 OA
ATOM     89  O   UNL A   1      46.275  27.084  38.217  1.00  0.00    -0.237 OA
ATOM     90  O   UNL A   1      44.824  25.608  36.879  1.00  0.00    -0.744 OA
ENDBRANCH  83  87
ENDBRANCH  57  80
ENDBRANCH  31  32
ENDBRANCH  23  26
ENDBRANCH  21  22
ENDBRANCH  20  21
ENDBRANCH   1  20
TORSDOF 19
ENDMDL
MODEL 3
REMARK VINA RESULT:     -10.1      2.161      7.956
REMARK SMILES CCCCCC[C@@H](C(=O)NCCCNC(=O)c1ccc(-c2c3nc(c(-c4cc(S(=O)(=O)[O-])ccc4F)c4ccc([nH]4)c(-c4cc(S(=O)(=O)[O-])ccc4F)c4nc(c(-c5cc(S(=O)(=O)[O-])ccc5F)c5ccc2[nH]5)C=C4)C=C3)cc1)c1ccccc1C
REMARK SMILES IDX 11 1 10 2 8 3 9 4 7 6 6 7 5 8 4 9 3 10 2 11 1 12 80 13 81 14
REMARK SMILES IDX 85 15 82 16 84 17 86 18 83 19 12 20 13 21 14 22 15 23 16 25
REMARK SMILES IDX 17 26 18 27 79 28 19 29 78 30 20 31 21 32 22 33 72 34 23 35
REMARK SMILES IDX 77 36 71 37 73 38 24 39 76 40 70 41 69 42 25 44 57 45 37 46
REMARK SMILES IDX 56 47 38 48 41 49 55 50 74 51 39 52 40 53 54 55 75 56 42 57
REMARK SMILES IDX 26 58 27 59 35 60 28 61 34 62 36 63 33 64 29 65 30 66 31 67
REMARK SMILES IDX 32 68 58 69 59 70 67 71 60 72 66 73 68 74 65 75 61 76 62 77
REMARK SMILES IDX 63 78 64 79 43 80 44 81 52 82 45 83 51 84 53 85 50 86 46 87
REMARK SMILES IDX 47 88 48 89 49 90
REMARK H PARENT 10 5 14 24 73 43 41 54
REMARK Flexibility Score: inf
ROOT
ATOM      1  C   UNL A   1      33.845  22.290  27.705  1.00  0.00     0.117 C 
ENDROOT
BRANCH   1   2
ATOM      2  N   UNL A   1      32.401  22.168  27.619  1.00  0.00    -0.356 N 
ATOM      3  C   UNL A   1      31.451  23.044  27.175  1.00  0.00     0.227 C 
ATOM      4  O   UNL A   1      30.296  22.793  27.538  1.00  0.00    -0.274 OA
ATOM      5  H   UNL A   1      32.045  21.306  27.934  1.00  0.00     0.163 HD
BRANCH   3   6
ATOM      6  C   UNL A   1      31.814  24.283  26.307  1.00  0.00     0.109 C 
BRANCH   6   7
ATOM      7  C   UNL A   1      30.501  25.099  26.138  1.00  0.00     0.018 C 
BRANCH   7   8
ATOM      8  C   UNL A   1      30.552  26.529  25.560  1.00  0.00     0.001 C 
BRANCH   8   9
ATOM      9  C   UNL A   1      29.956  26.827  24.177  1.00  0.00     0.000 C 
BRANCH   9  10
ATOM     10  C   UNL A   1      30.749  26.293  22.982  1.00  0.00    -0.000 C 
BRANCH  10  11
ATOM     11  C   UNL A   1      31.535  27.324  22.173  1.00  0.00    -0.003 C 
ATOM     12  C   UNL A   1      32.801  27.811  22.858  1.00  0.00     0.004 C 
ENDBRANCH  10  11
ENDBRANCH   9  10
ENDBRANCH   8   9
ENDBRANCH   7   8
ENDBRANCH   6   7
BRANCH   6  13
ATOM     13  C   UNL A   1      32.476  23.942  24.929  1.00  0.00    -0.033 A 
ATOM     14  C   UNL A   1      31.940  22.925  24.108  1.00  0.00     0.005 A 
ATOM     15  C   UNL A   1      33.662  24.569  24.454  1.00  0.00    -0.047 A 
ATOM     16  C   UNL A   1      32.450  22.636  22.837  1.00  0.00     0.000 A 
ATOM     17  C   UNL A   1      34.142  24.292  23.154  1.00  0.00     0.004 A 
ATOM     18  C   UNL A   1      34.480  25.556  25.240  1.00  0.00     0.044 C 
ATOM     19  C   UNL A   1      33.536  23.341  22.346  1.00  0.00     0.000 A 
ENDBRANCH   6  13
ENDBRANCH   3   6
ENDBRANCH   1   2
BRANCH   1  20
ATOM     20  C   UNL A   1      34.525  21.515  26.576  1.00  0.00     0.042 C 
BRANCH  20  21
ATOM     21  C   UNL A   1      35.806  22.146  26.050  1.00  0.00     0.118 C 
BRANCH  21  22
ATOM     22  N   UNL A   1      36.855  21.169  25.809  1.00  0.00    -0.352 N 
ATOM     23  C   UNL A   1      38.225  21.305  25.836  1.00  0.00     0.251 C 
ATOM     24  H   UNL A   1      36.534  20.264  25.590  1.00  0.00     0.163 HD
ATOM     25  O   UNL A   1      38.917  20.387  25.403  1.00  0.00    -0.269 OA
BRANCH  23  26
ATOM     26  C   UNL A   1      38.869  22.543  26.345  1.00  0.00     0.039 A 
ATOM     27  C   UNL A   1      39.928  22.428  27.252  1.00  0.00     0.014 A 
ATOM     28  C   UNL A   1      38.425  23.812  25.970  1.00  0.00     0.014 A 
ATOM     29  C   UNL A   1      40.581  23.574  27.718  1.00  0.00     0.010 A 
ATOM     30  C   UNL A   1      39.135  24.947  26.356  1.00  0.00     0.010 A 
ATOM     31  C   UNL A   1      40.219  24.844  27.241  1.00  0.00    -0.014 A 
BRANCH  31  32
ATOM     32  C   UNL A   1      40.946  26.074  27.664  1.00  0.00     0.031 A 
ATOM     33  C   UNL A   1      42.385  26.279  27.268  1.00  0.00     0.074 A 
ATOM     34  C   UNL A   1      40.335  26.977  28.457  1.00  0.00     0.049 A 
ATOM     35  N   UNL A   1      43.211  27.239  27.599  1.00  0.00    -0.248 NA
ATOM     36  C   UNL A   1      42.980  25.245  26.410  1.00  0.00     0.031 C 
ATOM     37  C   UNL A   1      38.954  26.883  28.934  1.00  0.00     0.029 A 
ATOM     38  N   UNL A   1      40.794  28.149  29.003  1.00  0.00    -0.354 N 
ATOM     39  C   UNL A   1      44.425  26.918  27.002  1.00  0.00     0.074 A 
ATOM     40  C   UNL A   1      44.244  25.632  26.361  1.00  0.00     0.031 C 
ATOM     41  C   UNL A   1      38.666  27.972  29.663  1.00  0.00     0.029 A 
ATOM     42  C   UNL A   1      39.854  28.815  29.756  1.00  0.00     0.049 A 
ATOM     43  H   UNL A   1      41.711  28.482  28.869  1.00  0.00     0.167 HD
ATOM     44  C   UNL A   1      45.576  27.638  26.965  1.00  0.00     0.034 A 
ATOM     45  C   UNL A   1      39.941  29.967  30.449  1.00  0.00     0.034 A 
ATOM     46  C   UNL A   1      45.740  28.917  27.615  1.00  0.00     0.049 A 
ATOM     47  C   UNL A   1      41.249  30.716  30.460  1.00  0.00     0.074 A 
ATOM     48  C   UNL A   1      46.841  29.756  27.606  1.00  0.00     0.029 A 
ATOM     49  N   UNL A   1      44.779  29.536  28.405  1.00  0.00    -0.354 N 
ATOM     50  N   UNL A   1      42.375  30.422  29.853  1.00  0.00    -0.248 NA
ATOM     51  C   UNL A   1      41.293  31.953  31.249  1.00  0.00     0.031 C 
ATOM     52  C   UNL A   1      46.576  30.838  28.455  1.00  0.00     0.029 A 
ATOM     53  C   UNL A   1      45.277  30.722  28.924  1.00  0.00     0.049 A 
ATOM     54  H   UNL A   1      43.874  29.184  28.573  1.00  0.00     0.167 HD
ATOM     55  C   UNL A   1      43.254  31.458  30.163  1.00  0.00     0.074 A 
ATOM     56  C   UNL A   1      42.521  32.385  31.001  1.00  0.00     0.031 C 
ATOM     57  C   UNL A   1      44.545  31.630  29.779  1.00  0.00     0.034 A 
BRANCH  44  58
ATOM     58  C   UNL A   1      46.746  27.028  26.223  1.00  0.00     0.023 A 
ATOM     59  C   UNL A   1      47.734  26.282  26.893  1.00  0.00     0.031 A 
ATOM     60  C   UNL A   1      46.922  27.254  24.846  1.00  0.00     0.131 A 
ATOM     61  C   UNL A   1      48.901  25.896  26.218  1.00  0.00     0.055 A 
ATOM     62  C   UNL A   1      48.038  26.774  24.156  1.00  0.00     0.041 A 
ATOM     63  F   UNL A   1      46.027  27.971  24.151  1.00  0.00    -0.206 F 
ATOM     64  C   UNL A   1      49.049  26.113  24.847  1.00  0.00     0.022 A 
BRANCH  61  65
ATOM     65  S   UNL A   1      50.306  25.302  27.202  1.00  0.00     0.124 S 
ATOM     66  O   UNL A   1      49.726  24.138  27.870  1.00  0.00    -0.237 OA
ATOM     67  O   UNL A   1      51.309  25.021  26.183  1.00  0.00    -0.237 OA
ATOM     68  O   UNL A   1      50.607  26.428  28.084  1.00  0.00    -0.744 OA
ENDBRANCH  61  65
ENDBRANCH  44  58
BRANCH  45  69
ATOM     69  C   UNL A   1      38.755  30.492  31.183  1.00  0.00     0.023 A 
ATOM     70  C   UNL A   1      37.743  31.187  30.502  1.00  0.00     0.031 A 
ATOM     71  C   UNL A   1      38.620  30.325  32.573  1.00  0.00     0.131 A 
ATOM     72  C   UNL A   1      36.655  31.715  31.214  1.00  0.00     0.055 A 
ATOM     73  C   UNL A   1      37.512  30.808  33.269  1.00  0.00     0.041 A 
ATOM     74  F   UNL A   1      39.558  29.664  33.271  1.00  0.00    -0.206 F 
ATOM     75  C   UNL A   1      36.525  31.517  32.591  1.00  0.00     0.022 A 
BRANCH  72  76
ATOM     76  S   UNL A   1      35.438  32.720  30.321  1.00  0.00     0.124 S 
ATOM     77  O   UNL A   1      35.033  31.814  29.252  1.00  0.00    -0.237 OA
ATOM     78  O   UNL A   1      34.442  32.981  31.355  1.00  0.00    -0.237 OA
ATOM     79  O   UNL A   1      36.209  33.886  29.893  1.00  0.00    -0.744 OA
ENDBRANCH  72  76
ENDBRANCH  45  69
BRANCH  57  80
ATOM     80  C   UNL A   1      45.236  32.893  30.239  1.00  0.00     0.023 A 
ATOM     81  C   UNL A   1      46.036  32.923  31.394  1.00  0.00     0.031 A 
ATOM     82  C   UNL A   1      45.084  34.086  29.509  1.00  0.00     0.131 A 
ATOM     83  C   UNL A   1      46.612  34.133  31.815  1.00  0.00     0.055 A 
ATOM     84  C   UNL A   1      45.710  35.271  29.898  1.00  0.00     0.041 A 
ATOM     85  F   UNL A   1      44.326  34.118  28.402  1.00  0.00    -0.206 F 
ATOM     86  C   UNL A   1      46.470  35.301  31.064  1.00  0.00     0.022 A 
BRANCH  83  87
ATOM     87  S   UNL A   1      47.475  34.179  33.409  1.00  0.00     0.124 S 
ATOM     88  O   UNL A   1      46.513  34.881  34.254  1.00  0.00    -0.237 OA
ATOM     89  O   UNL A   1      47.666  32.763  33.704  1.00  0.00    -0.237 OA
ATOM     90  O   UNL A   1      48.699  34.922  33.115  1.00  0.00    -0.744 OA
ENDBRANCH  83  87
ENDBRANCH  57  80
ENDBRANCH  31  32
ENDBRANCH  23  26
ENDBRANCH  21  22
ENDBRANCH  20  21
ENDBRANCH   1  20
TORSDOF 19
ENDMDL
