MODEL 1
REMARK VINA RESULT:     -13.4      0.000      0.000
REMARK SMILES O=C(NCCCNC(=O)c1ccc(-c2c3nc(c(-c4cc(S(=O)(=O)[O-])ccc4F)c4ccc([nH]4)c(-c4cc(S(=O)(=O)[O-])ccc4F)c4nc(c(-c5cc(S(=O)(=O)[O-])ccc5F)c5ccc2[nH]5)C=C4)C=C3)cc1)C1=Cc2cc(S(F)(F)(F)(F)F)cc(Br)c2O[C@@H]1C(F)(F)F
REMARK SMILES IDX 6 1 5 2 4 3 3 4 1 5 2 6 73 8 74 9 89 10 75 11 88 12 76 13
REMARK SMILES IDX 87 14 77 15 85 16 84 17 86 18 90 19 91 20 92 21 93 22 78 23
REMARK SMILES IDX 79 24 80 25 81 26 82 27 83 28 7 29 8 30 9 32 10 33 11 34
REMARK SMILES IDX 72 35 12 36 71 37 13 38 14 39 15 40 65 41 16 42 70 43 64 44
REMARK SMILES IDX 66 45 17 46 69 47 63 48 62 49 18 51 50 52 30 53 49 54 31 55
REMARK SMILES IDX 34 56 48 57 67 58 32 59 33 60 47 62 68 63 35 64 19 65 20 66
REMARK SMILES IDX 28 67 21 68 27 69 29 70 26 71 22 72 23 73 24 74 25 75 51 76
REMARK SMILES IDX 52 77 60 78 53 79 59 80 61 81 58 82 54 83 55 84 56 85 57 86
REMARK SMILES IDX 36 87 37 88 45 89 38 90 44 91 46 92 43 93 39 94 40 95 41 96
REMARK SMILES IDX 42 97
REMARK H PARENT 3 7 7 31 66 50 34 61
REMARK Flexibility Score: inf
ROOT
ATOM      1  C   UNL A   1      34.036  28.766  25.889  1.00  0.00     0.118 C 
ENDROOT
BRANCH   1   2
ATOM      2  C   UNL A   1      34.010  28.672  24.371  1.00  0.00     0.042 C 
BRANCH   2   3
ATOM      3  C   UNL A   1      33.020  27.597  23.949  1.00  0.00     0.118 C 
BRANCH   3   4
ATOM      4  N   UNL A   1      33.665  26.684  22.995  1.00  0.00    -0.352 N 
ATOM      5  O   UNL A   1      33.502  24.707  21.687  1.00  0.00    -0.270 OA
ATOM      6  C   UNL A   1      32.944  25.497  22.511  1.00  0.00     0.251 C 
ATOM      7  H   UNL A   1      34.580  26.866  22.681  1.00  0.00     0.163 HD
BRANCH   6   8
ATOM      8  C   UNL A   1      31.532  25.216  22.996  1.00  0.00     0.067 C 
ATOM      9  C   UNL A   1      31.248  24.041  23.621  1.00  0.00     0.025 C 
ATOM     10  C   UNL A   1      30.436  26.248  22.783  1.00  0.00     0.314 C 
ATOM     11  C   UNL A   1      32.343  23.009  23.834  1.00  0.00     0.020 A 
ATOM     12  O   UNL A   1      33.818  24.797  24.367  1.00  0.00    -0.474 OA
ATOM     13  C   UNL A   1      32.081  21.672  23.589  1.00  0.00     0.036 A 
ATOM     14  C   UNL A   1      33.529  23.408  24.280  1.00  0.00     0.142 A 
ATOM     15  C   UNL A   1      33.050  20.790  24.123  1.00  0.00     0.109 A 
ATOM     16  C   UNL A   1      34.479  22.490  24.657  1.00  0.00     0.062 A 
ATOM     17  C   UNL A   1      34.264  21.150  24.498  1.00  0.00     0.044 A 
ATOM     18  Br  UNL A   1      36.168  23.112  25.435  1.00  0.00    -0.047 Br
BRANCH  10  19
ATOM     19  C   UNL A   1      29.873  26.674  24.129  1.00  0.00     0.429 C 
ATOM     20  F   UNL A   1      29.881  28.002  24.212  1.00  0.00    -0.167 F 
ATOM     21  F   UNL A   1      28.625  26.230  24.249  1.00  0.00    -0.167 F 
ATOM     22  F   UNL A   1      30.620  26.165  25.105  1.00  0.00    -0.167 F 
ENDBRANCH  10  19
BRANCH  15  23
ATOM     23  S   UNL A   1      32.593  19.048  24.306  1.00  0.00     0.310 S 
ATOM     24  F   UNL A   1      34.110  18.587  24.321  1.00  0.00    -0.094 F 
ATOM     25  F   UNL A   1      32.636  18.902  22.738  1.00  0.00    -0.094 F 
ATOM     26  F   UNL A   1      32.200  17.552  24.463  1.00  0.00    -0.094 F 
ATOM     27  F   UNL A   1      32.693  19.178  25.877  1.00  0.00    -0.094 F 
ATOM     28  F   UNL A   1      33.102  20.538  24.165  1.00  0.00    -0.094 F 
ENDBRANCH  15  23
ENDBRANCH   6   8
ENDBRANCH   3   4
ENDBRANCH   2   3
ENDBRANCH   1   2
BRANCH   1  29
ATOM     29  N   UNL A   1      33.505  30.071  26.308  1.00  0.00    -0.352 N 
ATOM     30  C   UNL A   1      34.242  30.884  27.287  1.00  0.00     0.251 C 
ATOM     31  H   UNL A   1      32.656  30.400  25.933  1.00  0.00     0.163 HD
ATOM     32  O   UNL A   1      33.782  32.013  27.649  1.00  0.00    -0.269 OA
BRANCH  30  33
ATOM     33  C   UNL A   1      35.552  30.375  27.865  1.00  0.00     0.039 A 
ATOM     34  C   UNL A   1      36.752  30.711  27.261  1.00  0.00     0.014 A 
ATOM     35  C   UNL A   1      35.515  29.595  28.939  1.00  0.00     0.014 A 
ATOM     36  C   UNL A   1      37.850  29.932  27.696  1.00  0.00     0.010 A 
ATOM     37  C   UNL A   1      36.655  28.973  29.391  1.00  0.00     0.010 A 
ATOM     38  C   UNL A   1      37.866  29.212  28.804  1.00  0.00    -0.014 A 
BRANCH  38  39
ATOM     39  C   UNL A   1      39.161  28.678  29.393  1.00  0.00     0.031 A 
ATOM     40  C   UNL A   1      39.587  29.272  30.582  1.00  0.00     0.074 A 
ATOM     41  C   UNL A   1      39.825  27.637  28.766  1.00  0.00     0.049 A 
ATOM     42  N   UNL A   1      40.645  28.940  31.324  1.00  0.00    -0.248 NA
ATOM     43  C   UNL A   1      38.903  30.400  31.231  1.00  0.00     0.031 C 
ATOM     44  C   UNL A   1      39.397  27.026  27.571  1.00  0.00     0.029 A 
ATOM     45  N   UNL A   1      40.987  27.014  29.165  1.00  0.00    -0.354 N 
ATOM     46  C   UNL A   1      40.717  29.724  32.402  1.00  0.00     0.074 A 
ATOM     47  C   UNL A   1      39.601  30.679  32.354  1.00  0.00     0.031 C 
ATOM     48  C   UNL A   1      40.294  26.057  27.247  1.00  0.00     0.029 A 
ATOM     49  C   UNL A   1      41.297  26.045  28.236  1.00  0.00     0.049 A 
ATOM     50  H   UNL A   1      41.505  27.224  29.975  1.00  0.00     0.167 HD
ATOM     51  C   UNL A   1      41.667  29.680  33.422  1.00  0.00     0.034 A 
ATOM     52  C   UNL A   1      42.388  25.191  28.231  1.00  0.00     0.034 A 
ATOM     53  C   UNL A   1      42.735  28.797  33.440  1.00  0.00     0.049 A 
ATOM     54  C   UNL A   1      43.373  25.186  29.223  1.00  0.00     0.074 A 
ATOM     55  C   UNL A   1      43.699  28.734  34.465  1.00  0.00     0.029 A 
ATOM     56  N   UNL A   1      43.059  27.845  32.497  1.00  0.00    -0.354 N 
ATOM     57  N   UNL A   1      43.422  25.944  30.320  1.00  0.00    -0.248 NA
ATOM     58  C   UNL A   1      44.550  24.309  29.212  1.00  0.00     0.031 C 
ATOM     59  C   UNL A   1      44.596  27.764  34.141  1.00  0.00     0.029 A 
ATOM     60  C   UNL A   1      44.209  27.207  32.908  1.00  0.00     0.049 A 
ATOM     61  H   UNL A   1      42.556  27.655  31.673  1.00  0.00     0.167 HD
ATOM     62  C   UNL A   1      44.504  25.640  31.040  1.00  0.00     0.074 A 
ATOM     63  C   UNL A   1      45.249  24.589  30.333  1.00  0.00     0.031 C 
ATOM     64  C   UNL A   1      44.898  26.194  32.259  1.00  0.00     0.034 A 
BRANCH  51  65
ATOM     65  C   UNL A   1      41.524  30.655  34.579  1.00  0.00     0.023 A 
ATOM     66  C   UNL A   1      40.462  30.516  35.457  1.00  0.00     0.031 A 
ATOM     67  C   UNL A   1      42.419  31.624  34.729  1.00  0.00     0.131 A 
ATOM     68  C   UNL A   1      40.267  31.634  36.302  1.00  0.00     0.055 A 
ATOM     69  C   UNL A   1      42.232  32.610  35.667  1.00  0.00     0.041 A 
ATOM     70  F   UNL A   1      43.506  31.642  33.963  1.00  0.00    -0.206 F 
ATOM     71  C   UNL A   1      41.171  32.568  36.530  1.00  0.00     0.022 A 
BRANCH  68  72
ATOM     72  S   UNL A   1      38.664  31.794  37.129  1.00  0.00     0.124 S 
ATOM     73  O   UNL A   1      38.880  32.245  38.576  1.00  0.00    -0.237 OA
ATOM     74  O   UNL A   1      37.812  32.832  36.394  1.00  0.00    -0.237 OA
ATOM     75  O   UNL A   1      37.863  30.285  37.115  1.00  0.00    -0.744 OA
ENDBRANCH  68  72
ENDBRANCH  51  65
BRANCH  52  76
ATOM     76  C   UNL A   1      42.522  24.206  27.082  1.00  0.00     0.023 A 
ATOM     77  C   UNL A   1      41.787  23.032  27.105  1.00  0.00     0.031 A 
ATOM     78  C   UNL A   1      43.341  24.486  26.075  1.00  0.00     0.131 A 
ATOM     79  C   UNL A   1      42.205  22.075  26.150  1.00  0.00     0.055 A 
ATOM     80  C   UNL A   1      43.599  23.550  25.103  1.00  0.00     0.041 A 
ATOM     81  F   UNL A   1      43.916  25.683  26.007  1.00  0.00    -0.206 F 
ATOM     82  C   UNL A   1      42.952  22.345  25.097  1.00  0.00     0.022 A 
BRANCH  79  83
ATOM     83  S   UNL A   1      41.678  20.359  26.392  1.00  0.00     0.124 S 
ATOM     84  O   UNL A   1      42.045  19.907  27.807  1.00  0.00    -0.237 OA
ATOM     85  O   UNL A   1      40.164  20.259  26.200  1.00  0.00    -0.237 OA
ATOM     86  O   UNL A   1      42.464  19.357  25.251  1.00  0.00    -0.744 OA
ENDBRANCH  79  83
ENDBRANCH  52  76
BRANCH  64  87
ATOM     87  C   UNL A   1      46.158  25.655  32.914  1.00  0.00     0.023 A 
ATOM     88  C   UNL A   1      47.405  26.083  32.488  1.00  0.00     0.031 A 
ATOM     89  C   UNL A   1      46.033  24.732  33.862  1.00  0.00     0.131 A 
ATOM     90  C   UNL A   1      48.472  25.263  32.924  1.00  0.00     0.055 A 
ATOM     91  C   UNL A   1      47.136  24.066  34.338  1.00  0.00     0.041 A 
ATOM     92  F   UNL A   1      44.830  24.451  34.353  1.00  0.00    -0.206 F 
ATOM     93  C   UNL A   1      48.394  24.397  33.918  1.00  0.00     0.022 A 
BRANCH  90  94
ATOM     94  S   UNL A   1      50.056  25.413  32.060  1.00  0.00     0.124 S 
ATOM     95  O   UNL A   1      50.695  24.028  31.925  1.00  0.00    -0.237 OA
ATOM     96  O   UNL A   1      49.823  26.005  30.669  1.00  0.00    -0.237 OA
ATOM     97  O   UNL A   1      51.096  26.438  32.949  1.00  0.00    -0.744 OA
ENDBRANCH  90  94
ENDBRANCH  64  87
ENDBRANCH  38  39
ENDBRANCH  30  33
ENDBRANCH   1  29
TORSDOF 15
ENDMDL
MODEL 2
REMARK VINA RESULT:     -13.4      4.949      9.891
REMARK SMILES O=C(NCCCNC(=O)c1ccc(-c2c3nc(c(-c4cc(S(=O)(=O)[O-])ccc4F)c4ccc([nH]4)c(-c4cc(S(=O)(=O)[O-])ccc4F)c4nc(c(-c5cc(S(=O)(=O)[O-])ccc5F)c5ccc2[nH]5)C=C4)C=C3)cc1)C1=Cc2cc(S(F)(F)(F)(F)F)cc(Br)c2O[C@@H]1C(F)(F)F
REMARK SMILES IDX 6 1 5 2 4 3 3 4 1 5 2 6 73 8 74 9 89 10 75 11 88 12 76 13
REMARK SMILES IDX 87 14 77 15 85 16 84 17 86 18 90 19 91 20 92 21 93 22 78 23
REMARK SMILES IDX 79 24 80 25 81 26 82 27 83 28 7 29 8 30 9 32 10 33 11 34
REMARK SMILES IDX 72 35 12 36 71 37 13 38 14 39 15 40 65 41 16 42 70 43 64 44
REMARK SMILES IDX 66 45 17 46 69 47 63 48 62 49 18 51 50 52 30 53 49 54 31 55
REMARK SMILES IDX 34 56 48 57 67 58 32 59 33 60 47 62 68 63 35 64 19 65 20 66
REMARK SMILES IDX 28 67 21 68 27 69 29 70 26 71 22 72 23 73 24 74 25 75 51 76
REMARK SMILES IDX 52 77 60 78 53 79 59 80 61 81 58 82 54 83 55 84 56 85 57 86
REMARK SMILES IDX 36 87 37 88 45 89 38 90 44 91 46 92 43 93 39 94 40 95 41 96
REMARK SMILES IDX 42 97
REMARK H PARENT 3 7 7 31 66 50 34 61
REMARK Flexibility Score: inf
ROOT
ATOM      1  C   UNL A   1      36.541  23.403  26.066  1.00  0.00     0.118 C 
ENDROOT
BRANCH   1   2
ATOM      2  C   UNL A   1      35.157  22.928  26.482  1.00  0.00     0.042 C 
BRANCH   2   3
ATOM      3  C   UNL A   1      34.110  23.579  25.592  1.00  0.00     0.118 C 
BRANCH   3   4
ATOM      4  N   UNL A   1      33.129  24.287  26.427  1.00  0.00    -0.352 N 
ATOM      5  O   UNL A   1      30.900  25.071  26.673  1.00  0.00    -0.270 OA
ATOM      6  C   UNL A   1      31.748  24.459  25.951  1.00  0.00     0.251 C 
ATOM      7  H   UNL A   1      33.397  24.646  27.303  1.00  0.00     0.163 HD
BRANCH   6   8
ATOM      8  C   UNL A   1      31.336  23.905  24.598  1.00  0.00     0.067 C 
ATOM      9  C   UNL A   1      30.877  24.745  23.630  1.00  0.00     0.025 C 
ATOM     10  C   UNL A   1      31.436  22.413  24.325  1.00  0.00     0.314 C 
ATOM     11  C   UNL A   1      30.776  26.236  23.902  1.00  0.00     0.020 A 
ATOM     12  O   UNL A   1      32.854  26.090  25.048  1.00  0.00    -0.474 OA
ATOM     13  C   UNL A   1      29.649  26.931  23.498  1.00  0.00     0.036 A 
ATOM     14  C   UNL A   1      31.787  26.853  24.502  1.00  0.00     0.142 A 
ATOM     15  C   UNL A   1      29.806  28.337  23.510  1.00  0.00     0.109 A 
ATOM     16  C   UNL A   1      31.811  28.224  24.599  1.00  0.00     0.062 A 
ATOM     17  C   UNL A   1      30.757  28.977  24.165  1.00  0.00     0.044 A 
ATOM     18  Br  UNL A   1      33.380  29.110  25.371  1.00  0.00    -0.047 Br
BRANCH  10  19
ATOM     19  C   UNL A   1      32.377  22.174  23.155  1.00  0.00     0.429 C 
ATOM     20  F   UNL A   1      32.965  23.318  22.819  1.00  0.00    -0.167 F 
ATOM     21  F   UNL A   1      33.302  21.285  23.504  1.00  0.00    -0.167 F 
ATOM     22  F   UNL A   1      31.685  21.710  22.118  1.00  0.00    -0.167 F 
ENDBRANCH  10  19
BRANCH  15  23
ATOM     23  S   UNL A   1      28.623  29.325  22.562  1.00  0.00     0.310 S 
ATOM     24  F   UNL A   1      28.743  30.546  23.567  1.00  0.00    -0.094 F 
ATOM     25  F   UNL A   1      27.469  28.772  23.480  1.00  0.00    -0.094 F 
ATOM     26  F   UNL A   1      27.607  30.174  21.747  1.00  0.00    -0.094 F 
ATOM     27  F   UNL A   1      29.808  29.976  21.745  1.00  0.00    -0.094 F 
ATOM     28  F   UNL A   1      29.679  28.557  23.453  1.00  0.00    -0.094 F 
ENDBRANCH  15  23
ENDBRANCH   6   8
ENDBRANCH   3   4
ENDBRANCH   2   3
ENDBRANCH   1   2
BRANCH   1  29
ATOM     29  N   UNL A   1      37.468  22.264  26.057  1.00  0.00    -0.352 N 
ATOM     30  C   UNL A   1      38.857  22.443  26.506  1.00  0.00     0.251 C 
ATOM     31  H   UNL A   1      37.160  21.380  25.750  1.00  0.00     0.163 HD
ATOM     32  O   UNL A   1      39.659  21.457  26.498  1.00  0.00    -0.269 OA
BRANCH  30  33
ATOM     33  C   UNL A   1      39.333  23.807  26.980  1.00  0.00     0.039 A 
ATOM     34  C   UNL A   1      39.312  24.117  28.330  1.00  0.00     0.014 A 
ATOM     35  C   UNL A   1      39.745  24.688  26.077  1.00  0.00     0.014 A 
ATOM     36  C   UNL A   1      39.475  25.495  28.604  1.00  0.00     0.010 A 
ATOM     37  C   UNL A   1      40.017  25.986  26.439  1.00  0.00     0.010 A 
ATOM     38  C   UNL A   1      39.959  26.377  27.748  1.00  0.00    -0.014 A 
BRANCH  38  39
ATOM     39  C   UNL A   1      40.425  27.753  28.194  1.00  0.00     0.031 A 
ATOM     40  C   UNL A   1      41.790  28.014  28.058  1.00  0.00     0.074 A 
ATOM     41  C   UNL A   1      39.504  28.672  28.668  1.00  0.00     0.049 A 
ATOM     42  N   UNL A   1      42.429  29.156  28.315  1.00  0.00    -0.248 NA
ATOM     43  C   UNL A   1      42.774  27.029  27.587  1.00  0.00     0.031 C 
ATOM     44  C   UNL A   1      38.125  28.420  28.800  1.00  0.00     0.029 A 
ATOM     45  N   UNL A   1      39.739  29.962  29.090  1.00  0.00    -0.354 N 
ATOM     46  C   UNL A   1      43.730  29.027  28.045  1.00  0.00     0.074 A 
ATOM     47  C   UNL A   1      43.972  27.654  27.579  1.00  0.00     0.031 C 
ATOM     48  C   UNL A   1      37.538  29.537  29.305  1.00  0.00     0.029 A 
ATOM     49  C   UNL A   1      38.540  30.507  29.496  1.00  0.00     0.049 A 
ATOM     50  H   UNL A   1      40.612  30.417  29.099  1.00  0.00     0.167 HD
ATOM     51  C   UNL A   1      44.723  30.000  28.168  1.00  0.00     0.034 A 
ATOM     52  C   UNL A   1      38.314  31.774  30.008  1.00  0.00     0.034 A 
ATOM     53  C   UNL A   1      44.489  31.281  28.639  1.00  0.00     0.049 A 
ATOM     54  C   UNL A   1      39.319  32.729  30.186  1.00  0.00     0.074 A 
ATOM     55  C   UNL A   1      45.478  32.276  28.763  1.00  0.00     0.029 A 
ATOM     56  N   UNL A   1      43.295  31.818  29.069  1.00  0.00    -0.354 N 
ATOM     57  N   UNL A   1      40.612  32.613  29.880  1.00  0.00    -0.248 NA
ATOM     58  C   UNL A   1      39.097  34.064  30.758  1.00  0.00     0.031 C 
ATOM     59  C   UNL A   1      44.890  33.394  29.268  1.00  0.00     0.029 A 
ATOM     60  C   UNL A   1      43.526  33.115  29.470  1.00  0.00     0.049 A 
ATOM     61  H   UNL A   1      42.427  31.353  29.087  1.00  0.00     0.167 HD
ATOM     62  C   UNL A   1      41.258  33.742  30.176  1.00  0.00     0.074 A 
ATOM     63  C   UNL A   1      40.294  34.688  30.752  1.00  0.00     0.031 C 
ATOM     64  C   UNL A   1      42.612  34.022  29.985  1.00  0.00     0.034 A 
BRANCH  51  65
ATOM     65  C   UNL A   1      46.141  29.632  27.761  1.00  0.00     0.023 A 
ATOM     66  C   UNL A   1      46.420  29.372  26.430  1.00  0.00     0.031 A 
ATOM     67  C   UNL A   1      47.089  29.567  28.689  1.00  0.00     0.131 A 
ATOM     68  C   UNL A   1      47.680  28.764  26.217  1.00  0.00     0.055 A 
ATOM     69  C   UNL A   1      48.339  29.089  28.380  1.00  0.00     0.041 A 
ATOM     70  F   UNL A   1      46.825  29.967  29.930  1.00  0.00    -0.206 F 
ATOM     71  C   UNL A   1      48.666  28.756  27.094  1.00  0.00     0.022 A 
BRANCH  68  72
ATOM     72  S   UNL A   1      47.959  27.939  24.629  1.00  0.00     0.124 S 
ATOM     73  O   UNL A   1      49.397  28.187  24.172  1.00  0.00    -0.237 OA
ATOM     74  O   UNL A   1      47.726  26.434  24.789  1.00  0.00    -0.237 OA
ATOM     75  O   UNL A   1      46.874  28.563  23.466  1.00  0.00    -0.744 OA
ENDBRANCH  68  72
ENDBRANCH  51  65
BRANCH  52  76
ATOM     76  C   UNL A   1      36.894  32.146  30.400  1.00  0.00     0.023 A 
ATOM     77  C   UNL A   1      36.029  32.635  29.434  1.00  0.00     0.031 A 
ATOM     78  C   UNL A   1      36.504  31.996  31.660  1.00  0.00     0.131 A 
ATOM     79  C   UNL A   1      34.850  33.214  29.960  1.00  0.00     0.055 A 
ATOM     80  C   UNL A   1      35.281  32.465  32.074  1.00  0.00     0.041 A 
ATOM     81  F   UNL A   1      37.305  31.386  32.529  1.00  0.00    -0.206 F 
ATOM     82  C   UNL A   1      34.400  33.014  31.185  1.00  0.00     0.022 A 
BRANCH  79  83
ATOM     83  S   UNL A   1      33.892  34.304  28.878  1.00  0.00     0.124 S 
ATOM     84  O   UNL A   1      34.787  35.440  28.377  1.00  0.00    -0.237 OA
ATOM     85  O   UNL A   1      33.366  33.505  27.684  1.00  0.00    -0.237 OA
ATOM     86  O   UNL A   1      32.574  34.958  29.750  1.00  0.00    -0.744 OA
ENDBRANCH  79  83
ENDBRANCH  52  76
BRANCH  64  87
ATOM     87  C   UNL A   1      43.116  35.403  30.367  1.00  0.00     0.023 A 
ATOM     88  C   UNL A   1      43.094  36.435  29.442  1.00  0.00     0.031 A 
ATOM     89  C   UNL A   1      43.620  35.580  31.584  1.00  0.00     0.131 A 
ATOM     90  C   UNL A   1      43.896  37.544  29.801  1.00  0.00     0.055 A 
ATOM     91  C   UNL A   1      44.273  36.744  31.908  1.00  0.00     0.041 A 
ATOM     92  F   UNL A   1      43.491  34.620  32.495  1.00  0.00    -0.206 F 
ATOM     93  C   UNL A   1      44.342  37.783  31.022  1.00  0.00     0.022 A 
BRANCH  90  94
ATOM     94  S   UNL A   1      44.343  38.717  28.497  1.00  0.00     0.124 S 
ATOM     95  O   UNL A   1      44.203  38.039  27.132  1.00  0.00    -0.237 OA
ATOM     96  O   UNL A   1      43.412  39.930  28.562  1.00  0.00    -0.237 OA
ATOM     97  O   UNL A   1      45.960  39.227  28.718  1.00  0.00    -0.744 OA
ENDBRANCH  90  94
ENDBRANCH  64  87
ENDBRANCH  38  39
ENDBRANCH  30  33
ENDBRANCH   1  29
TORSDOF 15
ENDMDL
MODEL 3
REMARK VINA RESULT:     -13.3      2.997      4.044
REMARK SMILES O=C(NCCCNC(=O)c1ccc(-c2c3nc(c(-c4cc(S(=O)(=O)[O-])ccc4F)c4ccc([nH]4)c(-c4cc(S(=O)(=O)[O-])ccc4F)c4nc(c(-c5cc(S(=O)(=O)[O-])ccc5F)c5ccc2[nH]5)C=C4)C=C3)cc1)C1=Cc2cc(S(F)(F)(F)(F)F)cc(Br)c2O[C@@H]1C(F)(F)F
REMARK SMILES IDX 6 1 5 2 4 3 3 4 1 5 2 6 73 8 74 9 89 10 75 11 88 12 76 13
REMARK SMILES IDX 87 14 77 15 85 16 84 17 86 18 90 19 91 20 92 21 93 22 78 23
REMARK SMILES IDX 79 24 80 25 81 26 82 27 83 28 7 29 8 30 9 32 10 33 11 34
REMARK SMILES IDX 72 35 12 36 71 37 13 38 14 39 15 40 65 41 16 42 70 43 64 44
REMARK SMILES IDX 66 45 17 46 69 47 63 48 62 49 18 51 50 52 30 53 49 54 31 55
REMARK SMILES IDX 34 56 48 57 67 58 32 59 33 60 47 62 68 63 35 64 19 65 20 66
REMARK SMILES IDX 28 67 21 68 27 69 29 70 26 71 22 72 23 73 24 74 25 75 51 76
REMARK SMILES IDX 52 77 60 78 53 79 59 80 61 81 58 82 54 83 55 84 56 85 57 86
REMARK SMILES IDX 36 87 37 88 45 89 38 90 44 91 46 92 43 93 39 94 40 95 41 96
REMARK SMILES IDX 42 97
REMARK H PARENT 3 7 7 31 66 50 34 61
REMARK Flexibility Score: inf
ROOT
ATOM      1  C   UNL A   1      32.449  31.982  27.244  1.00  0.00     0.118 C 
ENDROOT
BRANCH   1   2
ATOM      2  C   UNL A   1      31.508  31.432  26.184  1.00  0.00     0.042 C 
BRANCH   2   3
ATOM      3  C   UNL A   1      32.179  30.273  25.465  1.00  0.00     0.118 C 
BRANCH   3   4
ATOM      4  N   UNL A   1      31.225  29.164  25.324  1.00  0.00    -0.352 N 
ATOM      5  O   UNL A   1      30.743  26.870  25.714  1.00  0.00    -0.270 OA
ATOM      6  C   UNL A   1      31.568  27.829  25.836  1.00  0.00     0.251 C 
ATOM      7  H   UNL A   1      30.355  29.315  24.888  1.00  0.00     0.163 HD
BRANCH   6   8
ATOM      8  C   UNL A   1      32.910  27.596  26.510  1.00  0.00     0.067 C 
ATOM      9  C   UNL A   1      33.661  26.511  26.175  1.00  0.00     0.025 C 
ATOM     10  C   UNL A   1      33.414  28.575  27.558  1.00  0.00     0.314 C 
ATOM     11  C   UNL A   1      33.157  25.532  25.128  1.00  0.00     0.020 A 
ATOM     12  O   UNL A   1      32.378  27.394  23.872  1.00  0.00    -0.474 OA
ATOM     13  C   UNL A   1      33.277  24.170  25.350  1.00  0.00     0.036 A 
ATOM     14  C   UNL A   1      32.634  26.002  24.002  1.00  0.00     0.142 A 
ATOM     15  C   UNL A   1      33.080  23.380  24.193  1.00  0.00     0.109 A 
ATOM     16  C   UNL A   1      32.339  25.156  22.960  1.00  0.00     0.062 A 
ATOM     17  C   UNL A   1      32.489  23.803  23.090  1.00  0.00     0.044 A 
ATOM     18  Br  UNL A   1      31.693  25.898  21.265  1.00  0.00    -0.047 Br
BRANCH  10  19
ATOM     19  C   UNL A   1      34.736  29.170  27.102  1.00  0.00     0.429 C 
ATOM     20  F   UNL A   1      35.740  28.497  27.658  1.00  0.00    -0.167 F 
ATOM     21  F   UNL A   1      34.828  29.087  25.778  1.00  0.00    -0.167 F 
ATOM     22  F   UNL A   1      34.800  30.446  27.472  1.00  0.00    -0.167 F 
ENDBRANCH  10  19
BRANCH  15  23
ATOM     23  S   UNL A   1      33.678  21.673  24.227  1.00  0.00     0.310 S 
ATOM     24  F   UNL A   1      34.116  21.792  25.747  1.00  0.00    -0.094 F 
ATOM     25  F   UNL A   1      35.113  22.199  23.844  1.00  0.00    -0.094 F 
ATOM     26  F   UNL A   1      34.193  20.206  24.257  1.00  0.00    -0.094 F 
ATOM     27  F   UNL A   1      32.271  21.181  24.747  1.00  0.00    -0.094 F 
ATOM     28  F   UNL A   1      33.171  23.167  24.312  1.00  0.00    -0.094 F 
ENDBRANCH  15  23
ENDBRANCH   6   8
ENDBRANCH   3   4
ENDBRANCH   2   3
ENDBRANCH   1   2
BRANCH   1  29
ATOM     29  N   UNL A   1      32.162  33.406  27.463  1.00  0.00    -0.352 N 
ATOM     30  C   UNL A   1      33.086  34.228  28.260  1.00  0.00     0.251 C 
ATOM     31  H   UNL A   1      31.352  33.810  27.076  1.00  0.00     0.163 HD
ATOM     32  O   UNL A   1      32.837  35.460  28.449  1.00  0.00    -0.269 OA
BRANCH  30  33
ATOM     33  C   UNL A   1      34.336  33.604  28.857  1.00  0.00     0.039 A 
ATOM     34  C   UNL A   1      35.586  33.971  28.385  1.00  0.00     0.014 A 
ATOM     35  C   UNL A   1      34.201  32.697  29.817  1.00  0.00     0.014 A 
ATOM     36  C   UNL A   1      36.629  33.105  28.792  1.00  0.00     0.010 A 
ATOM     37  C   UNL A   1      35.288  31.983  30.263  1.00  0.00     0.010 A 
ATOM     38  C   UNL A   1      36.544  32.251  29.796  1.00  0.00    -0.014 A 
BRANCH  38  39
ATOM     39  C   UNL A   1      37.779  31.601  30.399  1.00  0.00     0.031 A 
ATOM     40  C   UNL A   1      38.135  32.027  31.680  1.00  0.00     0.074 A 
ATOM     41  C   UNL A   1      38.456  30.622  29.693  1.00  0.00     0.049 A 
ATOM     42  N   UNL A   1      39.127  31.568  32.443  1.00  0.00    -0.248 NA
ATOM     43  C   UNL A   1      37.437  33.091  32.418  1.00  0.00     0.031 C 
ATOM     44  C   UNL A   1      38.099  30.180  28.404  1.00  0.00     0.029 A 
ATOM     45  N   UNL A   1      39.570  29.912  30.088  1.00  0.00    -0.354 N 
ATOM     46  C   UNL A   1      39.143  32.210  33.614  1.00  0.00     0.074 A 
ATOM     47  C   UNL A   1      38.060  33.203  33.611  1.00  0.00     0.031 C 
ATOM     48  C   UNL A   1      38.990  29.226  28.023  1.00  0.00     0.029 A 
ATOM     49  C   UNL A   1      39.918  29.055  29.067  1.00  0.00     0.049 A 
ATOM     50  H   UNL A   1      40.034  30.002  30.951  1.00  0.00     0.167 HD
ATOM     51  C   UNL A   1      40.017  32.005  34.682  1.00  0.00     0.034 A 
ATOM     52  C   UNL A   1      40.983  28.169  29.029  1.00  0.00     0.034 A 
ATOM     53  C   UNL A   1      41.056  31.089  34.661  1.00  0.00     0.049 A 
ATOM     54  C   UNL A   1      41.893  28.006  30.076  1.00  0.00     0.074 A 
ATOM     55  C   UNL A   1      41.942  30.865  35.733  1.00  0.00     0.029 A 
ATOM     56  N   UNL A   1      41.420  30.250  33.630  1.00  0.00    -0.354 N 
ATOM     57  N   UNL A   1      41.885  28.620  31.261  1.00  0.00    -0.248 NA
ATOM     58  C   UNL A   1      43.044  27.095  30.035  1.00  0.00     0.031 C 
ATOM     59  C   UNL A   1      42.832  29.910  35.351  1.00  0.00     0.029 A 
ATOM     60  C   UNL A   1      42.519  29.524  34.034  1.00  0.00     0.049 A 
ATOM     61  H   UNL A   1      40.972  30.181  32.756  1.00  0.00     0.167 HD
ATOM     62  C   UNL A   1      42.904  28.190  32.008  1.00  0.00     0.074 A 
ATOM     63  C   UNL A   1      43.668  27.208  31.227  1.00  0.00     0.031 C 
ATOM     64  C   UNL A   1      43.224  28.574  33.311  1.00  0.00     0.034 A 
BRANCH  51  65
ATOM     65  C   UNL A   1      39.818  32.835  35.941  1.00  0.00     0.023 A 
ATOM     66  C   UNL A   1      39.116  32.296  37.006  1.00  0.00     0.031 A 
ATOM     67  C   UNL A   1      40.321  34.063  35.998  1.00  0.00     0.131 A 
ATOM     68  C   UNL A   1      38.746  33.245  37.987  1.00  0.00     0.055 A 
ATOM     69  C   UNL A   1      40.026  34.890  37.054  1.00  0.00     0.041 A 
ATOM     70  F   UNL A   1      41.114  34.496  35.023  1.00  0.00    -0.206 F 
ATOM     71  C   UNL A   1      39.287  34.441  38.115  1.00  0.00     0.022 A 
BRANCH  68  72
ATOM     72  S   UNL A   1      37.436  32.785  39.151  1.00  0.00     0.124 S 
ATOM     73  O   UNL A   1      37.640  31.337  39.602  1.00  0.00    -0.237 OA
ATOM     74  O   UNL A   1      37.488  33.711  40.369  1.00  0.00    -0.237 OA
ATOM     75  O   UNL A   1      35.916  32.935  38.385  1.00  0.00    -0.744 OA
ENDBRANCH  68  72
ENDBRANCH  51  65
BRANCH  52  76
ATOM     76  C   UNL A   1      41.172  27.329  27.776  1.00  0.00     0.023 A 
ATOM     77  C   UNL A   1      40.750  26.009  27.774  1.00  0.00     0.031 A 
ATOM     78  C   UNL A   1      41.737  27.873  26.705  1.00  0.00     0.131 A 
ATOM     79  C   UNL A   1      41.234  25.255  26.680  1.00  0.00     0.055 A 
ATOM     80  C   UNL A   1      42.059  27.101  25.616  1.00  0.00     0.041 A 
ATOM     81  F   UNL A   1      41.992  29.178  26.686  1.00  0.00    -0.206 F 
ATOM     82  C   UNL A   1      41.726  25.775  25.571  1.00  0.00     0.022 A 
BRANCH  79  83
ATOM     83  S   UNL A   1      41.176  23.450  26.810  1.00  0.00     0.124 S 
ATOM     84  O   UNL A   1      42.175  22.835  25.828  1.00  0.00    -0.237 OA
ATOM     85  O   UNL A   1      41.536  23.029  28.236  1.00  0.00    -0.237 OA
ATOM     86  O   UNL A   1      39.599  22.904  26.436  1.00  0.00    -0.744 OA
ENDBRANCH  79  83
ENDBRANCH  52  76
BRANCH  64  87
ATOM     87  C   UNL A   1      44.419  27.913  33.977  1.00  0.00     0.023 A 
ATOM     88  C   UNL A   1      44.255  26.745  34.704  1.00  0.00     0.031 A 
ATOM     89  C   UNL A   1      45.604  28.507  33.886  1.00  0.00     0.131 A 
ATOM     90  C   UNL A   1      45.350  26.435  35.545  1.00  0.00     0.055 A 
ATOM     91  C   UNL A   1      46.667  28.067  34.636  1.00  0.00     0.041 A 
ATOM     92  F   UNL A   1      45.761  29.539  33.062  1.00  0.00    -0.206 F 
ATOM     93  C   UNL A   1      46.559  26.953  35.423  1.00  0.00     0.022 A 
BRANCH  90  94
ATOM     94  S   UNL A   1      45.075  25.246  36.881  1.00  0.00     0.124 S 
ATOM     95  O   UNL A   1      43.571  25.047  37.084  1.00  0.00    -0.237 OA
ATOM     96  O   UNL A   1      45.722  23.908  36.514  1.00  0.00    -0.237 OA
ATOM     97  O   UNL A   1      45.773  25.838  38.325  1.00  0.00    -0.744 OA
ENDBRANCH  90  94
ENDBRANCH  64  87
ENDBRANCH  38  39
ENDBRANCH  30  33
ENDBRANCH   1  29
TORSDOF 15
ENDMDL
