MODEL 1
REMARK VINA RESULT:     -12.0      0.000      0.000
REMARK SMILES CC(C)(C)n1ccnc(N(CC(=O)NCCCNC(=O)c2ccc(-c3c4nc(c(-c5cc(S(=O)(=O)[O-])ccc5F)c5ccc([nH]5)c(-c5cc(S(=O)(=O)[O-])ccc5F)c5nc(c(-c6cc(S(=O)(=O)[O-])ccc6F)c6ccc3[nH]6)C=C5)C=C4)cc2)CC(F)(F)F)c1=O
REMARK SMILES IDX 16 1 15 2 14 3 12 4 13 5 11 7 10 8 9 9 5 10 6 11 89 12 7 13
REMARK SMILES IDX 90 14 8 15 2 16 1 17 3 18 4 19 84 20 85 21 86 22 87 23 88 24
REMARK SMILES IDX 17 25 18 26 19 27 20 29 21 30 22 31 83 32 23 33 82 34 24 35
REMARK SMILES IDX 25 36 26 37 76 38 27 39 81 40 75 41 77 42 28 43 80 44 74 45
REMARK SMILES IDX 73 46 29 48 61 49 41 50 60 51 42 52 45 53 59 54 78 55 43 56
REMARK SMILES IDX 44 57 58 59 79 60 46 61 30 62 31 63 39 64 32 65 38 66 40 67
REMARK SMILES IDX 37 68 33 69 34 70 35 71 36 72 62 73 63 74 71 75 64 76 70 77
REMARK SMILES IDX 72 78 69 79 65 80 66 81 67 82 68 83 47 84 48 85 56 86 49 87
REMARK SMILES IDX 55 88 57 89 54 90 50 91 51 92 52 93 53 94
REMARK H PARENT 14 6 18 28 77 47 45 58
REMARK Flexibility Score: inf
ROOT
ATOM      1  C   UNL A   1      31.761  28.756  26.522  1.00  0.00     0.042 C 
ENDROOT
BRANCH   1   2
ATOM      2  C   UNL A   1      31.807  27.483  25.686  1.00  0.00     0.117 C 
BRANCH   2   3
ATOM      3  N   UNL A   1      31.272  26.334  26.396  1.00  0.00    -0.354 N 
ATOM      4  C   UNL A   1      31.810  25.090  26.550  1.00  0.00     0.239 C 
ATOM      5  O   UNL A   1      31.160  24.240  27.165  1.00  0.00    -0.273 OA
ATOM      6  H   UNL A   1      30.397  26.472  26.826  1.00  0.00     0.163 HD
BRANCH   4   7
ATOM      7  C   UNL A   1      33.188  24.761  25.975  1.00  0.00     0.218 C 
BRANCH   7   8
ATOM      8  N   UNL A   1      33.139  23.746  24.907  1.00  0.00    -0.334 N 
BRANCH   8   9
ATOM      9  C   UNL A   1      33.850  22.541  25.042  1.00  0.00     0.196 A 
ATOM     10  N   UNL A   1      33.949  20.021  24.900  1.00  0.00    -0.306 N 
ATOM     11  C   UNL A   1      35.317  20.212  24.994  1.00  0.00     0.110 A 
ATOM     12  C   UNL A   1      33.122  21.146  25.023  1.00  0.00     0.294 A 
ATOM     13  C   UNL A   1      35.850  21.421  25.176  1.00  0.00     0.131 A 
ATOM     14  O   UNL A   1      31.902  21.135  25.142  1.00  0.00    -0.265 OA
ATOM     15  N   UNL A   1      35.154  22.592  25.182  1.00  0.00    -0.233 NA
BRANCH  10  16
ATOM     16  C   UNL A   1      33.416  18.649  24.565  1.00  0.00     0.039 C 
ATOM     17  C   UNL A   1      32.590  17.991  25.694  1.00  0.00     0.034 C 
ATOM     18  C   UNL A   1      34.559  17.653  24.247  1.00  0.00     0.034 C 
ATOM     19  C   UNL A   1      32.494  18.775  23.333  1.00  0.00     0.034 C 
ENDBRANCH  10  16
ENDBRANCH   8   9
BRANCH   8  20
ATOM     20  C   UNL A   1      32.226  24.046  23.770  1.00  0.00     0.234 C 
BRANCH  20  21
ATOM     21  C   UNL A   1      32.887  24.630  22.510  1.00  0.00     0.405 C 
ATOM     22  F   UNL A   1      32.169  25.613  21.927  1.00  0.00    -0.169 F 
ATOM     23  F   UNL A   1      34.113  25.128  22.801  1.00  0.00    -0.169 F 
ATOM     24  F   UNL A   1      33.066  23.668  21.571  1.00  0.00    -0.169 F 
ENDBRANCH  20  21
ENDBRANCH   8  20
ENDBRANCH   7   8
ENDBRANCH   4   7
ENDBRANCH   2   3
ENDBRANCH   1   2
BRANCH   1  25
ATOM     25  C   UNL A   1      33.135  29.359  26.793  1.00  0.00     0.118 C 
BRANCH  25  26
ATOM     26  N   UNL A   1      33.075  30.796  27.045  1.00  0.00    -0.352 N 
ATOM     27  C   UNL A   1      34.002  31.614  27.650  1.00  0.00     0.251 C 
ATOM     28  H   UNL A   1      32.253  31.244  26.739  1.00  0.00     0.163 HD
ATOM     29  O   UNL A   1      33.701  32.765  27.950  1.00  0.00    -0.269 OA
BRANCH  27  30
ATOM     30  C   UNL A   1      35.342  31.077  27.968  1.00  0.00     0.039 A 
ATOM     31  C   UNL A   1      35.553  29.697  28.024  1.00  0.00     0.014 A 
ATOM     32  C   UNL A   1      36.379  31.961  28.271  1.00  0.00     0.014 A 
ATOM     33  C   UNL A   1      36.732  29.205  28.571  1.00  0.00     0.010 A 
ATOM     34  C   UNL A   1      37.597  31.459  28.735  1.00  0.00     0.010 A 
ATOM     35  C   UNL A   1      37.762  30.080  28.948  1.00  0.00    -0.014 A 
BRANCH  35  36
ATOM     36  C   UNL A   1      38.993  29.549  29.593  1.00  0.00     0.031 A 
ATOM     37  C   UNL A   1      39.815  28.489  28.907  1.00  0.00     0.074 A 
ATOM     38  C   UNL A   1      39.380  30.033  30.790  1.00  0.00     0.049 A 
ATOM     39  N   UNL A   1      40.868  27.852  29.349  1.00  0.00    -0.248 NA
ATOM     40  C   UNL A   1      39.402  28.088  27.551  1.00  0.00     0.031 C 
ATOM     41  C   UNL A   1      38.677  31.076  31.537  1.00  0.00     0.029 A 
ATOM     42  N   UNL A   1      40.451  29.715  31.591  1.00  0.00    -0.354 N 
ATOM     43  C   UNL A   1      41.221  26.955  28.348  1.00  0.00     0.074 A 
ATOM     44  C   UNL A   1      40.260  27.113  27.280  1.00  0.00     0.031 C 
ATOM     45  C   UNL A   1      39.340  31.324  32.674  1.00  0.00     0.029 A 
ATOM     46  C   UNL A   1      40.466  30.399  32.784  1.00  0.00     0.049 A 
ATOM     47  H   UNL A   1      41.140  29.060  31.336  1.00  0.00     0.167 HD
ATOM     48  C   UNL A   1      42.261  26.089  28.323  1.00  0.00     0.034 A 
ATOM     49  C   UNL A   1      41.262  30.275  33.867  1.00  0.00     0.034 A 
ATOM     50  C   UNL A   1      43.237  25.982  29.378  1.00  0.00     0.049 A 
ATOM     51  C   UNL A   1      42.395  29.281  33.827  1.00  0.00     0.074 A 
ATOM     52  C   UNL A   1      44.360  25.173  29.414  1.00  0.00     0.029 A 
ATOM     53  N   UNL A   1      43.218  26.693  30.569  1.00  0.00    -0.354 N 
ATOM     54  N   UNL A   1      42.747  28.478  32.850  1.00  0.00    -0.248 NA
ATOM     55  C   UNL A   1      43.244  29.174  35.021  1.00  0.00     0.031 C 
ATOM     56  C   UNL A   1      44.967  25.329  30.657  1.00  0.00     0.029 A 
ATOM     57  C   UNL A   1      44.286  26.309  31.361  1.00  0.00     0.049 A 
ATOM     58  H   UNL A   1      42.545  27.369  30.814  1.00  0.00     0.167 HD
ATOM     59  C   UNL A   1      43.870  27.791  33.303  1.00  0.00     0.074 A 
ATOM     60  C   UNL A   1      44.153  28.289  34.631  1.00  0.00     0.031 C 
ATOM     61  C   UNL A   1      44.591  26.831  32.672  1.00  0.00     0.034 A 
BRANCH  48  62
ATOM     62  C   UNL A   1      42.443  25.176  27.136  1.00  0.00     0.023 A 
ATOM     63  C   UNL A   1      41.955  23.855  27.201  1.00  0.00     0.031 A 
ATOM     64  C   UNL A   1      43.260  25.530  26.050  1.00  0.00     0.131 A 
ATOM     65  C   UNL A   1      42.348  22.919  26.237  1.00  0.00     0.055 A 
ATOM     66  C   UNL A   1      43.607  24.605  25.063  1.00  0.00     0.041 A 
ATOM     67  F   UNL A   1      43.749  26.776  25.940  1.00  0.00    -0.206 F 
ATOM     68  C   UNL A   1      43.167  23.287  25.166  1.00  0.00     0.022 A 
BRANCH  65  69
ATOM     69  S   UNL A   1      41.891  21.170  26.392  1.00  0.00     0.124 S 
ATOM     70  O   UNL A   1      42.741  20.548  25.379  1.00  0.00    -0.237 OA
ATOM     71  O   UNL A   1      42.258  20.883  27.776  1.00  0.00    -0.237 OA
ATOM     72  O   UNL A   1      40.462  21.153  26.099  1.00  0.00    -0.744 OA
ENDBRANCH  65  69
ENDBRANCH  48  62
BRANCH  49  73
ATOM     73  C   UNL A   1      40.991  31.123  35.066  1.00  0.00     0.023 A 
ATOM     74  C   UNL A   1      39.781  30.993  35.774  1.00  0.00     0.031 A 
ATOM     75  C   UNL A   1      41.873  32.143  35.454  1.00  0.00     0.131 A 
ATOM     76  C   UNL A   1      39.451  31.917  36.773  1.00  0.00     0.055 A 
ATOM     77  C   UNL A   1      41.578  33.010  36.509  1.00  0.00     0.041 A 
ATOM     78  F   UNL A   1      43.034  32.318  34.804  1.00  0.00    -0.206 F 
ATOM     79  C   UNL A   1      40.352  32.913  37.160  1.00  0.00     0.022 A 
BRANCH  76  80
ATOM     80  S   UNL A   1      37.783  31.953  37.488  1.00  0.00     0.124 S 
ATOM     81  O   UNL A   1      37.042  32.721  36.492  1.00  0.00    -0.237 OA
ATOM     82  O   UNL A   1      37.458  30.531  37.559  1.00  0.00    -0.237 OA
ATOM     83  O   UNL A   1      37.975  32.609  38.778  1.00  0.00    -0.744 OA
ENDBRANCH  76  80
ENDBRANCH  49  73
BRANCH  61  84
ATOM     84  C   UNL A   1      45.793  26.236  33.366  1.00  0.00     0.023 A 
ATOM     85  C   UNL A   1      45.625  25.122  34.212  1.00  0.00     0.031 A 
ATOM     86  C   UNL A   1      47.038  26.886  33.361  1.00  0.00     0.131 A 
ATOM     87  C   UNL A   1      46.660  24.738  35.073  1.00  0.00     0.055 A 
ATOM     88  C   UNL A   1      48.088  26.461  34.178  1.00  0.00     0.041 A 
ATOM     89  F   UNL A   1      47.244  27.959  32.581  1.00  0.00    -0.206 F 
ATOM     90  C   UNL A   1      47.893  25.397  35.055  1.00  0.00     0.022 A 
BRANCH  87  91
ATOM     91  S   UNL A   1      46.402  23.454  36.329  1.00  0.00     0.124 S 
ATOM     92  O   UNL A   1      44.951  23.477  36.493  1.00  0.00    -0.237 OA
ATOM     93  O   UNL A   1      46.936  22.266  35.667  1.00  0.00    -0.237 OA
ATOM     94  O   UNL A   1      47.164  23.928  37.480  1.00  0.00    -0.744 OA
ENDBRANCH  87  91
ENDBRANCH  61  84
ENDBRANCH  35  36
ENDBRANCH  27  30
ENDBRANCH  25  26
ENDBRANCH   1  25
TORSDOF 18
ENDMDL
MODEL 2
REMARK VINA RESULT:     -12.0      2.433      8.147
REMARK SMILES CC(C)(C)n1ccnc(N(CC(=O)NCCCNC(=O)c2ccc(-c3c4nc(c(-c5cc(S(=O)(=O)[O-])ccc5F)c5ccc([nH]5)c(-c5cc(S(=O)(=O)[O-])ccc5F)c5nc(c(-c6cc(S(=O)(=O)[O-])ccc6F)c6ccc3[nH]6)C=C5)C=C4)cc2)CC(F)(F)F)c1=O
REMARK SMILES IDX 16 1 15 2 14 3 12 4 13 5 11 7 10 8 9 9 5 10 6 11 89 12 7 13
REMARK SMILES IDX 90 14 8 15 2 16 1 17 3 18 4 19 84 20 85 21 86 22 87 23 88 24
REMARK SMILES IDX 17 25 18 26 19 27 20 29 21 30 22 31 83 32 23 33 82 34 24 35
REMARK SMILES IDX 25 36 26 37 76 38 27 39 81 40 75 41 77 42 28 43 80 44 74 45
REMARK SMILES IDX 73 46 29 48 61 49 41 50 60 51 42 52 45 53 59 54 78 55 43 56
REMARK SMILES IDX 44 57 58 59 79 60 46 61 30 62 31 63 39 64 32 65 38 66 40 67
REMARK SMILES IDX 37 68 33 69 34 70 35 71 36 72 62 73 63 74 71 75 64 76 70 77
REMARK SMILES IDX 72 78 69 79 65 80 66 81 67 82 68 83 47 84 48 85 56 86 49 87
REMARK SMILES IDX 55 88 57 89 54 90 50 91 51 92 52 93 53 94
REMARK H PARENT 14 6 18 28 77 47 45 58
REMARK Flexibility Score: inf
ROOT
ATOM      1  C   UNL A   1      30.781  31.224  25.502  1.00  0.00     0.042 C 
ENDROOT
BRANCH   1   2
ATOM      2  C   UNL A   1      31.031  29.978  24.661  1.00  0.00     0.117 C 
BRANCH   2   3
ATOM      3  N   UNL A   1      32.446  29.703  24.484  1.00  0.00    -0.354 N 
ATOM      4  C   UNL A   1      33.047  28.651  23.858  1.00  0.00     0.239 C 
ATOM      5  O   UNL A   1      34.281  28.593  23.858  1.00  0.00    -0.273 OA
ATOM      6  H   UNL A   1      33.058  30.370  24.871  1.00  0.00     0.163 HD
BRANCH   4   7
ATOM      7  C   UNL A   1      32.209  27.573  23.169  1.00  0.00     0.218 C 
BRANCH   7   8
ATOM      8  N   UNL A   1      32.121  26.326  23.951  1.00  0.00    -0.334 N 
BRANCH   8   9
ATOM      9  C   UNL A   1      32.902  25.212  23.596  1.00  0.00     0.196 A 
ATOM     10  N   UNL A   1      34.623  23.460  24.185  1.00  0.00    -0.306 N 
ATOM     11  C   UNL A   1      34.192  22.849  23.020  1.00  0.00     0.110 A 
ATOM     12  C   UNL A   1      34.094  24.719  24.498  1.00  0.00     0.294 A 
ATOM     13  C   UNL A   1      33.289  23.417  22.219  1.00  0.00     0.131 A 
ATOM     14  O   UNL A   1      34.492  25.470  25.382  1.00  0.00    -0.265 OA
ATOM     15  N   UNL A   1      32.618  24.571  22.487  1.00  0.00    -0.233 NA
BRANCH  10  16
ATOM     16  C   UNL A   1      35.548  22.710  25.114  1.00  0.00     0.039 C 
ATOM     17  C   UNL A   1      37.026  23.154  25.039  1.00  0.00     0.034 C 
ATOM     18  C   UNL A   1      35.552  21.190  24.812  1.00  0.00     0.034 C 
ATOM     19  C   UNL A   1      35.070  22.939  26.564  1.00  0.00     0.034 C 
ENDBRANCH  10  16
ENDBRANCH   8   9
BRANCH   8  20
ATOM     20  C   UNL A   1      31.254  26.379  25.158  1.00  0.00     0.234 C 
BRANCH  20  21
ATOM     21  C   UNL A   1      30.135  25.325  25.232  1.00  0.00     0.405 C 
ATOM     22  F   UNL A   1      29.180  25.610  26.142  1.00  0.00    -0.169 F 
ATOM     23  F   UNL A   1      29.532  25.185  24.027  1.00  0.00    -0.169 F 
ATOM     24  F   UNL A   1      30.640  24.111  25.563  1.00  0.00    -0.169 F 
ENDBRANCH  20  21
ENDBRANCH   8  20
ENDBRANCH   7   8
ENDBRANCH   4   7
ENDBRANCH   2   3
ENDBRANCH   1   2
BRANCH   1  25
ATOM     25  C   UNL A   1      31.899  31.527  26.494  1.00  0.00     0.118 C 
BRANCH  25  26
ATOM     26  N   UNL A   1      31.949  32.938  26.866  1.00  0.00    -0.352 N 
ATOM     27  C   UNL A   1      32.870  33.602  27.644  1.00  0.00     0.251 C 
ATOM     28  H   UNL A   1      31.217  33.494  26.511  1.00  0.00     0.163 HD
ATOM     29  O   UNL A   1      32.648  34.752  28.010  1.00  0.00    -0.269 OA
BRANCH  27  30
ATOM     30  C   UNL A   1      34.103  32.901  28.061  1.00  0.00     0.039 A 
ATOM     31  C   UNL A   1      34.067  31.541  28.379  1.00  0.00     0.014 A 
ATOM     32  C   UNL A   1      35.290  33.625  28.193  1.00  0.00     0.014 A 
ATOM     33  C   UNL A   1      35.157  30.956  29.012  1.00  0.00     0.010 A 
ATOM     34  C   UNL A   1      36.414  33.007  28.748  1.00  0.00     0.010 A 
ATOM     35  C   UNL A   1      36.338  31.685  29.219  1.00  0.00    -0.014 A 
BRANCH  35  36
ATOM     36  C   UNL A   1      37.474  31.072  29.957  1.00  0.00     0.031 A 
ATOM     37  C   UNL A   1      37.749  31.455  31.388  1.00  0.00     0.074 A 
ATOM     38  C   UNL A   1      38.250  30.156  29.343  1.00  0.00     0.049 A 
ATOM     39  N   UNL A   1      38.737  31.088  32.161  1.00  0.00    -0.248 NA
ATOM     40  C   UNL A   1      36.795  32.373  32.035  1.00  0.00     0.031 C 
ATOM     41  C   UNL A   1      38.064  29.689  27.970  1.00  0.00     0.029 A 
ATOM     42  N   UNL A   1      39.347  29.457  29.787  1.00  0.00    -0.354 N 
ATOM     43  C   UNL A   1      38.545  31.751  33.368  1.00  0.00     0.074 A 
ATOM     44  C   UNL A   1      37.357  32.562  33.221  1.00  0.00     0.031 C 
ATOM     45  C   UNL A   1      39.000  28.773  27.687  1.00  0.00     0.029 A 
ATOM     46  C   UNL A   1      39.907  28.648  28.826  1.00  0.00     0.049 A 
ATOM     47  H   UNL A   1      39.699  29.529  30.704  1.00  0.00     0.167 HD
ATOM     48  C   UNL A   1      39.291  31.678  34.495  1.00  0.00     0.034 A 
ATOM     49  C   UNL A   1      41.043  27.919  28.834  1.00  0.00     0.034 A 
ATOM     50  C   UNL A   1      40.444  30.826  34.636  1.00  0.00     0.049 A 
ATOM     51  C   UNL A   1      41.873  27.878  30.092  1.00  0.00     0.074 A 
ATOM     52  C   UNL A   1      41.228  30.641  35.762  1.00  0.00     0.029 A 
ATOM     53  N   UNL A   1      40.979  30.021  33.641  1.00  0.00    -0.354 N 
ATOM     54  N   UNL A   1      41.648  28.470  31.242  1.00  0.00    -0.248 NA
ATOM     55  C   UNL A   1      43.101  27.072  30.067  1.00  0.00     0.031 C 
ATOM     56  C   UNL A   1      42.282  29.799  35.424  1.00  0.00     0.029 A 
ATOM     57  C   UNL A   1      42.104  29.372  34.117  1.00  0.00     0.049 A 
ATOM     58  H   UNL A   1      40.612  29.926  32.732  1.00  0.00     0.167 HD
ATOM     59  C   UNL A   1      42.691  28.088  32.081  1.00  0.00     0.074 A 
ATOM     60  C   UNL A   1      43.534  27.196  31.316  1.00  0.00     0.031 C 
ATOM     61  C   UNL A   1      42.927  28.453  33.366  1.00  0.00     0.034 A 
BRANCH  48  62
ATOM     62  C   UNL A   1      38.916  32.516  35.693  1.00  0.00     0.023 A 
ATOM     63  C   UNL A   1      39.405  33.834  35.792  1.00  0.00     0.031 A 
ATOM     64  C   UNL A   1      38.268  31.962  36.809  1.00  0.00     0.131 A 
ATOM     65  C   UNL A   1      39.301  34.526  37.004  1.00  0.00     0.055 A 
ATOM     66  C   UNL A   1      38.121  32.676  38.000  1.00  0.00     0.041 A 
ATOM     67  F   UNL A   1      37.782  30.711  36.765  1.00  0.00    -0.206 F 
ATOM     68  C   UNL A   1      38.659  33.957  38.107  1.00  0.00     0.022 A 
BRANCH  65  69
ATOM     69  S   UNL A   1      40.082  36.150  37.223  1.00  0.00     0.124 S 
ATOM     70  O   UNL A   1      39.897  36.751  35.904  1.00  0.00    -0.237 OA
ATOM     71  O   UNL A   1      39.276  36.731  38.292  1.00  0.00    -0.237 OA
ATOM     72  O   UNL A   1      41.463  35.832  37.570  1.00  0.00    -0.744 OA
ENDBRANCH  65  69
ENDBRANCH  48  62
BRANCH  49  73
ATOM     73  C   UNL A   1      41.440  27.182  27.597  1.00  0.00     0.023 A 
ATOM     74  C   UNL A   1      41.350  25.778  27.543  1.00  0.00     0.031 A 
ATOM     75  C   UNL A   1      42.015  27.846  26.503  1.00  0.00     0.131 A 
ATOM     76  C   UNL A   1      41.901  25.082  26.461  1.00  0.00     0.055 A 
ATOM     77  C   UNL A   1      42.486  27.153  25.385  1.00  0.00     0.041 A 
ATOM     78  F   UNL A   1      42.137  29.183  26.509  1.00  0.00    -0.206 F 
ATOM     79  C   UNL A   1      42.450  25.762  25.370  1.00  0.00     0.022 A 
BRANCH  76  80
ATOM     80  S   UNL A   1      42.065  23.275  26.508  1.00  0.00     0.124 S 
ATOM     81  O   UNL A   1      42.567  22.980  25.169  1.00  0.00    -0.237 OA
ATOM     82  O   UNL A   1      43.021  23.090  27.596  1.00  0.00    -0.237 OA
ATOM     83  O   UNL A   1      40.709  22.813  26.790  1.00  0.00    -0.744 OA
ENDBRANCH  76  80
ENDBRANCH  49  73
BRANCH  61  84
ATOM     84  C   UNL A   1      44.129  27.891  34.084  1.00  0.00     0.023 A 
ATOM     85  C   UNL A   1      43.991  26.725  34.863  1.00  0.00     0.031 A 
ATOM     86  C   UNL A   1      45.333  28.610  34.173  1.00  0.00     0.131 A 
ATOM     87  C   UNL A   1      45.007  26.354  35.752  1.00  0.00     0.055 A 
ATOM     88  C   UNL A   1      46.368  28.202  35.016  1.00  0.00     0.041 A 
ATOM     89  F   UNL A   1      45.509  29.734  33.460  1.00  0.00    -0.206 F 
ATOM     90  C   UNL A   1      46.198  27.082  35.827  1.00  0.00     0.022 A 
BRANCH  87  91
ATOM     91  S   UNL A   1      44.770  24.990  36.925  1.00  0.00     0.124 S 
ATOM     92  O   UNL A   1      44.065  24.006  36.108  1.00  0.00    -0.237 OA
ATOM     93  O   UNL A   1      46.146  24.642  37.272  1.00  0.00    -0.237 OA
ATOM     94  O   UNL A   1      43.981  25.583  38.000  1.00  0.00    -0.744 OA
ENDBRANCH  87  91
ENDBRANCH  61  84
ENDBRANCH  35  36
ENDBRANCH  27  30
ENDBRANCH  25  26
ENDBRANCH   1  25
TORSDOF 18
ENDMDL
MODEL 3
REMARK VINA RESULT:     -12.0      1.834      7.763
REMARK SMILES CC(C)(C)n1ccnc(N(CC(=O)NCCCNC(=O)c2ccc(-c3c4nc(c(-c5cc(S(=O)(=O)[O-])ccc5F)c5ccc([nH]5)c(-c5cc(S(=O)(=O)[O-])ccc5F)c5nc(c(-c6cc(S(=O)(=O)[O-])ccc6F)c6ccc3[nH]6)C=C5)C=C4)cc2)CC(F)(F)F)c1=O
REMARK SMILES IDX 16 1 15 2 14 3 12 4 13 5 11 7 10 8 9 9 5 10 6 11 89 12 7 13
REMARK SMILES IDX 90 14 8 15 2 16 1 17 3 18 4 19 84 20 85 21 86 22 87 23 88 24
REMARK SMILES IDX 17 25 18 26 19 27 20 29 21 30 22 31 83 32 23 33 82 34 24 35
REMARK SMILES IDX 25 36 26 37 76 38 27 39 81 40 75 41 77 42 28 43 80 44 74 45
REMARK SMILES IDX 73 46 29 48 61 49 41 50 60 51 42 52 45 53 59 54 78 55 43 56
REMARK SMILES IDX 44 57 58 59 79 60 46 61 30 62 31 63 39 64 32 65 38 66 40 67
REMARK SMILES IDX 37 68 33 69 34 70 35 71 36 72 62 73 63 74 71 75 64 76 70 77
REMARK SMILES IDX 72 78 69 79 65 80 66 81 67 82 68 83 47 84 48 85 56 86 49 87
REMARK SMILES IDX 55 88 57 89 54 90 50 91 51 92 52 93 53 94
REMARK H PARENT 14 6 18 28 77 47 45 58
REMARK Flexibility Score: inf
ROOT
ATOM      1  C   UNL A   1      31.614  28.571  26.876  1.00  0.00     0.042 C 
ENDROOT
BRANCH   1   2
ATOM      2  C   UNL A   1      31.756  27.089  26.548  1.00  0.00     0.117 C 
BRANCH   2   3
ATOM      3  N   UNL A   1      33.099  26.742  26.117  1.00  0.00    -0.354 N 
ATOM      4  C   UNL A   1      33.635  25.512  25.877  1.00  0.00     0.239 C 
ATOM      5  O   UNL A   1      34.824  25.441  25.553  1.00  0.00    -0.273 OA
ATOM      6  H   UNL A   1      33.708  27.503  25.978  1.00  0.00     0.163 HD
BRANCH   4   7
ATOM      7  C   UNL A   1      32.779  24.251  26.005  1.00  0.00     0.218 C 
BRANCH   7   8
ATOM      8  N   UNL A   1      32.929  23.336  24.858  1.00  0.00    -0.334 N 
BRANCH   8   9
ATOM      9  C   UNL A   1      33.694  22.163  24.982  1.00  0.00     0.196 A 
ATOM     10  N   UNL A   1      33.898  19.650  24.841  1.00  0.00    -0.306 N 
ATOM     11  C   UNL A   1      35.258  19.899  24.914  1.00  0.00     0.110 A 
ATOM     12  C   UNL A   1      33.026  20.739  24.975  1.00  0.00     0.294 A 
ATOM     13  C   UNL A   1      35.741  21.131  25.086  1.00  0.00     0.131 A 
ATOM     14  O   UNL A   1      31.809  20.675  25.114  1.00  0.00    -0.265 OA
ATOM     15  N   UNL A   1      34.996  22.270  25.102  1.00  0.00    -0.233 NA
BRANCH  10  16
ATOM     16  C   UNL A   1      33.420  18.255  24.514  1.00  0.00     0.039 C 
ATOM     17  C   UNL A   1      32.626  17.570  25.650  1.00  0.00     0.034 C 
ATOM     18  C   UNL A   1      34.601  17.305  24.197  1.00  0.00     0.034 C 
ATOM     19  C   UNL A   1      32.489  18.338  23.286  1.00  0.00     0.034 C 
ENDBRANCH  10  16
ENDBRANCH   8   9
BRANCH   8  20
ATOM     20  C   UNL A   1      32.148  23.690  23.641  1.00  0.00     0.234 C 
BRANCH  20  21
ATOM     21  C   UNL A   1      32.971  24.036  22.388  1.00  0.00     0.405 C 
ATOM     22  F   UNL A   1      34.183  24.562  22.664  1.00  0.00    -0.169 F 
ATOM     23  F   UNL A   1      33.159  22.935  21.622  1.00  0.00    -0.169 F 
ATOM     24  F   UNL A   1      32.318  24.943  21.620  1.00  0.00    -0.169 F 
ENDBRANCH  20  21
ENDBRANCH   8  20
ENDBRANCH   7   8
ENDBRANCH   4   7
ENDBRANCH   2   3
ENDBRANCH   1   2
BRANCH   1  25
ATOM     25  C   UNL A   1      32.663  29.448  26.203  1.00  0.00     0.118 C 
BRANCH  25  26
ATOM     26  N   UNL A   1      32.460  30.869  26.472  1.00  0.00    -0.352 N 
ATOM     27  C   UNL A   1      33.217  31.729  27.233  1.00  0.00     0.251 C 
ATOM     28  H   UNL A   1      31.665  31.269  26.048  1.00  0.00     0.163 HD
ATOM     29  O   UNL A   1      32.790  32.847  27.504  1.00  0.00    -0.269 OA
BRANCH  27  30
ATOM     30  C   UNL A   1      34.527  31.276  27.749  1.00  0.00     0.039 A 
ATOM     31  C   UNL A   1      34.738  29.927  28.045  1.00  0.00     0.014 A 
ATOM     32  C   UNL A   1      35.528  32.217  27.996  1.00  0.00     0.014 A 
ATOM     33  C   UNL A   1      35.867  29.552  28.764  1.00  0.00     0.010 A 
ATOM     34  C   UNL A   1      36.702  31.820  28.640  1.00  0.00     0.010 A 
ATOM     35  C   UNL A   1      36.855  30.495  29.085  1.00  0.00    -0.014 A 
BRANCH  35  36
ATOM     36  C   UNL A   1      38.025  30.098  29.912  1.00  0.00     0.031 A 
ATOM     37  C   UNL A   1      38.200  30.657  31.300  1.00  0.00     0.074 A 
ATOM     38  C   UNL A   1      38.922  29.221  29.420  1.00  0.00     0.049 A 
ATOM     39  N   UNL A   1      39.194  30.490  32.134  1.00  0.00    -0.248 NA
ATOM     40  C   UNL A   1      37.125  31.519  31.821  1.00  0.00     0.031 C 
ATOM     41  C   UNL A   1      38.843  28.596  28.100  1.00  0.00     0.029 A 
ATOM     42  N   UNL A   1      40.074  28.705  29.963  1.00  0.00    -0.354 N 
ATOM     43  C   UNL A   1      38.884  31.247  33.257  1.00  0.00     0.074 A 
ATOM     44  C   UNL A   1      37.618  31.893  32.994  1.00  0.00     0.031 C 
ATOM     45  C   UNL A   1      39.886  27.771  27.941  1.00  0.00     0.029 A 
ATOM     46  C   UNL A   1      40.758  27.871  29.109  1.00  0.00     0.049 A 
ATOM     47  H   UNL A   1      40.381  28.912  30.876  1.00  0.00     0.167 HD
ATOM     48  C   UNL A   1      39.590  31.378  34.404  1.00  0.00     0.034 A 
ATOM     49  C   UNL A   1      41.969  27.286  29.223  1.00  0.00     0.034 A 
ATOM     50  C   UNL A   1      40.827  30.686  34.665  1.00  0.00     0.049 A 
ATOM     51  C   UNL A   1      42.750  27.472  30.499  1.00  0.00     0.074 A 
ATOM     52  C   UNL A   1      41.584  30.711  35.823  1.00  0.00     0.029 A 
ATOM     53  N   UNL A   1      41.486  29.850  33.775  1.00  0.00    -0.354 N 
ATOM     54  N   UNL A   1      42.417  28.149  31.573  1.00  0.00    -0.248 NA
ATOM     55  C   UNL A   1      44.062  26.816  30.591  1.00  0.00     0.031 C 
ATOM     56  C   UNL A   1      42.739  29.968  35.604  1.00  0.00     0.029 A 
ATOM     57  C   UNL A   1      42.660  29.390  34.346  1.00  0.00     0.049 A 
ATOM     58  H   UNL A   1      41.167  29.620  32.873  1.00  0.00     0.167 HD
ATOM     59  C   UNL A   1      43.464  27.981  32.474  1.00  0.00     0.074 A 
ATOM     60  C   UNL A   1      44.431  27.119  31.830  1.00  0.00     0.031 C 
ATOM     61  C   UNL A   1      43.608  28.502  33.718  1.00  0.00     0.034 A 
BRANCH  48  62
ATOM     62  C   UNL A   1      39.078  32.286  35.495  1.00  0.00     0.023 A 
ATOM     63  C   UNL A   1      39.553  33.611  35.570  1.00  0.00     0.031 A 
ATOM     64  C   UNL A   1      38.303  31.797  36.560  1.00  0.00     0.131 A 
ATOM     65  C   UNL A   1      39.308  34.376  36.716  1.00  0.00     0.055 A 
ATOM     66  C   UNL A   1      38.018  32.582  37.679  1.00  0.00     0.041 A 
ATOM     67  F   UNL A   1      37.825  30.543  36.537  1.00  0.00    -0.206 F 
ATOM     68  C   UNL A   1      38.540  33.871  37.769  1.00  0.00     0.022 A 
BRANCH  65  69
ATOM     69  S   UNL A   1      40.059  36.014  36.924  1.00  0.00     0.124 S 
ATOM     70  O   UNL A   1      41.467  35.675  37.120  1.00  0.00    -0.237 OA
ATOM     71  O   UNL A   1      39.744  36.655  35.651  1.00  0.00    -0.237 OA
ATOM     72  O   UNL A   1      39.385  36.564  38.095  1.00  0.00    -0.744 OA
ENDBRANCH  65  69
ENDBRANCH  48  62
BRANCH  49  73
ATOM     73  C   UNL A   1      42.492  26.476  28.082  1.00  0.00     0.023 A 
ATOM     74  C   UNL A   1      42.196  25.103  27.986  1.00  0.00     0.031 A 
ATOM     75  C   UNL A   1      43.379  27.024  27.143  1.00  0.00     0.131 A 
ATOM     76  C   UNL A   1      42.843  24.312  27.030  1.00  0.00     0.055 A 
ATOM     77  C   UNL A   1      43.957  26.248  26.136  1.00  0.00     0.041 A 
ATOM     78  F   UNL A   1      43.705  28.325  27.197  1.00  0.00    -0.206 F 
ATOM     79  C   UNL A   1      43.706  24.880  26.089  1.00  0.00     0.022 A 
BRANCH  76  80
ATOM     80  S   UNL A   1      42.709  22.502  27.078  1.00  0.00     0.124 S 
ATOM     81  O   UNL A   1      43.837  22.091  26.249  1.00  0.00    -0.237 OA
ATOM     82  O   UNL A   1      42.843  22.231  28.507  1.00  0.00    -0.237 OA
ATOM     83  O   UNL A   1      41.385  22.240  26.521  1.00  0.00    -0.744 OA
ENDBRANCH  76  80
ENDBRANCH  49  73
BRANCH  61  84
ATOM     84  C   UNL A   1      44.839  28.161  34.523  1.00  0.00     0.023 A 
ATOM     85  C   UNL A   1      44.805  27.073  35.417  1.00  0.00     0.031 A 
ATOM     86  C   UNL A   1      45.949  29.021  34.565  1.00  0.00     0.131 A 
ATOM     87  C   UNL A   1      45.823  26.917  36.366  1.00  0.00     0.055 A 
ATOM     88  C   UNL A   1      46.992  28.826  35.472  1.00  0.00     0.041 A 
ATOM     89  F   UNL A   1      46.023  30.078  33.740  1.00  0.00    -0.206 F 
ATOM     90  C   UNL A   1      46.920  27.784  36.393  1.00  0.00     0.022 A 
BRANCH  87  91
ATOM     91  S   UNL A   1      45.699  25.664  37.672  1.00  0.00     0.124 S 
ATOM     92  O   UNL A   1      44.675  24.769  37.137  1.00  0.00    -0.237 OA
ATOM     93  O   UNL A   1      47.053  25.116  37.700  1.00  0.00    -0.237 OA
ATOM     94  O   UNL A   1      45.303  26.423  38.854  1.00  0.00    -0.744 OA
ENDBRANCH  87  91
ENDBRANCH  61  84
ENDBRANCH  35  36
ENDBRANCH  27  30
ENDBRANCH  25  26
ENDBRANCH   1  25
TORSDOF 18
ENDMDL
