MODEL 1
REMARK VINA RESULT:     -11.9      0.000      0.000
REMARK SMILES CC1(C)NC(=O)N(CCC(=O)N2CCC[C@H]2C(=O)NCCCNC(=O)c2ccc(-c3c4nc(c(-c5cc(S(=O)(=O)[O-])ccc5F)c5ccc([nH]5)c(-c5cc(S(=O)(=O)[O-])ccc5F)c5nc(c(-c6cc(S(=O)(=O)[O-])ccc6F)c6ccc3[nH]6)C=C5)C=C4)cc2)C1=O
REMARK SMILES IDX 20 1 19 2 17 3 18 4 16 6 12 7 13 8 14 9 15 10 10 11 11 12
REMARK SMILES IDX 9 13 8 14 7 15 1 16 2 17 3 18 4 19 89 20 5 21 90 23 6 24
REMARK SMILES IDX 21 25 22 26 23 27 24 28 25 30 26 31 27 32 88 33 28 34 87 35
REMARK SMILES IDX 29 36 30 37 31 38 81 39 32 40 86 41 80 42 82 43 33 44 85 45
REMARK SMILES IDX 79 46 78 47 34 49 66 50 46 51 65 52 47 53 50 54 64 55 83 56
REMARK SMILES IDX 48 57 49 58 63 60 84 61 51 62 35 63 36 64 44 65 37 66 43 67
REMARK SMILES IDX 45 68 42 69 38 70 39 71 40 72 41 73 67 74 68 75 76 76 69 77
REMARK SMILES IDX 75 78 77 79 74 80 70 81 71 82 72 83 73 84 52 85 53 86 61 87
REMARK SMILES IDX 54 88 60 89 62 90 59 91 55 92 56 93 57 94 58 95
REMARK H PARENT 19 5 4 22 23 29 82 48 50 59
REMARK Flexibility Score: inf
ROOT
ATOM      1  C   UNL A   1      31.987  29.998  26.488  1.00  0.00     0.117 C 
ENDROOT
BRANCH   1   2
ATOM      2  N   UNL A   1      32.097  29.620  25.096  1.00  0.00    -0.354 N 
ATOM      3  C   UNL A   1      32.946  28.645  24.681  1.00  0.00     0.242 C 
ATOM      4  O   UNL A   1      33.837  28.987  23.905  1.00  0.00    -0.273 OA
ATOM      5  H   UNL A   1      31.540  30.084  24.429  1.00  0.00     0.163 HD
BRANCH   3   6
ATOM      6  C   UNL A   1      32.799  27.205  25.166  1.00  0.00     0.174 C 
ATOM      7  N   UNL A   1      32.450  26.228  24.164  1.00  0.00    -0.331 N 
ATOM      8  C   UNL A   1      33.572  25.334  23.945  1.00  0.00     0.120 C 
ATOM      9  C   UNL A   1      34.398  25.379  25.225  1.00  0.00     0.024 C 
ATOM     10  C   UNL A   1      33.931  26.608  25.993  1.00  0.00     0.037 C 
BRANCH   7  11
ATOM     11  C   UNL A   1      31.179  25.945  23.697  1.00  0.00     0.225 C 
ATOM     12  O   UNL A   1      31.022  25.188  22.732  1.00  0.00    -0.275 OA
BRANCH  11  13
ATOM     13  C   UNL A   1      29.950  26.661  24.276  1.00  0.00     0.122 C 
BRANCH  13  14
ATOM     14  C   UNL A   1      28.751  26.997  23.374  1.00  0.00     0.140 C 
BRANCH  14  15
ATOM     15  N   UNL A   1      28.457  28.414  23.170  1.00  0.00    -0.262 N 
ATOM     16  C   UNL A   1      28.483  31.403  21.421  1.00  0.00     0.045 C 
ATOM     17  C   UNL A   1      28.611  30.772  22.803  1.00  0.00     0.115 C 
ATOM     18  C   UNL A   1      29.234  31.752  23.799  1.00  0.00     0.045 C 
ATOM     19  N   UNL A   1      27.303  30.312  23.219  1.00  0.00    -0.324 N 
ATOM     20  C   UNL A   1      29.340  29.394  22.773  1.00  0.00     0.255 C 
ATOM     21  C   UNL A   1      27.205  28.942  23.278  1.00  0.00     0.325 C 
ATOM     22  H   UNL A   1      26.558  30.919  23.436  1.00  0.00     0.166 HD
ATOM     23  O   UNL A   1      30.494  29.225  22.401  1.00  0.00    -0.272 OA
ATOM     24  O   UNL A   1      26.161  28.356  23.471  1.00  0.00    -0.248 OA
ENDBRANCH  14  15
ENDBRANCH  13  14
ENDBRANCH  11  13
ENDBRANCH   7  11
ENDBRANCH   3   6
ENDBRANCH   1   2
BRANCH   1  25
ATOM     25  C   UNL A   1      31.830  31.510  26.628  1.00  0.00     0.042 C 
BRANCH  25  26
ATOM     26  C   UNL A   1      33.017  32.178  27.321  1.00  0.00     0.118 C 
BRANCH  26  27
ATOM     27  N   UNL A   1      32.773  33.599  27.547  1.00  0.00    -0.352 N 
ATOM     28  C   UNL A   1      33.207  34.384  28.584  1.00  0.00     0.251 C 
ATOM     29  H   UNL A   1      32.226  34.053  26.867  1.00  0.00     0.163 HD
ATOM     30  O   UNL A   1      32.644  35.444  28.832  1.00  0.00    -0.269 OA
BRANCH  28  31
ATOM     31  C   UNL A   1      34.347  33.915  29.390  1.00  0.00     0.039 A 
ATOM     32  C   UNL A   1      34.129  33.036  30.450  1.00  0.00     0.014 A 
ATOM     33  C   UNL A   1      35.638  34.334  29.059  1.00  0.00     0.014 A 
ATOM     34  C   UNL A   1      35.226  32.522  31.143  1.00  0.00     0.010 A 
ATOM     35  C   UNL A   1      36.728  33.754  29.689  1.00  0.00     0.010 A 
ATOM     36  C   UNL A   1      36.533  32.849  30.742  1.00  0.00    -0.014 A 
BRANCH  36  37
ATOM     37  C   UNL A   1      37.720  32.272  31.418  1.00  0.00     0.031 A 
ATOM     38  C   UNL A   1      38.481  31.159  30.756  1.00  0.00     0.074 A 
ATOM     39  C   UNL A   1      38.049  32.691  32.656  1.00  0.00     0.049 A 
ATOM     40  N   UNL A   1      39.469  30.441  31.220  1.00  0.00    -0.248 NA
ATOM     41  C   UNL A   1      38.043  30.776  29.403  1.00  0.00     0.031 C 
ATOM     42  C   UNL A   1      37.348  33.733  33.410  1.00  0.00     0.029 A 
ATOM     43  N   UNL A   1      39.044  32.281  33.505  1.00  0.00    -0.354 N 
ATOM     44  C   UNL A   1      39.758  29.510  30.227  1.00  0.00     0.074 A 
ATOM     45  C   UNL A   1      38.798  29.716  29.165  1.00  0.00     0.031 C 
ATOM     46  C   UNL A   1      37.946  33.893  34.601  1.00  0.00     0.029 A 
ATOM     47  C   UNL A   1      39.036  32.930  34.719  1.00  0.00     0.049 A 
ATOM     48  H   UNL A   1      39.701  31.588  33.270  1.00  0.00     0.167 HD
ATOM     49  C   UNL A   1      40.749  28.587  30.198  1.00  0.00     0.034 A 
ATOM     50  C   UNL A   1      39.806  32.750  35.811  1.00  0.00     0.034 A 
ATOM     51  C   UNL A   1      41.702  28.414  31.267  1.00  0.00     0.049 A 
ATOM     52  C   UNL A   1      40.883  31.696  35.769  1.00  0.00     0.074 A 
ATOM     53  C   UNL A   1      42.795  27.568  31.316  1.00  0.00     0.029 A 
ATOM     54  N   UNL A   1      41.665  29.088  32.482  1.00  0.00    -0.354 N 
ATOM     55  N   UNL A   1      41.194  30.873  34.793  1.00  0.00    -0.248 NA
ATOM     56  C   UNL A   1      41.713  31.547  36.970  1.00  0.00     0.031 C 
ATOM     57  C   UNL A   1      43.370  27.671  32.587  1.00  0.00     0.029 A 
ATOM     58  C   UNL A   1      42.688  28.642  33.304  1.00  0.00     0.049 A 
ATOM     59  H   UNL A   1      41.008  29.780  32.722  1.00  0.00     0.167 HD
ATOM     60  C   UNL A   1      42.269  30.123  35.257  1.00  0.00     0.074 A 
ATOM     61  C   UNL A   1      42.565  30.606  36.591  1.00  0.00     0.031 C 
ATOM     62  C   UNL A   1      42.952  29.124  34.640  1.00  0.00     0.034 A 
BRANCH  49  63
ATOM     63  C   UNL A   1      40.827  27.683  28.991  1.00  0.00     0.023 A 
ATOM     64  C   UNL A   1      41.791  27.872  27.984  1.00  0.00     0.031 A 
ATOM     65  C   UNL A   1      39.903  26.636  28.825  1.00  0.00     0.131 A 
ATOM     66  C   UNL A   1      41.759  27.083  26.824  1.00  0.00     0.055 A 
ATOM     67  C   UNL A   1      39.931  25.798  27.709  1.00  0.00     0.041 A 
ATOM     68  F   UNL A   1      38.944  26.420  29.740  1.00  0.00    -0.206 F 
ATOM     69  C   UNL A   1      40.852  26.030  26.692  1.00  0.00     0.022 A 
BRANCH  66  70
ATOM     70  S   UNL A   1      42.817  27.554  25.428  1.00  0.00     0.124 S 
ATOM     71  O   UNL A   1      44.025  28.007  26.113  1.00  0.00    -0.237 OA
ATOM     72  O   UNL A   1      42.933  26.305  24.685  1.00  0.00    -0.237 OA
ATOM     73  O   UNL A   1      42.055  28.609  24.761  1.00  0.00    -0.744 OA
ENDBRANCH  66  70
ENDBRANCH  49  63
BRANCH  50  74
ATOM     74  C   UNL A   1      39.572  33.561  37.040  1.00  0.00     0.023 A 
ATOM     75  C   UNL A   1      40.294  34.740  37.279  1.00  0.00     0.031 A 
ATOM     76  C   UNL A   1      38.638  33.153  38.011  1.00  0.00     0.131 A 
ATOM     77  C   UNL A   1      40.104  35.448  38.477  1.00  0.00     0.055 A 
ATOM     78  C   UNL A   1      38.413  33.890  39.175  1.00  0.00     0.041 A 
ATOM     79  F   UNL A   1      37.916  32.036  37.831  1.00  0.00    -0.206 F 
ATOM     80  C   UNL A   1      39.158  35.039  39.419  1.00  0.00     0.022 A 
BRANCH  77  81
ATOM     81  S   UNL A   1      41.171  36.873  38.823  1.00  0.00     0.124 S 
ATOM     82  O   UNL A   1      41.889  36.426  40.012  1.00  0.00    -0.237 OA
ATOM     83  O   UNL A   1      41.957  36.968  37.596  1.00  0.00    -0.237 OA
ATOM     84  O   UNL A   1      40.223  37.964  39.039  1.00  0.00    -0.744 OA
ENDBRANCH  77  81
ENDBRANCH  50  74
BRANCH  62  85
ATOM     85  C   UNL A   1      44.102  28.509  35.399  1.00  0.00     0.023 A 
ATOM     86  C   UNL A   1      43.900  27.480  36.335  1.00  0.00     0.031 A 
ATOM     87  C   UNL A   1      45.418  28.952  35.174  1.00  0.00     0.131 A 
ATOM     88  C   UNL A   1      44.991  26.959  37.045  1.00  0.00     0.055 A 
ATOM     89  C   UNL A   1      46.507  28.387  35.837  1.00  0.00     0.041 A 
ATOM     90  F   UNL A   1      45.667  29.935  34.293  1.00  0.00    -0.206 F 
ATOM     91  C   UNL A   1      46.296  27.390  36.787  1.00  0.00     0.022 A 
BRANCH  88  92
ATOM     92  S   UNL A   1      44.677  25.762  38.370  1.00  0.00     0.124 S 
ATOM     93  O   UNL A   1      43.928  26.565  39.331  1.00  0.00    -0.237 OA
ATOM     94  O   UNL A   1      43.921  24.722  37.681  1.00  0.00    -0.237 OA
ATOM     95  O   UNL A   1      46.018  25.369  38.802  1.00  0.00    -0.744 OA
ENDBRANCH  88  92
ENDBRANCH  62  85
ENDBRANCH  36  37
ENDBRANCH  28  31
ENDBRANCH  26  27
ENDBRANCH  25  26
ENDBRANCH   1  25
TORSDOF 17
ENDMDL
MODEL 2
REMARK VINA RESULT:     -11.8      2.374      3.648
REMARK SMILES CC1(C)NC(=O)N(CCC(=O)N2CCC[C@H]2C(=O)NCCCNC(=O)c2ccc(-c3c4nc(c(-c5cc(S(=O)(=O)[O-])ccc5F)c5ccc([nH]5)c(-c5cc(S(=O)(=O)[O-])ccc5F)c5nc(c(-c6cc(S(=O)(=O)[O-])ccc6F)c6ccc3[nH]6)C=C5)C=C4)cc2)C1=O
REMARK SMILES IDX 20 1 19 2 17 3 18 4 16 6 12 7 13 8 14 9 15 10 10 11 11 12
REMARK SMILES IDX 9 13 8 14 7 15 1 16 2 17 3 18 4 19 89 20 5 21 90 23 6 24
REMARK SMILES IDX 21 25 22 26 23 27 24 28 25 30 26 31 27 32 88 33 28 34 87 35
REMARK SMILES IDX 29 36 30 37 31 38 81 39 32 40 86 41 80 42 82 43 33 44 85 45
REMARK SMILES IDX 79 46 78 47 34 49 66 50 46 51 65 52 47 53 50 54 64 55 83 56
REMARK SMILES IDX 48 57 49 58 63 60 84 61 51 62 35 63 36 64 44 65 37 66 43 67
REMARK SMILES IDX 45 68 42 69 38 70 39 71 40 72 41 73 67 74 68 75 76 76 69 77
REMARK SMILES IDX 75 78 77 79 74 80 70 81 71 82 72 83 73 84 52 85 53 86 61 87
REMARK SMILES IDX 54 88 60 89 62 90 59 91 55 92 56 93 57 94 58 95
REMARK H PARENT 19 5 4 22 23 29 82 48 50 59
REMARK Flexibility Score: inf
ROOT
ATOM      1  C   UNL A   1      31.321  30.576  25.889  1.00  0.00     0.117 C 
ENDROOT
BRANCH   1   2
ATOM      2  N   UNL A   1      31.930  29.646  26.815  1.00  0.00    -0.354 N 
ATOM      3  C   UNL A   1      31.779  28.303  26.688  1.00  0.00     0.242 C 
ATOM      4  O   UNL A   1      31.210  27.724  27.613  1.00  0.00    -0.273 OA
ATOM      5  H   UNL A   1      32.469  29.998  27.560  1.00  0.00     0.163 HD
BRANCH   3   6
ATOM      6  C   UNL A   1      32.283  27.560  25.453  1.00  0.00     0.174 C 
ATOM      7  N   UNL A   1      31.596  27.840  24.216  1.00  0.00    -0.331 N 
ATOM      8  C   UNL A   1      32.481  28.561  23.321  1.00  0.00     0.120 C 
ATOM      9  C   UNL A   1      33.898  28.208  23.760  1.00  0.00     0.024 C 
ATOM     10  C   UNL A   1      33.777  27.602  25.152  1.00  0.00     0.037 C 
BRANCH   7  11
ATOM     11  C   UNL A   1      30.415  27.266  23.782  1.00  0.00     0.225 C 
ATOM     12  O   UNL A   1      29.522  27.968  23.292  1.00  0.00    -0.275 OA
BRANCH  11  13
ATOM     13  C   UNL A   1      30.133  25.774  24.015  1.00  0.00     0.122 C 
BRANCH  13  14
ATOM     14  C   UNL A   1      30.798  24.710  23.126  1.00  0.00     0.140 C 
BRANCH  14  15
ATOM     15  N   UNL A   1      32.185  24.369  23.435  1.00  0.00    -0.262 N 
ATOM     16  C   UNL A   1      34.797  22.215  24.166  1.00  0.00     0.045 C 
ATOM     17  C   UNL A   1      34.190  23.580  24.471  1.00  0.00     0.115 C 
ATOM     18  C   UNL A   1      34.769  24.161  25.763  1.00  0.00     0.045 C 
ATOM     19  N   UNL A   1      34.403  24.442  23.328  1.00  0.00    -0.324 N 
ATOM     20  C   UNL A   1      32.632  23.564  24.460  1.00  0.00     0.255 C 
ATOM     21  C   UNL A   1      33.241  24.758  22.666  1.00  0.00     0.325 C 
ATOM     22  H   UNL A   1      35.291  24.768  23.053  1.00  0.00     0.166 HD
ATOM     23  O   UNL A   1      31.936  22.896  25.214  1.00  0.00    -0.272 OA
ATOM     24  O   UNL A   1      33.217  25.353  21.609  1.00  0.00    -0.248 OA
ENDBRANCH  14  15
ENDBRANCH  13  14
ENDBRANCH  11  13
ENDBRANCH   7  11
ENDBRANCH   3   6
ENDBRANCH   1   2
BRANCH   1  25
ATOM     25  C   UNL A   1      31.298  31.986  26.472  1.00  0.00     0.042 C 
BRANCH  25  26
ATOM     26  C   UNL A   1      32.655  32.440  27.008  1.00  0.00     0.118 C 
BRANCH  26  27
ATOM     27  N   UNL A   1      32.606  33.816  27.492  1.00  0.00    -0.352 N 
ATOM     28  C   UNL A   1      33.296  34.377  28.535  1.00  0.00     0.251 C 
ATOM     29  H   UNL A   1      32.000  34.419  27.005  1.00  0.00     0.163 HD
ATOM     30  O   UNL A   1      32.900  35.419  29.045  1.00  0.00    -0.269 OA
BRANCH  28  31
ATOM     31  C   UNL A   1      34.504  33.694  29.028  1.00  0.00     0.039 A 
ATOM     32  C   UNL A   1      35.762  34.229  28.752  1.00  0.00     0.014 A 
ATOM     33  C   UNL A   1      34.370  32.535  29.796  1.00  0.00     0.014 A 
ATOM     34  C   UNL A   1      36.892  33.629  29.309  1.00  0.00     0.010 A 
ATOM     35  C   UNL A   1      35.484  31.995  30.420  1.00  0.00     0.010 A 
ATOM     36  C   UNL A   1      36.756  32.532  30.175  1.00  0.00    -0.014 A 
BRANCH  36  37
ATOM     37  C   UNL A   1      37.932  31.909  30.830  1.00  0.00     0.031 A 
ATOM     38  C   UNL A   1      38.709  30.848  30.103  1.00  0.00     0.074 A 
ATOM     39  C   UNL A   1      38.236  32.238  32.101  1.00  0.00     0.049 A 
ATOM     40  N   UNL A   1      39.690  30.100  30.534  1.00  0.00    -0.248 NA
ATOM     41  C   UNL A   1      38.298  30.563  28.719  1.00  0.00     0.031 C 
ATOM     42  C   UNL A   1      37.518  33.221  32.915  1.00  0.00     0.029 A 
ATOM     43  N   UNL A   1      39.216  31.769  32.937  1.00  0.00    -0.354 N 
ATOM     44  C   UNL A   1      40.001  29.244  29.482  1.00  0.00     0.074 A 
ATOM     45  C   UNL A   1      39.061  29.524  28.419  1.00  0.00     0.031 C 
ATOM     46  C   UNL A   1      38.093  33.295  34.126  1.00  0.00     0.029 A 
ATOM     47  C   UNL A   1      39.184  32.329  34.195  1.00  0.00     0.049 A 
ATOM     48  H   UNL A   1      39.880  31.096  32.665  1.00  0.00     0.167 HD
ATOM     49  C   UNL A   1      40.996  28.327  29.405  1.00  0.00     0.034 A 
ATOM     50  C   UNL A   1      39.933  32.072  35.285  1.00  0.00     0.034 A 
ATOM     51  C   UNL A   1      41.929  28.079  30.476  1.00  0.00     0.049 A 
ATOM     52  C   UNL A   1      41.014  31.025  35.187  1.00  0.00     0.074 A 
ATOM     53  C   UNL A   1      43.024  27.234  30.485  1.00  0.00     0.029 A 
ATOM     54  N   UNL A   1      41.867  28.663  31.736  1.00  0.00    -0.354 N 
ATOM     55  N   UNL A   1      41.346  30.276  34.160  1.00  0.00    -0.248 NA
ATOM     56  C   UNL A   1      41.822  30.791  36.390  1.00  0.00     0.031 C 
ATOM     57  C   UNL A   1      43.573  27.246  31.771  1.00  0.00     0.029 A 
ATOM     58  C   UNL A   1      42.875  28.161  32.543  1.00  0.00     0.049 A 
ATOM     59  H   UNL A   1      41.203  29.335  32.013  1.00  0.00     0.167 HD
ATOM     60  C   UNL A   1      42.415  29.496  34.590  1.00  0.00     0.074 A 
ATOM     61  C   UNL A   1      42.684  29.882  35.961  1.00  0.00     0.031 C 
ATOM     62  C   UNL A   1      43.113  28.546  33.915  1.00  0.00     0.034 A 
BRANCH  49  63
ATOM     63  C   UNL A   1      41.099  27.513  28.137  1.00  0.00     0.023 A 
ATOM     64  C   UNL A   1      40.710  26.162  28.090  1.00  0.00     0.031 A 
ATOM     65  C   UNL A   1      41.626  28.085  26.966  1.00  0.00     0.131 A 
ATOM     66  C   UNL A   1      40.927  25.409  26.926  1.00  0.00     0.055 A 
ATOM     67  C   UNL A   1      41.759  27.354  25.784  1.00  0.00     0.041 A 
ATOM     68  F   UNL A   1      42.037  29.363  26.954  1.00  0.00    -0.206 F 
ATOM     69  C   UNL A   1      41.424  26.003  25.764  1.00  0.00     0.022 A 
BRANCH  66  70
ATOM     70  S   UNL A   1      40.696  23.611  27.002  1.00  0.00     0.124 S 
ATOM     71  O   UNL A   1      41.593  23.154  25.944  1.00  0.00    -0.237 OA
ATOM     72  O   UNL A   1      41.106  23.299  28.366  1.00  0.00    -0.237 OA
ATOM     73  O   UNL A   1      39.273  23.436  26.721  1.00  0.00    -0.744 OA
ENDBRANCH  66  70
ENDBRANCH  49  63
BRANCH  50  74
ATOM     74  C   UNL A   1      39.674  32.792  36.564  1.00  0.00     0.023 A 
ATOM     75  C   UNL A   1      38.760  32.292  37.505  1.00  0.00     0.031 A 
ATOM     76  C   UNL A   1      40.318  34.009  36.855  1.00  0.00     0.131 A 
ATOM     77  C   UNL A   1      38.483  33.025  38.670  1.00  0.00     0.055 A 
ATOM     78  C   UNL A   1      40.080  34.706  38.040  1.00  0.00     0.041 A 
ATOM     79  F   UNL A   1      41.205  34.530  35.993  1.00  0.00    -0.206 F 
ATOM     80  C   UNL A   1      39.147  34.221  38.951  1.00  0.00     0.022 A 
BRANCH  77  81
ATOM     81  S   UNL A   1      37.178  32.430  39.780  1.00  0.00     0.124 S 
ATOM     82  O   UNL A   1      37.780  31.217  40.324  1.00  0.00    -0.237 OA
ATOM     83  O   UNL A   1      37.036  33.548  40.708  1.00  0.00    -0.237 OA
ATOM     84  O   UNL A   1      36.041  32.217  38.887  1.00  0.00    -0.744 OA
ENDBRANCH  77  81
ENDBRANCH  50  74
BRANCH  62  85
ATOM     85  C   UNL A   1      44.250  27.880  34.649  1.00  0.00     0.023 A 
ATOM     86  C   UNL A   1      44.095  26.625  35.264  1.00  0.00     0.031 A 
ATOM     87  C   UNL A   1      45.508  28.505  34.726  1.00  0.00     0.131 A 
ATOM     88  C   UNL A   1      45.167  26.055  35.966  1.00  0.00     0.055 A 
ATOM     89  C   UNL A   1      46.588  27.904  35.372  1.00  0.00     0.041 A 
ATOM     90  F   UNL A   1      45.709  29.705  34.160  1.00  0.00    -0.206 F 
ATOM     91  C   UNL A   1      46.418  26.676  36.007  1.00  0.00     0.022 A 
BRANCH  88  92
ATOM     92  S   UNL A   1      44.883  24.524  36.895  1.00  0.00     0.124 S 
ATOM     93  O   UNL A   1      43.700  23.984  36.234  1.00  0.00    -0.237 OA
ATOM     94  O   UNL A   1      46.126  23.791  36.679  1.00  0.00    -0.237 OA
ATOM     95  O   UNL A   1      44.670  24.989  38.265  1.00  0.00    -0.744 OA
ENDBRANCH  88  92
ENDBRANCH  62  85
ENDBRANCH  36  37
ENDBRANCH  28  31
ENDBRANCH  26  27
ENDBRANCH  25  26
ENDBRANCH   1  25
TORSDOF 17
ENDMDL
MODEL 3
REMARK VINA RESULT:     -11.7      5.476      8.495
REMARK SMILES CC1(C)NC(=O)N(CCC(=O)N2CCC[C@H]2C(=O)NCCCNC(=O)c2ccc(-c3c4nc(c(-c5cc(S(=O)(=O)[O-])ccc5F)c5ccc([nH]5)c(-c5cc(S(=O)(=O)[O-])ccc5F)c5nc(c(-c6cc(S(=O)(=O)[O-])ccc6F)c6ccc3[nH]6)C=C5)C=C4)cc2)C1=O
REMARK SMILES IDX 20 1 19 2 17 3 18 4 16 6 12 7 13 8 14 9 15 10 10 11 11 12
REMARK SMILES IDX 9 13 8 14 7 15 1 16 2 17 3 18 4 19 89 20 5 21 90 23 6 24
REMARK SMILES IDX 21 25 22 26 23 27 24 28 25 30 26 31 27 32 88 33 28 34 87 35
REMARK SMILES IDX 29 36 30 37 31 38 81 39 32 40 86 41 80 42 82 43 33 44 85 45
REMARK SMILES IDX 79 46 78 47 34 49 66 50 46 51 65 52 47 53 50 54 64 55 83 56
REMARK SMILES IDX 48 57 49 58 63 60 84 61 51 62 35 63 36 64 44 65 37 66 43 67
REMARK SMILES IDX 45 68 42 69 38 70 39 71 40 72 41 73 67 74 68 75 76 76 69 77
REMARK SMILES IDX 75 78 77 79 74 80 70 81 71 82 72 83 73 84 52 85 53 86 61 87
REMARK SMILES IDX 54 88 60 89 62 90 59 91 55 92 56 93 57 94 58 95
REMARK H PARENT 19 5 4 22 23 29 82 48 50 59
REMARK Flexibility Score: inf
ROOT
ATOM      1  C   UNL A   1      34.563  21.595  24.615  1.00  0.00     0.117 C 
ENDROOT
BRANCH   1   2
ATOM      2  N   UNL A   1      35.046  22.526  23.620  1.00  0.00    -0.354 N 
ATOM      3  C   UNL A   1      34.247  23.484  23.085  1.00  0.00     0.242 C 
ATOM      4  O   UNL A   1      34.047  23.418  21.872  1.00  0.00    -0.273 OA
ATOM      5  H   UNL A   1      35.983  22.464  23.321  1.00  0.00     0.163 HD
BRANCH   3   6
ATOM      6  C   UNL A   1      33.625  24.576  23.952  1.00  0.00     0.174 C 
ATOM      7  N   UNL A   1      32.226  24.421  24.265  1.00  0.00    -0.331 N 
ATOM      8  C   UNL A   1      32.073  24.141  25.680  1.00  0.00     0.120 C 
ATOM      9  C   UNL A   1      33.315  24.710  26.356  1.00  0.00     0.024 C 
ATOM     10  C   UNL A   1      34.333  24.951  25.249  1.00  0.00     0.037 C 
BRANCH   7  11
ATOM     11  C   UNL A   1      31.158  24.785  23.465  1.00  0.00     0.225 C 
ATOM     12  O   UNL A   1      30.305  23.948  23.144  1.00  0.00    -0.275 OA
BRANCH  11  13
ATOM     13  C   UNL A   1      31.074  26.191  22.854  1.00  0.00     0.122 C 
BRANCH  13  14
ATOM     14  C   UNL A   1      30.577  27.376  23.698  1.00  0.00     0.140 C 
BRANCH  14  15
ATOM     15  N   UNL A   1      31.594  28.163  24.392  1.00  0.00    -0.262 N 
ATOM     16  C   UNL A   1      34.194  28.659  26.627  1.00  0.00     0.045 C 
ATOM     17  C   UNL A   1      32.926  29.271  26.040  1.00  0.00     0.115 C 
ATOM     18  C   UNL A   1      32.426  30.430  26.904  1.00  0.00     0.045 C 
ATOM     19  N   UNL A   1      33.201  29.672  24.676  1.00  0.00    -0.324 N 
ATOM     20  C   UNL A   1      31.821  28.211  25.750  1.00  0.00     0.255 C 
ATOM     21  C   UNL A   1      32.529  28.915  23.745  1.00  0.00     0.325 C 
ATOM     22  H   UNL A   1      33.807  30.411  24.439  1.00  0.00     0.166 HD
ATOM     23  O   UNL A   1      31.292  27.506  26.600  1.00  0.00    -0.272 OA
ATOM     24  O   UNL A   1      32.725  28.999  22.551  1.00  0.00    -0.248 OA
ENDBRANCH  14  15
ENDBRANCH  13  14
ENDBRANCH  11  13
ENDBRANCH   7  11
ENDBRANCH   3   6
ENDBRANCH   1   2
BRANCH   1  25
ATOM     25  C   UNL A   1      35.517  21.530  25.806  1.00  0.00     0.042 C 
BRANCH  25  26
ATOM     26  C   UNL A   1      36.946  21.947  25.458  1.00  0.00     0.118 C 
BRANCH  26  27
ATOM     27  N   UNL A   1      37.909  20.916  25.831  1.00  0.00    -0.352 N 
ATOM     28  C   UNL A   1      39.226  21.066  26.177  1.00  0.00     0.251 C 
ATOM     29  H   UNL A   1      37.567  19.993  25.836  1.00  0.00     0.163 HD
ATOM     30  O   UNL A   1      39.992  20.111  26.117  1.00  0.00    -0.269 OA
BRANCH  28  31
ATOM     31  C   UNL A   1      39.694  22.396  26.605  1.00  0.00     0.039 A 
ATOM     32  C   UNL A   1      40.674  22.500  27.590  1.00  0.00     0.014 A 
ATOM     33  C   UNL A   1      39.170  23.537  25.990  1.00  0.00     0.014 A 
ATOM     34  C   UNL A   1      41.180  23.760  27.915  1.00  0.00     0.010 A 
ATOM     35  C   UNL A   1      39.736  24.775  26.250  1.00  0.00     0.010 A 
ATOM     36  C   UNL A   1      40.740  24.899  27.221  1.00  0.00    -0.014 A 
BRANCH  36  37
ATOM     37  C   UNL A   1      41.302  26.243  27.500  1.00  0.00     0.031 A 
ATOM     38  C   UNL A   1      42.688  26.579  27.027  1.00  0.00     0.074 A 
ATOM     39  C   UNL A   1      40.599  27.114  28.250  1.00  0.00     0.049 A 
ATOM     40  N   UNL A   1      43.407  27.645  27.262  1.00  0.00    -0.248 NA
ATOM     41  C   UNL A   1      43.371  25.560  26.213  1.00  0.00     0.031 C 
ATOM     42  C   UNL A   1      39.264  26.871  28.801  1.00  0.00     0.029 A 
ATOM     43  N   UNL A   1      40.915  28.372  28.695  1.00  0.00    -0.354 N 
ATOM     44  C   UNL A   1      44.632  27.417  26.643  1.00  0.00     0.074 A 
ATOM     45  C   UNL A   1      44.578  26.087  26.079  1.00  0.00     0.031 C 
ATOM     46  C   UNL A   1      38.868  27.951  29.492  1.00  0.00     0.029 A 
ATOM     47  C   UNL A   1      39.940  28.941  29.482  1.00  0.00     0.049 A 
ATOM     48  H   UNL A   1      41.760  28.826  28.473  1.00  0.00     0.167 HD
ATOM     49  C   UNL A   1      45.693  28.254  26.537  1.00  0.00     0.034 A 
ATOM     50  C   UNL A   1      39.925  30.117  30.140  1.00  0.00     0.034 A 
ATOM     51  C   UNL A   1      45.713  29.582  27.098  1.00  0.00     0.049 A 
ATOM     52  C   UNL A   1      41.128  31.019  30.035  1.00  0.00     0.074 A 
ATOM     53  C   UNL A   1      46.697  30.548  26.987  1.00  0.00     0.029 A 
ATOM     54  N   UNL A   1      44.709  30.126  27.890  1.00  0.00    -0.354 N 
ATOM     55  N   UNL A   1      42.252  30.822  29.382  1.00  0.00    -0.248 NA
ATOM     56  C   UNL A   1      41.063  32.300  30.749  1.00  0.00     0.031 C 
ATOM     57  C   UNL A   1      46.326  31.641  27.776  1.00  0.00     0.029 A 
ATOM     58  C   UNL A   1      45.072  31.395  28.313  1.00  0.00     0.049 A 
ATOM     59  H   UNL A   1      43.864  29.675  28.117  1.00  0.00     0.167 HD
ATOM     60  C   UNL A   1      43.018  31.965  29.593  1.00  0.00     0.074 A 
ATOM     61  C   UNL A   1      42.219  32.853  30.414  1.00  0.00     0.031 C 
ATOM     62  C   UNL A   1      44.267  32.256  29.149  1.00  0.00     0.034 A 
BRANCH  49  63
ATOM     63  C   UNL A   1      46.917  27.741  25.817  1.00  0.00     0.023 A 
ATOM     64  C   UNL A   1      47.172  28.059  24.471  1.00  0.00     0.031 A 
ATOM     65  C   UNL A   1      47.827  26.895  26.474  1.00  0.00     0.131 A 
ATOM     66  C   UNL A   1      48.259  27.472  23.804  1.00  0.00     0.055 A 
ATOM     67  C   UNL A   1      48.956  26.383  25.831  1.00  0.00     0.041 A 
ATOM     68  F   UNL A   1      47.626  26.536  27.753  1.00  0.00    -0.206 F 
ATOM     69  C   UNL A   1      49.167  26.657  24.483  1.00  0.00     0.022 A 
BRANCH  66  70
ATOM     70  S   UNL A   1      48.377  27.664  22.005  1.00  0.00     0.124 S 
ATOM     71  O   UNL A   1      47.070  28.231  21.682  1.00  0.00    -0.237 OA
ATOM     72  O   UNL A   1      49.516  28.562  21.858  1.00  0.00    -0.237 OA
ATOM     73  O   UNL A   1      48.591  26.300  21.527  1.00  0.00    -0.744 OA
ENDBRANCH  66  70
ENDBRANCH  49  63
BRANCH  50  74
ATOM     74  C   UNL A   1      38.751  30.497  30.977  1.00  0.00     0.023 A 
ATOM     75  C   UNL A   1      37.648  31.162  30.419  1.00  0.00     0.031 A 
ATOM     76  C   UNL A   1      38.726  30.226  32.358  1.00  0.00     0.131 A 
ATOM     77  C   UNL A   1      36.586  31.570  31.242  1.00  0.00     0.055 A 
ATOM     78  C   UNL A   1      37.642  30.584  33.161  1.00  0.00     0.041 A 
ATOM     79  F   UNL A   1      39.752  29.587  32.943  1.00  0.00    -0.206 F 
ATOM     80  C   UNL A   1      36.569  31.272  32.606  1.00  0.00     0.022 A 
BRANCH  77  81
ATOM     81  S   UNL A   1      35.258  32.568  30.515  1.00  0.00     0.124 S 
ATOM     82  O   UNL A   1      35.952  33.817  30.220  1.00  0.00    -0.237 OA
ATOM     83  O   UNL A   1      34.869  31.762  29.362  1.00  0.00    -0.237 OA
ATOM     84  O   UNL A   1      34.263  32.643  31.583  1.00  0.00    -0.744 OA
ENDBRANCH  77  81
ENDBRANCH  50  74
BRANCH  62  85
ATOM     85  C   UNL A   1      44.832  33.603  29.527  1.00  0.00     0.023 A 
ATOM     86  C   UNL A   1      44.659  34.731  28.706  1.00  0.00     0.031 A 
ATOM     87  C   UNL A   1      45.545  33.762  30.729  1.00  0.00     0.131 A 
ATOM     88  C   UNL A   1      45.229  35.957  29.075  1.00  0.00     0.055 A 
ATOM     89  C   UNL A   1      46.056  34.998  31.122  1.00  0.00     0.041 A 
ATOM     90  F   UNL A   1      45.743  32.717  31.548  1.00  0.00    -0.206 F 
ATOM     91  C   UNL A   1      45.909  36.104  30.288  1.00  0.00     0.022 A 
BRANCH  88  92
ATOM     92  S   UNL A   1      45.140  37.345  27.912  1.00  0.00     0.124 S 
ATOM     93  O   UNL A   1      45.652  36.744  26.685  1.00  0.00    -0.237 OA
ATOM     94  O   UNL A   1      43.718  37.670  27.918  1.00  0.00    -0.237 OA
ATOM     95  O   UNL A   1      46.009  38.355  28.516  1.00  0.00    -0.744 OA
ENDBRANCH  88  92
ENDBRANCH  62  85
ENDBRANCH  36  37
ENDBRANCH  28  31
ENDBRANCH  26  27
ENDBRANCH  25  26
ENDBRANCH   1  25
TORSDOF 17
ENDMDL
