MODEL 1
REMARK VINA RESULT:     -12.2      0.000      0.000
REMARK SMILES COc1ccc(/C=C/C(=O)NCCCNC(=O)c2ccc(-c3c4nc(c(-c5cc(S(=O)(=O)[O-])ccc5F)c5ccc([nH]5)c(-c5cc(S(=O)(=O)[O-])ccc5F)c5nc(c(-c6cc(S(=O)(=O)[O-])ccc6F)c6ccc3[nH]6)C=C5)C=C4)cc2)cc1S(=O)(=O)Nc1ccc(F)cc1F
REMARK SMILES IDX 12 1 11 2 9 3 10 4 8 6 7 7 6 8 3 9 4 10 82 11 5 12 81 13
REMARK SMILES IDX 2 14 1 15 83 16 84 17 85 18 86 19 87 21 88 22 93 23 89 24
REMARK SMILES IDX 92 25 94 26 90 27 91 28 13 29 14 30 15 31 16 32 17 34 18 35
REMARK SMILES IDX 19 36 80 37 20 38 79 39 21 40 22 41 23 42 73 43 24 44 78 45
REMARK SMILES IDX 72 46 74 47 25 48 77 49 71 50 70 51 26 53 58 54 38 55 57 56
REMARK SMILES IDX 39 57 42 58 56 59 75 60 40 61 41 62 55 64 76 65 43 66 27 67
REMARK SMILES IDX 28 68 36 69 29 70 35 71 37 72 34 73 30 74 31 75 32 76 33 77
REMARK SMILES IDX 59 78 60 79 68 80 61 81 67 82 69 83 66 84 62 85 63 86 64 87
REMARK SMILES IDX 65 88 44 89 45 90 53 91 46 92 52 93 54 94 51 95 47 96 48 97
REMARK SMILES IDX 49 98 50 99
REMARK H PARENT 11 5 86 20 15 33 74 52 42 63
REMARK Flexibility Score: inf
ROOT
ATOM      1  C   UNL A   1      36.954  20.536  24.906  1.00  0.00     0.118 C 
ENDROOT
BRANCH   1   2
ATOM      2  N   UNL A   1      35.731  19.756  24.999  1.00  0.00    -0.352 N 
ATOM      3  C   UNL A   1      34.436  20.129  24.842  1.00  0.00     0.244 C 
ATOM      4  O   UNL A   1      33.537  19.294  24.893  1.00  0.00    -0.270 OA
ATOM      5  H   UNL A   1      35.864  18.803  25.212  1.00  0.00     0.163 HD
BRANCH   3   6
ATOM      6  C   UNL A   1      34.120  21.514  24.444  1.00  0.00     0.072 C 
ATOM      7  C   UNL A   1      32.996  21.911  23.826  1.00  0.00     0.014 C 
BRANCH   7   8
ATOM      8  C   UNL A   1      32.721  23.336  23.562  1.00  0.00    -0.024 A 
ATOM      9  C   UNL A   1      32.547  26.133  23.338  1.00  0.00     0.139 A 
ATOM     10  C   UNL A   1      33.189  25.387  22.350  1.00  0.00     0.048 A 
ATOM     11  C   UNL A   1      31.816  25.476  24.323  1.00  0.00     0.130 A 
ATOM     12  C   UNL A   1      33.259  23.999  22.452  1.00  0.00     0.012 A 
ATOM     13  C   UNL A   1      31.933  24.076  24.453  1.00  0.00     0.034 A 
BRANCH   9  14
ATOM     14  O   UNL A   1      32.671  27.485  23.215  1.00  0.00    -0.495 OA
ATOM     15  C   UNL A   1      33.922  27.856  22.636  1.00  0.00     0.278 C 
ENDBRANCH   9  14
BRANCH  11  16
ATOM     16  S   UNL A   1      30.665  26.277  25.411  1.00  0.00     0.265 S 
ATOM     17  O   UNL A   1      30.087  27.393  24.693  1.00  0.00    -0.201 OA
ATOM     18  O   UNL A   1      29.815  25.220  25.927  1.00  0.00    -0.201 OA
BRANCH  16  19
ATOM     19  N   UNL A   1      31.433  26.899  26.774  1.00  0.00    -0.277 N 
ATOM     20  H   UNL A   1      31.240  26.481  27.644  1.00  0.00     0.180 HD
BRANCH  19  21
ATOM     21  C   UNL A   1      32.348  27.993  26.745  1.00  0.00     0.085 A 
ATOM     22  C   UNL A   1      31.814  29.252  27.063  1.00  0.00     0.033 A 
ATOM     23  C   UNL A   1      33.718  27.887  26.484  1.00  0.00     0.150 A 
ATOM     24  C   UNL A   1      32.657  30.348  27.250  1.00  0.00     0.041 A 
ATOM     25  C   UNL A   1      34.563  28.979  26.664  1.00  0.00     0.080 A 
ATOM     26  F   UNL A   1      34.263  26.716  26.133  1.00  0.00    -0.205 F 
ATOM     27  C   UNL A   1      34.026  30.193  27.071  1.00  0.00     0.126 A 
ATOM     28  F   UNL A   1      34.837  31.233  27.305  1.00  0.00    -0.207 F 
ENDBRANCH  19  21
ENDBRANCH  16  19
ENDBRANCH  11  16
ENDBRANCH   7   8
ENDBRANCH   3   6
ENDBRANCH   1   2
BRANCH   1  29
ATOM     29  C   UNL A   1      38.185  19.638  24.956  1.00  0.00     0.042 C 
BRANCH  29  30
ATOM     30  C   UNL A   1      39.208  20.068  26.005  1.00  0.00     0.118 C 
BRANCH  30  31
ATOM     31  N   UNL A   1      40.354  19.172  26.056  1.00  0.00    -0.352 N 
ATOM     32  C   UNL A   1      41.694  19.462  26.131  1.00  0.00     0.251 C 
ATOM     33  H   UNL A   1      40.134  18.212  26.033  1.00  0.00     0.163 HD
ATOM     34  O   UNL A   1      42.511  18.565  25.937  1.00  0.00    -0.269 OA
BRANCH  32  35
ATOM     35  C   UNL A   1      42.156  20.838  26.423  1.00  0.00     0.039 A 
ATOM     36  C   UNL A   1      42.382  21.206  27.753  1.00  0.00     0.014 A 
ATOM     37  C   UNL A   1      42.324  21.779  25.403  1.00  0.00     0.014 A 
ATOM     38  C   UNL A   1      42.828  22.495  28.054  1.00  0.00     0.010 A 
ATOM     39  C   UNL A   1      42.833  23.043  25.697  1.00  0.00     0.010 A 
ATOM     40  C   UNL A   1      43.086  23.416  27.026  1.00  0.00    -0.014 A 
BRANCH  40  41
ATOM     41  C   UNL A   1      43.608  24.777  27.321  1.00  0.00     0.031 A 
ATOM     42  C   UNL A   1      42.679  25.851  27.819  1.00  0.00     0.074 A 
ATOM     43  C   UNL A   1      44.904  25.061  27.079  1.00  0.00     0.049 A 
ATOM     44  N   UNL A   1      42.920  27.117  28.044  1.00  0.00    -0.248 NA
ATOM     45  C   UNL A   1      41.286  25.451  28.066  1.00  0.00     0.031 C 
ATOM     46  C   UNL A   1      45.893  24.114  26.563  1.00  0.00     0.029 A 
ATOM     47  N   UNL A   1      45.608  26.230  27.223  1.00  0.00    -0.354 N 
ATOM     48  C   UNL A   1      41.706  27.671  28.442  1.00  0.00     0.074 A 
ATOM     49  C   UNL A   1      40.723  26.609  28.373  1.00  0.00     0.031 C 
ATOM     50  C   UNL A   1      47.079  24.734  26.449  1.00  0.00     0.029 A 
ATOM     51  C   UNL A   1      46.926  26.132  26.842  1.00  0.00     0.049 A 
ATOM     52  H   UNL A   1      45.207  27.061  27.566  1.00  0.00     0.167 HD
ATOM     53  C   UNL A   1      41.443  28.939  28.845  1.00  0.00     0.034 A 
ATOM     54  C   UNL A   1      47.898  27.064  26.799  1.00  0.00     0.034 A 
ATOM     55  C   UNL A   1      42.439  29.980  28.923  1.00  0.00     0.049 A 
ATOM     56  C   UNL A   1      47.579  28.470  27.240  1.00  0.00     0.074 A 
ATOM     57  C   UNL A   1      42.295  31.282  29.370  1.00  0.00     0.029 A 
ATOM     58  N   UNL A   1      43.767  29.840  28.538  1.00  0.00    -0.354 N 
ATOM     59  N   UNL A   1      46.436  28.966  27.655  1.00  0.00    -0.248 NA
ATOM     60  C   UNL A   1      48.684  29.437  27.217  1.00  0.00     0.031 C 
ATOM     61  C   UNL A   1      43.516  31.945  29.200  1.00  0.00     0.029 A 
ATOM     62  C   UNL A   1      44.444  31.039  28.713  1.00  0.00     0.049 A 
ATOM     63  H   UNL A   1      44.170  29.010  28.193  1.00  0.00     0.167 HD
ATOM     64  C   UNL A   1      46.694  30.298  27.970  1.00  0.00     0.074 A 
ATOM     65  C   UNL A   1      48.102  30.520  27.709  1.00  0.00     0.031 C 
ATOM     66  C   UNL A   1      45.845  31.249  28.437  1.00  0.00     0.034 A 
BRANCH  53  67
ATOM     67  C   UNL A   1      40.012  29.269  29.203  1.00  0.00     0.023 A 
ATOM     68  C   UNL A   1      39.585  29.353  30.540  1.00  0.00     0.031 A 
ATOM     69  C   UNL A   1      39.055  29.474  28.195  1.00  0.00     0.131 A 
ATOM     70  C   UNL A   1      38.227  29.553  30.832  1.00  0.00     0.055 A 
ATOM     71  C   UNL A   1      37.719  29.754  28.492  1.00  0.00     0.041 A 
ATOM     72  F   UNL A   1      39.396  29.388  26.898  1.00  0.00    -0.206 F 
ATOM     73  C   UNL A   1      37.295  29.777  29.818  1.00  0.00     0.022 A 
BRANCH  70  74
ATOM     74  S   UNL A   1      37.674  29.366  32.550  1.00  0.00     0.124 S 
ATOM     75  O   UNL A   1      38.637  30.201  33.262  1.00  0.00    -0.237 OA
ATOM     76  O   UNL A   1      36.307  29.870  32.497  1.00  0.00    -0.237 OA
ATOM     77  O   UNL A   1      37.801  27.931  32.797  1.00  0.00    -0.744 OA
ENDBRANCH  70  74
ENDBRANCH  53  67
BRANCH  54  78
ATOM     78  C   UNL A   1      49.262  26.710  26.315  1.00  0.00     0.023 A 
ATOM     79  C   UNL A   1      49.716  27.139  25.058  1.00  0.00     0.031 A 
ATOM     80  C   UNL A   1      50.120  25.907  27.088  1.00  0.00     0.131 A 
ATOM     81  C   UNL A   1      50.973  26.728  24.591  1.00  0.00     0.055 A 
ATOM     82  C   UNL A   1      51.389  25.541  26.639  1.00  0.00     0.041 A 
ATOM     83  F   UNL A   1      49.736  25.475  28.300  1.00  0.00    -0.206 F 
ATOM     84  C   UNL A   1      51.819  25.942  25.377  1.00  0.00     0.022 A 
BRANCH  81  85
ATOM     85  S   UNL A   1      51.459  27.173  22.900  1.00  0.00     0.124 S 
ATOM     86  O   UNL A   1      51.803  28.582  23.051  1.00  0.00    -0.237 OA
ATOM     87  O   UNL A   1      52.574  26.263  22.657  1.00  0.00    -0.237 OA
ATOM     88  O   UNL A   1      50.256  26.904  22.118  1.00  0.00    -0.744 OA
ENDBRANCH  81  85
ENDBRANCH  54  78
BRANCH  66  89
ATOM     89  C   UNL A   1      46.439  32.603  28.737  1.00  0.00     0.023 A 
ATOM     90  C   UNL A   1      46.509  33.613  27.763  1.00  0.00     0.031 A 
ATOM     91  C   UNL A   1      46.956  32.878  30.015  1.00  0.00     0.131 A 
ATOM     92  C   UNL A   1      47.133  34.833  28.064  1.00  0.00     0.055 A 
ATOM     93  C   UNL A   1      47.525  34.114  30.327  1.00  0.00     0.041 A 
ATOM     94  F   UNL A   1      46.917  31.948  30.983  1.00  0.00    -0.206 F 
ATOM     95  C   UNL A   1      47.627  35.095  29.345  1.00  0.00     0.022 A 
BRANCH  92  96
ATOM     96  S   UNL A   1      47.368  36.046  26.735  1.00  0.00     0.124 S 
ATOM     97  O   UNL A   1      48.640  36.658  27.105  1.00  0.00    -0.237 OA
ATOM     98  O   UNL A   1      47.389  35.203  25.544  1.00  0.00    -0.237 OA
ATOM     99  O   UNL A   1      46.201  36.918  26.856  1.00  0.00    -0.744 OA
ENDBRANCH  92  96
ENDBRANCH  66  89
ENDBRANCH  40  41
ENDBRANCH  32  35
ENDBRANCH  30  31
ENDBRANCH  29  30
ENDBRANCH   1  29
TORSDOF 18
ENDMDL
MODEL 2
REMARK VINA RESULT:     -12.1      1.412      2.144
REMARK SMILES COc1ccc(/C=C/C(=O)NCCCNC(=O)c2ccc(-c3c4nc(c(-c5cc(S(=O)(=O)[O-])ccc5F)c5ccc([nH]5)c(-c5cc(S(=O)(=O)[O-])ccc5F)c5nc(c(-c6cc(S(=O)(=O)[O-])ccc6F)c6ccc3[nH]6)C=C5)C=C4)cc2)cc1S(=O)(=O)Nc1ccc(F)cc1F
REMARK SMILES IDX 12 1 11 2 9 3 10 4 8 6 7 7 6 8 3 9 4 10 82 11 5 12 81 13
REMARK SMILES IDX 2 14 1 15 83 16 84 17 85 18 86 19 87 21 88 22 93 23 89 24
REMARK SMILES IDX 92 25 94 26 90 27 91 28 13 29 14 30 15 31 16 32 17 34 18 35
REMARK SMILES IDX 19 36 80 37 20 38 79 39 21 40 22 41 23 42 73 43 24 44 78 45
REMARK SMILES IDX 72 46 74 47 25 48 77 49 71 50 70 51 26 53 58 54 38 55 57 56
REMARK SMILES IDX 39 57 42 58 56 59 75 60 40 61 41 62 55 64 76 65 43 66 27 67
REMARK SMILES IDX 28 68 36 69 29 70 35 71 37 72 34 73 30 74 31 75 32 76 33 77
REMARK SMILES IDX 59 78 60 79 68 80 61 81 67 82 69 83 66 84 62 85 63 86 64 87
REMARK SMILES IDX 65 88 44 89 45 90 53 91 46 92 52 93 54 94 51 95 47 96 48 97
REMARK SMILES IDX 49 98 50 99
REMARK H PARENT 11 5 86 20 15 33 74 52 42 63
REMARK Flexibility Score: inf
ROOT
ATOM      1  C   UNL A   1      37.629  21.141  24.844  1.00  0.00     0.118 C 
ENDROOT
BRANCH   1   2
ATOM      2  N   UNL A   1      38.412  22.329  25.141  1.00  0.00    -0.352 N 
ATOM      3  C   UNL A   1      38.052  23.492  25.742  1.00  0.00     0.244 C 
ATOM      4  O   UNL A   1      38.889  24.361  25.967  1.00  0.00    -0.270 OA
ATOM      5  H   UNL A   1      39.355  22.284  24.861  1.00  0.00     0.163 HD
BRANCH   3   6
ATOM      6  C   UNL A   1      36.685  23.643  26.275  1.00  0.00     0.072 C 
ATOM      7  C   UNL A   1      35.617  24.063  25.577  1.00  0.00     0.014 C 
BRANCH   7   8
ATOM      8  C   UNL A   1      34.265  24.082  26.168  1.00  0.00    -0.024 A 
ATOM      9  C   UNL A   1      31.557  23.922  26.904  1.00  0.00     0.139 A 
ATOM     10  C   UNL A   1      32.467  22.968  27.359  1.00  0.00     0.048 A 
ATOM     11  C   UNL A   1      32.027  25.062  26.259  1.00  0.00     0.130 A 
ATOM     12  C   UNL A   1      33.813  23.058  27.009  1.00  0.00     0.012 A 
ATOM     13  C   UNL A   1      33.379  25.122  25.862  1.00  0.00     0.034 A 
BRANCH   9  14
ATOM     14  O   UNL A   1      30.249  23.652  27.180  1.00  0.00    -0.495 OA
ATOM     15  C   UNL A   1      29.797  22.469  26.519  1.00  0.00     0.278 C 
ENDBRANCH   9  14
BRANCH  11  16
ATOM     16  S   UNL A   1      31.047  26.510  25.954  1.00  0.00     0.265 S 
ATOM     17  O   UNL A   1      29.966  26.129  25.072  1.00  0.00    -0.201 OA
ATOM     18  O   UNL A   1      30.763  27.071  27.262  1.00  0.00    -0.201 OA
BRANCH  16  19
ATOM     19  N   UNL A   1      31.938  27.705  25.171  1.00  0.00    -0.277 N 
ATOM     20  H   UNL A   1      32.056  27.629  24.197  1.00  0.00     0.180 HD
BRANCH  19  21
ATOM     21  C   UNL A   1      32.532  28.821  25.833  1.00  0.00     0.085 A 
ATOM     22  C   UNL A   1      31.761  29.993  25.876  1.00  0.00     0.033 A 
ATOM     23  C   UNL A   1      33.775  28.805  26.474  1.00  0.00     0.150 A 
ATOM     24  C   UNL A   1      32.166  31.074  26.660  1.00  0.00     0.041 A 
ATOM     25  C   UNL A   1      34.187  29.883  27.253  1.00  0.00     0.080 A 
ATOM     26  F   UNL A   1      34.564  27.725  26.420  1.00  0.00    -0.205 F 
ATOM     27  C   UNL A   1      33.366  30.998  27.359  1.00  0.00     0.126 A 
ATOM     28  F   UNL A   1      33.724  32.014  28.153  1.00  0.00    -0.207 F 
ENDBRANCH  19  21
ENDBRANCH  16  19
ENDBRANCH  11  16
ENDBRANCH   7   8
ENDBRANCH   3   6
ENDBRANCH   1   2
BRANCH   1  29
ATOM     29  C   UNL A   1      38.422  19.873  25.138  1.00  0.00     0.042 C 
BRANCH  29  30
ATOM     30  C   UNL A   1      39.510  20.068  26.193  1.00  0.00     0.118 C 
BRANCH  30  31
ATOM     31  N   UNL A   1      40.614  19.134  26.023  1.00  0.00    -0.352 N 
ATOM     32  C   UNL A   1      41.964  19.375  25.940  1.00  0.00     0.251 C 
ATOM     33  H   UNL A   1      40.354  18.187  25.958  1.00  0.00     0.163 HD
ATOM     34  O   UNL A   1      42.710  18.471  25.573  1.00  0.00    -0.269 OA
BRANCH  32  35
ATOM     35  C   UNL A   1      42.516  20.708  26.270  1.00  0.00     0.039 A 
ATOM     36  C   UNL A   1      42.937  21.541  25.229  1.00  0.00     0.014 A 
ATOM     37  C   UNL A   1      42.663  21.124  27.597  1.00  0.00     0.014 A 
ATOM     38  C   UNL A   1      43.451  22.809  25.514  1.00  0.00     0.010 A 
ATOM     39  C   UNL A   1      43.113  22.413  27.877  1.00  0.00     0.010 A 
ATOM     40  C   UNL A   1      43.516  23.268  26.839  1.00  0.00    -0.014 A 
BRANCH  40  41
ATOM     41  C   UNL A   1      44.014  24.632  27.161  1.00  0.00     0.031 A 
ATOM     42  C   UNL A   1      43.068  25.677  27.686  1.00  0.00     0.074 A 
ATOM     43  C   UNL A   1      45.303  24.945  26.920  1.00  0.00     0.049 A 
ATOM     44  N   UNL A   1      43.286  26.942  27.937  1.00  0.00    -0.248 NA
ATOM     45  C   UNL A   1      41.684  25.245  27.930  1.00  0.00     0.031 C 
ATOM     46  C   UNL A   1      46.308  24.028  26.378  1.00  0.00     0.029 A 
ATOM     47  N   UNL A   1      45.986  26.124  27.085  1.00  0.00    -0.354 N 
ATOM     48  C   UNL A   1      42.064  27.464  28.353  1.00  0.00     0.074 A 
ATOM     49  C   UNL A   1      41.100  26.386  28.265  1.00  0.00     0.031 C 
ATOM     50  C   UNL A   1      47.481  24.673  26.273  1.00  0.00     0.029 A 
ATOM     51  C   UNL A   1      47.304  26.059  26.696  1.00  0.00     0.049 A 
ATOM     52  H   UNL A   1      45.571  26.940  27.448  1.00  0.00     0.167 HD
ATOM     53  C   UNL A   1      41.779  28.718  28.784  1.00  0.00     0.034 A 
ATOM     54  C   UNL A   1      48.258  27.010  26.669  1.00  0.00     0.034 A 
ATOM     55  C   UNL A   1      42.756  29.776  28.880  1.00  0.00     0.049 A 
ATOM     56  C   UNL A   1      47.915  28.399  27.142  1.00  0.00     0.074 A 
ATOM     57  C   UNL A   1      42.590  31.065  29.355  1.00  0.00     0.029 A 
ATOM     58  N   UNL A   1      44.085  29.669  28.486  1.00  0.00    -0.354 N 
ATOM     59  N   UNL A   1      46.765  28.865  27.572  1.00  0.00    -0.248 NA
ATOM     60  C   UNL A   1      49.001  29.387  27.134  1.00  0.00     0.031 C 
ATOM     61  C   UNL A   1      43.797  31.755  29.194  1.00  0.00     0.029 A 
ATOM     62  C   UNL A   1      44.739  30.877  28.683  1.00  0.00     0.049 A 
ATOM     63  H   UNL A   1      44.501  28.855  28.121  1.00  0.00     0.167 HD
ATOM     64  C   UNL A   1      46.999  30.194  27.915  1.00  0.00     0.074 A 
ATOM     65  C   UNL A   1      48.402  30.449  27.653  1.00  0.00     0.031 C 
ATOM     66  C   UNL A   1      46.135  31.119  28.406  1.00  0.00     0.034 A 
BRANCH  53  67
ATOM     67  C   UNL A   1      40.344  29.014  29.155  1.00  0.00     0.023 A 
ATOM     68  C   UNL A   1      39.917  29.037  30.495  1.00  0.00     0.031 A 
ATOM     69  C   UNL A   1      39.383  29.247  28.156  1.00  0.00     0.131 A 
ATOM     70  C   UNL A   1      38.556  29.205  30.795  1.00  0.00     0.055 A 
ATOM     71  C   UNL A   1      38.044  29.496  28.466  1.00  0.00     0.041 A 
ATOM     72  F   UNL A   1      39.725  29.220  26.858  1.00  0.00    -0.206 F 
ATOM     73  C   UNL A   1      37.620  29.459  29.791  1.00  0.00     0.022 A 
BRANCH  70  74
ATOM     74  S   UNL A   1      38.007  28.939  32.503  1.00  0.00     0.124 S 
ATOM     75  O   UNL A   1      36.586  29.263  32.410  1.00  0.00    -0.237 OA
ATOM     76  O   UNL A   1      38.329  27.534  32.723  1.00  0.00    -0.237 OA
ATOM     77  O   UNL A   1      38.806  29.891  33.273  1.00  0.00    -0.744 OA
ENDBRANCH  70  74
ENDBRANCH  53  67
BRANCH  54  78
ATOM     78  C   UNL A   1      49.626  26.692  26.171  1.00  0.00     0.023 A 
ATOM     79  C   UNL A   1      50.073  27.173  24.931  1.00  0.00     0.031 A 
ATOM     80  C   UNL A   1      50.495  25.872  26.913  1.00  0.00     0.131 A 
ATOM     81  C   UNL A   1      51.335  26.797  24.448  1.00  0.00     0.055 A 
ATOM     82  C   UNL A   1      51.769  25.540  26.451  1.00  0.00     0.041 A 
ATOM     83  F   UNL A   1      50.118  25.391  28.109  1.00  0.00    -0.206 F 
ATOM     84  C   UNL A   1      52.192  25.993  25.204  1.00  0.00     0.022 A 
BRANCH  81  85
ATOM     85  S   UNL A   1      51.813  27.310  22.774  1.00  0.00     0.124 S 
ATOM     86  O   UNL A   1      50.860  26.573  21.953  1.00  0.00    -0.237 OA
ATOM     87  O   UNL A   1      51.623  28.756  22.837  1.00  0.00    -0.237 OA
ATOM     88  O   UNL A   1      53.202  26.871  22.668  1.00  0.00    -0.744 OA
ENDBRANCH  81  85
ENDBRANCH  54  78
BRANCH  66  89
ATOM     89  C   UNL A   1      46.705  32.478  28.732  1.00  0.00     0.023 A 
ATOM     90  C   UNL A   1      46.699  33.527  27.798  1.00  0.00     0.031 A 
ATOM     91  C   UNL A   1      47.275  32.717  29.995  1.00  0.00     0.131 A 
ATOM     92  C   UNL A   1      47.303  34.752  28.119  1.00  0.00     0.055 A 
ATOM     93  C   UNL A   1      47.824  33.956  30.329  1.00  0.00     0.041 A 
ATOM     94  F   UNL A   1      47.309  31.749  30.925  1.00  0.00    -0.206 F 
ATOM     95  C   UNL A   1      47.852  34.977  29.384  1.00  0.00     0.022 A 
BRANCH  92  96
ATOM     96  S   UNL A   1      47.440  36.022  26.830  1.00  0.00     0.124 S 
ATOM     97  O   UNL A   1      47.175  35.254  25.618  1.00  0.00    -0.237 OA
ATOM     98  O   UNL A   1      46.407  36.975  27.220  1.00  0.00    -0.237 OA
ATOM     99  O   UNL A   1      48.813  36.505  26.970  1.00  0.00    -0.744 OA
ENDBRANCH  92  96
ENDBRANCH  66  89
ENDBRANCH  40  41
ENDBRANCH  32  35
ENDBRANCH  30  31
ENDBRANCH  29  30
ENDBRANCH   1  29
TORSDOF 18
ENDMDL
MODEL 3
REMARK VINA RESULT:     -11.9      1.712      2.292
REMARK SMILES COc1ccc(/C=C/C(=O)NCCCNC(=O)c2ccc(-c3c4nc(c(-c5cc(S(=O)(=O)[O-])ccc5F)c5ccc([nH]5)c(-c5cc(S(=O)(=O)[O-])ccc5F)c5nc(c(-c6cc(S(=O)(=O)[O-])ccc6F)c6ccc3[nH]6)C=C5)C=C4)cc2)cc1S(=O)(=O)Nc1ccc(F)cc1F
REMARK SMILES IDX 12 1 11 2 9 3 10 4 8 6 7 7 6 8 3 9 4 10 82 11 5 12 81 13
REMARK SMILES IDX 2 14 1 15 83 16 84 17 85 18 86 19 87 21 88 22 93 23 89 24
REMARK SMILES IDX 92 25 94 26 90 27 91 28 13 29 14 30 15 31 16 32 17 34 18 35
REMARK SMILES IDX 19 36 80 37 20 38 79 39 21 40 22 41 23 42 73 43 24 44 78 45
REMARK SMILES IDX 72 46 74 47 25 48 77 49 71 50 70 51 26 53 58 54 38 55 57 56
REMARK SMILES IDX 39 57 42 58 56 59 75 60 40 61 41 62 55 64 76 65 43 66 27 67
REMARK SMILES IDX 28 68 36 69 29 70 35 71 37 72 34 73 30 74 31 75 32 76 33 77
REMARK SMILES IDX 59 78 60 79 68 80 61 81 67 82 69 83 66 84 62 85 63 86 64 87
REMARK SMILES IDX 65 88 44 89 45 90 53 91 46 92 52 93 54 94 51 95 47 96 48 97
REMARK SMILES IDX 49 98 50 99
REMARK H PARENT 11 5 86 20 15 33 74 52 42 63
REMARK Flexibility Score: inf
ROOT
ATOM      1  C   UNL A   1      36.532  20.346  24.993  1.00  0.00     0.118 C 
ENDROOT
BRANCH   1   2
ATOM      2  N   UNL A   1      35.426  19.404  24.987  1.00  0.00    -0.352 N 
ATOM      3  C   UNL A   1      34.088  19.620  24.909  1.00  0.00     0.244 C 
ATOM      4  O   UNL A   1      33.307  18.674  24.847  1.00  0.00    -0.270 OA
ATOM      5  H   UNL A   1      35.689  18.457  25.049  1.00  0.00     0.163 HD
BRANCH   3   6
ATOM      6  C   UNL A   1      33.581  20.994  24.732  1.00  0.00     0.072 C 
ATOM      7  C   UNL A   1      32.541  21.349  23.959  1.00  0.00     0.014 C 
BRANCH   7   8
ATOM      8  C   UNL A   1      32.039  22.735  23.927  1.00  0.00    -0.024 A 
ATOM      9  C   UNL A   1      30.763  25.216  23.585  1.00  0.00     0.139 A 
ATOM     10  C   UNL A   1      30.510  24.446  24.720  1.00  0.00     0.048 A 
ATOM     11  C   UNL A   1      31.798  24.853  22.730  1.00  0.00     0.130 A 
ATOM     12  C   UNL A   1      31.157  23.224  24.898  1.00  0.00     0.012 A 
ATOM     13  C   UNL A   1      32.412  23.593  22.884  1.00  0.00     0.034 A 
BRANCH   9  14
ATOM     14  O   UNL A   1      29.965  26.313  23.441  1.00  0.00    -0.495 OA
ATOM     15  C   UNL A   1      28.888  26.317  24.377  1.00  0.00     0.278 C 
ENDBRANCH   9  14
BRANCH  11  16
ATOM     16  S   UNL A   1      32.468  25.910  21.471  1.00  0.00     0.265 S 
ATOM     17  O   UNL A   1      33.191  25.075  20.536  1.00  0.00    -0.201 OA
ATOM     18  O   UNL A   1      31.359  26.727  21.016  1.00  0.00    -0.201 OA
BRANCH  16  19
ATOM     19  N   UNL A   1      33.565  27.014  22.111  1.00  0.00    -0.277 N 
ATOM     20  H   UNL A   1      34.293  27.334  21.529  1.00  0.00     0.180 HD
BRANCH  19  21
ATOM     21  C   UNL A   1      33.506  27.517  23.446  1.00  0.00     0.085 A 
ATOM     22  C   UNL A   1      32.921  28.783  23.602  1.00  0.00     0.033 A 
ATOM     23  C   UNL A   1      33.929  26.823  24.584  1.00  0.00     0.150 A 
ATOM     24  C   UNL A   1      32.642  29.278  24.876  1.00  0.00     0.041 A 
ATOM     25  C   UNL A   1      33.659  27.314  25.858  1.00  0.00     0.080 A 
ATOM     26  F   UNL A   1      34.534  25.633  24.480  1.00  0.00    -0.205 F 
ATOM     27  C   UNL A   1      32.994  28.527  25.992  1.00  0.00     0.126 A 
ATOM     28  F   UNL A   1      32.676  28.979  27.211  1.00  0.00    -0.207 F 
ENDBRANCH  19  21
ENDBRANCH  16  19
ENDBRANCH  11  16
ENDBRANCH   7   8
ENDBRANCH   3   6
ENDBRANCH   1   2
BRANCH   1  29
ATOM     29  C   UNL A   1      37.867  19.627  24.829  1.00  0.00     0.042 C 
BRANCH  29  30
ATOM     30  C   UNL A   1      38.970  20.182  25.729  1.00  0.00     0.118 C 
BRANCH  30  31
ATOM     31  N   UNL A   1      40.049  19.226  25.929  1.00  0.00    -0.352 N 
ATOM     32  C   UNL A   1      41.386  19.444  26.158  1.00  0.00     0.251 C 
ATOM     33  H   UNL A   1      39.780  18.279  25.895  1.00  0.00     0.163 HD
ATOM     34  O   UNL A   1      42.167  18.500  26.077  1.00  0.00    -0.269 OA
BRANCH  32  35
ATOM     35  C   UNL A   1      41.886  20.799  26.483  1.00  0.00     0.039 A 
ATOM     36  C   UNL A   1      41.978  21.748  25.460  1.00  0.00     0.014 A 
ATOM     37  C   UNL A   1      42.306  21.126  27.775  1.00  0.00     0.014 A 
ATOM     38  C   UNL A   1      42.436  23.037  25.743  1.00  0.00     0.010 A 
ATOM     39  C   UNL A   1      42.700  22.431  28.071  1.00  0.00     0.010 A 
ATOM     40  C   UNL A   1      42.774  23.399  27.057  1.00  0.00    -0.014 A 
BRANCH  40  41
ATOM     41  C   UNL A   1      43.217  24.779  27.388  1.00  0.00     0.031 A 
ATOM     42  C   UNL A   1      42.247  25.760  27.990  1.00  0.00     0.074 A 
ATOM     43  C   UNL A   1      44.473  25.166  27.088  1.00  0.00     0.049 A 
ATOM     44  N   UNL A   1      42.413  27.028  28.264  1.00  0.00    -0.248 NA
ATOM     45  C   UNL A   1      40.903  25.249  28.296  1.00  0.00     0.031 C 
ATOM     46  C   UNL A   1      45.493  24.317  26.470  1.00  0.00     0.029 A 
ATOM     47  N   UNL A   1      45.102  26.375  27.248  1.00  0.00    -0.354 N 
ATOM     48  C   UNL A   1      41.190  27.474  28.757  1.00  0.00     0.074 A 
ATOM     49  C   UNL A   1      40.280  26.349  28.691  1.00  0.00     0.031 C 
ATOM     50  C   UNL A   1      46.624  25.026  26.320  1.00  0.00     0.029 A 
ATOM     51  C   UNL A   1      46.398  26.390  26.789  1.00  0.00     0.049 A 
ATOM     52  H   UNL A   1      44.665  27.159  27.654  1.00  0.00     0.167 HD
ATOM     53  C   UNL A   1      40.863  28.701  29.236  1.00  0.00     0.034 A 
ATOM     54  C   UNL A   1      47.299  27.391  26.737  1.00  0.00     0.034 A 
ATOM     55  C   UNL A   1      41.788  29.806  29.309  1.00  0.00     0.049 A 
ATOM     56  C   UNL A   1      46.910  28.748  27.264  1.00  0.00     0.074 A 
ATOM     57  C   UNL A   1      41.581  31.073  29.827  1.00  0.00     0.029 A 
ATOM     58  N   UNL A   1      43.098  29.780  28.843  1.00  0.00    -0.354 N 
ATOM     59  N   UNL A   1      45.763  29.142  27.768  1.00  0.00    -0.248 NA
ATOM     60  C   UNL A   1      47.941  29.793  27.226  1.00  0.00     0.031 C 
ATOM     61  C   UNL A   1      42.741  31.830  29.621  1.00  0.00     0.029 A 
ATOM     62  C   UNL A   1      43.699  31.015  29.038  1.00  0.00     0.049 A 
ATOM     63  H   UNL A   1      43.535  28.998  28.435  1.00  0.00     0.167 HD
ATOM     64  C   UNL A   1      45.946  30.473  28.133  1.00  0.00     0.074 A 
ATOM     65  C   UNL A   1      47.317  30.808  27.804  1.00  0.00     0.031 C 
ATOM     66  C   UNL A   1      45.063  31.338  28.693  1.00  0.00     0.034 A 
BRANCH  53  67
ATOM     67  C   UNL A   1      39.438  28.911  29.690  1.00  0.00     0.023 A 
ATOM     68  C   UNL A   1      38.484  29.536  28.868  1.00  0.00     0.031 A 
ATOM     69  C   UNL A   1      39.033  28.508  30.975  1.00  0.00     0.131 A 
ATOM     70  C   UNL A   1      37.202  29.813  29.365  1.00  0.00     0.055 A 
ATOM     71  C   UNL A   1      37.729  28.713  31.435  1.00  0.00     0.041 A 
ATOM     72  F   UNL A   1      39.902  27.922  31.815  1.00  0.00    -0.206 F 
ATOM     73  C   UNL A   1      36.810  29.385  30.634  1.00  0.00     0.022 A 
BRANCH  70  74
ATOM     74  S   UNL A   1      36.102  30.872  28.384  1.00  0.00     0.124 S 
ATOM     75  O   UNL A   1      36.932  32.059  28.191  1.00  0.00    -0.237 OA
ATOM     76  O   UNL A   1      35.861  30.062  27.196  1.00  0.00    -0.237 OA
ATOM     77  O   UNL A   1      34.945  31.065  29.255  1.00  0.00    -0.744 OA
ENDBRANCH  70  74
ENDBRANCH  53  67
BRANCH  54  78
ATOM     78  C   UNL A   1      48.653  27.158  26.159  1.00  0.00     0.023 A 
ATOM     79  C   UNL A   1      48.921  27.445  24.812  1.00  0.00     0.031 A 
ATOM     80  C   UNL A   1      49.689  26.613  26.938  1.00  0.00     0.131 A 
ATOM     81  C   UNL A   1      50.180  27.144  24.271  1.00  0.00     0.055 A 
ATOM     82  C   UNL A   1      50.954  26.361  26.407  1.00  0.00     0.041 A 
ATOM     83  F   UNL A   1      49.485  26.326  28.234  1.00  0.00    -0.206 F 
ATOM     84  C   UNL A   1      51.203  26.616  25.062  1.00  0.00     0.022 A 
BRANCH  81  85
ATOM     85  S   UNL A   1      50.440  27.383  22.491  1.00  0.00     0.124 S 
ATOM     86  O   UNL A   1      51.809  26.910  22.324  1.00  0.00    -0.237 OA
ATOM     87  O   UNL A   1      49.395  26.541  21.918  1.00  0.00    -0.237 OA
ATOM     88  O   UNL A   1      50.248  28.820  22.309  1.00  0.00    -0.744 OA
ENDBRANCH  81  85
ENDBRANCH  54  78
BRANCH  66  89
ATOM     89  C   UNL A   1      45.578  32.717  29.026  1.00  0.00     0.023 A 
ATOM     90  C   UNL A   1      45.388  33.807  28.160  1.00  0.00     0.031 A 
ATOM     91  C   UNL A   1      46.283  32.935  30.222  1.00  0.00     0.131 A 
ATOM     92  C   UNL A   1      45.945  35.056  28.475  1.00  0.00     0.055 A 
ATOM     93  C   UNL A   1      46.787  34.193  30.558  1.00  0.00     0.041 A 
ATOM     94  F   UNL A   1      46.496  31.929  31.085  1.00  0.00    -0.206 F 
ATOM     95  C   UNL A   1      46.630  35.258  29.676  1.00  0.00     0.022 A 
BRANCH  92  96
ATOM     96  S   UNL A   1      45.838  36.393  27.254  1.00  0.00     0.124 S 
ATOM     97  O   UNL A   1      46.105  37.572  28.071  1.00  0.00    -0.237 OA
ATOM     98  O   UNL A   1      46.881  36.029  26.301  1.00  0.00    -0.237 OA
ATOM     99  O   UNL A   1      44.471  36.286  26.747  1.00  0.00    -0.744 OA
ENDBRANCH  92  96
ENDBRANCH  66  89
ENDBRANCH  40  41
ENDBRANCH  32  35
ENDBRANCH  30  31
ENDBRANCH  29  30
ENDBRANCH   1  29
TORSDOF 18
ENDMDL
