MODEL 1
REMARK VINA RESULT:     -12.6      0.000      0.000
REMARK SMILES CC(C)c1cc(O)cc(C(C)C)c1O[C@@H]1O[C@@H](C(=O)NCCCNC(=O)c2ccc(-c3c4nc(c(-c5cc(S(=O)(=O)[O-])ccc5F)c5ccc([nH]5)c(-c5cc(S(=O)(=O)[O-])ccc5F)c5nc(c(-c6cc(S(=O)(=O)[O-])ccc6F)c6ccc3[nH]6)C=C5)C=C4)cc2)[C@@H](O)[C@H](O)[C@@H]1O
REMARK SMILES IDX 22 1 21 2 20 3 18 4 19 5 17 7 15 8 16 9 94 10 92 11 90 12
REMARK SMILES IDX 14 13 13 14 4 15 5 16 6 17 9 18 8 19 2 20 1 21 3 22 7 23
REMARK SMILES IDX 10 25 11 26 12 27 95 28 93 30 91 32 23 34 24 35 25 36 26 38
REMARK SMILES IDX 27 39 28 40 89 41 29 42 88 43 30 44 31 45 32 46 82 47 33 48
REMARK SMILES IDX 87 49 81 50 83 51 34 52 86 53 80 54 79 55 35 57 67 58 47 59
REMARK SMILES IDX 66 60 48 61 51 62 65 63 84 64 49 65 50 66 64 68 85 69 52 70
REMARK SMILES IDX 36 71 37 72 45 73 38 74 44 75 46 76 43 77 39 78 40 79 41 80
REMARK SMILES IDX 42 81 68 82 69 83 77 84 70 85 76 86 78 87 75 88 71 89 72 90
REMARK SMILES IDX 73 91 74 92 53 93 54 94 62 95 55 96 61 97 63 98 60 99 56 100
REMARK SMILES IDX 57 101 58 102 59 103
REMARK H PARENT 20 6 7 24 95 29 93 31 91 33 24 37 83 56 51 67
REMARK Flexibility Score: inf
ROOT
ATOM      1  C   UNL A   1      31.743  31.345  26.650  1.00  0.00     0.042 C 
ENDROOT
BRANCH   1   2
ATOM      2  C   UNL A   1      31.978  29.908  26.232  1.00  0.00     0.117 C 
BRANCH   2   3
ATOM      3  N   UNL A   1      32.807  29.756  25.043  1.00  0.00    -0.354 N 
ATOM      4  C   UNL A   1      32.755  28.964  23.942  1.00  0.00     0.252 C 
ATOM      5  O   UNL A   1      33.471  29.340  23.000  1.00  0.00    -0.272 OA
ATOM      6  H   UNL A   1      33.579  30.367  25.037  1.00  0.00     0.163 HD
BRANCH   4   7
ATOM      7  C   UNL A   1      31.935  27.646  23.788  1.00  0.00     0.242 C 
ATOM      8  C   UNL A   1      33.685  26.063  24.304  1.00  0.00     0.339 C 
ATOM      9  O   UNL A   1      32.400  26.589  24.652  1.00  0.00    -0.324 OA
ATOM     10  C   UNL A   1      33.991  25.821  22.790  1.00  0.00     0.214 C 
ATOM     11  C   UNL A   1      33.127  26.663  21.833  1.00  0.00     0.181 C 
ATOM     12  C   UNL A   1      31.742  27.037  22.408  1.00  0.00     0.184 C 
BRANCH   8  13
ATOM     13  O   UNL A   1      34.099  24.959  25.127  1.00  0.00    -0.461 OA
BRANCH  13  14
ATOM     14  C   UNL A   1      33.740  23.640  25.112  1.00  0.00     0.130 A 
ATOM     15  C   UNL A   1      34.853  22.797  24.801  1.00  0.00     0.001 A 
ATOM     16  C   UNL A   1      34.686  21.398  24.731  1.00  0.00     0.054 A 
ATOM     17  C   UNL A   1      33.448  20.829  24.950  1.00  0.00     0.116 A 
ATOM     18  C   UNL A   1      32.475  23.034  25.328  1.00  0.00     0.001 A 
ATOM     19  C   UNL A   1      32.364  21.628  25.251  1.00  0.00     0.054 A 
BRANCH  15  20
ATOM     20  C   UNL A   1      36.255  23.369  24.554  1.00  0.00     0.017 C 
ATOM     21  C   UNL A   1      37.118  23.236  25.811  1.00  0.00     0.012 C 
ATOM     22  C   UNL A   1      36.947  22.719  23.348  1.00  0.00     0.012 C 
ENDBRANCH  15  20
BRANCH  17  23
ATOM     23  O   UNL A   1      33.247  19.484  24.876  1.00  0.00    -0.508 OA
ATOM     24  H   UNL A   1      33.713  18.909  25.451  1.00  0.00     0.293 HD
ENDBRANCH  17  23
BRANCH  18  25
ATOM     25  C   UNL A   1      31.184  23.755  25.644  1.00  0.00     0.017 C 
ATOM     26  C   UNL A   1      30.352  24.169  24.420  1.00  0.00     0.012 C 
ATOM     27  C   UNL A   1      30.330  23.015  26.670  1.00  0.00     0.012 C 
ENDBRANCH  18  25
ENDBRANCH  13  14
ENDBRANCH   8  13
BRANCH  10  28
ATOM     28  O   UNL A   1      33.906  24.450  22.358  1.00  0.00    -0.384 OA
ATOM     29  H   UNL A   1      34.784  24.141  22.087  1.00  0.00     0.211 HD
ENDBRANCH  10  28
BRANCH  11  30
ATOM     30  O   UNL A   1      32.977  25.989  20.577  1.00  0.00    -0.387 OA
ATOM     31  H   UNL A   1      33.333  26.546  19.866  1.00  0.00     0.211 HD
ENDBRANCH  11  30
BRANCH  12  32
ATOM     32  O   UNL A   1      30.902  27.840  21.579  1.00  0.00    -0.387 OA
ATOM     33  H   UNL A   1      30.852  27.448  20.693  1.00  0.00     0.211 HD
ENDBRANCH  12  32
ENDBRANCH   4   7
ENDBRANCH   2   3
ENDBRANCH   1   2
BRANCH   1  34
ATOM     34  C   UNL A   1      33.012  31.981  27.189  1.00  0.00     0.118 C 
BRANCH  34  35
ATOM     35  N   UNL A   1      32.839  33.414  27.442  1.00  0.00    -0.352 N 
ATOM     36  C   UNL A   1      33.309  34.205  28.464  1.00  0.00     0.251 C 
ATOM     37  H   UNL A   1      32.296  33.888  26.771  1.00  0.00     0.163 HD
ATOM     38  O   UNL A   1      32.780  35.288  28.683  1.00  0.00    -0.269 OA
BRANCH  36  39
ATOM     39  C   UNL A   1      34.449  33.745  29.278  1.00  0.00     0.039 A 
ATOM     40  C   UNL A   1      34.244  32.857  30.337  1.00  0.00     0.014 A 
ATOM     41  C   UNL A   1      35.732  34.213  28.995  1.00  0.00     0.014 A 
ATOM     42  C   UNL A   1      35.344  32.377  31.052  1.00  0.00     0.010 A 
ATOM     43  C   UNL A   1      36.827  33.640  29.616  1.00  0.00     0.010 A 
ATOM     44  C   UNL A   1      36.647  32.727  30.663  1.00  0.00    -0.014 A 
BRANCH  44  45
ATOM     45  C   UNL A   1      37.851  32.176  31.330  1.00  0.00     0.031 A 
ATOM     46  C   UNL A   1      38.627  31.071  30.659  1.00  0.00     0.074 A 
ATOM     47  C   UNL A   1      38.164  32.585  32.576  1.00  0.00     0.049 A 
ATOM     48  N   UNL A   1      39.598  30.338  31.134  1.00  0.00    -0.248 NA
ATOM     49  C   UNL A   1      38.219  30.709  29.291  1.00  0.00     0.031 C 
ATOM     50  C   UNL A   1      37.439  33.603  33.342  1.00  0.00     0.029 A 
ATOM     51  N   UNL A   1      39.161  32.183  33.426  1.00  0.00    -0.354 N 
ATOM     52  C   UNL A   1      39.892  29.408  30.139  1.00  0.00     0.074 A 
ATOM     53  C   UNL A   1      38.954  29.632  29.062  1.00  0.00     0.031 C 
ATOM     54  C   UNL A   1      38.032  33.763  34.535  1.00  0.00     0.029 A 
ATOM     55  C   UNL A   1      39.142  32.825  34.644  1.00  0.00     0.049 A 
ATOM     56  H   UNL A   1      39.828  31.499  33.190  1.00  0.00     0.167 HD
ATOM     57  C   UNL A   1      40.870  28.472  30.120  1.00  0.00     0.034 A 
ATOM     58  C   UNL A   1      39.922  32.659  35.730  1.00  0.00     0.034 A 
ATOM     59  C   UNL A   1      41.826  28.307  31.186  1.00  0.00     0.049 A 
ATOM     60  C   UNL A   1      41.017  31.624  35.672  1.00  0.00     0.074 A 
ATOM     61  C   UNL A   1      42.922  27.466  31.235  1.00  0.00     0.029 A 
ATOM     62  N   UNL A   1      41.798  28.999  32.389  1.00  0.00    -0.354 N 
ATOM     63  N   UNL A   1      41.328  30.804  34.692  1.00  0.00    -0.248 NA
ATOM     64  C   UNL A   1      41.871  31.496  36.858  1.00  0.00     0.031 C 
ATOM     65  C   UNL A   1      43.520  27.604  32.492  1.00  0.00     0.029 A 
ATOM     66  C   UNL A   1      42.839  28.580  33.201  1.00  0.00     0.049 A 
ATOM     67  H   UNL A   1      41.136  29.688  32.630  1.00  0.00     0.167 HD
ATOM     68  C   UNL A   1      42.430  30.082  35.139  1.00  0.00     0.074 A 
ATOM     69  C   UNL A   1      42.744  30.582  36.462  1.00  0.00     0.031 C 
ATOM     70  C   UNL A   1      43.121  29.092  34.519  1.00  0.00     0.034 A 
BRANCH  57  71
ATOM     71  C   UNL A   1      40.949  27.558  28.924  1.00  0.00     0.023 A 
ATOM     72  C   UNL A   1      41.950  27.698  27.947  1.00  0.00     0.031 A 
ATOM     73  C   UNL A   1      40.009  26.524  28.760  1.00  0.00     0.131 A 
ATOM     74  C   UNL A   1      41.953  26.860  26.821  1.00  0.00     0.055 A 
ATOM     75  C   UNL A   1      40.062  25.647  27.675  1.00  0.00     0.041 A 
ATOM     76  F   UNL A   1      39.019  26.355  29.649  1.00  0.00    -0.206 F 
ATOM     77  C   UNL A   1      41.032  25.819  26.692  1.00  0.00     0.022 A 
BRANCH  74  78
ATOM     78  S   UNL A   1      43.113  27.220  25.475  1.00  0.00     0.124 S 
ATOM     79  O   UNL A   1      44.199  27.884  26.192  1.00  0.00    -0.237 OA
ATOM     80  O   UNL A   1      43.412  25.893  24.950  1.00  0.00    -0.237 OA
ATOM     81  O   UNL A   1      42.344  28.086  24.583  1.00  0.00    -0.744 OA
ENDBRANCH  74  78
ENDBRANCH  57  71
BRANCH  58  82
ATOM     82  C   UNL A   1      39.702  33.468  36.965  1.00  0.00     0.023 A 
ATOM     83  C   UNL A   1      39.013  32.930  38.063  1.00  0.00     0.031 A 
ATOM     84  C   UNL A   1      40.119  34.810  37.043  1.00  0.00     0.131 A 
ATOM     85  C   UNL A   1      38.704  33.743  39.164  1.00  0.00     0.055 A 
ATOM     86  C   UNL A   1      39.863  35.597  38.167  1.00  0.00     0.041 A 
ATOM     87  F   UNL A   1      40.786  35.376  36.025  1.00  0.00    -0.206 F 
ATOM     88  C   UNL A   1      39.135  35.070  39.229  1.00  0.00     0.022 A 
BRANCH  85  89
ATOM     89  S   UNL A   1      37.626  33.073  40.459  1.00  0.00     0.124 S 
ATOM     90  O   UNL A   1      36.413  32.766  39.707  1.00  0.00    -0.237 OA
ATOM     91  O   UNL A   1      38.396  31.927  40.929  1.00  0.00    -0.237 OA
ATOM     92  O   UNL A   1      37.509  34.177  41.409  1.00  0.00    -0.744 OA
ENDBRANCH  85  89
ENDBRANCH  58  82
BRANCH  70  93
ATOM     93  C   UNL A   1      44.298  28.519  35.266  1.00  0.00     0.023 A 
ATOM     94  C   UNL A   1      44.137  27.496  36.214  1.00  0.00     0.031 A 
ATOM     95  C   UNL A   1      45.594  29.012  35.032  1.00  0.00     0.131 A 
ATOM     96  C   UNL A   1      45.245  27.038  36.939  1.00  0.00     0.055 A 
ATOM     97  C   UNL A   1      46.702  28.509  35.711  1.00  0.00     0.041 A 
ATOM     98  F   UNL A   1      45.802  29.990  34.134  1.00  0.00    -0.206 F 
ATOM     99  C   UNL A   1      46.529  27.525  36.681  1.00  0.00     0.022 A 
BRANCH  96 100
ATOM    100  S   UNL A   1      44.971  25.858  38.288  1.00  0.00     0.124 S 
ATOM    101  O   UNL A   1      46.335  25.480  38.642  1.00  0.00    -0.237 OA
ATOM    102  O   UNL A   1      44.259  26.667  39.271  1.00  0.00    -0.237 OA
ATOM    103  O   UNL A   1      44.176  24.802  37.662  1.00  0.00    -0.744 OA
ENDBRANCH  96 100
ENDBRANCH  70  93
ENDBRANCH  44  45
ENDBRANCH  36  39
ENDBRANCH  34  35
ENDBRANCH   1  34
TORSDOF 21
ENDMDL
MODEL 2
REMARK VINA RESULT:     -12.4      5.428     11.301
REMARK SMILES CC(C)c1cc(O)cc(C(C)C)c1O[C@@H]1O[C@@H](C(=O)NCCCNC(=O)c2ccc(-c3c4nc(c(-c5cc(S(=O)(=O)[O-])ccc5F)c5ccc([nH]5)c(-c5cc(S(=O)(=O)[O-])ccc5F)c5nc(c(-c6cc(S(=O)(=O)[O-])ccc6F)c6ccc3[nH]6)C=C5)C=C4)cc2)[C@@H](O)[C@H](O)[C@@H]1O
REMARK SMILES IDX 22 1 21 2 20 3 18 4 19 5 17 7 15 8 16 9 94 10 92 11 90 12
REMARK SMILES IDX 14 13 13 14 4 15 5 16 6 17 9 18 8 19 2 20 1 21 3 22 7 23
REMARK SMILES IDX 10 25 11 26 12 27 95 28 93 30 91 32 23 34 24 35 25 36 26 38
REMARK SMILES IDX 27 39 28 40 89 41 29 42 88 43 30 44 31 45 32 46 82 47 33 48
REMARK SMILES IDX 87 49 81 50 83 51 34 52 86 53 80 54 79 55 35 57 67 58 47 59
REMARK SMILES IDX 66 60 48 61 51 62 65 63 84 64 49 65 50 66 64 68 85 69 52 70
REMARK SMILES IDX 36 71 37 72 45 73 38 74 44 75 46 76 43 77 39 78 40 79 41 80
REMARK SMILES IDX 42 81 68 82 69 83 77 84 70 85 76 86 78 87 75 88 71 89 72 90
REMARK SMILES IDX 73 91 74 92 53 93 54 94 62 95 55 96 61 97 63 98 60 99 56 100
REMARK SMILES IDX 57 101 58 102 59 103
REMARK H PARENT 20 6 7 24 95 29 93 31 91 33 24 37 83 56 51 67
REMARK Flexibility Score: inf
ROOT
ATOM      1  C   UNL A   1      37.790  20.303  25.062  1.00  0.00     0.042 C 
ENDROOT
BRANCH   1   2
ATOM      2  C   UNL A   1      36.718  21.370  24.968  1.00  0.00     0.117 C 
BRANCH   2   3
ATOM      3  N   UNL A   1      35.911  21.518  26.171  1.00  0.00    -0.354 N 
ATOM      4  C   UNL A   1      34.585  21.677  26.415  1.00  0.00     0.252 C 
ATOM      5  O   UNL A   1      34.245  21.460  27.588  1.00  0.00    -0.272 OA
ATOM      6  H   UNL A   1      36.450  21.498  26.996  1.00  0.00     0.163 HD
BRANCH   4   7
ATOM      7  C   UNL A   1      33.505  22.138  25.387  1.00  0.00     0.242 C 
ATOM      8  C   UNL A   1      33.394  24.473  25.993  1.00  0.00     0.339 C 
ATOM      9  O   UNL A   1      33.670  23.508  24.972  1.00  0.00    -0.324 OA
ATOM     10  C   UNL A   1      32.147  24.236  26.906  1.00  0.00     0.214 C 
ATOM     11  C   UNL A   1      31.691  22.767  26.975  1.00  0.00     0.181 C 
ATOM     12  C   UNL A   1      32.031  21.947  25.709  1.00  0.00     0.184 C 
BRANCH   8  13
ATOM     13  O   UNL A   1      33.488  25.834  25.542  1.00  0.00    -0.461 OA
BRANCH  13  14
ATOM     14  C   UNL A   1      32.636  26.596  24.792  1.00  0.00     0.130 A 
ATOM     15  C   UNL A   1      32.220  27.768  25.499  1.00  0.00     0.001 A 
ATOM     16  C   UNL A   1      31.331  28.683  24.896  1.00  0.00     0.054 A 
ATOM     17  C   UNL A   1      30.846  28.453  23.624  1.00  0.00     0.116 A 
ATOM     18  C   UNL A   1      32.120  26.376  23.489  1.00  0.00     0.001 A 
ATOM     19  C   UNL A   1      31.237  27.327  22.929  1.00  0.00     0.054 A 
BRANCH  15  20
ATOM     20  C   UNL A   1      32.730  28.084  26.911  1.00  0.00     0.017 C 
ATOM     21  C   UNL A   1      33.818  29.160  26.861  1.00  0.00     0.012 C 
ATOM     22  C   UNL A   1      31.598  28.498  27.861  1.00  0.00     0.012 C 
ENDBRANCH  15  20
BRANCH  17  23
ATOM     23  O   UNL A   1      29.976  29.306  23.017  1.00  0.00    -0.508 OA
ATOM     24  H   UNL A   1      29.099  29.388  23.338  1.00  0.00     0.293 HD
ENDBRANCH  17  23
BRANCH  18  25
ATOM     25  C   UNL A   1      32.422  25.192  22.598  1.00  0.00     0.017 C 
ATOM     26  C   UNL A   1      31.421  24.031  22.696  1.00  0.00     0.012 C 
ATOM     27  C   UNL A   1      32.667  25.592  21.146  1.00  0.00     0.012 C 
ENDBRANCH  18  25
ENDBRANCH  13  14
ENDBRANCH   8  13
BRANCH  10  28
ATOM     28  O   UNL A   1      30.992  25.034  26.586  1.00  0.00    -0.384 OA
ATOM     29  H   UNL A   1      30.299  24.881  27.248  1.00  0.00     0.211 HD
ENDBRANCH  10  28
BRANCH  11  30
ATOM     30  O   UNL A   1      30.286  22.696  27.248  1.00  0.00    -0.387 OA
ATOM     31  H   UNL A   1      29.814  23.333  26.688  1.00  0.00     0.211 HD
ENDBRANCH  11  30
BRANCH  12  32
ATOM     32  O   UNL A   1      31.657  20.570  25.721  1.00  0.00    -0.387 OA
ATOM     33  H   UNL A   1      30.731  20.484  25.444  1.00  0.00     0.211 HD
ENDBRANCH  12  32
ENDBRANCH   4   7
ENDBRANCH   2   3
ENDBRANCH   1   2
BRANCH   1  34
ATOM     34  C   UNL A   1      38.996  20.794  25.842  1.00  0.00     0.118 C 
BRANCH  34  35
ATOM     35  N   UNL A   1      39.974  19.726  26.065  1.00  0.00    -0.352 N 
ATOM     36  C   UNL A   1      41.346  19.770  26.139  1.00  0.00     0.251 C 
ATOM     37  H   UNL A   1      39.584  18.829  26.179  1.00  0.00     0.163 HD
ATOM     38  O   UNL A   1      41.994  18.741  25.988  1.00  0.00    -0.269 OA
BRANCH  36  39
ATOM     39  C   UNL A   1      42.021  21.053  26.409  1.00  0.00     0.039 A 
ATOM     40  C   UNL A   1      42.323  21.923  25.357  1.00  0.00     0.014 A 
ATOM     41  C   UNL A   1      42.372  21.387  27.716  1.00  0.00     0.014 A 
ATOM     42  C   UNL A   1      42.899  23.164  25.639  1.00  0.00     0.010 A 
ATOM     43  C   UNL A   1      42.820  22.663  28.006  1.00  0.00     0.010 A 
ATOM     44  C   UNL A   1      43.103  23.562  26.970  1.00  0.00    -0.014 A 
BRANCH  44  45
ATOM     45  C   UNL A   1      43.627  24.903  27.327  1.00  0.00     0.031 A 
ATOM     46  C   UNL A   1      42.689  25.935  27.896  1.00  0.00     0.074 A 
ATOM     47  C   UNL A   1      44.904  25.217  27.026  1.00  0.00     0.049 A 
ATOM     48  N   UNL A   1      42.894  27.206  28.118  1.00  0.00    -0.248 NA
ATOM     49  C   UNL A   1      41.320  25.488  28.208  1.00  0.00     0.031 C 
ATOM     50  C   UNL A   1      45.879  24.311  26.413  1.00  0.00     0.029 A 
ATOM     51  N   UNL A   1      45.596  26.390  27.177  1.00  0.00    -0.354 N 
ATOM     52  C   UNL A   1      41.676  27.715  28.560  1.00  0.00     0.074 A 
ATOM     53  C   UNL A   1      40.723  26.630  28.515  1.00  0.00     0.031 C 
ATOM     54  C   UNL A   1      47.048  24.953  26.267  1.00  0.00     0.029 A 
ATOM     55  C   UNL A   1      46.895  26.329  26.722  1.00  0.00     0.049 A 
ATOM     56  H   UNL A   1      45.204  27.200  27.574  1.00  0.00     0.167 HD
ATOM     57  C   UNL A   1      41.389  28.969  28.986  1.00  0.00     0.034 A 
ATOM     58  C   UNL A   1      47.844  27.284  26.662  1.00  0.00     0.034 A 
ATOM     59  C   UNL A   1      42.373  30.018  29.071  1.00  0.00     0.049 A 
ATOM     60  C   UNL A   1      47.501  28.664  27.164  1.00  0.00     0.074 A 
ATOM     61  C   UNL A   1      42.226  31.295  29.583  1.00  0.00     0.029 A 
ATOM     62  N   UNL A   1      43.686  29.911  28.634  1.00  0.00    -0.354 N 
ATOM     63  N   UNL A   1      46.363  29.108  27.649  1.00  0.00    -0.248 NA
ATOM     64  C   UNL A   1      48.571  29.669  27.119  1.00  0.00     0.031 C 
ATOM     65  C   UNL A   1      43.432  31.979  29.398  1.00  0.00     0.029 A 
ATOM     66  C   UNL A   1      44.352  31.109  28.834  1.00  0.00     0.049 A 
ATOM     67  H   UNL A   1      44.086  29.101  28.241  1.00  0.00     0.167 HD
ATOM     68  C   UNL A   1      46.591  30.438  27.989  1.00  0.00     0.074 A 
ATOM     69  C   UNL A   1      47.979  30.713  27.678  1.00  0.00     0.031 C 
ATOM     70  C   UNL A   1      45.734  31.355  28.507  1.00  0.00     0.034 A 
BRANCH  57  71
ATOM     71  C   UNL A   1      39.966  29.271  29.380  1.00  0.00     0.023 A 
ATOM     72  C   UNL A   1      39.582  29.418  30.724  1.00  0.00     0.031 A 
ATOM     73  C   UNL A   1      38.975  29.421  28.393  1.00  0.00     0.131 A 
ATOM     74  C   UNL A   1      38.236  29.644  31.049  1.00  0.00     0.055 A 
ATOM     75  C   UNL A   1      37.650  29.720  28.719  1.00  0.00     0.041 A 
ATOM     76  F   UNL A   1      39.276  29.271  27.094  1.00  0.00    -0.206 F 
ATOM     77  C   UNL A   1      37.272  29.822  30.055  1.00  0.00     0.022 A 
BRANCH  74  78
ATOM     78  S   UNL A   1      37.745  29.596  32.794  1.00  0.00     0.124 S 
ATOM     79  O   UNL A   1      38.973  30.024  33.458  1.00  0.00    -0.237 OA
ATOM     80  O   UNL A   1      36.633  30.538  32.837  1.00  0.00    -0.237 OA
ATOM     81  O   UNL A   1      37.384  28.196  33.009  1.00  0.00    -0.744 OA
ENDBRANCH  74  78
ENDBRANCH  57  71
BRANCH  58  82
ATOM     82  C   UNL A   1      49.196  26.988  26.103  1.00  0.00     0.023 A 
ATOM     83  C   UNL A   1      49.552  27.423  24.817  1.00  0.00     0.031 A 
ATOM     84  C   UNL A   1      50.128  26.214  26.817  1.00  0.00     0.131 A 
ATOM     85  C   UNL A   1      50.776  27.029  24.257  1.00  0.00     0.055 A 
ATOM     86  C   UNL A   1      51.372  25.877  26.279  1.00  0.00     0.041 A 
ATOM     87  F   UNL A   1      49.844  25.775  28.053  1.00  0.00    -0.206 F 
ATOM     88  C   UNL A   1      51.695  26.269  24.984  1.00  0.00     0.022 A 
BRANCH  85  89
ATOM     89  S   UNL A   1      51.100  27.427  22.517  1.00  0.00     0.124 S 
ATOM     90  O   UNL A   1      49.974  26.782  21.850  1.00  0.00    -0.237 OA
ATOM     91  O   UNL A   1      51.086  28.886  22.534  1.00  0.00    -0.237 OA
ATOM     92  O   UNL A   1      52.406  26.820  22.267  1.00  0.00    -0.744 OA
ENDBRANCH  85  89
ENDBRANCH  58  82
BRANCH  70  93
ATOM     93  C   UNL A   1      46.298  32.723  28.792  1.00  0.00     0.023 A 
ATOM     94  C   UNL A   1      46.190  33.768  27.861  1.00  0.00     0.031 A 
ATOM     95  C   UNL A   1      46.961  32.976  30.006  1.00  0.00     0.131 A 
ATOM     96  C   UNL A   1      46.789  35.006  28.133  1.00  0.00     0.055 A 
ATOM     97  C   UNL A   1      47.500  34.229  30.297  1.00  0.00     0.041 A 
ATOM     98  F   UNL A   1      47.091  32.010  30.930  1.00  0.00    -0.206 F 
ATOM     99  C   UNL A   1      47.427  35.248  29.352  1.00  0.00     0.022 A 
BRANCH  96 100
ATOM    100  S   UNL A   1      46.798  36.268  26.831  1.00  0.00     0.124 S 
ATOM    101  O   UNL A   1      47.987  37.044  27.169  1.00  0.00    -0.237 OA
ATOM    102  O   UNL A   1      46.886  35.464  25.617  1.00  0.00    -0.237 OA
ATOM    103  O   UNL A   1      45.526  36.965  27.021  1.00  0.00    -0.744 OA
ENDBRANCH  96 100
ENDBRANCH  70  93
ENDBRANCH  44  45
ENDBRANCH  36  39
ENDBRANCH  34  35
ENDBRANCH   1  34
TORSDOF 21
ENDMDL
MODEL 3
REMARK VINA RESULT:     -12.1      3.151      8.175
REMARK SMILES CC(C)c1cc(O)cc(C(C)C)c1O[C@@H]1O[C@@H](C(=O)NCCCNC(=O)c2ccc(-c3c4nc(c(-c5cc(S(=O)(=O)[O-])ccc5F)c5ccc([nH]5)c(-c5cc(S(=O)(=O)[O-])ccc5F)c5nc(c(-c6cc(S(=O)(=O)[O-])ccc6F)c6ccc3[nH]6)C=C5)C=C4)cc2)[C@@H](O)[C@H](O)[C@@H]1O
REMARK SMILES IDX 22 1 21 2 20 3 18 4 19 5 17 7 15 8 16 9 94 10 92 11 90 12
REMARK SMILES IDX 14 13 13 14 4 15 5 16 6 17 9 18 8 19 2 20 1 21 3 22 7 23
REMARK SMILES IDX 10 25 11 26 12 27 95 28 93 30 91 32 23 34 24 35 25 36 26 38
REMARK SMILES IDX 27 39 28 40 89 41 29 42 88 43 30 44 31 45 32 46 82 47 33 48
REMARK SMILES IDX 87 49 81 50 83 51 34 52 86 53 80 54 79 55 35 57 67 58 47 59
REMARK SMILES IDX 66 60 48 61 51 62 65 63 84 64 49 65 50 66 64 68 85 69 52 70
REMARK SMILES IDX 36 71 37 72 45 73 38 74 44 75 46 76 43 77 39 78 40 79 41 80
REMARK SMILES IDX 42 81 68 82 69 83 77 84 70 85 76 86 78 87 75 88 71 89 72 90
REMARK SMILES IDX 73 91 74 92 53 93 54 94 62 95 55 96 61 97 63 98 60 99 56 100
REMARK SMILES IDX 57 101 58 102 59 103
REMARK H PARENT 20 6 7 24 95 29 93 31 91 33 24 37 83 56 51 67
REMARK Flexibility Score: inf
ROOT
ATOM      1  C   UNL A   1      32.205  29.612  27.057  1.00  0.00     0.042 C 
ENDROOT
BRANCH   1   2
ATOM      2  C   UNL A   1      31.537  29.927  25.735  1.00  0.00     0.117 C 
BRANCH   2   3
ATOM      3  N   UNL A   1      32.390  29.736  24.569  1.00  0.00    -0.354 N 
ATOM      4  C   UNL A   1      32.440  28.822  23.567  1.00  0.00     0.252 C 
ATOM      5  O   UNL A   1      33.118  29.166  22.586  1.00  0.00    -0.272 OA
ATOM      6  H   UNL A   1      33.088  30.426  24.491  1.00  0.00     0.163 HD
BRANCH   4   7
ATOM      7  C   UNL A   1      31.777  27.409  23.569  1.00  0.00     0.242 C 
ATOM      8  C   UNL A   1      33.661  26.122  24.362  1.00  0.00     0.339 C 
ATOM      9  O   UNL A   1      32.310  26.538  24.587  1.00  0.00    -0.324 OA
ATOM     10  C   UNL A   1      34.069  25.715  22.908  1.00  0.00     0.214 C 
ATOM     11  C   UNL A   1      33.168  26.317  21.813  1.00  0.00     0.181 C 
ATOM     12  C   UNL A   1      31.723  26.603  22.281  1.00  0.00     0.184 C 
BRANCH   8  13
ATOM     13  O   UNL A   1      34.149  25.193  25.344  1.00  0.00    -0.461 OA
BRANCH  13  14
ATOM     14  C   UNL A   1      33.919  23.856  25.514  1.00  0.00     0.130 A 
ATOM     15  C   UNL A   1      35.132  23.102  25.447  1.00  0.00     0.001 A 
ATOM     16  C   UNL A   1      35.105  21.699  25.593  1.00  0.00     0.054 A 
ATOM     17  C   UNL A   1      33.909  21.039  25.791  1.00  0.00     0.116 A 
ATOM     18  C   UNL A   1      32.700  23.157  25.712  1.00  0.00     0.001 A 
ATOM     19  C   UNL A   1      32.729  21.752  25.858  1.00  0.00     0.054 A 
BRANCH  15  20
ATOM     20  C   UNL A   1      36.493  23.778  25.237  1.00  0.00     0.017 C 
ATOM     21  C   UNL A   1      37.309  23.758  26.533  1.00  0.00     0.012 C 
ATOM     22  C   UNL A   1      37.287  23.146  24.085  1.00  0.00     0.012 C 
ENDBRANCH  15  20
BRANCH  17  23
ATOM     23  O   UNL A   1      33.842  19.685  25.921  1.00  0.00    -0.508 OA
ATOM     24  H   UNL A   1      34.618  19.167  25.827  1.00  0.00     0.293 HD
ENDBRANCH  17  23
BRANCH  18  25
ATOM     25  C   UNL A   1      31.321  23.772  25.788  1.00  0.00     0.017 C 
ATOM     26  C   UNL A   1      30.572  23.860  24.449  1.00  0.00     0.012 C 
ATOM     27  C   UNL A   1      30.450  23.140  26.870  1.00  0.00     0.012 C 
ENDBRANCH  18  25
ENDBRANCH  13  14
ENDBRANCH   8  13
BRANCH  10  28
ATOM     28  O   UNL A   1      34.155  24.299  22.668  1.00  0.00    -0.384 OA
ATOM     29  H   UNL A   1      34.186  24.133  21.712  1.00  0.00     0.211 HD
ENDBRANCH  10  28
BRANCH  11  30
ATOM     30  O   UNL A   1      33.157  25.468  20.659  1.00  0.00    -0.387 OA
ATOM     31  H   UNL A   1      32.305  25.007  20.603  1.00  0.00     0.211 HD
ENDBRANCH  11  30
BRANCH  12  32
ATOM     32  O   UNL A   1      30.844  27.186  21.318  1.00  0.00    -0.387 OA
ATOM     33  H   UNL A   1      29.925  26.995  21.563  1.00  0.00     0.211 HD
ENDBRANCH  12  32
ENDBRANCH   4   7
ENDBRANCH   2   3
ENDBRANCH   1   2
BRANCH   1  34
ATOM     34  C   UNL A   1      33.635  30.120  27.091  1.00  0.00     0.118 C 
BRANCH  34  35
ATOM     35  N   UNL A   1      33.729  31.441  27.720  1.00  0.00    -0.352 N 
ATOM     36  C   UNL A   1      34.567  31.905  28.707  1.00  0.00     0.251 C 
ATOM     37  H   UNL A   1      33.086  32.105  27.381  1.00  0.00     0.163 HD
ATOM     38  O   UNL A   1      34.267  32.917  29.329  1.00  0.00    -0.269 OA
BRANCH  36  39
ATOM     39  C   UNL A   1      35.820  31.184  28.998  1.00  0.00     0.039 A 
ATOM     40  C   UNL A   1      37.024  31.611  28.432  1.00  0.00     0.014 A 
ATOM     41  C   UNL A   1      35.795  30.064  29.828  1.00  0.00     0.014 A 
ATOM     42  C   UNL A   1      38.212  30.960  28.774  1.00  0.00     0.010 A 
ATOM     43  C   UNL A   1      36.981  29.504  30.266  1.00  0.00     0.010 A 
ATOM     44  C   UNL A   1      38.203  29.934  29.734  1.00  0.00    -0.014 A 
BRANCH  44  45
ATOM     45  C   UNL A   1      39.445  29.271  30.199  1.00  0.00     0.031 A 
ATOM     46  C   UNL A   1      40.200  29.852  31.367  1.00  0.00     0.074 A 
ATOM     47  C   UNL A   1      39.945  28.232  29.499  1.00  0.00     0.049 A 
ATOM     48  N   UNL A   1      41.381  29.536  31.828  1.00  0.00    -0.248 NA
ATOM     49  C   UNL A   1      39.562  30.973  32.079  1.00  0.00     0.031 C 
ATOM     50  C   UNL A   1      39.326  27.633  28.313  1.00  0.00     0.029 A 
ATOM     51  N   UNL A   1      41.095  27.508  29.670  1.00  0.00    -0.354 N 
ATOM     52  C   UNL A   1      41.641  30.440  32.855  1.00  0.00     0.074 A 
ATOM     53  C   UNL A   1      40.521  31.353  32.908  1.00  0.00     0.031 C 
ATOM     54  C   UNL A   1      40.090  26.617  27.882  1.00  0.00     0.029 A 
ATOM     55  C   UNL A   1      41.277  26.526  28.722  1.00  0.00     0.049 A 
ATOM     56  H   UNL A   1      41.733  27.673  30.401  1.00  0.00     0.167 HD
ATOM     57  C   UNL A   1      42.705  30.484  33.691  1.00  0.00     0.034 A 
ATOM     58  C   UNL A   1      42.298  25.664  28.544  1.00  0.00     0.034 A 
ATOM     59  C   UNL A   1      43.782  29.528  33.651  1.00  0.00     0.049 A 
ATOM     60  C   UNL A   1      43.459  25.724  29.503  1.00  0.00     0.074 A 
ATOM     61  C   UNL A   1      44.859  29.408  34.509  1.00  0.00     0.029 A 
ATOM     62  N   UNL A   1      43.916  28.525  32.700  1.00  0.00    -0.354 N 
ATOM     63  N   UNL A   1      43.652  26.538  30.517  1.00  0.00    -0.248 NA
ATOM     64  C   UNL A   1      44.535  24.746  29.302  1.00  0.00     0.031 C 
ATOM     65  C   UNL A   1      45.677  28.375  34.041  1.00  0.00     0.029 A 
ATOM     66  C   UNL A   1      45.075  27.804  32.931  1.00  0.00     0.049 A 
ATOM     67  H   UNL A   1      43.279  28.352  31.968  1.00  0.00     0.167 HD
ATOM     68  C   UNL A   1      44.861  26.150  31.087  1.00  0.00     0.074 A 
ATOM     69  C   UNL A   1      45.336  25.016  30.321  1.00  0.00     0.031 C 
ATOM     70  C   UNL A   1      45.526  26.682  32.145  1.00  0.00     0.034 A 
BRANCH  57  71
ATOM     71  C   UNL A   1      42.760  31.600  34.704  1.00  0.00     0.023 A 
ATOM     72  C   UNL A   1      41.942  31.605  35.847  1.00  0.00     0.031 A 
ATOM     73  C   UNL A   1      43.650  32.674  34.527  1.00  0.00     0.131 A 
ATOM     74  C   UNL A   1      41.986  32.690  36.736  1.00  0.00     0.055 A 
ATOM     75  C   UNL A   1      43.742  33.715  35.453  1.00  0.00     0.041 A 
ATOM     76  F   UNL A   1      44.441  32.734  33.444  1.00  0.00    -0.206 F 
ATOM     77  C   UNL A   1      42.899  33.732  36.561  1.00  0.00     0.022 A 
BRANCH  74  78
ATOM     78  S   UNL A   1      40.757  32.772  38.067  1.00  0.00     0.124 S 
ATOM     79  O   UNL A   1      41.505  32.219  39.193  1.00  0.00    -0.237 OA
ATOM     80  O   UNL A   1      40.459  34.198  38.136  1.00  0.00    -0.237 OA
ATOM     81  O   UNL A   1      39.667  31.930  37.578  1.00  0.00    -0.744 OA
ENDBRANCH  74  78
ENDBRANCH  57  71
BRANCH  58  82
ATOM     82  C   UNL A   1      42.286  24.683  27.419  1.00  0.00     0.023 A 
ATOM     83  C   UNL A   1      41.529  23.504  27.501  1.00  0.00     0.031 A 
ATOM     84  C   UNL A   1      43.079  24.877  26.273  1.00  0.00     0.131 A 
ATOM     85  C   UNL A   1      41.628  22.535  26.491  1.00  0.00     0.055 A 
ATOM     86  C   UNL A   1      43.127  23.937  25.241  1.00  0.00     0.041 A 
ATOM     87  F   UNL A   1      43.820  25.988  26.137  1.00  0.00    -0.206 F 
ATOM     88  C   UNL A   1      42.412  22.748  25.356  1.00  0.00     0.022 A 
BRANCH  85  89
ATOM     89  S   UNL A   1      40.808  20.937  26.743  1.00  0.00     0.124 S 
ATOM     90  O   UNL A   1      41.737  20.020  26.091  1.00  0.00    -0.237 OA
ATOM     91  O   UNL A   1      40.742  20.857  28.198  1.00  0.00    -0.237 OA
ATOM     92  O   UNL A   1      39.522  21.106  26.070  1.00  0.00    -0.744 OA
ENDBRANCH  85  89
ENDBRANCH  58  82
BRANCH  70  93
ATOM     93  C   UNL A   1      46.816  26.012  32.539  1.00  0.00     0.023 A 
ATOM     94  C   UNL A   1      48.015  26.272  31.855  1.00  0.00     0.031 A 
ATOM     95  C   UNL A   1      46.842  25.095  33.604  1.00  0.00     0.131 A 
ATOM     96  C   UNL A   1      49.181  25.577  32.206  1.00  0.00     0.055 A 
ATOM     97  C   UNL A   1      48.018  24.453  33.989  1.00  0.00     0.041 A 
ATOM     98  F   UNL A   1      45.722  24.813  34.291  1.00  0.00    -0.206 F 
ATOM     99  C   UNL A   1      49.193  24.682  33.280  1.00  0.00     0.022 A 
BRANCH  96 100
ATOM    100  S   UNL A   1      50.660  25.792  31.180  1.00  0.00     0.124 S 
ATOM    101  O   UNL A   1      51.664  25.050  31.935  1.00  0.00    -0.237 OA
ATOM    102  O   UNL A   1      50.250  25.196  29.912  1.00  0.00    -0.237 OA
ATOM    103  O   UNL A   1      50.848  27.241  31.151  1.00  0.00    -0.744 OA
ENDBRANCH  96 100
ENDBRANCH  70  93
ENDBRANCH  44  45
ENDBRANCH  36  39
ENDBRANCH  34  35
ENDBRANCH   1  34
TORSDOF 21
ENDMDL
