MODEL 1
REMARK VINA RESULT:     -12.3      0.000      0.000
REMARK SMILES CC(C)NC(=O)c1cccc(NC(=O)[C@@H]2[C@H](C(=O)NCCCNC(=O)c3ccc(-c4c5nc(c(-c6cc(S(=O)(=O)[O-])ccc6F)c6ccc([nH]6)c(-c6cc(S(=O)(=O)[O-])ccc6F)c6nc(c(-c7cc(S(=O)(=O)[O-])ccc7F)c7ccc4[nH]7)C=C6)C=C5)cc3)C2(C)C)c1
REMARK SMILES IDX 20 1 19 2 17 3 18 4 16 6 15 7 89 8 90 9 91 10 13 11 12 12
REMARK SMILES IDX 14 14 11 15 7 16 8 17 92 18 9 19 10 20 5 21 4 22 6 24 2 25
REMARK SMILES IDX 1 26 3 27 21 28 22 29 23 30 24 31 25 33 26 34 27 35 88 36
REMARK SMILES IDX 28 37 87 38 29 39 30 40 31 41 81 42 32 43 86 44 80 45 82 46
REMARK SMILES IDX 33 47 85 48 79 49 78 50 34 52 66 53 46 54 65 55 47 56 50 57
REMARK SMILES IDX 64 58 83 59 48 60 49 61 63 63 84 64 51 65 35 66 36 67 44 68
REMARK SMILES IDX 37 69 43 70 45 71 42 72 38 73 39 74 40 75 41 76 67 77 68 78
REMARK SMILES IDX 76 79 69 80 75 81 77 82 74 83 70 84 71 85 72 86 73 87 52 88
REMARK SMILES IDX 53 89 61 90 54 91 60 92 62 93 59 94 55 95 56 96 57 97 58 98
REMARK H PARENT 19 5 12 13 4 23 23 32 82 51 50 62
REMARK Flexibility Score: inf
ROOT
ATOM      1  C   UNL A   1      31.775  30.107  25.838  1.00  0.00     0.117 C 
ENDROOT
BRANCH   1   2
ATOM      2  N   UNL A   1      31.031  29.970  24.598  1.00  0.00    -0.356 N 
ATOM      3  C   UNL A   1      31.134  28.985  23.656  1.00  0.00     0.224 C 
ATOM      4  O   UNL A   1      30.441  28.999  22.643  1.00  0.00    -0.275 OA
ATOM      5  H   UNL A   1      30.370  30.675  24.413  1.00  0.00     0.163 HD
BRANCH   3   6
ATOM      6  C   UNL A   1      32.212  27.992  23.819  1.00  0.00     0.098 C 
ATOM      7  C   UNL A   1      32.000  26.634  24.451  1.00  0.00     0.098 C 
ATOM      8  C   UNL A   1      32.385  26.743  22.976  1.00  0.00    -0.011 C 
ATOM      9  C   UNL A   1      33.784  26.334  22.594  1.00  0.00     0.013 C 
ATOM     10  C   UNL A   1      31.358  26.409  21.917  1.00  0.00     0.013 C 
BRANCH   7  11
ATOM     11  C   UNL A   1      30.715  25.983  24.800  1.00  0.00     0.228 C 
ATOM     12  N   UNL A   1      30.621  24.608  24.815  1.00  0.00    -0.326 N 
ATOM     13  H   UNL A   1      29.728  24.280  25.072  1.00  0.00     0.169 HD
ATOM     14  O   UNL A   1      29.721  26.652  25.068  1.00  0.00    -0.274 OA
BRANCH  12  15
ATOM     15  C   UNL A   1      31.541  23.573  24.540  1.00  0.00     0.041 A 
ATOM     16  C   UNL A   1      33.256  22.088  25.429  1.00  0.00     0.041 A 
ATOM     17  C   UNL A   1      33.307  21.399  24.216  1.00  0.00     0.014 A 
ATOM     18  C   UNL A   1      32.405  23.194  25.576  1.00  0.00     0.040 A 
ATOM     19  C   UNL A   1      32.511  21.810  23.160  1.00  0.00     0.003 A 
ATOM     20  C   UNL A   1      31.647  22.893  23.326  1.00  0.00     0.026 A 
BRANCH  16  21
ATOM     21  C   UNL A   1      34.180  21.629  26.488  1.00  0.00     0.251 C 
ATOM     22  N   UNL A   1      35.535  21.785  26.382  1.00  0.00    -0.350 N 
ATOM     23  H   UNL A   1      36.049  21.386  27.120  1.00  0.00     0.164 HD
ATOM     24  O   UNL A   1      33.716  21.134  27.514  1.00  0.00    -0.269 OA
BRANCH  22  25
ATOM     25  C   UNL A   1      36.351  22.439  25.367  1.00  0.00     0.076 C 
ATOM     26  C   UNL A   1      36.338  23.949  25.580  1.00  0.00     0.030 C 
ATOM     27  C   UNL A   1      37.770  21.885  25.439  1.00  0.00     0.030 C 
ENDBRANCH  22  25
ENDBRANCH  16  21
ENDBRANCH  12  15
ENDBRANCH   7  11
ENDBRANCH   3   6
ENDBRANCH   1   2
BRANCH   1  28
ATOM     28  C   UNL A   1      31.555  31.451  26.514  1.00  0.00     0.042 C 
BRANCH  28  29
ATOM     29  C   UNL A   1      32.822  32.061  27.094  1.00  0.00     0.118 C 
BRANCH  29  30
ATOM     30  N   UNL A   1      32.660  33.469  27.427  1.00  0.00    -0.352 N 
ATOM     31  C   UNL A   1      33.260  34.229  28.400  1.00  0.00     0.251 C 
ATOM     32  H   UNL A   1      32.014  33.955  26.865  1.00  0.00     0.163 HD
ATOM     33  O   UNL A   1      32.815  35.349  28.642  1.00  0.00    -0.269 OA
BRANCH  31  34
ATOM     34  C   UNL A   1      34.413  33.705  29.161  1.00  0.00     0.039 A 
ATOM     35  C   UNL A   1      34.182  32.772  30.174  1.00  0.00     0.014 A 
ATOM     36  C   UNL A   1      35.713  34.147  28.905  1.00  0.00     0.014 A 
ATOM     37  C   UNL A   1      35.258  32.245  30.891  1.00  0.00     0.010 A 
ATOM     38  C   UNL A   1      36.792  33.551  29.551  1.00  0.00     0.010 A 
ATOM     39  C   UNL A   1      36.576  32.605  30.563  1.00  0.00    -0.014 A 
BRANCH  39  40
ATOM     40  C   UNL A   1      37.734  32.015  31.284  1.00  0.00     0.031 A 
ATOM     41  C   UNL A   1      38.539  30.914  30.649  1.00  0.00     0.074 A 
ATOM     42  C   UNL A   1      38.025  32.436  32.530  1.00  0.00     0.049 A 
ATOM     43  N   UNL A   1      39.551  30.242  31.135  1.00  0.00    -0.248 NA
ATOM     44  C   UNL A   1      38.130  30.491  29.302  1.00  0.00     0.031 C 
ATOM     45  C   UNL A   1      37.284  33.461  33.270  1.00  0.00     0.029 A 
ATOM     46  N   UNL A   1      39.015  32.053  33.400  1.00  0.00    -0.354 N 
ATOM     47  C   UNL A   1      39.887  29.305  30.163  1.00  0.00     0.074 A 
ATOM     48  C   UNL A   1      38.925  29.453  29.091  1.00  0.00     0.031 C 
ATOM     49  C   UNL A   1      37.863  33.647  34.466  1.00  0.00     0.029 A 
ATOM     50  C   UNL A   1      38.983  32.721  34.603  1.00  0.00     0.049 A 
ATOM     51  H   UNL A   1      39.685  31.366  33.184  1.00  0.00     0.167 HD
ATOM     52  C   UNL A   1      40.917  28.422  30.154  1.00  0.00     0.034 A 
ATOM     53  C   UNL A   1      39.758  32.593  35.698  1.00  0.00     0.034 A 
ATOM     54  C   UNL A   1      41.870  28.299  31.231  1.00  0.00     0.049 A 
ATOM     55  C   UNL A   1      40.888  31.596  35.674  1.00  0.00     0.074 A 
ATOM     56  C   UNL A   1      42.990  27.489  31.300  1.00  0.00     0.029 A 
ATOM     57  N   UNL A   1      41.808  28.993  32.434  1.00  0.00    -0.354 N 
ATOM     58  N   UNL A   1      41.236  30.764  34.720  1.00  0.00    -0.248 NA
ATOM     59  C   UNL A   1      41.738  31.533  36.869  1.00  0.00     0.031 C 
ATOM     60  C   UNL A   1      43.553  27.628  32.574  1.00  0.00     0.029 A 
ATOM     61  C   UNL A   1      42.844  28.598  33.267  1.00  0.00     0.049 A 
ATOM     62  H   UNL A   1      41.127  29.666  32.661  1.00  0.00     0.167 HD
ATOM     63  C   UNL A   1      42.365  30.097  35.189  1.00  0.00     0.074 A 
ATOM     64  C   UNL A   1      42.645  30.639  36.504  1.00  0.00     0.031 C 
ATOM     65  C   UNL A   1      43.104  29.130  34.586  1.00  0.00     0.034 A 
BRANCH  52  66
ATOM     66  C   UNL A   1      41.034  27.500  28.959  1.00  0.00     0.023 A 
ATOM     67  C   UNL A   1      42.050  27.652  27.999  1.00  0.00     0.031 A 
ATOM     68  C   UNL A   1      40.088  26.479  28.753  1.00  0.00     0.131 A 
ATOM     69  C   UNL A   1      42.044  26.865  26.837  1.00  0.00     0.055 A 
ATOM     70  C   UNL A   1      40.143  25.636  27.642  1.00  0.00     0.041 A 
ATOM     71  F   UNL A   1      39.080  26.296  29.620  1.00  0.00    -0.206 F 
ATOM     72  C   UNL A   1      41.113  25.838  26.666  1.00  0.00     0.022 A 
BRANCH  69  73
ATOM     73  S   UNL A   1      43.156  27.320  25.478  1.00  0.00     0.124 S 
ATOM     74  O   UNL A   1      43.551  26.007  24.969  1.00  0.00    -0.237 OA
ATOM     75  O   UNL A   1      42.289  28.107  24.611  1.00  0.00    -0.237 OA
ATOM     76  O   UNL A   1      44.222  28.067  26.143  1.00  0.00    -0.744 OA
ENDBRANCH  69  73
ENDBRANCH  52  66
BRANCH  53  77
ATOM     77  C   UNL A   1      39.484  33.419  36.909  1.00  0.00     0.023 A 
ATOM     78  C   UNL A   1      38.790  32.893  38.010  1.00  0.00     0.031 A 
ATOM     79  C   UNL A   1      39.903  34.761  36.974  1.00  0.00     0.131 A 
ATOM     80  C   UNL A   1      38.500  33.714  39.112  1.00  0.00     0.055 A 
ATOM     81  C   UNL A   1      39.661  35.557  38.094  1.00  0.00     0.041 A 
ATOM     82  F   UNL A   1      40.575  35.313  35.950  1.00  0.00    -0.206 F 
ATOM     83  C   UNL A   1      38.946  35.037  39.168  1.00  0.00     0.022 A 
BRANCH  80  84
ATOM     84  S   UNL A   1      37.467  33.049  40.446  1.00  0.00     0.124 S 
ATOM     85  O   UNL A   1      38.399  32.155  41.125  1.00  0.00    -0.237 OA
ATOM     86  O   UNL A   1      37.094  34.258  41.172  1.00  0.00    -0.237 OA
ATOM     87  O   UNL A   1      36.374  32.390  39.734  1.00  0.00    -0.744 OA
ENDBRANCH  80  84
ENDBRANCH  53  77
BRANCH  65  88
ATOM     88  C   UNL A   1      44.320  28.629  35.332  1.00  0.00     0.023 A 
ATOM     89  C   UNL A   1      44.235  27.597  36.284  1.00  0.00     0.031 A 
ATOM     90  C   UNL A   1      45.581  29.205  35.096  1.00  0.00     0.131 A 
ATOM     91  C   UNL A   1      45.375  27.219  37.009  1.00  0.00     0.055 A 
ATOM     92  C   UNL A   1      46.725  28.774  35.767  1.00  0.00     0.041 A 
ATOM     93  F   UNL A   1      45.723  30.198  34.204  1.00  0.00    -0.206 F 
ATOM     94  C   UNL A   1      46.624  27.786  36.742  1.00  0.00     0.022 A 
BRANCH  91  95
ATOM     95  S   UNL A   1      45.184  26.056  38.389  1.00  0.00     0.124 S 
ATOM     96  O   UNL A   1      44.457  24.959  37.760  1.00  0.00    -0.237 OA
ATOM     97  O   UNL A   1      46.569  25.777  38.755  1.00  0.00    -0.237 OA
ATOM     98  O   UNL A   1      44.423  26.820  39.377  1.00  0.00    -0.744 OA
ENDBRANCH  91  95
ENDBRANCH  65  88
ENDBRANCH  39  40
ENDBRANCH  31  34
ENDBRANCH  29  30
ENDBRANCH  28  29
ENDBRANCH   1  28
TORSDOF 17
ENDMDL
MODEL 2
REMARK VINA RESULT:     -12.1      2.880      8.252
REMARK SMILES CC(C)NC(=O)c1cccc(NC(=O)[C@@H]2[C@H](C(=O)NCCCNC(=O)c3ccc(-c4c5nc(c(-c6cc(S(=O)(=O)[O-])ccc6F)c6ccc([nH]6)c(-c6cc(S(=O)(=O)[O-])ccc6F)c6nc(c(-c7cc(S(=O)(=O)[O-])ccc7F)c7ccc4[nH]7)C=C6)C=C5)cc3)C2(C)C)c1
REMARK SMILES IDX 20 1 19 2 17 3 18 4 16 6 15 7 89 8 90 9 91 10 13 11 12 12
REMARK SMILES IDX 14 14 11 15 7 16 8 17 92 18 9 19 10 20 5 21 4 22 6 24 2 25
REMARK SMILES IDX 1 26 3 27 21 28 22 29 23 30 24 31 25 33 26 34 27 35 88 36
REMARK SMILES IDX 28 37 87 38 29 39 30 40 31 41 81 42 32 43 86 44 80 45 82 46
REMARK SMILES IDX 33 47 85 48 79 49 78 50 34 52 66 53 46 54 65 55 47 56 50 57
REMARK SMILES IDX 64 58 83 59 48 60 49 61 63 63 84 64 51 65 35 66 36 67 44 68
REMARK SMILES IDX 37 69 43 70 45 71 42 72 38 73 39 74 40 75 41 76 67 77 68 78
REMARK SMILES IDX 76 79 69 80 75 81 77 82 74 83 70 84 71 85 72 86 73 87 52 88
REMARK SMILES IDX 53 89 61 90 54 91 60 92 62 93 59 94 55 95 56 96 57 97 58 98
REMARK H PARENT 19 5 12 13 4 23 23 32 82 51 50 62
REMARK Flexibility Score: inf
ROOT
ATOM      1  C   UNL A   1      31.808  28.559  25.028  1.00  0.00     0.117 C 
ENDROOT
BRANCH   1   2
ATOM      2  N   UNL A   1      30.719  27.650  24.720  1.00  0.00    -0.356 N 
ATOM      3  C   UNL A   1      30.768  26.292  24.572  1.00  0.00     0.224 C 
ATOM      4  O   UNL A   1      29.760  25.645  24.302  1.00  0.00    -0.275 OA
ATOM      5  H   UNL A   1      29.833  28.063  24.602  1.00  0.00     0.163 HD
BRANCH   3   6
ATOM      6  C   UNL A   1      32.095  25.649  24.593  1.00  0.00     0.098 C 
ATOM      7  C   UNL A   1      32.439  24.485  25.497  1.00  0.00     0.098 C 
ATOM      8  C   UNL A   1      32.423  24.301  23.981  1.00  0.00    -0.011 C 
ATOM      9  C   UNL A   1      33.753  24.142  23.289  1.00  0.00     0.013 C 
ATOM     10  C   UNL A   1      31.322  23.481  23.347  1.00  0.00     0.013 C 
BRANCH   7  11
ATOM     11  C   UNL A   1      31.515  23.667  26.318  1.00  0.00     0.228 C 
ATOM     12  N   UNL A   1      31.722  22.310  26.442  1.00  0.00    -0.326 N 
ATOM     13  H   UNL A   1      31.059  21.865  27.018  1.00  0.00     0.169 HD
ATOM     14  O   UNL A   1      30.555  24.179  26.888  1.00  0.00    -0.274 OA
BRANCH  12  15
ATOM     15  C   UNL A   1      32.688  21.428  25.912  1.00  0.00     0.041 A 
ATOM     16  C   UNL A   1      33.114  19.503  24.480  1.00  0.00     0.041 A 
ATOM     17  C   UNL A   1      34.491  19.683  24.625  1.00  0.00     0.014 A 
ATOM     18  C   UNL A   1      32.218  20.348  25.151  1.00  0.00     0.040 A 
ATOM     19  C   UNL A   1      34.967  20.702  25.434  1.00  0.00     0.003 A 
ATOM     20  C   UNL A   1      34.068  21.554  26.073  1.00  0.00     0.026 A 
BRANCH  16  21
ATOM     21  C   UNL A   1      32.683  18.357  23.651  1.00  0.00     0.251 C 
ATOM     22  N   UNL A   1      32.811  17.065  24.082  1.00  0.00    -0.350 N 
ATOM     23  H   UNL A   1      32.546  16.387  23.420  1.00  0.00     0.164 HD
ATOM     24  O   UNL A   1      32.153  18.571  22.562  1.00  0.00    -0.269 OA
BRANCH  22  25
ATOM     25  C   UNL A   1      33.270  16.516  25.352  1.00  0.00     0.076 C 
ATOM     26  C   UNL A   1      32.405  15.325  25.750  1.00  0.00     0.030 C 
ATOM     27  C   UNL A   1      34.735  16.112  25.216  1.00  0.00     0.030 C 
ENDBRANCH  22  25
ENDBRANCH  16  21
ENDBRANCH  12  15
ENDBRANCH   7  11
ENDBRANCH   3   6
ENDBRANCH   1   2
BRANCH   1  28
ATOM     28  C   UNL A   1      31.761  29.076  26.458  1.00  0.00     0.042 C 
BRANCH  28  29
ATOM     29  C   UNL A   1      33.117  29.495  27.004  1.00  0.00     0.118 C 
BRANCH  29  30
ATOM     30  N   UNL A   1      33.266  30.942  27.072  1.00  0.00    -0.352 N 
ATOM     31  C   UNL A   1      34.218  31.712  27.692  1.00  0.00     0.251 C 
ATOM     32  H   UNL A   1      32.570  31.452  26.597  1.00  0.00     0.163 HD
ATOM     33  O   UNL A   1      34.030  32.921  27.801  1.00  0.00    -0.269 OA
BRANCH  31  34
ATOM     34  C   UNL A   1      35.445  31.096  28.238  1.00  0.00     0.039 A 
ATOM     35  C   UNL A   1      36.651  31.795  28.136  1.00  0.00     0.014 A 
ATOM     36  C   UNL A   1      35.423  29.826  28.821  1.00  0.00     0.014 A 
ATOM     37  C   UNL A   1      37.819  31.243  28.666  1.00  0.00     0.010 A 
ATOM     38  C   UNL A   1      36.566  29.322  29.434  1.00  0.00     0.010 A 
ATOM     39  C   UNL A   1      37.780  30.016  29.350  1.00  0.00    -0.014 A 
BRANCH  39  40
ATOM     40  C   UNL A   1      39.006  29.441  29.962  1.00  0.00     0.031 A 
ATOM     41  C   UNL A   1      39.515  29.969  31.276  1.00  0.00     0.074 A 
ATOM     42  C   UNL A   1      39.688  28.480  29.308  1.00  0.00     0.049 A 
ATOM     43  N   UNL A   1      40.588  29.631  31.945  1.00  0.00    -0.248 NA
ATOM     44  C   UNL A   1      38.730  31.042  31.903  1.00  0.00     0.031 C 
ATOM     45  C   UNL A   1      39.320  27.925  28.002  1.00  0.00     0.029 A 
ATOM     46  N   UNL A   1      40.834  27.804  29.643  1.00  0.00    -0.354 N 
ATOM     47  C   UNL A   1      40.616  30.463  33.060  1.00  0.00     0.074 A 
ATOM     48  C   UNL A   1      39.491  31.364  32.938  1.00  0.00     0.031 C 
ATOM     49  C   UNL A   1      40.204  26.973  27.664  1.00  0.00     0.029 A 
ATOM     50  C   UNL A   1      41.230  26.884  28.699  1.00  0.00     0.049 A 
ATOM     51  H   UNL A   1      41.326  27.961  30.481  1.00  0.00     0.167 HD
ATOM     52  C   UNL A   1      41.486  30.456  34.102  1.00  0.00     0.034 A 
ATOM     53  C   UNL A   1      42.304  26.072  28.662  1.00  0.00     0.034 A 
ATOM     54  C   UNL A   1      42.597  29.540  34.207  1.00  0.00     0.049 A 
ATOM     55  C   UNL A   1      43.267  26.090  29.821  1.00  0.00     0.074 A 
ATOM     56  C   UNL A   1      43.499  29.398  35.246  1.00  0.00     0.029 A 
ATOM     57  N   UNL A   1      42.968  28.621  33.232  1.00  0.00    -0.354 N 
ATOM     58  N   UNL A   1      43.244  26.835  30.903  1.00  0.00    -0.248 NA
ATOM     59  C   UNL A   1      44.391  25.149  29.761  1.00  0.00     0.031 C 
ATOM     60  C   UNL A   1      44.463  28.458  34.864  1.00  0.00     0.029 A 
ATOM     61  C   UNL A   1      44.109  27.939  33.627  1.00  0.00     0.049 A 
ATOM     62  H   UNL A   1      42.489  28.475  32.385  1.00  0.00     0.167 HD
ATOM     63  C   UNL A   1      44.335  26.430  31.667  1.00  0.00     0.074 A 
ATOM     64  C   UNL A   1      44.982  25.365  30.927  1.00  0.00     0.031 C 
ATOM     65  C   UNL A   1      44.759  26.892  32.872  1.00  0.00     0.034 A 
BRANCH  52  66
ATOM     66  C   UNL A   1      41.287  31.496  35.182  1.00  0.00     0.023 A 
ATOM     67  C   UNL A   1      40.239  31.408  36.116  1.00  0.00     0.031 A 
ATOM     68  C   UNL A   1      42.132  32.619  35.254  1.00  0.00     0.131 A 
ATOM     69  C   UNL A   1      40.006  32.461  37.015  1.00  0.00     0.055 A 
ATOM     70  C   UNL A   1      41.953  33.617  36.214  1.00  0.00     0.041 A 
ATOM     71  F   UNL A   1      43.137  32.775  34.378  1.00  0.00    -0.206 F 
ATOM     72  C   UNL A   1      40.873  33.552  37.089  1.00  0.00     0.022 A 
BRANCH  69  73
ATOM     73  S   UNL A   1      38.456  32.466  37.959  1.00  0.00     0.124 S 
ATOM     74  O   UNL A   1      37.767  31.304  37.400  1.00  0.00    -0.237 OA
ATOM     75  O   UNL A   1      38.924  32.332  39.332  1.00  0.00    -0.237 OA
ATOM     76  O   UNL A   1      37.856  33.756  37.624  1.00  0.00    -0.744 OA
ENDBRANCH  69  73
ENDBRANCH  52  66
BRANCH  53  77
ATOM     77  C   UNL A   1      42.532  25.186  27.485  1.00  0.00     0.023 A 
ATOM     78  C   UNL A   1      42.052  23.866  27.460  1.00  0.00     0.031 A 
ATOM     79  C   UNL A   1      43.253  25.646  26.368  1.00  0.00     0.131 A 
ATOM     80  C   UNL A   1      42.331  23.041  26.359  1.00  0.00     0.055 A 
ATOM     81  C   UNL A   1      43.481  24.839  25.252  1.00  0.00     0.041 A 
ATOM     82  F   UNL A   1      43.731  26.901  26.338  1.00  0.00    -0.206 F 
ATOM     83  C   UNL A   1      43.028  23.524  25.248  1.00  0.00     0.022 A 
BRANCH  80  84
ATOM     84  S   UNL A   1      41.832  21.299  26.427  1.00  0.00     0.124 S 
ATOM     85  O   UNL A   1      42.657  20.713  25.377  1.00  0.00    -0.237 OA
ATOM     86  O   UNL A   1      42.183  20.936  27.796  1.00  0.00    -0.237 OA
ATOM     87  O   UNL A   1      40.399  21.344  26.145  1.00  0.00    -0.744 OA
ENDBRANCH  80  84
ENDBRANCH  53  77
BRANCH  65  88
ATOM     88  C   UNL A   1      45.962  26.210  33.485  1.00  0.00     0.023 A 
ATOM     89  C   UNL A   1      45.843  25.032  34.242  1.00  0.00     0.031 A 
ATOM     90  C   UNL A   1      47.246  26.759  33.318  1.00  0.00     0.131 A 
ATOM     91  C   UNL A   1      46.976  24.479  34.858  1.00  0.00     0.055 A 
ATOM     92  C   UNL A   1      48.380  26.164  33.872  1.00  0.00     0.041 A 
ATOM     93  F   UNL A   1      47.421  27.887  32.611  1.00  0.00    -0.206 F 
ATOM     94  C   UNL A   1      48.247  25.025  34.661  1.00  0.00     0.022 A 
BRANCH  91  95
ATOM     95  S   UNL A   1      46.752  23.101  36.018  1.00  0.00     0.124 S 
ATOM     96  O   UNL A   1      47.344  21.989  35.283  1.00  0.00    -0.237 OA
ATOM     97  O   UNL A   1      47.493  23.557  37.190  1.00  0.00    -0.237 OA
ATOM     98  O   UNL A   1      45.302  23.030  36.189  1.00  0.00    -0.744 OA
ENDBRANCH  91  95
ENDBRANCH  65  88
ENDBRANCH  39  40
ENDBRANCH  31  34
ENDBRANCH  29  30
ENDBRANCH  28  29
ENDBRANCH   1  28
TORSDOF 17
ENDMDL
MODEL 3
REMARK VINA RESULT:     -11.8      2.598      8.095
REMARK SMILES CC(C)NC(=O)c1cccc(NC(=O)[C@@H]2[C@H](C(=O)NCCCNC(=O)c3ccc(-c4c5nc(c(-c6cc(S(=O)(=O)[O-])ccc6F)c6ccc([nH]6)c(-c6cc(S(=O)(=O)[O-])ccc6F)c6nc(c(-c7cc(S(=O)(=O)[O-])ccc7F)c7ccc4[nH]7)C=C6)C=C5)cc3)C2(C)C)c1
REMARK SMILES IDX 20 1 19 2 17 3 18 4 16 6 15 7 89 8 90 9 91 10 13 11 12 12
REMARK SMILES IDX 14 14 11 15 7 16 8 17 92 18 9 19 10 20 5 21 4 22 6 24 2 25
REMARK SMILES IDX 1 26 3 27 21 28 22 29 23 30 24 31 25 33 26 34 27 35 88 36
REMARK SMILES IDX 28 37 87 38 29 39 30 40 31 41 81 42 32 43 86 44 80 45 82 46
REMARK SMILES IDX 33 47 85 48 79 49 78 50 34 52 66 53 46 54 65 55 47 56 50 57
REMARK SMILES IDX 64 58 83 59 48 60 49 61 63 63 84 64 51 65 35 66 36 67 44 68
REMARK SMILES IDX 37 69 43 70 45 71 42 72 38 73 39 74 40 75 41 76 67 77 68 78
REMARK SMILES IDX 76 79 69 80 75 81 77 82 74 83 70 84 71 85 72 86 73 87 52 88
REMARK SMILES IDX 53 89 61 90 54 91 60 92 62 93 59 94 55 95 56 96 57 97 58 98
REMARK H PARENT 19 5 12 13 4 23 23 32 82 51 50 62
REMARK Flexibility Score: inf
ROOT
ATOM      1  C   UNL A   1      31.479  28.495  26.303  1.00  0.00     0.117 C 
ENDROOT
BRANCH   1   2
ATOM      2  N   UNL A   1      31.254  28.529  24.869  1.00  0.00    -0.356 N 
ATOM      3  C   UNL A   1      30.900  27.498  24.045  1.00  0.00     0.224 C 
ATOM      4  O   UNL A   1      30.748  27.670  22.839  1.00  0.00    -0.275 OA
ATOM      5  H   UNL A   1      31.373  29.404  24.435  1.00  0.00     0.163 HD
BRANCH   3   6
ATOM      6  C   UNL A   1      30.856  26.142  24.625  1.00  0.00     0.098 C 
ATOM      7  C   UNL A   1      31.210  24.894  23.845  1.00  0.00     0.098 C 
ATOM      8  C   UNL A   1      32.067  25.327  25.034  1.00  0.00    -0.011 C 
ATOM      9  C   UNL A   1      31.975  24.501  26.291  1.00  0.00     0.013 C 
ATOM     10  C   UNL A   1      33.455  25.874  24.784  1.00  0.00     0.013 C 
BRANCH   7  11
ATOM     11  C   UNL A   1      31.846  24.806  22.509  1.00  0.00     0.228 C 
ATOM     12  N   UNL A   1      32.444  23.631  22.108  1.00  0.00    -0.326 N 
ATOM     13  H   UNL A   1      32.824  23.676  21.200  1.00  0.00     0.169 HD
ATOM     14  O   UNL A   1      31.858  25.771  21.751  1.00  0.00    -0.274 OA
BRANCH  12  15
ATOM     15  C   UNL A   1      32.623  22.376  22.729  1.00  0.00     0.041 A 
ATOM     16  C   UNL A   1      33.538  21.164  24.635  1.00  0.00     0.041 A 
ATOM     17  C   UNL A   1      32.927  19.988  24.198  1.00  0.00     0.014 A 
ATOM     18  C   UNL A   1      33.419  22.343  23.883  1.00  0.00     0.040 A 
ATOM     19  C   UNL A   1      32.198  19.992  23.020  1.00  0.00     0.003 A 
ATOM     20  C   UNL A   1      32.061  21.175  22.295  1.00  0.00     0.026 A 
BRANCH  16  21
ATOM     21  C   UNL A   1      34.349  21.067  25.868  1.00  0.00     0.251 C 
ATOM     22  N   UNL A   1      35.702  20.871  25.829  1.00  0.00    -0.350 N 
ATOM     23  H   UNL A   1      36.123  20.762  26.711  1.00  0.00     0.164 HD
ATOM     24  O   UNL A   1      33.800  21.213  26.959  1.00  0.00    -0.269 OA
BRANCH  22  25
ATOM     25  C   UNL A   1      36.631  20.794  24.708  1.00  0.00     0.076 C 
ATOM     26  C   UNL A   1      37.367  22.120  24.547  1.00  0.00     0.030 C 
ATOM     27  C   UNL A   1      37.607  19.648  24.950  1.00  0.00     0.030 C 
ENDBRANCH  22  25
ENDBRANCH  16  21
ENDBRANCH  12  15
ENDBRANCH   7  11
ENDBRANCH   3   6
ENDBRANCH   1   2
BRANCH   1  28
ATOM     28  C   UNL A   1      32.955  28.507  26.671  1.00  0.00     0.042 C 
BRANCH  28  29
ATOM     29  C   UNL A   1      33.750  29.606  25.983  1.00  0.00     0.118 C 
BRANCH  29  30
ATOM     30  N   UNL A   1      33.550  30.909  26.602  1.00  0.00    -0.352 N 
ATOM     31  C   UNL A   1      34.195  31.501  27.659  1.00  0.00     0.251 C 
ATOM     32  H   UNL A   1      32.836  31.453  26.198  1.00  0.00     0.163 HD
ATOM     33  O   UNL A   1      33.719  32.521  28.152  1.00  0.00    -0.269 OA
BRANCH  31  34
ATOM     34  C   UNL A   1      35.433  30.913  28.211  1.00  0.00     0.039 A 
ATOM     35  C   UNL A   1      36.656  31.520  27.912  1.00  0.00     0.014 A 
ATOM     36  C   UNL A   1      35.401  29.756  28.993  1.00  0.00     0.014 A 
ATOM     37  C   UNL A   1      37.837  30.996  28.442  1.00  0.00     0.010 A 
ATOM     38  C   UNL A   1      36.566  29.293  29.598  1.00  0.00     0.010 A 
ATOM     39  C   UNL A   1      37.799  29.898  29.318  1.00  0.00    -0.014 A 
BRANCH  39  40
ATOM     40  C   UNL A   1      39.043  29.360  29.928  1.00  0.00     0.031 A 
ATOM     41  C   UNL A   1      39.536  29.903  31.242  1.00  0.00     0.074 A 
ATOM     42  C   UNL A   1      39.753  28.422  29.272  1.00  0.00     0.049 A 
ATOM     43  N   UNL A   1      40.619  29.598  31.910  1.00  0.00    -0.248 NA
ATOM     44  C   UNL A   1      38.718  30.950  31.871  1.00  0.00     0.031 C 
ATOM     45  C   UNL A   1      39.402  27.857  27.966  1.00  0.00     0.029 A 
ATOM     46  N   UNL A   1      40.921  27.782  29.606  1.00  0.00    -0.354 N 
ATOM     47  C   UNL A   1      40.623  30.429  33.026  1.00  0.00     0.074 A 
ATOM     48  C   UNL A   1      39.470  31.295  32.905  1.00  0.00     0.031 C 
ATOM     49  C   UNL A   1      40.315  26.934  27.626  1.00  0.00     0.029 A 
ATOM     50  C   UNL A   1      41.344  26.876  28.660  1.00  0.00     0.049 A 
ATOM     51  H   UNL A   1      41.408  27.953  30.443  1.00  0.00     0.167 HD
ATOM     52  C   UNL A   1      41.494  30.448  34.066  1.00  0.00     0.034 A 
ATOM     53  C   UNL A   1      42.443  26.098  28.622  1.00  0.00     0.034 A 
ATOM     54  C   UNL A   1      42.632  29.567  34.170  1.00  0.00     0.049 A 
ATOM     55  C   UNL A   1      43.406  26.145  29.780  1.00  0.00     0.074 A 
ATOM     56  C   UNL A   1      43.540  29.452  35.208  1.00  0.00     0.029 A 
ATOM     57  N   UNL A   1      43.031  28.661  33.193  1.00  0.00    -0.354 N 
ATOM     58  N   UNL A   1      43.361  26.887  30.863  1.00  0.00    -0.248 NA
ATOM     59  C   UNL A   1      44.559  25.239  29.718  1.00  0.00     0.031 C 
ATOM     60  C   UNL A   1      44.532  28.544  34.824  1.00  0.00     0.029 A 
ATOM     61  C   UNL A   1      44.193  28.015  33.587  1.00  0.00     0.049 A 
ATOM     62  H   UNL A   1      42.556  28.501  32.346  1.00  0.00     0.167 HD
ATOM     63  C   UNL A   1      44.465  26.516  31.625  1.00  0.00     0.074 A 
ATOM     64  C   UNL A   1      45.145  25.472  30.883  1.00  0.00     0.031 C 
ATOM     65  C   UNL A   1      44.876  26.990  32.830  1.00  0.00     0.034 A 
BRANCH  52  66
ATOM     66  C   UNL A   1      41.262  31.481  35.148  1.00  0.00     0.023 A 
ATOM     67  C   UNL A   1      40.195  31.378  36.058  1.00  0.00     0.031 A 
ATOM     68  C   UNL A   1      42.097  32.610  35.245  1.00  0.00     0.131 A 
ATOM     69  C   UNL A   1      39.935  32.424  36.958  1.00  0.00     0.055 A 
ATOM     70  C   UNL A   1      41.890  33.600  36.206  1.00  0.00     0.041 A 
ATOM     71  F   UNL A   1      43.120  32.778  34.392  1.00  0.00    -0.206 F 
ATOM     72  C   UNL A   1      40.792  33.522  37.057  1.00  0.00     0.022 A 
BRANCH  69  73
ATOM     73  S   UNL A   1      38.365  32.412  37.868  1.00  0.00     0.124 S 
ATOM     74  O   UNL A   1      37.736  31.197  37.354  1.00  0.00    -0.237 OA
ATOM     75  O   UNL A   1      38.806  32.365  39.256  1.00  0.00    -0.237 OA
ATOM     76  O   UNL A   1      37.721  33.658  37.457  1.00  0.00    -0.744 OA
ENDBRANCH  69  73
ENDBRANCH  52  66
BRANCH  53  77
ATOM     77  C   UNL A   1      42.698  25.221  27.443  1.00  0.00     0.023 A 
ATOM     78  C   UNL A   1      42.230  23.897  27.402  1.00  0.00     0.031 A 
ATOM     79  C   UNL A   1      43.433  25.693  26.341  1.00  0.00     0.131 A 
ATOM     80  C   UNL A   1      42.534  23.081  26.302  1.00  0.00     0.055 A 
ATOM     81  C   UNL A   1      43.686  24.895  25.224  1.00  0.00     0.041 A 
ATOM     82  F   UNL A   1      43.900  26.952  26.325  1.00  0.00    -0.206 F 
ATOM     83  C   UNL A   1      43.244  23.576  25.205  1.00  0.00     0.022 A 
BRANCH  80  84
ATOM     84  S   UNL A   1      42.049  21.334  26.352  1.00  0.00     0.124 S 
ATOM     85  O   UNL A   1      40.623  21.413  26.057  1.00  0.00    -0.237 OA
ATOM     86  O   UNL A   1      42.890  20.755  25.309  1.00  0.00    -0.237 OA
ATOM     87  O   UNL A   1      42.383  20.927  27.716  1.00  0.00    -0.744 OA
ENDBRANCH  80  84
ENDBRANCH  53  77
BRANCH  65  88
ATOM     88  C   UNL A   1      46.100  26.346  33.441  1.00  0.00     0.023 A 
ATOM     89  C   UNL A   1      46.018  25.162  34.195  1.00  0.00     0.031 A 
ATOM     90  C   UNL A   1      47.366  26.936  33.276  1.00  0.00     0.131 A 
ATOM     91  C   UNL A   1      47.169  24.644  34.809  1.00  0.00     0.055 A 
ATOM     92  C   UNL A   1      48.517  26.376  33.828  1.00  0.00     0.041 A 
ATOM     93  F   UNL A   1      47.504  28.071  32.572  1.00  0.00    -0.206 F 
ATOM     94  C   UNL A   1      48.421  25.231  34.614  1.00  0.00     0.022 A 
BRANCH  91  95
ATOM     95  S   UNL A   1      46.989  23.256  35.965  1.00  0.00     0.124 S 
ATOM     96  O   UNL A   1      47.598  22.161  35.217  1.00  0.00    -0.237 OA
ATOM     97  O   UNL A   1      47.733  23.723  37.130  1.00  0.00    -0.237 OA
ATOM     98  O   UNL A   1      45.543  23.151  36.152  1.00  0.00    -0.744 OA
ENDBRANCH  91  95
ENDBRANCH  65  88
ENDBRANCH  39  40
ENDBRANCH  31  34
ENDBRANCH  29  30
ENDBRANCH  28  29
ENDBRANCH   1  28
TORSDOF 17
ENDMDL
