MODEL 1
REMARK VINA RESULT:     -11.7      0.000      0.000
REMARK SMILES CC[C@@H]1SC[C@@H](C(=O)NCCCNC(=O)c2ccc(-c3c4nc(c(-c5cc(S(=O)(=O)[O-])ccc5F)c5ccc([nH]5)c(-c5cc(S(=O)(=O)[O-])ccc5F)c5nc(c(-c6cc(S(=O)(=O)[O-])ccc6F)c6ccc3[nH]6)C=C5)C=C4)cc2)N1C(=O)NC1C(C)(C)C1(C)C
REMARK SMILES IDX 11 1 10 2 9 3 7 4 8 5 6 7 3 8 4 9 79 10 5 11 2 12 1 13 80 14
REMARK SMILES IDX 81 15 82 16 83 18 84 19 87 20 85 21 86 22 88 23 89 24 12 25
REMARK SMILES IDX 13 26 14 27 15 29 16 30 17 31 78 32 18 33 77 34 19 35 20 36
REMARK SMILES IDX 21 37 71 38 22 39 76 40 70 41 72 42 23 43 75 44 69 45 68 46
REMARK SMILES IDX 24 48 56 49 36 50 55 51 37 52 40 53 54 54 73 55 38 56 39 57
REMARK SMILES IDX 53 59 74 60 41 61 25 62 26 63 34 64 27 65 33 66 35 67 32 68
REMARK SMILES IDX 28 69 29 70 30 71 31 72 57 73 58 74 66 75 59 76 65 77 67 78
REMARK SMILES IDX 64 79 60 80 61 81 62 82 63 83 42 84 43 85 51 86 44 87 50 88
REMARK SMILES IDX 52 89 49 90 45 91 46 92 47 93 48 94
REMARK H PARENT 9 6 82 17 13 28 72 47 40 58
REMARK Flexibility Score: inf
ROOT
ATOM      1  C   UNL A   1      31.541  31.834  26.743  1.00  0.00     0.042 C 
ENDROOT
BRANCH   1   2
ATOM      2  C   UNL A   1      31.659  30.324  26.590  1.00  0.00     0.117 C 
BRANCH   2   3
ATOM      3  N   UNL A   1      32.969  29.853  26.986  1.00  0.00    -0.354 N 
ATOM      4  C   UNL A   1      33.732  28.836  26.503  1.00  0.00     0.243 C 
ATOM      5  O   UNL A   1      34.854  28.710  27.013  1.00  0.00    -0.273 OA
ATOM      6  H   UNL A   1      33.376  30.353  27.731  1.00  0.00     0.163 HD
BRANCH   4   7
ATOM      7  C   UNL A   1      33.410  28.097  25.189  1.00  0.00     0.187 C 
ATOM      8  C   UNL A   1      31.572  27.124  23.867  1.00  0.00     0.145 C 
ATOM      9  S   UNL A   1      32.262  28.469  22.844  1.00  0.00    -0.134 SA
ATOM     10  N   UNL A   1      32.399  27.018  25.076  1.00  0.00    -0.300 N 
ATOM     11  C   UNL A   1      33.025  29.250  24.249  1.00  0.00     0.107 C 
BRANCH   8  12
ATOM     12  C   UNL A   1      31.393  25.933  22.933  1.00  0.00     0.033 C 
ATOM     13  C   UNL A   1      30.591  24.751  23.456  1.00  0.00     0.007 C 
ENDBRANCH   8  12
BRANCH  10  14
ATOM     14  C   UNL A   1      32.455  25.966  25.987  1.00  0.00     0.319 C 
ATOM     15  O   UNL A   1      31.660  25.873  26.922  1.00  0.00    -0.249 OA
ATOM     16  N   UNL A   1      33.550  25.135  25.933  1.00  0.00    -0.334 N 
ATOM     17  H   UNL A   1      34.431  25.558  26.046  1.00  0.00     0.165 HD
BRANCH  16  18
ATOM     18  C   UNL A   1      33.542  23.685  25.721  1.00  0.00     0.096 C 
ATOM     19  C   UNL A   1      34.043  23.028  24.455  1.00  0.00    -0.007 C 
ATOM     20  C   UNL A   1      34.882  22.909  25.763  1.00  0.00    -0.007 C 
ATOM     21  C   UNL A   1      33.281  21.806  23.963  1.00  0.00     0.014 C 
ATOM     22  C   UNL A   1      34.395  23.935  23.307  1.00  0.00     0.014 C 
ATOM     23  C   UNL A   1      36.155  23.684  26.031  1.00  0.00     0.014 C 
ATOM     24  C   UNL A   1      34.991  21.518  26.362  1.00  0.00     0.014 C 
ENDBRANCH  16  18
ENDBRANCH  10  14
ENDBRANCH   4   7
ENDBRANCH   2   3
ENDBRANCH   1   2
BRANCH   1  25
ATOM     25  C   UNL A   1      32.869  32.517  27.056  1.00  0.00     0.118 C 
BRANCH  25  26
ATOM     26  N   UNL A   1      32.681  33.868  27.566  1.00  0.00    -0.352 N 
ATOM     27  C   UNL A   1      33.236  34.496  28.655  1.00  0.00     0.251 C 
ATOM     28  H   UNL A   1      32.055  34.421  27.045  1.00  0.00     0.163 HD
ATOM     29  O   UNL A   1      32.735  35.547  29.042  1.00  0.00    -0.269 OA
BRANCH  27  30
ATOM     30  C   UNL A   1      34.404  33.922  29.367  1.00  0.00     0.039 A 
ATOM     31  C   UNL A   1      34.183  32.910  30.307  1.00  0.00     0.014 A 
ATOM     32  C   UNL A   1      35.702  34.399  29.169  1.00  0.00     0.014 A 
ATOM     33  C   UNL A   1      35.260  32.351  31.002  1.00  0.00     0.010 A 
ATOM     34  C   UNL A   1      36.784  33.773  29.786  1.00  0.00     0.010 A 
ATOM     35  C   UNL A   1      36.577  32.752  30.724  1.00  0.00    -0.014 A 
BRANCH  35  36
ATOM     36  C   UNL A   1      37.736  32.127  31.419  1.00  0.00     0.031 A 
ATOM     37  C   UNL A   1      38.522  31.027  30.751  1.00  0.00     0.074 A 
ATOM     38  C   UNL A   1      38.053  32.518  32.671  1.00  0.00     0.049 A 
ATOM     39  N   UNL A   1      39.533  30.334  31.213  1.00  0.00    -0.248 NA
ATOM     40  C   UNL A   1      38.099  30.633  29.399  1.00  0.00     0.031 C 
ATOM     41  C   UNL A   1      37.336  33.536  33.444  1.00  0.00     0.029 A 
ATOM     42  N   UNL A   1      39.053  32.107  33.518  1.00  0.00    -0.354 N 
ATOM     43  C   UNL A   1      39.850  29.411  30.220  1.00  0.00     0.074 A 
ATOM     44  C   UNL A   1      38.886  29.596  29.156  1.00  0.00     0.031 C 
ATOM     45  C   UNL A   1      37.939  33.693  34.633  1.00  0.00     0.029 A 
ATOM     46  C   UNL A   1      39.051  32.754  34.734  1.00  0.00     0.049 A 
ATOM     47  H   UNL A   1      39.710  31.415  33.278  1.00  0.00     0.167 HD
ATOM     48  C   UNL A   1      40.863  28.510  30.188  1.00  0.00     0.034 A 
ATOM     49  C   UNL A   1      39.844  32.600  35.812  1.00  0.00     0.034 A 
ATOM     50  C   UNL A   1      41.831  28.355  31.247  1.00  0.00     0.049 A 
ATOM     51  C   UNL A   1      40.961  31.588  35.752  1.00  0.00     0.074 A 
ATOM     52  C   UNL A   1      42.942  27.530  31.285  1.00  0.00     0.029 A 
ATOM     53  N   UNL A   1      41.799  29.030  32.461  1.00  0.00    -0.354 N 
ATOM     54  N   UNL A   1      41.290  30.776  34.774  1.00  0.00    -0.248 NA
ATOM     55  C   UNL A   1      41.824  31.484  36.936  1.00  0.00     0.031 C 
ATOM     56  C   UNL A   1      43.532  27.646  32.547  1.00  0.00     0.029 A 
ATOM     57  C   UNL A   1      42.846  28.610  33.268  1.00  0.00     0.049 A 
ATOM     58  H   UNL A   1      41.131  29.708  32.712  1.00  0.00     0.167 HD
ATOM     59  C   UNL A   1      42.415  30.085  35.217  1.00  0.00     0.074 A 
ATOM     60  C   UNL A   1      42.721  30.596  36.537  1.00  0.00     0.031 C 
ATOM     61  C   UNL A   1      43.132  29.116  34.591  1.00  0.00     0.034 A 
BRANCH  48  62
ATOM     62  C   UNL A   1      40.960  27.602  28.983  1.00  0.00     0.023 A 
ATOM     63  C   UNL A   1      41.966  27.758  28.012  1.00  0.00     0.031 A 
ATOM     64  C   UNL A   1      40.027  26.565  28.798  1.00  0.00     0.131 A 
ATOM     65  C   UNL A   1      41.974  26.938  26.871  1.00  0.00     0.055 A 
ATOM     66  C   UNL A   1      40.089  25.701  27.703  1.00  0.00     0.041 A 
ATOM     67  F   UNL A   1      39.031  26.379  29.679  1.00  0.00    -0.206 F 
ATOM     68  C   UNL A   1      41.059  25.894  26.724  1.00  0.00     0.022 A 
BRANCH  65  69
ATOM     69  S   UNL A   1      43.113  27.345  25.519  1.00  0.00     0.124 S 
ATOM     70  O   UNL A   1      42.256  28.137  24.640  1.00  0.00    -0.237 OA
ATOM     71  O   UNL A   1      44.171  28.073  26.206  1.00  0.00    -0.237 OA
ATOM     72  O   UNL A   1      43.497  26.037  24.989  1.00  0.00    -0.744 OA
ENDBRANCH  65  69
ENDBRANCH  48  62
BRANCH  49  73
ATOM     73  C   UNL A   1      39.609  33.403  37.048  1.00  0.00     0.023 A 
ATOM     74  C   UNL A   1      38.986  32.841  38.174  1.00  0.00     0.031 A 
ATOM     75  C   UNL A   1      39.960  34.765  37.102  1.00  0.00     0.131 A 
ATOM     76  C   UNL A   1      38.683  33.648  39.283  1.00  0.00     0.055 A 
ATOM     77  C   UNL A   1      39.712  35.547  38.232  1.00  0.00     0.041 A 
ATOM     78  F   UNL A   1      40.562  35.355  36.057  1.00  0.00    -0.206 F 
ATOM     79  C   UNL A   1      39.055  34.993  39.325  1.00  0.00     0.022 A 
BRANCH  76  80
ATOM     80  S   UNL A   1      37.700  32.937  40.632  1.00  0.00     0.124 S 
ATOM     81  O   UNL A   1      37.995  33.853  41.728  1.00  0.00    -0.237 OA
ATOM     82  O   UNL A   1      36.348  33.000  40.087  1.00  0.00    -0.237 OA
ATOM     83  O   UNL A   1      38.249  31.590  40.779  1.00  0.00    -0.744 OA
ENDBRANCH  76  80
ENDBRANCH  49  73
BRANCH  61  84
ATOM     84  C   UNL A   1      44.340  28.578  35.321  1.00  0.00     0.023 A 
ATOM     85  C   UNL A   1      44.232  27.543  36.267  1.00  0.00     0.031 A 
ATOM     86  C   UNL A   1      45.613  29.127  35.087  1.00  0.00     0.131 A 
ATOM     87  C   UNL A   1      45.362  27.141  36.995  1.00  0.00     0.055 A 
ATOM     88  C   UNL A   1      46.747  28.672  35.761  1.00  0.00     0.041 A 
ATOM     89  F   UNL A   1      45.776  30.121  34.198  1.00  0.00    -0.206 F 
ATOM     90  C   UNL A   1      46.621  27.685  36.734  1.00  0.00     0.022 A 
BRANCH  87  91
ATOM     91  S   UNL A   1      45.142  25.978  38.370  1.00  0.00     0.124 S 
ATOM     92  O   UNL A   1      46.429  26.070  39.052  1.00  0.00    -0.237 OA
ATOM     93  O   UNL A   1      44.002  26.547  39.081  1.00  0.00    -0.237 OA
ATOM     94  O   UNL A   1      44.883  24.704  37.704  1.00  0.00    -0.744 OA
ENDBRANCH  87  91
ENDBRANCH  61  84
ENDBRANCH  35  36
ENDBRANCH  27  30
ENDBRANCH  25  26
ENDBRANCH   1  25
TORSDOF 16
ENDMDL
MODEL 2
REMARK VINA RESULT:     -11.7      3.858      8.477
REMARK SMILES CC[C@@H]1SC[C@@H](C(=O)NCCCNC(=O)c2ccc(-c3c4nc(c(-c5cc(S(=O)(=O)[O-])ccc5F)c5ccc([nH]5)c(-c5cc(S(=O)(=O)[O-])ccc5F)c5nc(c(-c6cc(S(=O)(=O)[O-])ccc6F)c6ccc3[nH]6)C=C5)C=C4)cc2)N1C(=O)NC1C(C)(C)C1(C)C
REMARK SMILES IDX 11 1 10 2 9 3 7 4 8 5 6 7 3 8 4 9 79 10 5 11 2 12 1 13 80 14
REMARK SMILES IDX 81 15 82 16 83 18 84 19 87 20 85 21 86 22 88 23 89 24 12 25
REMARK SMILES IDX 13 26 14 27 15 29 16 30 17 31 78 32 18 33 77 34 19 35 20 36
REMARK SMILES IDX 21 37 71 38 22 39 76 40 70 41 72 42 23 43 75 44 69 45 68 46
REMARK SMILES IDX 24 48 56 49 36 50 55 51 37 52 40 53 54 54 73 55 38 56 39 57
REMARK SMILES IDX 53 59 74 60 41 61 25 62 26 63 34 64 27 65 33 66 35 67 32 68
REMARK SMILES IDX 28 69 29 70 30 71 31 72 57 73 58 74 66 75 59 76 65 77 67 78
REMARK SMILES IDX 64 79 60 80 61 81 62 82 63 83 42 84 43 85 51 86 44 87 50 88
REMARK SMILES IDX 52 89 49 90 45 91 46 92 47 93 48 94
REMARK H PARENT 9 6 82 17 13 28 72 47 40 58
REMARK Flexibility Score: inf
ROOT
ATOM      1  C   UNL A   1      33.315  27.949  26.863  1.00  0.00     0.042 C 
ENDROOT
BRANCH   1   2
ATOM      2  C   UNL A   1      31.931  28.344  27.356  1.00  0.00     0.117 C 
BRANCH   2   3
ATOM      3  N   UNL A   1      31.000  27.240  27.263  1.00  0.00    -0.354 N 
ATOM      4  C   UNL A   1      30.668  26.442  26.213  1.00  0.00     0.243 C 
ATOM      5  O   UNL A   1      29.870  25.526  26.459  1.00  0.00    -0.273 OA
ATOM      6  H   UNL A   1      30.527  27.032  28.102  1.00  0.00     0.163 HD
BRANCH   4   7
ATOM      7  C   UNL A   1      31.461  26.420  24.892  1.00  0.00     0.187 C 
ATOM      8  C   UNL A   1      31.539  25.404  22.649  1.00  0.00     0.145 C 
ATOM      9  S   UNL A   1      31.296  27.192  22.376  1.00  0.00    -0.134 SA
ATOM     10  N   UNL A   1      31.700  25.193  24.093  1.00  0.00    -0.300 N 
ATOM     11  C   UNL A   1      30.699  27.442  24.035  1.00  0.00     0.107 C 
BRANCH   8  12
ATOM     12  C   UNL A   1      32.623  24.971  21.669  1.00  0.00     0.033 C 
ATOM     13  C   UNL A   1      32.577  25.565  20.269  1.00  0.00     0.007 C 
ENDBRANCH   8  12
BRANCH  10  14
ATOM     14  C   UNL A   1      32.203  24.071  24.746  1.00  0.00     0.319 C 
ATOM     15  O   UNL A   1      31.466  23.257  25.300  1.00  0.00    -0.249 OA
ATOM     16  N   UNL A   1      33.565  23.998  24.927  1.00  0.00    -0.334 N 
ATOM     17  H   UNL A   1      33.984  24.736  25.426  1.00  0.00     0.165 HD
BRANCH  16  18
ATOM     18  C   UNL A   1      34.458  22.937  24.454  1.00  0.00     0.096 C 
ATOM     19  C   UNL A   1      35.897  22.803  24.899  1.00  0.00    -0.007 C 
ATOM     20  C   UNL A   1      34.837  21.784  25.418  1.00  0.00    -0.007 C 
ATOM     21  C   UNL A   1      36.903  22.342  23.855  1.00  0.00     0.014 C 
ATOM     22  C   UNL A   1      36.464  23.925  25.727  1.00  0.00     0.014 C 
ATOM     23  C   UNL A   1      34.259  21.796  26.817  1.00  0.00     0.014 C 
ATOM     24  C   UNL A   1      34.998  20.352  24.940  1.00  0.00     0.014 C 
ENDBRANCH  16  18
ENDBRANCH  10  14
ENDBRANCH   4   7
ENDBRANCH   2   3
ENDBRANCH   1   2
BRANCH   1  25
ATOM     25  C   UNL A   1      33.991  29.028  26.024  1.00  0.00     0.118 C 
BRANCH  25  26
ATOM     26  N   UNL A   1      33.800  30.357  26.587  1.00  0.00    -0.352 N 
ATOM     27  C   UNL A   1      34.456  30.995  27.613  1.00  0.00     0.251 C 
ATOM     28  H   UNL A   1      33.085  30.885  26.163  1.00  0.00     0.163 HD
ATOM     29  O   UNL A   1      33.954  32.010  28.086  1.00  0.00    -0.269 OA
BRANCH  27  30
ATOM     30  C   UNL A   1      35.733  30.473  28.157  1.00  0.00     0.039 A 
ATOM     31  C   UNL A   1      35.695  29.681  29.310  1.00  0.00     0.014 A 
ATOM     32  C   UNL A   1      36.968  30.793  27.590  1.00  0.00     0.014 A 
ATOM     33  C   UNL A   1      36.880  29.179  29.855  1.00  0.00     0.010 A 
ATOM     34  C   UNL A   1      38.138  30.209  28.073  1.00  0.00     0.010 A 
ATOM     35  C   UNL A   1      38.112  29.408  29.223  1.00  0.00    -0.014 A 
BRANCH  35  36
ATOM     36  C   UNL A   1      39.375  28.832  29.764  1.00  0.00     0.031 A 
ATOM     37  C   UNL A   1      40.039  29.448  30.970  1.00  0.00     0.074 A 
ATOM     38  C   UNL A   1      39.949  27.781  29.142  1.00  0.00     0.049 A 
ATOM     39  N   UNL A   1      41.160  29.115  31.558  1.00  0.00    -0.248 NA
ATOM     40  C   UNL A   1      39.371  30.610  31.575  1.00  0.00     0.031 C 
ATOM     41  C   UNL A   1      39.430  27.128  27.937  1.00  0.00     0.029 A 
ATOM     42  N   UNL A   1      41.092  27.077  29.430  1.00  0.00    -0.354 N 
ATOM     43  C   UNL A   1      41.342  30.037  32.586  1.00  0.00     0.074 A 
ATOM     44  C   UNL A   1      40.245  30.977  32.501  1.00  0.00     0.031 C 
ATOM     45  C   UNL A   1      40.232  26.103  27.610  1.00  0.00     0.029 A 
ATOM     46  C   UNL A   1      41.350  26.053  28.546  1.00  0.00     0.049 A 
ATOM     47  H   UNL A   1      41.672  27.285  30.197  1.00  0.00     0.167 HD
ATOM     48  C   UNL A   1      42.319  30.082  33.525  1.00  0.00     0.034 A 
ATOM     49  C   UNL A   1      42.377  25.182  28.487  1.00  0.00     0.034 A 
ATOM     50  C   UNL A   1      43.394  29.122  33.609  1.00  0.00     0.049 A 
ATOM     51  C   UNL A   1      43.452  25.255  29.542  1.00  0.00     0.074 A 
ATOM     52  C   UNL A   1      44.391  29.028  34.565  1.00  0.00     0.029 A 
ATOM     53  N   UNL A   1      43.620  28.097  32.700  1.00  0.00    -0.354 N 
ATOM     54  N   UNL A   1      43.567  26.090  30.550  1.00  0.00    -0.248 NA
ATOM     55  C   UNL A   1      44.529  24.260  29.460  1.00  0.00     0.031 C 
ATOM     56  C   UNL A   1      45.262  28.001  34.191  1.00  0.00     0.029 A 
ATOM     57  C   UNL A   1      44.763  27.392  33.050  1.00  0.00     0.049 A 
ATOM     58  H   UNL A   1      43.053  27.899  31.921  1.00  0.00     0.167 HD
ATOM     59  C   UNL A   1      44.715  25.699  31.236  1.00  0.00     0.074 A 
ATOM     60  C   UNL A   1      45.237  24.541  30.541  1.00  0.00     0.031 C 
ATOM     61  C   UNL A   1      45.285  26.248  32.340  1.00  0.00     0.034 A 
BRANCH  48  62
ATOM     62  C   UNL A   1      42.289  31.222  34.518  1.00  0.00     0.023 A 
ATOM     63  C   UNL A   1      42.762  32.506  34.193  1.00  0.00     0.031 A 
ATOM     64  C   UNL A   1      41.784  31.019  35.816  1.00  0.00     0.131 A 
ATOM     65  C   UNL A   1      42.783  33.515  35.170  1.00  0.00     0.055 A 
ATOM     66  C   UNL A   1      41.731  32.048  36.757  1.00  0.00     0.041 A 
ATOM     67  F   UNL A   1      41.338  29.810  36.193  1.00  0.00    -0.206 F 
ATOM     68  C   UNL A   1      42.246  33.302  36.442  1.00  0.00     0.022 A 
BRANCH  65  69
ATOM     69  S   UNL A   1      43.647  35.066  34.797  1.00  0.00     0.124 S 
ATOM     70  O   UNL A   1      42.580  35.859  34.189  1.00  0.00    -0.237 OA
ATOM     71  O   UNL A   1      44.096  35.501  36.113  1.00  0.00    -0.237 OA
ATOM     72  O   UNL A   1      44.708  34.655  33.879  1.00  0.00    -0.744 OA
ENDBRANCH  65  69
ENDBRANCH  48  62
BRANCH  49  73
ATOM     73  C   UNL A   1      42.455  24.174  27.388  1.00  0.00     0.023 A 
ATOM     74  C   UNL A   1      41.642  23.029  27.392  1.00  0.00     0.031 A 
ATOM     75  C   UNL A   1      43.384  24.317  26.342  1.00  0.00     0.131 A 
ATOM     76  C   UNL A   1      41.810  22.047  26.402  1.00  0.00     0.055 A 
ATOM     77  C   UNL A   1      43.506  23.367  25.326  1.00  0.00     0.041 A 
ATOM     78  F   UNL A   1      44.185  25.393  26.285  1.00  0.00    -0.206 F 
ATOM     79  C   UNL A   1      42.726  22.215  25.362  1.00  0.00     0.022 A 
BRANCH  76  80
ATOM     80  S   UNL A   1      40.885  20.494  26.553  1.00  0.00     0.124 S 
ATOM     81  O   UNL A   1      40.908  20.274  27.995  1.00  0.00    -0.237 OA
ATOM     82  O   UNL A   1      39.593  20.856  25.979  1.00  0.00    -0.237 OA
ATOM     83  O   UNL A   1      41.674  19.550  25.765  1.00  0.00    -0.744 OA
ENDBRANCH  76  80
ENDBRANCH  49  73
BRANCH  61  84
ATOM     84  C   UNL A   1      46.522  25.569  32.881  1.00  0.00     0.023 A 
ATOM     85  C   UNL A   1      47.803  25.861  32.382  1.00  0.00     0.031 A 
ATOM     86  C   UNL A   1      46.412  24.595  33.889  1.00  0.00     0.131 A 
ATOM     87  C   UNL A   1      48.914  25.137  32.842  1.00  0.00     0.055 A 
ATOM     88  C   UNL A   1      47.530  23.930  34.395  1.00  0.00     0.041 A 
ATOM     89  F   UNL A   1      45.213  24.271  34.400  1.00  0.00    -0.206 F 
ATOM     90  C   UNL A   1      48.788  24.188  33.858  1.00  0.00     0.022 A 
BRANCH  87  91
ATOM     91  S   UNL A   1      50.508  25.371  32.010  1.00  0.00     0.124 S 
ATOM     92  O   UNL A   1      51.369  25.781  33.116  1.00  0.00    -0.237 OA
ATOM     93  O   UNL A   1      50.771  24.046  31.458  1.00  0.00    -0.237 OA
ATOM     94  O   UNL A   1      50.231  26.410  31.021  1.00  0.00    -0.744 OA
ENDBRANCH  87  91
ENDBRANCH  61  84
ENDBRANCH  35  36
ENDBRANCH  27  30
ENDBRANCH  25  26
ENDBRANCH   1  25
TORSDOF 16
ENDMDL
MODEL 3
REMARK VINA RESULT:     -11.6      2.291      8.097
REMARK SMILES CC[C@@H]1SC[C@@H](C(=O)NCCCNC(=O)c2ccc(-c3c4nc(c(-c5cc(S(=O)(=O)[O-])ccc5F)c5ccc([nH]5)c(-c5cc(S(=O)(=O)[O-])ccc5F)c5nc(c(-c6cc(S(=O)(=O)[O-])ccc6F)c6ccc3[nH]6)C=C5)C=C4)cc2)N1C(=O)NC1C(C)(C)C1(C)C
REMARK SMILES IDX 11 1 10 2 9 3 7 4 8 5 6 7 3 8 4 9 79 10 5 11 2 12 1 13 80 14
REMARK SMILES IDX 81 15 82 16 83 18 84 19 87 20 85 21 86 22 88 23 89 24 12 25
REMARK SMILES IDX 13 26 14 27 15 29 16 30 17 31 78 32 18 33 77 34 19 35 20 36
REMARK SMILES IDX 21 37 71 38 22 39 76 40 70 41 72 42 23 43 75 44 69 45 68 46
REMARK SMILES IDX 24 48 56 49 36 50 55 51 37 52 40 53 54 54 73 55 38 56 39 57
REMARK SMILES IDX 53 59 74 60 41 61 25 62 26 63 34 64 27 65 33 66 35 67 32 68
REMARK SMILES IDX 28 69 29 70 30 71 31 72 57 73 58 74 66 75 59 76 65 77 67 78
REMARK SMILES IDX 64 79 60 80 61 81 62 82 63 83 42 84 43 85 51 86 44 87 50 88
REMARK SMILES IDX 52 89 49 90 45 91 46 92 47 93 48 94
REMARK H PARENT 9 6 82 17 13 28 72 47 40 58
REMARK Flexibility Score: inf
ROOT
ATOM      1  C   UNL A   1      31.798  29.301  27.175  1.00  0.00     0.042 C 
ENDROOT
BRANCH   1   2
ATOM      2  C   UNL A   1      32.145  27.856  27.505  1.00  0.00     0.117 C 
BRANCH   2   3
ATOM      3  N   UNL A   1      31.066  26.959  27.152  1.00  0.00    -0.354 N 
ATOM      4  C   UNL A   1      30.711  26.422  25.953  1.00  0.00     0.243 C 
ATOM      5  O   UNL A   1      29.761  25.627  25.975  1.00  0.00    -0.273 OA
ATOM      6  H   UNL A   1      30.492  26.693  27.906  1.00  0.00     0.163 HD
BRANCH   4   7
ATOM      7  C   UNL A   1      31.609  26.495  24.703  1.00  0.00     0.187 C 
ATOM      8  C   UNL A   1      31.718  25.913  22.311  1.00  0.00     0.145 C 
ATOM      9  S   UNL A   1      31.816  27.734  22.385  1.00  0.00    -0.134 SA
ATOM     10  N   UNL A   1      31.704  25.414  23.692  1.00  0.00    -0.300 N 
ATOM     11  C   UNL A   1      31.120  27.782  24.022  1.00  0.00     0.107 C 
BRANCH   8  12
ATOM     12  C   UNL A   1      32.798  25.472  21.330  1.00  0.00     0.033 C 
ATOM     13  C   UNL A   1      32.445  25.487  19.850  1.00  0.00     0.007 C 
ENDBRANCH   8  12
BRANCH  10  14
ATOM     14  C   UNL A   1      31.941  24.116  24.138  1.00  0.00     0.319 C 
ATOM     15  O   UNL A   1      31.051  23.268  24.171  1.00  0.00    -0.249 OA
ATOM     16  N   UNL A   1      33.156  23.859  24.730  1.00  0.00    -0.334 N 
ATOM     17  H   UNL A   1      33.384  24.397  25.521  1.00  0.00     0.165 HD
BRANCH  16  18
ATOM     18  C   UNL A   1      34.148  22.867  24.304  1.00  0.00     0.096 C 
ATOM     19  C   UNL A   1      35.609  22.938  24.686  1.00  0.00    -0.007 C 
ATOM     20  C   UNL A   1      34.698  21.856  25.341  1.00  0.00    -0.007 C 
ATOM     21  C   UNL A   1      36.620  22.502  23.636  1.00  0.00     0.014 C 
ATOM     22  C   UNL A   1      36.073  24.186  25.388  1.00  0.00     0.014 C 
ATOM     23  C   UNL A   1      34.178  21.928  26.761  1.00  0.00     0.014 C 
ATOM     24  C   UNL A   1      35.006  20.415  24.978  1.00  0.00     0.014 C 
ENDBRANCH  16  18
ENDBRANCH  10  14
ENDBRANCH   4   7
ENDBRANCH   2   3
ENDBRANCH   1   2
BRANCH   1  25
ATOM     25  C   UNL A   1      32.899  30.029  26.408  1.00  0.00     0.118 C 
BRANCH  25  26
ATOM     26  N   UNL A   1      32.918  31.455  26.702  1.00  0.00    -0.352 N 
ATOM     27  C   UNL A   1      33.706  32.179  27.564  1.00  0.00     0.251 C 
ATOM     28  H   UNL A   1      32.258  31.987  26.201  1.00  0.00     0.163 HD
ATOM     29  O   UNL A   1      33.371  33.326  27.840  1.00  0.00    -0.269 OA
BRANCH  27  30
ATOM     30  C   UNL A   1      34.929  31.594  28.168  1.00  0.00     0.039 A 
ATOM     31  C   UNL A   1      36.100  32.359  28.181  1.00  0.00     0.014 A 
ATOM     32  C   UNL A   1      34.959  30.290  28.669  1.00  0.00     0.014 A 
ATOM     33  C   UNL A   1      37.273  31.837  28.734  1.00  0.00     0.010 A 
ATOM     34  C   UNL A   1      36.099  29.809  29.312  1.00  0.00     0.010 A 
ATOM     35  C   UNL A   1      37.277  30.569  29.337  1.00  0.00    -0.014 A 
BRANCH  35  36
ATOM     36  C   UNL A   1      38.506  30.024  29.979  1.00  0.00     0.031 A 
ATOM     37  C   UNL A   1      38.910  30.476  31.360  1.00  0.00     0.074 A 
ATOM     38  C   UNL A   1      39.284  29.157  29.298  1.00  0.00     0.049 A 
ATOM     39  N   UNL A   1      39.965  30.147  32.063  1.00  0.00    -0.248 NA
ATOM     40  C   UNL A   1      38.029  31.447  32.026  1.00  0.00     0.031 C 
ATOM     41  C   UNL A   1      39.027  28.683  27.936  1.00  0.00     0.029 A 
ATOM     42  N   UNL A   1      40.448  28.520  29.653  1.00  0.00    -0.354 N 
ATOM     43  C   UNL A   1      39.885  30.886  33.240  1.00  0.00     0.074 A 
ATOM     44  C   UNL A   1      38.708  31.722  33.129  1.00  0.00     0.031 C 
ATOM     45  C   UNL A   1      39.984  27.809  27.585  1.00  0.00     0.029 A 
ATOM     46  C   UNL A   1      40.951  27.697  28.671  1.00  0.00     0.049 A 
ATOM     47  H   UNL A   1      40.882  28.641  30.528  1.00  0.00     0.167 HD
ATOM     48  C   UNL A   1      40.702  30.854  34.322  1.00  0.00     0.034 A 
ATOM     49  C   UNL A   1      42.071  26.947  28.642  1.00  0.00     0.034 A 
ATOM     50  C   UNL A   1      41.858  29.996  34.426  1.00  0.00     0.049 A 
ATOM     51  C   UNL A   1      42.965  26.931  29.856  1.00  0.00     0.074 A 
ATOM     52  C   UNL A   1      42.709  29.825  35.505  1.00  0.00     0.029 A 
ATOM     53  N   UNL A   1      42.334  29.172  33.413  1.00  0.00    -0.354 N 
ATOM     54  N   UNL A   1      42.832  27.581  30.991  1.00  0.00    -0.248 NA
ATOM     55  C   UNL A   1      44.152  26.068  29.793  1.00  0.00     0.031 C 
ATOM     56  C   UNL A   1      43.741  28.965  35.118  1.00  0.00     0.029 A 
ATOM     57  C   UNL A   1      43.489  28.525  33.829  1.00  0.00     0.049 A 
ATOM     58  H   UNL A   1      41.914  29.064  32.531  1.00  0.00     0.167 HD
ATOM     59  C   UNL A   1      43.905  27.182  31.783  1.00  0.00     0.074 A 
ATOM     60  C   UNL A   1      44.657  26.217  31.007  1.00  0.00     0.031 C 
ATOM     61  C   UNL A   1      44.240  27.576  33.039  1.00  0.00     0.034 A 
BRANCH  48  62
ATOM     62  C   UNL A   1      40.394  31.792  35.467  1.00  0.00     0.023 A 
ATOM     63  C   UNL A   1      39.355  31.535  36.381  1.00  0.00     0.031 A 
ATOM     64  C   UNL A   1      41.146  32.967  35.644  1.00  0.00     0.131 A 
ATOM     65  C   UNL A   1      39.057  32.471  37.385  1.00  0.00     0.055 A 
ATOM     66  C   UNL A   1      40.897  33.853  36.694  1.00  0.00     0.041 A 
ATOM     67  F   UNL A   1      42.136  33.278  34.792  1.00  0.00    -0.206 F 
ATOM     68  C   UNL A   1      39.838  33.615  37.564  1.00  0.00     0.022 A 
BRANCH  65  69
ATOM     69  S   UNL A   1      37.549  32.239  38.366  1.00  0.00     0.124 S 
ATOM     70  O   UNL A   1      38.029  32.520  39.717  1.00  0.00    -0.237 OA
ATOM     71  O   UNL A   1      36.644  33.225  37.791  1.00  0.00    -0.237 OA
ATOM     72  O   UNL A   1      37.190  30.843  38.118  1.00  0.00    -0.744 OA
ENDBRANCH  65  69
ENDBRANCH  48  62
BRANCH  49  73
ATOM     73  C   UNL A   1      42.426  26.161  27.424  1.00  0.00     0.023 A 
ATOM     74  C   UNL A   1      42.054  24.813  27.293  1.00  0.00     0.031 A 
ATOM     75  C   UNL A   1      43.192  26.734  26.392  1.00  0.00     0.131 A 
ATOM     76  C   UNL A   1      42.492  24.070  26.185  1.00  0.00     0.055 A 
ATOM     77  C   UNL A   1      43.573  26.007  25.262  1.00  0.00     0.041 A 
ATOM     78  F   UNL A   1      43.573  28.020  26.460  1.00  0.00    -0.206 F 
ATOM     79  C   UNL A   1      43.237  24.661  25.163  1.00  0.00     0.022 A 
BRANCH  76  80
ATOM     80  S   UNL A   1      42.162  22.286  26.151  1.00  0.00     0.124 S 
ATOM     81  O   UNL A   1      42.871  21.876  24.943  1.00  0.00    -0.237 OA
ATOM     82  O   UNL A   1      42.742  21.847  27.416  1.00  0.00    -0.237 OA
ATOM     83  O   UNL A   1      40.705  22.211  26.075  1.00  0.00    -0.744 OA
ENDBRANCH  76  80
ENDBRANCH  49  73
BRANCH  61  84
ATOM     84  C   UNL A   1      45.456  26.928  33.659  1.00  0.00     0.023 A 
ATOM     85  C   UNL A   1      45.359  25.748  34.417  1.00  0.00     0.031 A 
ATOM     86  C   UNL A   1      46.725  27.516  33.513  1.00  0.00     0.131 A 
ATOM     87  C   UNL A   1      46.496  25.234  35.059  1.00  0.00     0.055 A 
ATOM     88  C   UNL A   1      47.865  26.959  34.093  1.00  0.00     0.041 A 
ATOM     89  F   UNL A   1      46.878  28.646  32.805  1.00  0.00    -0.206 F 
ATOM     90  C   UNL A   1      47.751  25.820  34.885  1.00  0.00     0.022 A 
BRANCH  87  91
ATOM     91  S   UNL A   1      46.290  23.854  36.218  1.00  0.00     0.124 S 
ATOM     92  O   UNL A   1      46.101  24.551  37.487  1.00  0.00    -0.237 OA
ATOM     93  O   UNL A   1      45.116  23.170  35.686  1.00  0.00    -0.237 OA
ATOM     94  O   UNL A   1      47.545  23.115  36.098  1.00  0.00    -0.744 OA
ENDBRANCH  87  91
ENDBRANCH  61  84
ENDBRANCH  35  36
ENDBRANCH  27  30
ENDBRANCH  25  26
ENDBRANCH   1  25
TORSDOF 16
ENDMDL
