MODEL 1
REMARK VINA RESULT:     -11.4      0.000      0.000
REMARK SMILES CC(C)[NH+]1CCC(NC(=O)OC(C)(C)C)(C(=O)NCCCNC(=O)c2ccc(-c3c4nc(c(-c5cc(S(=O)(=O)[O-])ccc5F)c5ccc([nH]5)c(-c5cc(S(=O)(=O)[O-])ccc5F)c5nc(c(-c6cc(S(=O)(=O)[O-])ccc6F)c6ccc3[nH]6)C=C5)C=C4)cc2)CC1
REMARK SMILES IDX 20 1 19 2 18 3 16 4 17 5 7 7 4 8 5 9 89 10 6 12 88 13 2 14
REMARK SMILES IDX 1 15 3 16 8 17 9 18 10 20 11 21 12 22 13 23 14 24 15 25
REMARK SMILES IDX 21 26 22 27 23 28 24 30 25 31 26 32 87 33 27 34 86 35 28 36
REMARK SMILES IDX 29 37 30 38 80 39 31 40 85 41 79 42 81 43 32 44 84 45 78 46
REMARK SMILES IDX 77 47 33 49 65 50 45 51 64 52 46 53 49 54 63 55 82 56 47 57
REMARK SMILES IDX 48 58 62 60 83 61 50 62 34 63 35 64 43 65 36 66 42 67 44 68
REMARK SMILES IDX 41 69 37 70 38 71 39 72 40 73 66 74 67 75 75 76 68 77 74 78
REMARK SMILES IDX 76 79 73 80 69 81 70 82 71 83 72 84 51 85 52 86 60 87 53 88
REMARK SMILES IDX 59 89 61 90 58 91 54 92 55 93 56 94 57 95
REMARK H PARENT 18 6 4 11 8 19 22 29 81 48 49 59
REMARK Flexibility Score: inf
ROOT
ATOM      1  C   UNL A   1      32.119  28.432  27.392  1.00  0.00     0.042 C 
ENDROOT
BRANCH   1   2
ATOM      2  C   UNL A   1      31.400  27.401  26.555  1.00  0.00     0.117 C 
BRANCH   2   3
ATOM      3  N   UNL A   1      32.292  26.799  25.589  1.00  0.00    -0.354 N 
ATOM      4  C   UNL A   1      32.013  25.922  24.590  1.00  0.00     0.246 C 
ATOM      5  O   UNL A   1      32.888  25.779  23.730  1.00  0.00    -0.272 OA
ATOM      6  H   UNL A   1      33.237  27.063  25.666  1.00  0.00     0.163 HD
BRANCH   4   7
ATOM      7  C   UNL A   1      30.661  25.148  24.552  1.00  0.00     0.132 C 
ATOM      8  N   UNL A   1      31.737  22.384  24.938  1.00  0.00    -0.333 N 
ATOM      9  C   UNL A   1      31.608  23.329  26.049  1.00  0.00     0.265 C 
ATOM     10  C   UNL A   1      31.786  23.038  23.623  1.00  0.00     0.265 C 
ATOM     11  H   UNL A   1      30.872  21.844  24.896  1.00  0.00     0.348 HD
ATOM     12  C   UNL A   1      30.461  24.308  25.838  1.00  0.00     0.100 C 
ATOM     13  C   UNL A   1      30.700  24.117  23.407  1.00  0.00     0.100 C 
BRANCH   8  14
ATOM     14  C   UNL A   1      32.806  21.376  25.190  1.00  0.00     0.177 C 
ATOM     15  C   UNL A   1      32.640  20.063  24.410  1.00  0.00     0.075 C 
ATOM     16  C   UNL A   1      34.255  21.868  25.001  1.00  0.00     0.075 C 
ENDBRANCH   8  14
BRANCH   7  17
ATOM     17  N   UNL A   1      29.491  26.063  24.397  1.00  0.00    -0.306 N 
ATOM     18  C   UNL A   1      29.280  27.126  23.559  1.00  0.00     0.408 C 
ATOM     19  H   UNL A   1      28.739  25.868  25.002  1.00  0.00     0.168 HD
ATOM     20  O   UNL A   1      28.171  27.644  23.485  1.00  0.00    -0.225 OA
BRANCH  18  21
ATOM     21  O   UNL A   1      30.390  27.580  22.942  1.00  0.00    -0.444 OA
BRANCH  21  22
ATOM     22  C   UNL A   1      30.763  28.988  22.898  1.00  0.00     0.106 C 
ATOM     23  C   UNL A   1      30.033  29.712  21.768  1.00  0.00     0.056 C 
ATOM     24  C   UNL A   1      30.549  29.710  24.238  1.00  0.00     0.056 C 
ATOM     25  C   UNL A   1      32.273  28.984  22.593  1.00  0.00     0.056 C 
ENDBRANCH  21  22
ENDBRANCH  18  21
ENDBRANCH   7  17
ENDBRANCH   4   7
ENDBRANCH   2   3
ENDBRANCH   1   2
BRANCH   1  26
ATOM     26  C   UNL A   1      33.293  29.049  26.648  1.00  0.00     0.118 C 
BRANCH  26  27
ATOM     27  N   UNL A   1      33.432  30.478  26.913  1.00  0.00    -0.352 N 
ATOM     28  C   UNL A   1      34.398  31.132  27.638  1.00  0.00     0.251 C 
ATOM     29  H   UNL A   1      32.736  31.052  26.519  1.00  0.00     0.163 HD
ATOM     30  O   UNL A   1      34.244  32.306  27.953  1.00  0.00    -0.269 OA
BRANCH  28  31
ATOM     31  C   UNL A   1      35.602  30.384  28.042  1.00  0.00     0.039 A 
ATOM     32  C   UNL A   1      36.734  30.415  27.230  1.00  0.00     0.014 A 
ATOM     33  C   UNL A   1      35.620  29.708  29.265  1.00  0.00     0.014 A 
ATOM     34  C   UNL A   1      37.915  29.829  27.686  1.00  0.00     0.010 A 
ATOM     35  C   UNL A   1      36.822  29.229  29.764  1.00  0.00     0.010 A 
ATOM     36  C   UNL A   1      37.980  29.274  28.976  1.00  0.00    -0.014 A 
BRANCH  36  37
ATOM     37  C   UNL A   1      39.245  28.718  29.518  1.00  0.00     0.031 A 
ATOM     38  C   UNL A   1      39.906  29.385  30.694  1.00  0.00     0.074 A 
ATOM     39  C   UNL A   1      39.824  27.661  28.913  1.00  0.00     0.049 A 
ATOM     40  N   UNL A   1      41.050  29.112  31.262  1.00  0.00    -0.248 NA
ATOM     41  C   UNL A   1      39.200  30.534  31.287  1.00  0.00     0.031 C 
ATOM     42  C   UNL A   1      39.294  26.962  27.739  1.00  0.00     0.029 A 
ATOM     43  N   UNL A   1      40.985  26.991  29.199  1.00  0.00    -0.354 N 
ATOM     44  C   UNL A   1      41.205  30.057  32.271  1.00  0.00     0.074 A 
ATOM     45  C   UNL A   1      40.076  30.956  32.185  1.00  0.00     0.031 C 
ATOM     46  C   UNL A   1      40.109  25.942  27.429  1.00  0.00     0.029 A 
ATOM     47  C   UNL A   1      41.248  25.947  28.341  1.00  0.00     0.049 A 
ATOM     48  H   UNL A   1      41.578  27.234  29.947  1.00  0.00     0.167 HD
ATOM     49  C   UNL A   1      42.184  30.147  33.204  1.00  0.00     0.034 A 
ATOM     50  C   UNL A   1      42.296  25.100  28.288  1.00  0.00     0.034 A 
ATOM     51  C   UNL A   1      43.295  29.231  33.281  1.00  0.00     0.049 A 
ATOM     52  C   UNL A   1      43.394  25.247  29.314  1.00  0.00     0.074 A 
ATOM     53  C   UNL A   1      44.319  29.200  34.210  1.00  0.00     0.029 A 
ATOM     54  N   UNL A   1      43.532  28.190  32.393  1.00  0.00    -0.354 N 
ATOM     55  N   UNL A   1      43.499  26.115  30.294  1.00  0.00    -0.248 NA
ATOM     56  C   UNL A   1      44.508  24.294  29.233  1.00  0.00     0.031 C 
ATOM     57  C   UNL A   1      45.214  28.191  33.840  1.00  0.00     0.029 A 
ATOM     58  C   UNL A   1      44.703  27.533  32.733  1.00  0.00     0.049 A 
ATOM     59  H   UNL A   1      42.952  27.953  31.633  1.00  0.00     0.167 HD
ATOM     60  C   UNL A   1      44.672  25.787  30.967  1.00  0.00     0.074 A 
ATOM     61  C   UNL A   1      45.226  24.631  30.294  1.00  0.00     0.031 C 
ATOM     62  C   UNL A   1      45.241  26.383  32.047  1.00  0.00     0.034 A 
BRANCH  49  63
ATOM     63  C   UNL A   1      42.101  31.279  34.197  1.00  0.00     0.023 A 
ATOM     64  C   UNL A   1      41.159  31.280  35.240  1.00  0.00     0.031 A 
ATOM     65  C   UNL A   1      42.971  32.380  34.096  1.00  0.00     0.131 A 
ATOM     66  C   UNL A   1      41.063  32.385  36.099  1.00  0.00     0.055 A 
ATOM     67  C   UNL A   1      42.927  33.439  35.006  1.00  0.00     0.041 A 
ATOM     68  F   UNL A   1      43.874  32.450  33.106  1.00  0.00    -0.206 F 
ATOM     69  C   UNL A   1      41.959  33.451  36.007  1.00  0.00     0.022 A 
BRANCH  66  70
ATOM     70  S   UNL A   1      39.663  32.470  37.247  1.00  0.00     0.124 S 
ATOM     71  O   UNL A   1      38.920  31.261  36.896  1.00  0.00    -0.237 OA
ATOM     72  O   UNL A   1      40.320  32.461  38.548  1.00  0.00    -0.237 OA
ATOM     73  O   UNL A   1      39.002  33.724  36.890  1.00  0.00    -0.744 OA
ENDBRANCH  66  70
ENDBRANCH  49  63
BRANCH  50  74
ATOM     74  C   UNL A   1      42.379  24.049  27.230  1.00  0.00     0.023 A 
ATOM     75  C   UNL A   1      41.576  22.899  27.289  1.00  0.00     0.031 A 
ATOM     76  C   UNL A   1      43.312  24.146  26.181  1.00  0.00     0.131 A 
ATOM     77  C   UNL A   1      41.768  21.863  26.362  1.00  0.00     0.055 A 
ATOM     78  C   UNL A   1      43.450  23.142  25.221  1.00  0.00     0.041 A 
ATOM     79  F   UNL A   1      44.105  25.223  26.073  1.00  0.00    -0.206 F 
ATOM     80  C   UNL A   1      42.687  21.983  25.319  1.00  0.00     0.022 A 
BRANCH  77  81
ATOM     81  S   UNL A   1      40.883  20.299  26.617  1.00  0.00     0.124 S 
ATOM     82  O   UNL A   1      39.588  20.591  26.012  1.00  0.00    -0.237 OA
ATOM     83  O   UNL A   1      41.730  19.353  25.899  1.00  0.00    -0.237 OA
ATOM     84  O   UNL A   1      40.875  20.149  28.071  1.00  0.00    -0.744 OA
ENDBRANCH  77  81
ENDBRANCH  50  74
BRANCH  62  85
ATOM     85  C   UNL A   1      46.501  25.755  32.594  1.00  0.00     0.023 A 
ATOM     86  C   UNL A   1      47.759  25.984  32.010  1.00  0.00     0.031 A 
ATOM     87  C   UNL A   1      46.437  24.908  33.716  1.00  0.00     0.131 A 
ATOM     88  C   UNL A   1      48.891  25.324  32.510  1.00  0.00     0.055 A 
ATOM     89  C   UNL A   1      47.578  24.312  34.254  1.00  0.00     0.041 A 
ATOM     90  F   UNL A   1      45.262  24.650  34.312  1.00  0.00    -0.206 F 
ATOM     91  C   UNL A   1      48.813  24.507  33.641  1.00  0.00     0.022 A 
BRANCH  88  92
ATOM     92  S   UNL A   1      50.452  25.466  31.599  1.00  0.00     0.124 S 
ATOM     93  O   UNL A   1      50.881  24.073  31.516  1.00  0.00    -0.237 OA
ATOM     94  O   UNL A   1      50.027  26.076  30.344  1.00  0.00    -0.237 OA
ATOM     95  O   UNL A   1      51.273  26.319  32.456  1.00  0.00    -0.744 OA
ENDBRANCH  88  92
ENDBRANCH  62  85
ENDBRANCH  36  37
ENDBRANCH  28  31
ENDBRANCH  26  27
ENDBRANCH   1  26
TORSDOF 17
ENDMDL
MODEL 2
REMARK VINA RESULT:     -11.3      1.842      2.130
REMARK SMILES CC(C)[NH+]1CCC(NC(=O)OC(C)(C)C)(C(=O)NCCCNC(=O)c2ccc(-c3c4nc(c(-c5cc(S(=O)(=O)[O-])ccc5F)c5ccc([nH]5)c(-c5cc(S(=O)(=O)[O-])ccc5F)c5nc(c(-c6cc(S(=O)(=O)[O-])ccc6F)c6ccc3[nH]6)C=C5)C=C4)cc2)CC1
REMARK SMILES IDX 20 1 19 2 18 3 16 4 17 5 7 7 4 8 5 9 89 10 6 12 88 13 2 14
REMARK SMILES IDX 1 15 3 16 8 17 9 18 10 20 11 21 12 22 13 23 14 24 15 25
REMARK SMILES IDX 21 26 22 27 23 28 24 30 25 31 26 32 87 33 27 34 86 35 28 36
REMARK SMILES IDX 29 37 30 38 80 39 31 40 85 41 79 42 81 43 32 44 84 45 78 46
REMARK SMILES IDX 77 47 33 49 65 50 45 51 64 52 46 53 49 54 63 55 82 56 47 57
REMARK SMILES IDX 48 58 62 60 83 61 50 62 34 63 35 64 43 65 36 66 42 67 44 68
REMARK SMILES IDX 41 69 37 70 38 71 39 72 40 73 66 74 67 75 75 76 68 77 74 78
REMARK SMILES IDX 76 79 73 80 69 81 70 82 71 83 72 84 51 85 52 86 60 87 53 88
REMARK SMILES IDX 59 89 61 90 58 91 54 92 55 93 56 94 57 95
REMARK H PARENT 18 6 4 11 8 19 22 29 81 48 49 59
REMARK Flexibility Score: inf
ROOT
ATOM      1  C   UNL A   1      31.840  28.606  27.431  1.00  0.00     0.042 C 
ENDROOT
BRANCH   1   2
ATOM      2  C   UNL A   1      31.352  27.378  26.700  1.00  0.00     0.117 C 
BRANCH   2   3
ATOM      3  N   UNL A   1      32.306  26.952  25.700  1.00  0.00    -0.354 N 
ATOM      4  C   UNL A   1      32.121  26.145  24.624  1.00  0.00     0.246 C 
ATOM      5  O   UNL A   1      33.013  26.163  23.769  1.00  0.00    -0.272 OA
ATOM      6  H   UNL A   1      33.221  27.296  25.817  1.00  0.00     0.163 HD
BRANCH   4   7
ATOM      7  C   UNL A   1      30.849  25.255  24.494  1.00  0.00     0.132 C 
ATOM      8  N   UNL A   1      32.192  22.581  24.535  1.00  0.00    -0.333 N 
ATOM      9  C   UNL A   1      31.988  23.368  25.754  1.00  0.00     0.265 C 
ATOM     10  C   UNL A   1      32.159  23.393  23.310  1.00  0.00     0.265 C 
ATOM     11  H   UNL A   1      31.383  21.969  24.430  1.00  0.00     0.348 HD
ATOM     12  C   UNL A   1      30.749  24.248  25.668  1.00  0.00     0.100 C 
ATOM     13  C   UNL A   1      30.970  24.379  23.231  1.00  0.00     0.100 C 
BRANCH   8  14
ATOM     14  C   UNL A   1      33.357  21.659  24.659  1.00  0.00     0.177 C 
ATOM     15  C   UNL A   1      34.211  21.878  25.918  1.00  0.00     0.075 C 
ATOM     16  C   UNL A   1      33.041  20.154  24.549  1.00  0.00     0.075 C 
ENDBRANCH   8  14
BRANCH   7  17
ATOM     17  N   UNL A   1      29.594  26.062  24.455  1.00  0.00    -0.306 N 
ATOM     18  C   UNL A   1      29.180  27.047  23.596  1.00  0.00     0.408 C 
ATOM     19  H   UNL A   1      28.952  25.852  25.171  1.00  0.00     0.168 HD
ATOM     20  O   UNL A   1      28.030  27.471  23.652  1.00  0.00    -0.225 OA
BRANCH  18  21
ATOM     21  O   UNL A   1      30.151  27.543  22.804  1.00  0.00    -0.444 OA
BRANCH  21  22
ATOM     22  C   UNL A   1      30.512  28.954  22.767  1.00  0.00     0.106 C 
ATOM     23  C   UNL A   1      29.728  29.691  21.683  1.00  0.00     0.056 C 
ATOM     24  C   UNL A   1      30.355  29.652  24.127  1.00  0.00     0.056 C 
ATOM     25  C   UNL A   1      32.007  28.966  22.395  1.00  0.00     0.056 C 
ENDBRANCH  21  22
ENDBRANCH  18  21
ENDBRANCH   7  17
ENDBRANCH   4   7
ENDBRANCH   2   3
ENDBRANCH   1   2
BRANCH   1  26
ATOM     26  C   UNL A   1      32.926  29.335  26.655  1.00  0.00     0.118 C 
BRANCH  26  27
ATOM     27  N   UNL A   1      32.898  30.777  26.876  1.00  0.00    -0.352 N 
ATOM     28  C   UNL A   1      33.783  31.562  27.574  1.00  0.00     0.251 C 
ATOM     29  H   UNL A   1      32.139  31.254  26.468  1.00  0.00     0.163 HD
ATOM     30  O   UNL A   1      33.492  32.719  27.854  1.00  0.00    -0.269 OA
BRANCH  28  31
ATOM     31  C   UNL A   1      35.067  30.973  27.993  1.00  0.00     0.039 A 
ATOM     32  C   UNL A   1      36.247  31.687  27.794  1.00  0.00     0.014 A 
ATOM     33  C   UNL A   1      35.083  29.736  28.646  1.00  0.00     0.014 A 
ATOM     34  C   UNL A   1      37.439  31.191  28.323  1.00  0.00     0.010 A 
ATOM     35  C   UNL A   1      36.245  29.306  29.268  1.00  0.00     0.010 A 
ATOM     36  C   UNL A   1      37.438  30.023  29.105  1.00  0.00    -0.014 A 
BRANCH  36  37
ATOM     37  C   UNL A   1      38.677  29.519  29.747  1.00  0.00     0.031 A 
ATOM     38  C   UNL A   1      39.099  30.073  31.082  1.00  0.00     0.074 A 
ATOM     39  C   UNL A   1      39.447  28.620  29.103  1.00  0.00     0.049 A 
ATOM     40  N   UNL A   1      40.184  29.833  31.770  1.00  0.00    -0.248 NA
ATOM     41  C   UNL A   1      38.195  31.053  31.708  1.00  0.00     0.031 C 
ATOM     42  C   UNL A   1      39.157  28.047  27.786  1.00  0.00     0.029 A 
ATOM     43  N   UNL A   1      40.630  28.030  29.465  1.00  0.00    -0.354 N 
ATOM     44  C   UNL A   1      40.097  30.636  32.903  1.00  0.00     0.074 A 
ATOM     45  C   UNL A   1      38.893  31.426  32.770  1.00  0.00     0.031 C 
ATOM     46  C   UNL A   1      40.118  27.163  27.469  1.00  0.00     0.029 A 
ATOM     47  C   UNL A   1      41.120  27.148  28.529  1.00  0.00     0.049 A 
ATOM     48  H   UNL A   1      41.089  28.220  30.316  1.00  0.00     0.167 HD
ATOM     49  C   UNL A   1      40.930  30.686  33.970  1.00  0.00     0.034 A 
ATOM     50  C   UNL A   1      42.257  26.422  28.519  1.00  0.00     0.034 A 
ATOM     51  C   UNL A   1      42.119  29.880  34.089  1.00  0.00     0.049 A 
ATOM     52  C   UNL A   1      43.188  26.527  29.703  1.00  0.00     0.074 A 
ATOM     53  C   UNL A   1      43.011  29.815  35.145  1.00  0.00     0.029 A 
ATOM     54  N   UNL A   1      42.587  29.002  33.120  1.00  0.00    -0.354 N 
ATOM     55  N   UNL A   1      43.064  27.253  30.790  1.00  0.00    -0.248 NA
ATOM     56  C   UNL A   1      44.404  25.705  29.664  1.00  0.00     0.031 C 
ATOM     57  C   UNL A   1      44.056  28.960  34.782  1.00  0.00     0.029 A 
ATOM     58  C   UNL A   1      43.771  28.419  33.539  1.00  0.00     0.049 A 
ATOM     59  H   UNL A   1      42.142  28.821  32.260  1.00  0.00     0.167 HD
ATOM     60  C   UNL A   1      44.170  26.946  31.579  1.00  0.00     0.074 A 
ATOM     61  C   UNL A   1      44.935  25.956  30.851  1.00  0.00     0.031 C 
ATOM     62  C   UNL A   1      44.523  27.435  32.796  1.00  0.00     0.034 A 
BRANCH  49  63
ATOM     63  C   UNL A   1      40.590  31.653  35.077  1.00  0.00     0.023 A 
ATOM     64  C   UNL A   1      39.593  31.369  36.027  1.00  0.00     0.031 A 
ATOM     65  C   UNL A   1      41.266  32.882  35.182  1.00  0.00     0.131 A 
ATOM     66  C   UNL A   1      39.253  32.324  36.996  1.00  0.00     0.055 A 
ATOM     67  C   UNL A   1      40.982  33.794  36.201  1.00  0.00     0.041 A 
ATOM     68  F   UNL A   1      42.209  33.223  34.290  1.00  0.00    -0.206 F 
ATOM     69  C   UNL A   1      39.961  33.523  37.108  1.00  0.00     0.022 A 
BRANCH  66  70
ATOM     70  S   UNL A   1      37.785  32.035  38.019  1.00  0.00     0.124 S 
ATOM     71  O   UNL A   1      36.877  33.071  37.530  1.00  0.00    -0.237 OA
ATOM     72  O   UNL A   1      37.429  30.663  37.680  1.00  0.00    -0.237 OA
ATOM     73  O   UNL A   1      38.272  32.236  39.382  1.00  0.00    -0.744 OA
ENDBRANCH  66  70
ENDBRANCH  49  63
BRANCH  50  74
ATOM     74  C   UNL A   1      42.596  25.545  27.359  1.00  0.00     0.023 A 
ATOM     75  C   UNL A   1      42.101  24.234  27.276  1.00  0.00     0.031 A 
ATOM     76  C   UNL A   1      43.475  25.981  26.352  1.00  0.00     0.131 A 
ATOM     77  C   UNL A   1      42.542  23.383  26.250  1.00  0.00     0.055 A 
ATOM     78  C   UNL A   1      43.857  25.152  25.296  1.00  0.00     0.041 A 
ATOM     79  F   UNL A   1      43.979  27.225  26.379  1.00  0.00    -0.206 F 
ATOM     80  C   UNL A   1      43.403  23.837  25.251  1.00  0.00     0.022 A 
BRANCH  77  81
ATOM     81  S   UNL A   1      42.070  21.632  26.316  1.00  0.00     0.124 S 
ATOM     82  O   UNL A   1      40.653  21.695  25.978  1.00  0.00    -0.237 OA
ATOM     83  O   UNL A   1      42.947  21.045  25.308  1.00  0.00    -0.237 OA
ATOM     84  O   UNL A   1      42.368  21.253  27.696  1.00  0.00    -0.744 OA
ENDBRANCH  77  81
ENDBRANCH  50  74
BRANCH  62  85
ATOM     85  C   UNL A   1      45.764  26.860  33.435  1.00  0.00     0.023 A 
ATOM     86  C   UNL A   1      45.726  25.688  34.210  1.00  0.00     0.031 A 
ATOM     87  C   UNL A   1      47.005  27.504  33.270  1.00  0.00     0.131 A 
ATOM     88  C   UNL A   1      46.892  25.231  34.841  1.00  0.00     0.055 A 
ATOM     89  C   UNL A   1      48.175  27.003  33.840  1.00  0.00     0.041 A 
ATOM     90  F   UNL A   1      47.099  28.629  32.543  1.00  0.00    -0.206 F 
ATOM     91  C   UNL A   1      48.120  25.868  34.644  1.00  0.00     0.022 A 
BRANCH  88  92
ATOM     92  S   UNL A   1      46.763  23.850  36.010  1.00  0.00     0.124 S 
ATOM     93  O   UNL A   1      45.538  24.179  36.732  1.00  0.00    -0.237 OA
ATOM     94  O   UNL A   1      46.687  22.695  35.122  1.00  0.00    -0.237 OA
ATOM     95  O   UNL A   1      47.992  23.949  36.794  1.00  0.00    -0.744 OA
ENDBRANCH  88  92
ENDBRANCH  62  85
ENDBRANCH  36  37
ENDBRANCH  28  31
ENDBRANCH  26  27
ENDBRANCH   1  26
TORSDOF 17
ENDMDL
MODEL 3
REMARK VINA RESULT:     -11.3      1.204      3.140
REMARK SMILES CC(C)[NH+]1CCC(NC(=O)OC(C)(C)C)(C(=O)NCCCNC(=O)c2ccc(-c3c4nc(c(-c5cc(S(=O)(=O)[O-])ccc5F)c5ccc([nH]5)c(-c5cc(S(=O)(=O)[O-])ccc5F)c5nc(c(-c6cc(S(=O)(=O)[O-])ccc6F)c6ccc3[nH]6)C=C5)C=C4)cc2)CC1
REMARK SMILES IDX 20 1 19 2 18 3 16 4 17 5 7 7 4 8 5 9 89 10 6 12 88 13 2 14
REMARK SMILES IDX 1 15 3 16 8 17 9 18 10 20 11 21 12 22 13 23 14 24 15 25
REMARK SMILES IDX 21 26 22 27 23 28 24 30 25 31 26 32 87 33 27 34 86 35 28 36
REMARK SMILES IDX 29 37 30 38 80 39 31 40 85 41 79 42 81 43 32 44 84 45 78 46
REMARK SMILES IDX 77 47 33 49 65 50 45 51 64 52 46 53 49 54 63 55 82 56 47 57
REMARK SMILES IDX 48 58 62 60 83 61 50 62 34 63 35 64 43 65 36 66 42 67 44 68
REMARK SMILES IDX 41 69 37 70 38 71 39 72 40 73 66 74 67 75 75 76 68 77 74 78
REMARK SMILES IDX 76 79 73 80 69 81 70 82 71 83 72 84 51 85 52 86 60 87 53 88
REMARK SMILES IDX 59 89 61 90 58 91 54 92 55 93 56 94 57 95
REMARK H PARENT 18 6 4 11 8 19 22 29 81 48 49 59
REMARK Flexibility Score: inf
ROOT
ATOM      1  C   UNL A   1      32.313  29.396  27.270  1.00  0.00     0.042 C 
ENDROOT
BRANCH   1   2
ATOM      2  C   UNL A   1      32.482  27.902  27.127  1.00  0.00     0.117 C 
BRANCH   2   3
ATOM      3  N   UNL A   1      31.240  27.272  26.736  1.00  0.00    -0.354 N 
ATOM      4  C   UNL A   1      30.882  26.749  25.536  1.00  0.00     0.246 C 
ATOM      5  O   UNL A   1      29.886  26.018  25.534  1.00  0.00    -0.272 OA
ATOM      6  H   UNL A   1      30.557  27.214  27.442  1.00  0.00     0.163 HD
BRANCH   4   7
ATOM      7  C   UNL A   1      31.694  27.066  24.244  1.00  0.00     0.132 C 
ATOM      8  N   UNL A   1      29.699  28.854  22.912  1.00  0.00    -0.333 N 
ATOM      9  C   UNL A   1      30.540  29.317  24.018  1.00  0.00     0.265 C 
ATOM     10  C   UNL A   1      29.555  27.392  22.866  1.00  0.00     0.265 C 
ATOM     11  H   UNL A   1      30.194  29.066  22.045  1.00  0.00     0.348 HD
ATOM     12  C   UNL A   1      31.879  28.594  24.062  1.00  0.00     0.100 C 
ATOM     13  C   UNL A   1      30.884  26.615  23.013  1.00  0.00     0.100 C 
BRANCH   8  14
ATOM     14  C   UNL A   1      28.426  29.624  22.824  1.00  0.00     0.177 C 
ATOM     15  C   UNL A   1      28.181  30.297  21.464  1.00  0.00     0.075 C 
ATOM     16  C   UNL A   1      27.146  28.860  23.220  1.00  0.00     0.075 C 
ENDBRANCH   8  14
BRANCH   7  17
ATOM     17  N   UNL A   1      33.041  26.424  24.251  1.00  0.00    -0.306 N 
ATOM     18  C   UNL A   1      33.417  25.111  24.132  1.00  0.00     0.408 C 
ATOM     19  H   UNL A   1      33.792  27.052  24.361  1.00  0.00     0.168 HD
ATOM     20  O   UNL A   1      34.601  24.817  24.001  1.00  0.00    -0.225 OA
BRANCH  18  21
ATOM     21  O   UNL A   1      32.410  24.227  24.275  1.00  0.00    -0.444 OA
BRANCH  21  22
ATOM     22  C   UNL A   1      32.386  23.200  25.309  1.00  0.00     0.106 C 
ATOM     23  C   UNL A   1      33.071  23.692  26.584  1.00  0.00     0.056 C 
ATOM     24  C   UNL A   1      30.971  22.685  25.613  1.00  0.00     0.056 C 
ATOM     25  C   UNL A   1      33.204  22.034  24.722  1.00  0.00     0.056 C 
ENDBRANCH  21  22
ENDBRANCH  18  21
ENDBRANCH   7  17
ENDBRANCH   4   7
ENDBRANCH   2   3
ENDBRANCH   1   2
BRANCH   1  26
ATOM     26  C   UNL A   1      33.617  30.141  27.027  1.00  0.00     0.118 C 
BRANCH  26  27
ATOM     27  N   UNL A   1      33.636  31.454  27.664  1.00  0.00    -0.352 N 
ATOM     28  C   UNL A   1      34.527  31.956  28.581  1.00  0.00     0.251 C 
ATOM     29  H   UNL A   1      32.910  32.064  27.400  1.00  0.00     0.163 HD
ATOM     30  O   UNL A   1      34.272  32.992  29.185  1.00  0.00    -0.269 OA
BRANCH  28  31
ATOM     31  C   UNL A   1      35.773  31.211  28.834  1.00  0.00     0.039 A 
ATOM     32  C   UNL A   1      36.986  31.730  28.384  1.00  0.00     0.014 A 
ATOM     33  C   UNL A   1      35.734  30.028  29.578  1.00  0.00     0.014 A 
ATOM     34  C   UNL A   1      38.173  31.097  28.752  1.00  0.00     0.010 A 
ATOM     35  C   UNL A   1      36.919  29.470  30.037  1.00  0.00     0.010 A 
ATOM     36  C   UNL A   1      38.150  29.992  29.620  1.00  0.00    -0.014 A 
BRANCH  36  37
ATOM     37  C   UNL A   1      39.403  29.352  30.093  1.00  0.00     0.031 A 
ATOM     38  C   UNL A   1      40.124  29.921  31.285  1.00  0.00     0.074 A 
ATOM     39  C   UNL A   1      39.918  28.307  29.414  1.00  0.00     0.049 A 
ATOM     40  N   UNL A   1      41.270  29.567  31.804  1.00  0.00    -0.248 NA
ATOM     41  C   UNL A   1      39.487  31.064  31.961  1.00  0.00     0.031 C 
ATOM     42  C   UNL A   1      39.326  27.700  28.218  1.00  0.00     0.029 A 
ATOM     43  N   UNL A   1      41.055  27.572  29.627  1.00  0.00    -0.354 N 
ATOM     44  C   UNL A   1      41.494  30.445  32.859  1.00  0.00     0.074 A 
ATOM     45  C   UNL A   1      40.404  31.396  32.856  1.00  0.00     0.031 C 
ATOM     46  C   UNL A   1      40.087  26.665  27.828  1.00  0.00     0.029 A 
ATOM     47  C   UNL A   1      41.248  26.568  28.705  1.00  0.00     0.049 A 
ATOM     48  H   UNL A   1      41.678  27.746  30.371  1.00  0.00     0.167 HD
ATOM     49  C   UNL A   1      42.500  30.439  33.766  1.00  0.00     0.034 A 
ATOM     50  C   UNL A   1      42.256  25.681  28.574  1.00  0.00     0.034 A 
ATOM     51  C   UNL A   1      43.571  29.473  33.760  1.00  0.00     0.049 A 
ATOM     52  C   UNL A   1      43.386  25.722  29.575  1.00  0.00     0.074 A 
ATOM     53  C   UNL A   1      44.617  29.345  34.656  1.00  0.00     0.029 A 
ATOM     54  N   UNL A   1      43.737  28.475  32.809  1.00  0.00    -0.354 N 
ATOM     55  N   UNL A   1      43.555  26.528  30.598  1.00  0.00    -0.248 NA
ATOM     56  C   UNL A   1      44.453  24.727  29.409  1.00  0.00     0.031 C 
ATOM     57  C   UNL A   1      45.456  28.321  34.204  1.00  0.00     0.029 A 
ATOM     58  C   UNL A   1      44.886  27.750  33.077  1.00  0.00     0.049 A 
ATOM     59  H   UNL A   1      43.127  28.308  32.054  1.00  0.00     0.167 HD
ATOM     60  C   UNL A   1      44.730  26.110  31.218  1.00  0.00     0.074 A 
ATOM     61  C   UNL A   1      45.213  24.972  30.465  1.00  0.00     0.031 C 
ATOM     62  C   UNL A   1      45.354  26.618  32.312  1.00  0.00     0.034 A 
BRANCH  49  63
ATOM     63  C   UNL A   1      42.495  31.515  34.823  1.00  0.00     0.023 A 
ATOM     64  C   UNL A   1      41.537  31.535  35.853  1.00  0.00     0.031 A 
ATOM     65  C   UNL A   1      43.455  32.543  34.798  1.00  0.00     0.131 A 
ATOM     66  C   UNL A   1      41.519  32.593  36.774  1.00  0.00     0.055 A 
ATOM     67  C   UNL A   1      43.483  33.547  35.768  1.00  0.00     0.041 A 
ATOM     68  F   UNL A   1      44.378  32.594  33.826  1.00  0.00    -0.206 F 
ATOM     69  C   UNL A   1      42.503  33.584  36.756  1.00  0.00     0.022 A 
BRANCH  66  70
ATOM     70  S   UNL A   1      40.111  32.729  37.907  1.00  0.00     0.124 S 
ATOM     71  O   UNL A   1      39.199  31.724  37.366  1.00  0.00    -0.237 OA
ATOM     72  O   UNL A   1      40.713  32.417  39.197  1.00  0.00    -0.237 OA
ATOM     73  O   UNL A   1      39.670  34.113  37.742  1.00  0.00    -0.744 OA
ENDBRANCH  66  70
ENDBRANCH  49  63
BRANCH  50  74
ATOM     74  C   UNL A   1      42.263  24.690  27.457  1.00  0.00     0.023 A 
ATOM     75  C   UNL A   1      41.478  23.528  27.517  1.00  0.00     0.031 A 
ATOM     76  C   UNL A   1      43.108  24.856  26.345  1.00  0.00     0.131 A 
ATOM     77  C   UNL A   1      41.604  22.546  26.522  1.00  0.00     0.055 A 
ATOM     78  C   UNL A   1      43.179  23.907  25.323  1.00  0.00     0.041 A 
ATOM     79  F   UNL A   1      43.881  25.948  26.234  1.00  0.00    -0.206 F 
ATOM     80  C   UNL A   1      42.436  22.734  25.418  1.00  0.00     0.022 A 
BRANCH  77  81
ATOM     81  S   UNL A   1      40.757  20.959  26.761  1.00  0.00     0.124 S 
ATOM     82  O   UNL A   1      39.437  21.243  26.208  1.00  0.00    -0.237 OA
ATOM     83  O   UNL A   1      41.596  20.050  25.988  1.00  0.00    -0.237 OA
ATOM     84  O   UNL A   1      40.801  20.766  28.210  1.00  0.00    -0.744 OA
ENDBRANCH  77  81
ENDBRANCH  50  74
BRANCH  62  85
ATOM     85  C   UNL A   1      46.599  25.907  32.787  1.00  0.00     0.023 A 
ATOM     86  C   UNL A   1      47.854  26.135  32.198  1.00  0.00     0.031 A 
ATOM     87  C   UNL A   1      46.522  24.979  33.842  1.00  0.00     0.131 A 
ATOM     88  C   UNL A   1      48.969  25.399  32.626  1.00  0.00     0.055 A 
ATOM     89  C   UNL A   1      47.648  24.304  34.312  1.00  0.00     0.041 A 
ATOM     90  F   UNL A   1      45.348  24.719  34.439  1.00  0.00    -0.206 F 
ATOM     91  C   UNL A   1      48.879  24.502  33.692  1.00  0.00     0.022 A 
BRANCH  88  92
ATOM     92  S   UNL A   1      50.520  25.555  31.698  1.00  0.00     0.124 S 
ATOM     93  O   UNL A   1      50.131  26.438  30.604  1.00  0.00    -0.237 OA
ATOM     94  O   UNL A   1      51.421  26.131  32.691  1.00  0.00    -0.237 OA
ATOM     95  O   UNL A   1      50.825  24.180  31.309  1.00  0.00    -0.744 OA
ENDBRANCH  88  92
ENDBRANCH  62  85
ENDBRANCH  36  37
ENDBRANCH  28  31
ENDBRANCH  26  27
ENDBRANCH   1  26
TORSDOF 17
ENDMDL
