MODEL 1
REMARK VINA RESULT:     -12.4      0.000      0.000
REMARK SMILES O=C(NCCCNC(=O)[C@H]1CC(=O)N(CCc2ccc3c(c2)OCO3)C1)c1ccc(-c2c3nc(c(-c4cc(S(=O)(=O)[O-])ccc4F)c4ccc([nH]4)c(-c4cc(S(=O)(=O)[O-])ccc4F)c4nc(c(-c5cc(S(=O)(=O)[O-])ccc5F)c5ccc2[nH]5)C=C4)C=C3)cc1
REMARK SMILES IDX 5 1 4 2 3 3 1 4 2 5 27 7 28 8 89 9 29 10 88 11 30 12 31 13
REMARK SMILES IDX 32 14 82 15 33 16 87 17 81 18 83 19 34 20 86 21 80 22 79 23
REMARK SMILES IDX 35 25 67 26 47 27 66 28 48 29 51 30 65 31 84 32 49 33 50 34
REMARK SMILES IDX 64 36 85 37 52 38 36 39 37 40 45 41 38 42 44 43 46 44 43 45
REMARK SMILES IDX 39 46 40 47 41 48 42 49 68 50 69 51 77 52 70 53 76 54 78 55
REMARK SMILES IDX 75 56 71 57 72 58 73 59 74 60 53 61 54 62 62 63 55 64 61 65
REMARK SMILES IDX 63 66 60 67 56 68 57 69 58 70 59 71 6 72 7 73 8 74 9 76
REMARK SMILES IDX 10 77 11 78 26 79 12 80 14 81 13 82 15 83 16 84 17 85 18 86
REMARK SMILES IDX 22 87 19 88 21 89 20 90 23 91 25 92 24 93
REMARK H PARENT 3 6 83 24 51 35 7 75
REMARK Flexibility Score: inf
ROOT
ATOM      1  C   UNL A   1      38.250  19.872  24.981  1.00  0.00     0.042 C 
ENDROOT
BRANCH   1   2
ATOM      2  C   UNL A   1      39.325  20.177  26.014  1.00  0.00     0.118 C 
BRANCH   2   3
ATOM      3  N   UNL A   1      40.394  19.188  26.002  1.00  0.00    -0.352 N 
ATOM      4  O   UNL A   1      42.531  18.481  25.844  1.00  0.00    -0.269 OA
ATOM      5  C   UNL A   1      41.750  19.399  26.076  1.00  0.00     0.251 C 
ATOM      6  H   UNL A   1      40.109  18.249  25.931  1.00  0.00     0.163 HD
BRANCH   5   7
ATOM      7  C   UNL A   1      42.253  20.745  26.425  1.00  0.00     0.039 A 
ATOM      8  C   UNL A   1      42.524  21.674  25.417  1.00  0.00     0.014 A 
ATOM      9  C   UNL A   1      42.456  21.078  27.766  1.00  0.00     0.014 A 
ATOM     10  C   UNL A   1      43.119  22.887  25.738  1.00  0.00     0.010 A 
ATOM     11  C   UNL A   1      42.961  22.340  28.093  1.00  0.00     0.010 A 
ATOM     12  C   UNL A   1      43.304  23.250  27.080  1.00  0.00    -0.014 A 
BRANCH  12  13
ATOM     13  C   UNL A   1      43.729  24.635  27.401  1.00  0.00     0.031 A 
ATOM     14  C   UNL A   1      42.758  25.650  27.931  1.00  0.00     0.074 A 
ATOM     15  C   UNL A   1      45.021  24.962  27.189  1.00  0.00     0.049 A 
ATOM     16  N   UNL A   1      42.962  26.912  28.206  1.00  0.00    -0.248 NA
ATOM     17  C   UNL A   1      41.381  25.197  28.180  1.00  0.00     0.031 C 
ATOM     18  C   UNL A   1      46.045  24.046  26.673  1.00  0.00     0.029 A 
ATOM     19  N   UNL A   1      45.700  26.139  27.373  1.00  0.00    -0.354 N 
ATOM     20  C   UNL A   1      41.738  27.415  28.634  1.00  0.00     0.074 A 
ATOM     21  C   UNL A   1      40.793  26.320  28.572  1.00  0.00     0.031 C 
ATOM     22  C   UNL A   1      47.219  24.685  26.608  1.00  0.00     0.029 A 
ATOM     23  C   UNL A   1      47.018  26.077  26.985  1.00  0.00     0.049 A 
ATOM     24  H   UNL A   1      45.284  26.949  27.748  1.00  0.00     0.167 HD
ATOM     25  C   UNL A   1      41.443  28.676  29.035  1.00  0.00     0.034 A 
ATOM     26  C   UNL A   1      47.952  27.043  26.889  1.00  0.00     0.034 A 
ATOM     27  C   UNL A   1      42.413  29.745  29.096  1.00  0.00     0.049 A 
ATOM     28  C   UNL A   1      47.573  28.445  27.282  1.00  0.00     0.074 A 
ATOM     29  C   UNL A   1      42.239  31.036  29.563  1.00  0.00     0.029 A 
ATOM     30  N   UNL A   1      43.727  29.658  28.654  1.00  0.00    -0.354 N 
ATOM     31  N   UNL A   1      46.426  28.887  27.744  1.00  0.00    -0.248 NA
ATOM     32  C   UNL A   1      48.606  29.477  27.139  1.00  0.00     0.031 C 
ATOM     33  C   UNL A   1      43.414  31.753  29.320  1.00  0.00     0.029 A 
ATOM     34  C   UNL A   1      44.354  30.889  28.781  1.00  0.00     0.049 A 
ATOM     35  H   UNL A   1      44.152  28.842  28.302  1.00  0.00     0.167 HD
ATOM     36  C   UNL A   1      46.607  30.249  27.958  1.00  0.00     0.074 A 
ATOM     37  C   UNL A   1      47.979  30.547  27.605  1.00  0.00     0.031 C 
ATOM     38  C   UNL A   1      45.718  31.172  28.405  1.00  0.00     0.034 A 
BRANCH  25  39
ATOM     39  C   UNL A   1      40.012  28.999  29.385  1.00  0.00     0.023 A 
ATOM     40  C   UNL A   1      39.577  29.143  30.714  1.00  0.00     0.031 A 
ATOM     41  C   UNL A   1      39.072  29.208  28.358  1.00  0.00     0.131 A 
ATOM     42  C   UNL A   1      38.232  29.450  30.980  1.00  0.00     0.055 A 
ATOM     43  C   UNL A   1      37.753  29.576  28.628  1.00  0.00     0.041 A 
ATOM     44  F   UNL A   1      39.425  29.063  27.071  1.00  0.00    -0.206 F 
ATOM     45  C   UNL A   1      37.325  29.692  29.946  1.00  0.00     0.022 A 
BRANCH  42  46
ATOM     46  S   UNL A   1      37.660  29.433  32.701  1.00  0.00     0.124 S 
ATOM     47  O   UNL A   1      38.749  30.129  33.383  1.00  0.00    -0.237 OA
ATOM     48  O   UNL A   1      36.394  30.153  32.620  1.00  0.00    -0.237 OA
ATOM     49  O   UNL A   1      37.549  28.009  33.012  1.00  0.00    -0.744 OA
ENDBRANCH  42  46
ENDBRANCH  25  39
BRANCH  26  50
ATOM     50  C   UNL A   1      49.300  26.737  26.329  1.00  0.00     0.023 A 
ATOM     51  C   UNL A   1      49.692  27.226  25.074  1.00  0.00     0.031 A 
ATOM     52  C   UNL A   1      50.199  25.901  27.019  1.00  0.00     0.131 A 
ATOM     53  C   UNL A   1      50.920  26.829  24.523  1.00  0.00     0.055 A 
ATOM     54  C   UNL A   1      51.449  25.567  26.498  1.00  0.00     0.041 A 
ATOM     55  F   UNL A   1      49.876  25.400  28.223  1.00  0.00    -0.206 F 
ATOM     56  C   UNL A   1      51.808  26.017  25.233  1.00  0.00     0.022 A 
BRANCH  53  57
ATOM     57  S   UNL A   1      51.282  27.286  22.807  1.00  0.00     0.124 S 
ATOM     58  O   UNL A   1      51.342  28.740  22.894  1.00  0.00    -0.237 OA
ATOM     59  O   UNL A   1      52.552  26.605  22.575  1.00  0.00    -0.237 OA
ATOM     60  O   UNL A   1      50.143  26.750  22.066  1.00  0.00    -0.744 OA
ENDBRANCH  53  57
ENDBRANCH  26  50
BRANCH  38  61
ATOM     61  C   UNL A   1      46.222  32.585  28.553  1.00  0.00     0.023 A 
ATOM     62  C   UNL A   1      46.272  33.465  27.459  1.00  0.00     0.031 A 
ATOM     63  C   UNL A   1      46.658  33.055  29.804  1.00  0.00     0.131 A 
ATOM     64  C   UNL A   1      46.791  34.756  27.626  1.00  0.00     0.055 A 
ATOM     65  C   UNL A   1      47.115  34.361  29.979  1.00  0.00     0.041 A 
ATOM     66  F   UNL A   1      46.636  32.253  30.882  1.00  0.00    -0.206 F 
ATOM     67  C   UNL A   1      47.194  35.216  28.883  1.00  0.00     0.022 A 
BRANCH  64  68
ATOM     68  S   UNL A   1      47.005  35.806  26.163  1.00  0.00     0.124 S 
ATOM     69  O   UNL A   1      46.792  34.856  25.077  1.00  0.00    -0.237 OA
ATOM     70  O   UNL A   1      45.964  36.812  26.344  1.00  0.00    -0.237 OA
ATOM     71  O   UNL A   1      48.374  36.302  26.294  1.00  0.00    -0.744 OA
ENDBRANCH  64  68
ENDBRANCH  38  61
ENDBRANCH  12  13
ENDBRANCH   5   7
ENDBRANCH   2   3
ENDBRANCH   1   2
BRANCH   1  72
ATOM     72  C   UNL A   1      37.321  21.052  24.753  1.00  0.00     0.117 C 
BRANCH  72  73
ATOM     73  N   UNL A   1      37.727  22.177  25.586  1.00  0.00    -0.356 N 
ATOM     74  C   UNL A   1      37.235  23.436  25.714  1.00  0.00     0.225 C 
ATOM     75  H   UNL A   1      38.501  21.989  26.164  1.00  0.00     0.163 HD
ATOM     76  O   UNL A   1      37.843  24.204  26.464  1.00  0.00    -0.275 OA
BRANCH  74  77
ATOM     77  C   UNL A   1      35.925  23.867  25.090  1.00  0.00     0.107 C 
ATOM     78  C   UNL A   1      35.802  23.854  23.575  1.00  0.00     0.115 C 
ATOM     79  C   UNL A   1      34.838  22.954  25.607  1.00  0.00     0.133 C 
ATOM     80  C   UNL A   1      34.467  23.183  23.306  1.00  0.00     0.223 C 
ATOM     81  N   UNL A   1      33.970  22.684  24.500  1.00  0.00    -0.342 N 
ATOM     82  O   UNL A   1      33.934  23.101  22.217  1.00  0.00    -0.275 OA
BRANCH  81  83
ATOM     83  C   UNL A   1      32.704  21.963  24.658  1.00  0.00     0.124 C 
BRANCH  83  84
ATOM     84  C   UNL A   1      32.711  20.766  25.638  1.00  0.00     0.057 C 
BRANCH  84  85
ATOM     85  C   UNL A   1      33.066  19.373  25.145  1.00  0.00    -0.042 A 
ATOM     86  C   UNL A   1      34.355  19.171  24.589  1.00  0.00     0.008 A 
ATOM     87  C   UNL A   1      32.219  18.266  25.277  1.00  0.00     0.054 A 
ATOM     88  C   UNL A   1      34.851  17.884  24.341  1.00  0.00     0.051 A 
ATOM     89  C   UNL A   1      32.771  17.010  25.145  1.00  0.00     0.166 A 
ATOM     90  C   UNL A   1      34.057  16.822  24.704  1.00  0.00     0.165 A 
ATOM     91  O   UNL A   1      32.179  15.842  25.518  1.00  0.00    -0.454 OA
ATOM     92  O   UNL A   1      34.424  15.513  24.726  1.00  0.00    -0.454 OA
ATOM     93  C   UNL A   1      33.311  14.948  25.450  1.00  0.00     0.468 C 
ENDBRANCH  84  85
ENDBRANCH  83  84
ENDBRANCH  81  83
ENDBRANCH  74  77
ENDBRANCH  72  73
ENDBRANCH   1  72
TORSDOF 16
ENDMDL
MODEL 2
REMARK VINA RESULT:     -12.3      5.769     11.482
REMARK SMILES O=C(NCCCNC(=O)[C@H]1CC(=O)N(CCc2ccc3c(c2)OCO3)C1)c1ccc(-c2c3nc(c(-c4cc(S(=O)(=O)[O-])ccc4F)c4ccc([nH]4)c(-c4cc(S(=O)(=O)[O-])ccc4F)c4nc(c(-c5cc(S(=O)(=O)[O-])ccc5F)c5ccc2[nH]5)C=C4)C=C3)cc1
REMARK SMILES IDX 5 1 4 2 3 3 1 4 2 5 27 7 28 8 89 9 29 10 88 11 30 12 31 13
REMARK SMILES IDX 32 14 82 15 33 16 87 17 81 18 83 19 34 20 86 21 80 22 79 23
REMARK SMILES IDX 35 25 67 26 47 27 66 28 48 29 51 30 65 31 84 32 49 33 50 34
REMARK SMILES IDX 64 36 85 37 52 38 36 39 37 40 45 41 38 42 44 43 46 44 43 45
REMARK SMILES IDX 39 46 40 47 41 48 42 49 68 50 69 51 77 52 70 53 76 54 78 55
REMARK SMILES IDX 75 56 71 57 72 58 73 59 74 60 53 61 54 62 62 63 55 64 61 65
REMARK SMILES IDX 63 66 60 67 56 68 57 69 58 70 59 71 6 72 7 73 8 74 9 76
REMARK SMILES IDX 10 77 11 78 26 79 12 80 14 81 13 82 15 83 16 84 17 85 18 86
REMARK SMILES IDX 22 87 19 88 21 89 20 90 23 91 25 92 24 93
REMARK H PARENT 3 6 83 24 51 35 7 75
REMARK Flexibility Score: inf
ROOT
ATOM      1  C   UNL A   1      31.338  32.266  26.792  1.00  0.00     0.042 C 
ENDROOT
BRANCH   1   2
ATOM      2  C   UNL A   1      32.663  32.848  27.262  1.00  0.00     0.118 C 
BRANCH   2   3
ATOM      3  N   UNL A   1      32.521  34.215  27.742  1.00  0.00    -0.352 N 
ATOM      4  O   UNL A   1      32.817  35.921  29.190  1.00  0.00    -0.269 OA
ATOM      5  C   UNL A   1      33.194  34.832  28.770  1.00  0.00     0.251 C 
ATOM      6  H   UNL A   1      31.858  34.770  27.271  1.00  0.00     0.163 HD
BRANCH   5   7
ATOM      7  C   UNL A   1      34.367  34.159  29.370  1.00  0.00     0.039 A 
ATOM      8  C   UNL A   1      35.648  34.410  28.872  1.00  0.00     0.014 A 
ATOM      9  C   UNL A   1      34.183  33.270  30.431  1.00  0.00     0.014 A 
ATOM     10  C   UNL A   1      36.729  33.679  29.347  1.00  0.00     0.010 A 
ATOM     11  C   UNL A   1      35.289  32.610  30.976  1.00  0.00     0.010 A 
ATOM     12  C   UNL A   1      36.568  32.805  30.431  1.00  0.00    -0.014 A 
BRANCH  12  13
ATOM     13  C   UNL A   1      37.772  32.209  31.063  1.00  0.00     0.031 A 
ATOM     14  C   UNL A   1      38.520  31.081  30.414  1.00  0.00     0.074 A 
ATOM     15  C   UNL A   1      38.169  32.706  32.253  1.00  0.00     0.049 A 
ATOM     16  N   UNL A   1      39.554  30.418  30.865  1.00  0.00    -0.248 NA
ATOM     17  C   UNL A   1      38.049  30.633  29.095  1.00  0.00     0.031 C 
ATOM     18  C   UNL A   1      37.506  33.802  32.968  1.00  0.00     0.029 A 
ATOM     19  N   UNL A   1      39.214  32.366  33.074  1.00  0.00    -0.354 N 
ATOM     20  C   UNL A   1      39.843  29.457  29.903  1.00  0.00     0.074 A 
ATOM     21  C   UNL A   1      38.867  29.618  28.846  1.00  0.00     0.031 C 
ATOM     22  C   UNL A   1      38.172  34.059  34.101  1.00  0.00     0.029 A 
ATOM     23  C   UNL A   1      39.250  33.090  34.243  1.00  0.00     0.049 A 
ATOM     24  H   UNL A   1      39.874  31.670  32.848  1.00  0.00     0.167 HD
ATOM     25  C   UNL A   1      40.833  28.530  29.914  1.00  0.00     0.034 A 
ATOM     26  C   UNL A   1      40.027  32.958  35.335  1.00  0.00     0.034 A 
ATOM     27  C   UNL A   1      41.799  28.403  30.980  1.00  0.00     0.049 A 
ATOM     28  C   UNL A   1      41.073  31.876  35.340  1.00  0.00     0.074 A 
ATOM     29  C   UNL A   1      42.889  27.553  31.053  1.00  0.00     0.029 A 
ATOM     30  N   UNL A   1      41.779  29.123  32.167  1.00  0.00    -0.354 N 
ATOM     31  N   UNL A   1      41.373  31.017  34.392  1.00  0.00    -0.248 NA
ATOM     32  C   UNL A   1      41.883  31.742  36.556  1.00  0.00     0.031 C 
ATOM     33  C   UNL A   1      43.471  27.693  32.316  1.00  0.00     0.029 A 
ATOM     34  C   UNL A   1      42.800  28.692  33.002  1.00  0.00     0.049 A 
ATOM     35  H   UNL A   1      41.134  29.835  32.385  1.00  0.00     0.167 HD
ATOM     36  C   UNL A   1      42.415  30.249  34.897  1.00  0.00     0.074 A 
ATOM     37  C   UNL A   1      42.713  30.766  36.217  1.00  0.00     0.031 C 
ATOM     38  C   UNL A   1      43.068  29.208  34.323  1.00  0.00     0.034 A 
BRANCH  25  39
ATOM     39  C   UNL A   1      40.897  27.539  28.778  1.00  0.00     0.023 A 
ATOM     40  C   UNL A   1      41.858  27.628  27.757  1.00  0.00     0.031 A 
ATOM     41  C   UNL A   1      39.999  26.456  28.744  1.00  0.00     0.131 A 
ATOM     42  C   UNL A   1      41.874  26.673  26.726  1.00  0.00     0.055 A 
ATOM     43  C   UNL A   1      40.061  25.474  27.754  1.00  0.00     0.041 A 
ATOM     44  F   UNL A   1      39.045  26.331  29.682  1.00  0.00    -0.206 F 
ATOM     45  C   UNL A   1      40.999  25.584  26.733  1.00  0.00     0.022 A 
BRANCH  42  46
ATOM     46  S   UNL A   1      42.993  26.926  25.322  1.00  0.00     0.124 S 
ATOM     47  O   UNL A   1      42.353  28.044  24.630  1.00  0.00    -0.237 OA
ATOM     48  O   UNL A   1      44.262  27.224  25.978  1.00  0.00    -0.237 OA
ATOM     49  O   UNL A   1      42.943  25.652  24.608  1.00  0.00    -0.744 OA
ENDBRANCH  42  46
ENDBRANCH  25  39
BRANCH  26  50
ATOM     50  C   UNL A   1      39.794  33.810  36.536  1.00  0.00     0.023 A 
ATOM     51  C   UNL A   1      39.277  33.268  37.721  1.00  0.00     0.031 A 
ATOM     52  C   UNL A   1      40.035  35.197  36.496  1.00  0.00     0.131 A 
ATOM     53  C   UNL A   1      38.961  34.115  38.795  1.00  0.00     0.055 A 
ATOM     54  C   UNL A   1      39.787  36.023  37.593  1.00  0.00     0.041 A 
ATOM     55  F   UNL A   1      40.527  35.772  35.386  1.00  0.00    -0.206 F 
ATOM     56  C   UNL A   1      39.228  35.485  38.746  1.00  0.00     0.022 A 
BRANCH  53  57
ATOM     57  S   UNL A   1      38.075  33.414  40.213  1.00  0.00     0.124 S 
ATOM     58  O   UNL A   1      38.821  32.184  40.450  1.00  0.00    -0.237 OA
ATOM     59  O   UNL A   1      38.231  34.463  41.215  1.00  0.00    -0.237 OA
ATOM     60  O   UNL A   1      36.716  33.233  39.707  1.00  0.00    -0.744 OA
ENDBRANCH  53  57
ENDBRANCH  26  50
BRANCH  38  61
ATOM     61  C   UNL A   1      44.183  28.580  35.122  1.00  0.00     0.023 A 
ATOM     62  C   UNL A   1      43.939  27.528  36.021  1.00  0.00     0.031 A 
ATOM     63  C   UNL A   1      45.503  29.041  34.981  1.00  0.00     0.131 A 
ATOM     64  C   UNL A   1      44.994  27.003  36.781  1.00  0.00     0.055 A 
ATOM     65  C   UNL A   1      46.559  28.472  35.692  1.00  0.00     0.041 A 
ATOM     66  F   UNL A   1      45.790  30.048  34.138  1.00  0.00    -0.206 F 
ATOM     67  C   UNL A   1      46.305  27.454  36.607  1.00  0.00     0.022 A 
BRANCH  64  68
ATOM     68  S   UNL A   1      44.619  25.770  38.057  1.00  0.00     0.124 S 
ATOM     69  O   UNL A   1      44.108  24.659  37.262  1.00  0.00    -0.237 OA
ATOM     70  O   UNL A   1      45.921  25.560  38.683  1.00  0.00    -0.237 OA
ATOM     71  O   UNL A   1      43.628  26.438  38.899  1.00  0.00    -0.744 OA
ENDBRANCH  64  68
ENDBRANCH  38  61
ENDBRANCH  12  13
ENDBRANCH   5   7
ENDBRANCH   2   3
ENDBRANCH   1   2
BRANCH   1  72
ATOM     72  C   UNL A   1      31.519  30.952  26.050  1.00  0.00     0.117 C 
BRANCH  72  73
ATOM     73  N   UNL A   1      32.805  30.358  26.390  1.00  0.00    -0.356 N 
ATOM     74  C   UNL A   1      33.409  29.210  25.990  1.00  0.00     0.225 C 
ATOM     75  H   UNL A   1      33.336  30.888  27.028  1.00  0.00     0.163 HD
ATOM     76  O   UNL A   1      34.492  28.931  26.513  1.00  0.00    -0.275 OA
BRANCH  74  77
ATOM     77  C   UNL A   1      32.877  28.362  24.855  1.00  0.00     0.107 C 
ATOM     78  C   UNL A   1      33.264  28.727  23.431  1.00  0.00     0.115 C 
ATOM     79  C   UNL A   1      33.354  26.944  25.068  1.00  0.00     0.133 C 
ATOM     80  C   UNL A   1      33.666  27.408  22.794  1.00  0.00     0.223 C 
ATOM     81  N   UNL A   1      33.707  26.432  23.777  1.00  0.00    -0.342 N 
ATOM     82  O   UNL A   1      33.912  27.249  21.615  1.00  0.00    -0.275 OA
BRANCH  81  83
ATOM     83  C   UNL A   1      34.059  25.026  23.564  1.00  0.00     0.124 C 
BRANCH  83  84
ATOM     84  C   UNL A   1      34.505  24.231  24.813  1.00  0.00     0.057 C 
BRANCH  84  85
ATOM     85  C   UNL A   1      33.909  22.863  25.105  1.00  0.00    -0.042 A 
ATOM     86  C   UNL A   1      32.513  22.782  25.346  1.00  0.00     0.008 A 
ATOM     87  C   UNL A   1      34.648  21.675  25.078  1.00  0.00     0.054 A 
ATOM     88  C   UNL A   1      31.847  21.550  25.377  1.00  0.00     0.051 A 
ATOM     89  C   UNL A   1      33.956  20.485  24.986  1.00  0.00     0.166 A 
ATOM     90  C   UNL A   1      32.591  20.424  25.117  1.00  0.00     0.165 A 
ATOM     91  O   UNL A   1      34.498  19.278  24.663  1.00  0.00    -0.454 OA
ATOM     92  O   UNL A   1      32.109  19.170  24.912  1.00  0.00    -0.454 OA
ATOM     93  C   UNL A   1      33.295  18.519  24.410  1.00  0.00     0.468 C 
ENDBRANCH  84  85
ENDBRANCH  83  84
ENDBRANCH  81  83
ENDBRANCH  74  77
ENDBRANCH  72  73
ENDBRANCH   1  72
TORSDOF 16
ENDMDL
MODEL 3
REMARK VINA RESULT:     -12.2      0.564      7.757
REMARK SMILES O=C(NCCCNC(=O)[C@H]1CC(=O)N(CCc2ccc3c(c2)OCO3)C1)c1ccc(-c2c3nc(c(-c4cc(S(=O)(=O)[O-])ccc4F)c4ccc([nH]4)c(-c4cc(S(=O)(=O)[O-])ccc4F)c4nc(c(-c5cc(S(=O)(=O)[O-])ccc5F)c5ccc2[nH]5)C=C4)C=C3)cc1
REMARK SMILES IDX 5 1 4 2 3 3 1 4 2 5 27 7 28 8 89 9 29 10 88 11 30 12 31 13
REMARK SMILES IDX 32 14 82 15 33 16 87 17 81 18 83 19 34 20 86 21 80 22 79 23
REMARK SMILES IDX 35 25 67 26 47 27 66 28 48 29 51 30 65 31 84 32 49 33 50 34
REMARK SMILES IDX 64 36 85 37 52 38 36 39 37 40 45 41 38 42 44 43 46 44 43 45
REMARK SMILES IDX 39 46 40 47 41 48 42 49 68 50 69 51 77 52 70 53 76 54 78 55
REMARK SMILES IDX 75 56 71 57 72 58 73 59 74 60 53 61 54 62 62 63 55 64 61 65
REMARK SMILES IDX 63 66 60 67 56 68 57 69 58 70 59 71 6 72 7 73 8 74 9 76
REMARK SMILES IDX 10 77 11 78 26 79 12 80 14 81 13 82 15 83 16 84 17 85 18 86
REMARK SMILES IDX 22 87 19 88 21 89 20 90 23 91 25 92 24 93
REMARK H PARENT 3 6 83 24 51 35 7 75
REMARK Flexibility Score: inf
ROOT
ATOM      1  C   UNL A   1      38.344  19.786  24.996  1.00  0.00     0.042 C 
ENDROOT
BRANCH   1   2
ATOM      2  C   UNL A   1      39.393  20.106  26.050  1.00  0.00     0.118 C 
BRANCH   2   3
ATOM      3  N   UNL A   1      40.467  19.124  26.072  1.00  0.00    -0.352 N 
ATOM      4  O   UNL A   1      42.603  18.416  25.899  1.00  0.00    -0.269 OA
ATOM      5  C   UNL A   1      41.824  19.344  26.092  1.00  0.00     0.251 C 
ATOM      6  H   UNL A   1      40.187  18.180  26.071  1.00  0.00     0.163 HD
BRANCH   5   7
ATOM      7  C   UNL A   1      42.328  20.713  26.338  1.00  0.00     0.039 A 
ATOM      8  C   UNL A   1      42.623  21.553  25.262  1.00  0.00     0.014 A 
ATOM      9  C   UNL A   1      42.509  21.155  27.650  1.00  0.00     0.014 A 
ATOM     10  C   UNL A   1      43.220  22.786  25.492  1.00  0.00     0.010 A 
ATOM     11  C   UNL A   1      43.015  22.438  27.881  1.00  0.00     0.010 A 
ATOM     12  C   UNL A   1      43.382  23.258  26.803  1.00  0.00    -0.014 A 
BRANCH  12  13
ATOM     13  C   UNL A   1      43.810  24.663  27.016  1.00  0.00     0.031 A 
ATOM     14  C   UNL A   1      45.239  25.083  26.828  1.00  0.00     0.074 A 
ATOM     15  C   UNL A   1      42.874  25.556  27.399  1.00  0.00     0.049 A 
ATOM     16  N   UNL A   1      45.780  26.257  27.029  1.00  0.00    -0.248 NA
ATOM     17  C   UNL A   1      46.185  24.058  26.362  1.00  0.00     0.031 C 
ATOM     18  C   UNL A   1      41.455  25.245  27.611  1.00  0.00     0.029 A 
ATOM     19  N   UNL A   1      42.960  26.895  27.679  1.00  0.00    -0.354 N 
ATOM     20  C   UNL A   1      47.133  26.111  26.742  1.00  0.00     0.074 A 
ATOM     21  C   UNL A   1      47.332  24.728  26.362  1.00  0.00     0.031 C 
ATOM     22  C   UNL A   1      40.805  26.362  27.961  1.00  0.00     0.029 A 
ATOM     23  C   UNL A   1      41.768  27.446  28.091  1.00  0.00     0.049 A 
ATOM     24  H   UNL A   1      43.794  27.412  27.594  1.00  0.00     0.167 HD
ATOM     25  C   UNL A   1      48.110  27.050  26.799  1.00  0.00     0.034 A 
ATOM     26  C   UNL A   1      41.486  28.672  28.571  1.00  0.00     0.034 A 
ATOM     27  C   UNL A   1      47.876  28.426  27.171  1.00  0.00     0.049 A 
ATOM     28  C   UNL A   1      42.607  29.671  28.681  1.00  0.00     0.074 A 
ATOM     29  C   UNL A   1      48.778  29.476  27.183  1.00  0.00     0.029 A 
ATOM     30  N   UNL A   1      46.667  28.937  27.624  1.00  0.00    -0.354 N 
ATOM     31  N   UNL A   1      43.868  29.531  28.345  1.00  0.00    -0.248 NA
ATOM     32  C   UNL A   1      42.270  30.987  29.235  1.00  0.00     0.031 C 
ATOM     33  C   UNL A   1      48.141  30.595  27.727  1.00  0.00     0.029 A 
ATOM     34  C   UNL A   1      46.816  30.271  27.974  1.00  0.00     0.049 A 
ATOM     35  H   UNL A   1      45.826  28.429  27.687  1.00  0.00     0.167 HD
ATOM     36  C   UNL A   1      44.472  30.749  28.636  1.00  0.00     0.074 A 
ATOM     37  C   UNL A   1      43.431  31.619  29.146  1.00  0.00     0.031 C 
ATOM     38  C   UNL A   1      45.770  31.117  28.498  1.00  0.00     0.034 A 
BRANCH  25  39
ATOM     39  C   UNL A   1      49.528  26.626  26.509  1.00  0.00     0.023 A 
ATOM     40  C   UNL A   1      50.191  26.980  25.322  1.00  0.00     0.031 A 
ATOM     41  C   UNL A   1      50.244  25.884  27.468  1.00  0.00     0.131 A 
ATOM     42  C   UNL A   1      51.515  26.561  25.109  1.00  0.00     0.055 A 
ATOM     43  C   UNL A   1      51.580  25.526  27.278  1.00  0.00     0.041 A 
ATOM     44  F   UNL A   1      49.655  25.499  28.611  1.00  0.00    -0.206 F 
ATOM     45  C   UNL A   1      52.221  25.859  26.090  1.00  0.00     0.022 A 
BRANCH  42  46
ATOM     46  S   UNL A   1      52.274  26.862  23.489  1.00  0.00     0.124 S 
ATOM     47  O   UNL A   1      52.867  28.183  23.681  1.00  0.00    -0.237 OA
ATOM     48  O   UNL A   1      53.213  25.752  23.369  1.00  0.00    -0.237 OA
ATOM     49  O   UNL A   1      51.141  26.824  22.567  1.00  0.00    -0.744 OA
ENDBRANCH  42  46
ENDBRANCH  25  39
BRANCH  26  50
ATOM     50  C   UNL A   1      40.115  28.996  29.059  1.00  0.00     0.023 A 
ATOM     51  C   UNL A   1      39.796  28.935  30.423  1.00  0.00     0.031 A 
ATOM     52  C   UNL A   1      39.083  29.317  28.156  1.00  0.00     0.131 A 
ATOM     53  C   UNL A   1      38.470  29.133  30.839  1.00  0.00     0.055 A 
ATOM     54  C   UNL A   1      37.782  29.584  28.583  1.00  0.00     0.041 A 
ATOM     55  F   UNL A   1      39.329  29.387  26.837  1.00  0.00    -0.206 F 
ATOM     56  C   UNL A   1      37.465  29.474  29.931  1.00  0.00     0.022 A 
BRANCH  53  57
ATOM     57  S   UNL A   1      38.055  28.810  32.574  1.00  0.00     0.124 S 
ATOM     58  O   UNL A   1      39.071  29.590  33.272  1.00  0.00    -0.237 OA
ATOM     59  O   UNL A   1      36.689  29.317  32.657  1.00  0.00    -0.237 OA
ATOM     60  O   UNL A   1      38.190  27.361  32.691  1.00  0.00    -0.744 OA
ENDBRANCH  53  57
ENDBRANCH  26  50
BRANCH  38  61
ATOM     61  C   UNL A   1      46.122  32.530  28.887  1.00  0.00     0.023 A 
ATOM     62  C   UNL A   1      46.077  33.581  27.956  1.00  0.00     0.031 A 
ATOM     63  C   UNL A   1      46.508  32.828  30.206  1.00  0.00     0.131 A 
ATOM     64  C   UNL A   1      46.458  34.873  28.343  1.00  0.00     0.055 A 
ATOM     65  C   UNL A   1      46.825  34.127  30.602  1.00  0.00     0.041 A 
ATOM     66  F   UNL A   1      46.572  31.859  31.135  1.00  0.00    -0.206 F 
ATOM     67  C   UNL A   1      46.812  35.157  29.666  1.00  0.00     0.022 A 
BRANCH  64  68
ATOM     68  S   UNL A   1      46.559  36.169  27.078  1.00  0.00     0.124 S 
ATOM     69  O   UNL A   1      46.324  35.413  25.853  1.00  0.00    -0.237 OA
ATOM     70  O   UNL A   1      45.492  37.081  27.478  1.00  0.00    -0.237 OA
ATOM     71  O   UNL A   1      47.913  36.695  27.233  1.00  0.00    -0.744 OA
ENDBRANCH  64  68
ENDBRANCH  38  61
ENDBRANCH  12  13
ENDBRANCH   5   7
ENDBRANCH   2   3
ENDBRANCH   1   2
BRANCH   1  72
ATOM     72  C   UNL A   1      37.359  20.926  24.800  1.00  0.00     0.117 C 
BRANCH  72  73
ATOM     73  N   UNL A   1      37.732  22.059  25.637  1.00  0.00    -0.356 N 
ATOM     74  C   UNL A   1      37.198  23.299  25.777  1.00  0.00     0.225 C 
ATOM     75  H   UNL A   1      38.518  21.895  26.207  1.00  0.00     0.163 HD
ATOM     76  O   UNL A   1      37.785  24.084  26.527  1.00  0.00    -0.275 OA
BRANCH  74  77
ATOM     77  C   UNL A   1      35.869  23.688  25.168  1.00  0.00     0.107 C 
ATOM     78  C   UNL A   1      35.787  23.877  23.661  1.00  0.00     0.115 C 
ATOM     79  C   UNL A   1      34.864  22.613  25.511  1.00  0.00     0.133 C 
ATOM     80  C   UNL A   1      34.532  23.127  23.251  1.00  0.00     0.223 C 
ATOM     81  N   UNL A   1      34.056  22.421  24.344  1.00  0.00    -0.342 N 
ATOM     82  O   UNL A   1      34.038  23.150  22.141  1.00  0.00    -0.275 OA
BRANCH  81  83
ATOM     83  C   UNL A   1      32.864  21.568  24.351  1.00  0.00     0.124 C 
BRANCH  83  84
ATOM     84  C   UNL A   1      32.819  20.457  25.426  1.00  0.00     0.057 C 
BRANCH  84  85
ATOM     85  C   UNL A   1      33.145  19.018  25.057  1.00  0.00    -0.042 A 
ATOM     86  C   UNL A   1      34.466  18.722  24.634  1.00  0.00     0.008 A 
ATOM     87  C   UNL A   1      32.235  17.962  25.181  1.00  0.00     0.054 A 
ATOM     88  C   UNL A   1      34.917  17.401  24.515  1.00  0.00     0.051 A 
ATOM     89  C   UNL A   1      32.733  16.676  25.179  1.00  0.00     0.166 A 
ATOM     90  C   UNL A   1      34.042  16.402  24.870  1.00  0.00     0.165 A 
ATOM     91  O   UNL A   1      32.051  15.564  25.570  1.00  0.00    -0.454 OA
ATOM     92  O   UNL A   1      34.338  15.083  25.009  1.00  0.00    -0.454 OA
ATOM     93  C   UNL A   1      33.139  14.618  25.662  1.00  0.00     0.468 C 
ENDBRANCH  84  85
ENDBRANCH  83  84
ENDBRANCH  81  83
ENDBRANCH  74  77
ENDBRANCH  72  73
ENDBRANCH   1  72
TORSDOF 16
ENDMDL
