MODEL 1
REMARK VINA RESULT:     -12.1      0.000      0.000
REMARK SMILES O=C(CC1CC[NH+](C[C@H]2Cc3ccccc3O2)CC1)NCCCNC(=O)c1ccc(-c2c3nc(c(-c4cc(S(=O)(=O)[O-])ccc4F)c4ccc([nH]4)c(-c4cc(S(=O)(=O)[O-])ccc4F)c4nc(c(-c5cc(S(=O)(=O)[O-])ccc5F)c5ccc2[nH]5)C=C4)C=C3)cc1
REMARK SMILES IDX 22 1 21 2 20 3 1 4 2 5 3 7 4 8 5 9 19 10 6 11 18 12 7 13
REMARK SMILES IDX 8 15 9 16 10 17 17 18 11 19 16 20 12 21 15 22 13 23 14 24
REMARK SMILES IDX 23 25 24 26 25 27 26 29 27 30 28 31 89 32 29 33 88 34 30 35
REMARK SMILES IDX 31 36 32 37 82 38 33 39 87 40 81 41 83 42 34 43 86 44 80 45
REMARK SMILES IDX 79 46 35 48 67 49 47 50 66 51 48 52 51 53 65 54 84 55 49 56
REMARK SMILES IDX 50 57 64 59 85 60 52 61 36 62 37 63 45 64 38 65 44 66 46 67
REMARK SMILES IDX 43 68 39 69 40 70 41 71 42 72 68 73 69 74 77 75 70 76 76 77
REMARK SMILES IDX 78 78 75 79 71 80 72 81 73 82 74 83 53 84 54 85 62 86 55 87
REMARK SMILES IDX 61 88 63 89 60 90 56 91 57 92 58 93 59 94
REMARK H PARENT 20 6 7 14 24 28 83 47 51 58
REMARK Flexibility Score: inf
ROOT
ATOM      1  C   UNL A   1      31.821  31.192  26.598  1.00  0.00     0.042 C 
ENDROOT
BRANCH   1   2
ATOM      2  C   UNL A   1      31.691  29.789  27.192  1.00  0.00     0.117 C 
BRANCH   2   3
ATOM      3  N   UNL A   1      32.009  28.746  26.237  1.00  0.00    -0.356 N 
ATOM      4  O   UNL A   1      30.836  27.045  27.242  1.00  0.00    -0.275 OA
ATOM      5  C   UNL A   1      31.537  27.454  26.325  1.00  0.00     0.220 C 
ATOM      6  H   UNL A   1      32.597  28.974  25.481  1.00  0.00     0.163 HD
BRANCH   5   7
ATOM      7  C   UNL A   1      31.976  26.565  25.170  1.00  0.00     0.104 C 
BRANCH   7   8
ATOM      8  C   UNL A   1      33.461  26.684  24.778  1.00  0.00     0.009 C 
ATOM      9  C   UNL A   1      33.665  26.392  23.280  1.00  0.00     0.066 C 
ATOM     10  C   UNL A   1      34.401  25.737  25.534  1.00  0.00     0.066 C 
ATOM     11  C   UNL A   1      33.442  24.913  22.928  1.00  0.00     0.262 C 
ATOM     12  C   UNL A   1      34.117  24.268  25.215  1.00  0.00     0.262 C 
ATOM     13  N   UNL A   1      34.144  23.964  23.792  1.00  0.00    -0.332 N 
ATOM     14  H   UNL A   1      35.120  24.111  23.536  1.00  0.00     0.348 HD
BRANCH  13  15
ATOM     15  C   UNL A   1      33.863  22.540  23.487  1.00  0.00     0.308 C 
BRANCH  15  16
ATOM     16  C   UNL A   1      33.285  21.501  24.509  1.00  0.00     0.232 C 
ATOM     17  C   UNL A   1      32.135  20.589  24.043  1.00  0.00     0.090 C 
ATOM     18  O   UNL A   1      34.339  20.677  25.073  1.00  0.00    -0.484 OA
ATOM     19  C   UNL A   1      32.862  19.302  23.943  1.00  0.00    -0.002 A 
ATOM     20  C   UNL A   1      34.083  19.419  24.586  1.00  0.00     0.123 A 
ATOM     21  C   UNL A   1      32.494  18.109  23.347  1.00  0.00     0.007 A 
ATOM     22  C   UNL A   1      34.993  18.381  24.633  1.00  0.00     0.047 A 
ATOM     23  C   UNL A   1      33.416  17.056  23.348  1.00  0.00     0.001 A 
ATOM     24  C   UNL A   1      34.661  17.193  23.983  1.00  0.00     0.004 A 
ENDBRANCH  15  16
ENDBRANCH  13  15
ENDBRANCH   7   8
ENDBRANCH   5   7
ENDBRANCH   2   3
ENDBRANCH   1   2
BRANCH   1  25
ATOM     25  C   UNL A   1      32.975  32.041  27.135  1.00  0.00     0.118 C 
BRANCH  25  26
ATOM     26  N   UNL A   1      32.581  33.390  27.505  1.00  0.00    -0.352 N 
ATOM     27  C   UNL A   1      33.083  34.221  28.482  1.00  0.00     0.251 C 
ATOM     28  H   UNL A   1      31.842  33.768  26.977  1.00  0.00     0.163 HD
ATOM     29  O   UNL A   1      32.509  35.278  28.721  1.00  0.00    -0.269 OA
BRANCH  27  30
ATOM     30  C   UNL A   1      34.281  33.835  29.266  1.00  0.00     0.039 A 
ATOM     31  C   UNL A   1      34.110  33.029  30.396  1.00  0.00     0.014 A 
ATOM     32  C   UNL A   1      35.561  34.268  28.910  1.00  0.00     0.014 A 
ATOM     33  C   UNL A   1      35.226  32.589  31.115  1.00  0.00     0.010 A 
ATOM     34  C   UNL A   1      36.678  33.777  29.592  1.00  0.00     0.010 A 
ATOM     35  C   UNL A   1      36.524  32.916  30.691  1.00  0.00    -0.014 A 
BRANCH  35  36
ATOM     36  C   UNL A   1      37.725  32.338  31.359  1.00  0.00     0.031 A 
ATOM     37  C   UNL A   1      38.465  31.184  30.740  1.00  0.00     0.074 A 
ATOM     38  C   UNL A   1      38.108  32.811  32.563  1.00  0.00     0.049 A 
ATOM     39  N   UNL A   1      39.461  30.486  31.222  1.00  0.00    -0.248 NA
ATOM     40  C   UNL A   1      38.010  30.746  29.414  1.00  0.00     0.031 C 
ATOM     41  C   UNL A   1      37.463  33.914  33.279  1.00  0.00     0.029 A 
ATOM     42  N   UNL A   1      39.120  32.420  33.405  1.00  0.00    -0.354 N 
ATOM     43  C   UNL A   1      39.750  29.519  30.265  1.00  0.00     0.074 A 
ATOM     44  C   UNL A   1      38.784  29.690  29.200  1.00  0.00     0.031 C 
ATOM     45  C   UNL A   1      38.105  34.121  34.439  1.00  0.00     0.029 A 
ATOM     46  C   UNL A   1      39.168  33.131  34.584  1.00  0.00     0.049 A 
ATOM     47  H   UNL A   1      39.753  31.699  33.187  1.00  0.00     0.167 HD
ATOM     48  C   UNL A   1      40.737  28.588  30.268  1.00  0.00     0.034 A 
ATOM     49  C   UNL A   1      39.957  32.989  35.668  1.00  0.00     0.034 A 
ATOM     50  C   UNL A   1      41.694  28.429  31.338  1.00  0.00     0.049 A 
ATOM     51  C   UNL A   1      41.003  31.902  35.676  1.00  0.00     0.074 A 
ATOM     52  C   UNL A   1      42.762  27.550  31.413  1.00  0.00     0.029 A 
ATOM     53  N   UNL A   1      41.694  29.151  32.524  1.00  0.00    -0.354 N 
ATOM     54  N   UNL A   1      41.287  31.023  34.743  1.00  0.00    -0.248 NA
ATOM     55  C   UNL A   1      41.836  31.790  36.881  1.00  0.00     0.031 C 
ATOM     56  C   UNL A   1      43.352  27.681  32.675  1.00  0.00     0.029 A 
ATOM     57  C   UNL A   1      42.713  28.706  33.354  1.00  0.00     0.049 A 
ATOM     58  H   UNL A   1      41.062  29.873  32.745  1.00  0.00     0.167 HD
ATOM     59  C   UNL A   1      42.354  30.277  35.238  1.00  0.00     0.074 A 
ATOM     60  C   UNL A   1      42.670  30.818  36.544  1.00  0.00     0.031 C 
ATOM     61  C   UNL A   1      43.015  29.242  34.662  1.00  0.00     0.034 A 
BRANCH  48  62
ATOM     62  C   UNL A   1      40.810  27.643  29.089  1.00  0.00     0.023 A 
ATOM     63  C   UNL A   1      41.735  27.831  28.047  1.00  0.00     0.031 A 
ATOM     64  C   UNL A   1      39.935  26.546  28.999  1.00  0.00     0.131 A 
ATOM     65  C   UNL A   1      41.713  26.983  26.929  1.00  0.00     0.055 A 
ATOM     66  C   UNL A   1      39.977  25.655  27.925  1.00  0.00     0.041 A 
ATOM     67  F   UNL A   1      39.014  26.326  29.952  1.00  0.00    -0.206 F 
ATOM     68  C   UNL A   1      40.859  25.880  26.874  1.00  0.00     0.022 A 
BRANCH  65  69
ATOM     69  S   UNL A   1      42.710  27.436  25.484  1.00  0.00     0.124 S 
ATOM     70  O   UNL A   1      41.989  28.603  24.983  1.00  0.00    -0.237 OA
ATOM     71  O   UNL A   1      44.018  27.695  26.071  1.00  0.00    -0.237 OA
ATOM     72  O   UNL A   1      42.631  26.251  24.630  1.00  0.00    -0.744 OA
ENDBRANCH  65  69
ENDBRANCH  48  62
BRANCH  49  73
ATOM     73  C   UNL A   1      39.773  33.873  36.858  1.00  0.00     0.023 A 
ATOM     74  C   UNL A   1      39.173  33.390  38.032  1.00  0.00     0.031 A 
ATOM     75  C   UNL A   1      40.149  35.228  36.820  1.00  0.00     0.131 A 
ATOM     76  C   UNL A   1      38.921  34.266  39.100  1.00  0.00     0.055 A 
ATOM     77  C   UNL A   1      39.952  36.080  37.908  1.00  0.00     0.041 A 
ATOM     78  F   UNL A   1      40.726  35.743  35.723  1.00  0.00    -0.206 F 
ATOM     79  C   UNL A   1      39.321  35.603  39.053  1.00  0.00     0.022 A 
BRANCH  76  80
ATOM     80  S   UNL A   1      37.968  33.654  40.517  1.00  0.00     0.124 S 
ATOM     81  O   UNL A   1      37.494  34.898  41.113  1.00  0.00    -0.237 OA
ATOM     82  O   UNL A   1      36.958  32.826  39.867  1.00  0.00    -0.237 OA
ATOM     83  O   UNL A   1      38.961  32.923  41.302  1.00  0.00    -0.744 OA
ENDBRANCH  76  80
ENDBRANCH  49  73
BRANCH  61  84
ATOM     84  C   UNL A   1      44.180  28.653  35.423  1.00  0.00     0.023 A 
ATOM     85  C   UNL A   1      44.004  27.639  36.382  1.00  0.00     0.031 A 
ATOM     86  C   UNL A   1      45.487  29.113  35.182  1.00  0.00     0.131 A 
ATOM     87  C   UNL A   1      45.110  27.155  37.098  1.00  0.00     0.055 A 
ATOM     88  C   UNL A   1      46.590  28.582  35.851  1.00  0.00     0.041 A 
ATOM     89  F   UNL A   1      45.714  30.083  34.281  1.00  0.00    -0.206 F 
ATOM     90  C   UNL A   1      46.404  27.605  36.824  1.00  0.00     0.022 A 
BRANCH  87  91
ATOM     91  S   UNL A   1      44.827  25.985  38.456  1.00  0.00     0.124 S 
ATOM     92  O   UNL A   1      43.703  25.201  37.952  1.00  0.00    -0.237 OA
ATOM     93  O   UNL A   1      46.106  25.286  38.538  1.00  0.00    -0.237 OA
ATOM     94  O   UNL A   1      44.520  26.849  39.594  1.00  0.00    -0.744 OA
ENDBRANCH  87  91
ENDBRANCH  61  84
ENDBRANCH  35  36
ENDBRANCH  27  30
ENDBRANCH  25  26
ENDBRANCH   1  25
TORSDOF 16
ENDMDL
MODEL 2
REMARK VINA RESULT:     -12.1      5.796     11.017
REMARK SMILES O=C(CC1CC[NH+](C[C@H]2Cc3ccccc3O2)CC1)NCCCNC(=O)c1ccc(-c2c3nc(c(-c4cc(S(=O)(=O)[O-])ccc4F)c4ccc([nH]4)c(-c4cc(S(=O)(=O)[O-])ccc4F)c4nc(c(-c5cc(S(=O)(=O)[O-])ccc5F)c5ccc2[nH]5)C=C4)C=C3)cc1
REMARK SMILES IDX 22 1 21 2 20 3 1 4 2 5 3 7 4 8 5 9 19 10 6 11 18 12 7 13
REMARK SMILES IDX 8 15 9 16 10 17 17 18 11 19 16 20 12 21 15 22 13 23 14 24
REMARK SMILES IDX 23 25 24 26 25 27 26 29 27 30 28 31 89 32 29 33 88 34 30 35
REMARK SMILES IDX 31 36 32 37 82 38 33 39 87 40 81 41 83 42 34 43 86 44 80 45
REMARK SMILES IDX 79 46 35 48 67 49 47 50 66 51 48 52 51 53 65 54 84 55 49 56
REMARK SMILES IDX 50 57 64 59 85 60 52 61 36 62 37 63 45 64 38 65 44 66 46 67
REMARK SMILES IDX 43 68 39 69 40 70 41 71 42 72 68 73 69 74 77 75 70 76 76 77
REMARK SMILES IDX 78 78 75 79 71 80 72 81 73 82 74 83 53 84 54 85 62 86 55 87
REMARK SMILES IDX 61 88 63 89 60 90 56 91 57 92 58 93 59 94
REMARK H PARENT 20 6 7 14 24 28 83 47 51 58
REMARK Flexibility Score: inf
ROOT
ATOM      1  C   UNL A   1      35.752  21.171  25.007  1.00  0.00     0.042 C 
ENDROOT
BRANCH   1   2
ATOM      2  C   UNL A   1      35.036  21.736  26.234  1.00  0.00     0.117 C 
BRANCH   2   3
ATOM      3  N   UNL A   1      34.060  22.753  25.895  1.00  0.00    -0.356 N 
ATOM      4  O   UNL A   1      35.516  24.518  25.693  1.00  0.00    -0.275 OA
ATOM      5  C   UNL A   1      34.379  24.066  25.628  1.00  0.00     0.220 C 
ATOM      6  H   UNL A   1      33.113  22.488  25.852  1.00  0.00     0.163 HD
BRANCH   5   7
ATOM      7  C   UNL A   1      33.179  24.921  25.249  1.00  0.00     0.104 C 
BRANCH   7   8
ATOM      8  C   UNL A   1      32.050  24.177  24.510  1.00  0.00     0.009 C 
ATOM      9  C   UNL A   1      32.240  24.254  22.984  1.00  0.00     0.066 C 
ATOM     10  C   UNL A   1      30.639  24.706  24.797  1.00  0.00     0.066 C 
ATOM     11  C   UNL A   1      32.002  25.666  22.427  1.00  0.00     0.262 C 
ATOM     12  C   UNL A   1      30.447  26.137  24.288  1.00  0.00     0.262 C 
ATOM     13  N   UNL A   1      30.764  26.302  22.877  1.00  0.00    -0.332 N 
ATOM     14  H   UNL A   1      30.047  25.750  22.406  1.00  0.00     0.348 HD
BRANCH  13  15
ATOM     15  C   UNL A   1      30.581  27.690  22.390  1.00  0.00     0.308 C 
BRANCH  15  16
ATOM     16  C   UNL A   1      31.271  28.955  23.007  1.00  0.00     0.232 C 
ATOM     17  C   UNL A   1      30.700  29.527  24.317  1.00  0.00     0.090 C 
ATOM     18  O   UNL A   1      32.700  28.748  23.169  1.00  0.00    -0.484 OA
ATOM     19  C   UNL A   1      31.775  29.127  25.255  1.00  0.00    -0.002 A 
ATOM     20  C   UNL A   1      32.889  28.739  24.529  1.00  0.00     0.123 A 
ATOM     21  C   UNL A   1      31.798  29.107  26.638  1.00  0.00     0.007 A 
ATOM     22  C   UNL A   1      34.044  28.287  25.136  1.00  0.00     0.047 A 
ATOM     23  C   UNL A   1      32.943  28.615  27.275  1.00  0.00     0.001 A 
ATOM     24  C   UNL A   1      34.058  28.202  26.528  1.00  0.00     0.004 A 
ENDBRANCH  15  16
ENDBRANCH  13  15
ENDBRANCH   7   8
ENDBRANCH   5   7
ENDBRANCH   2   3
ENDBRANCH   1   2
BRANCH   1  25
ATOM     25  C   UNL A   1      37.229  21.542  24.865  1.00  0.00     0.118 C 
BRANCH  25  26
ATOM     26  N   UNL A   1      38.137  20.494  25.300  1.00  0.00    -0.352 N 
ATOM     27  C   UNL A   1      39.330  20.584  25.982  1.00  0.00     0.251 C 
ATOM     28  H   UNL A   1      37.855  19.579  25.073  1.00  0.00     0.163 HD
ATOM     29  O   UNL A   1      40.011  19.574  26.131  1.00  0.00    -0.269 OA
BRANCH  27  30
ATOM     30  C   UNL A   1      39.811  21.886  26.503  1.00  0.00     0.039 A 
ATOM     31  C   UNL A   1      40.848  21.888  27.442  1.00  0.00     0.014 A 
ATOM     32  C   UNL A   1      39.247  23.096  26.091  1.00  0.00     0.014 A 
ATOM     33  C   UNL A   1      41.373  23.101  27.900  1.00  0.00     0.010 A 
ATOM     34  C   UNL A   1      39.812  24.305  26.502  1.00  0.00     0.010 A 
ATOM     35  C   UNL A   1      40.895  24.322  27.397  1.00  0.00    -0.014 A 
BRANCH  35  36
ATOM     36  C   UNL A   1      41.539  25.615  27.763  1.00  0.00     0.031 A 
ATOM     37  C   UNL A   1      40.767  26.674  28.503  1.00  0.00     0.074 A 
ATOM     38  C   UNL A   1      42.804  25.864  27.365  1.00  0.00     0.049 A 
ATOM     39  N   UNL A   1      41.124  27.894  28.812  1.00  0.00    -0.248 NA
ATOM     40  C   UNL A   1      39.407  26.318  28.932  1.00  0.00     0.031 C 
ATOM     41  C   UNL A   1      43.654  24.929  26.625  1.00  0.00     0.029 A 
ATOM     42  N   UNL A   1      43.592  26.979  27.512  1.00  0.00    -0.354 N 
ATOM     43  C   UNL A   1      40.033  28.457  29.465  1.00  0.00     0.074 A 
ATOM     44  C   UNL A   1      38.983  27.459  29.455  1.00  0.00     0.031 C 
ATOM     45  C   UNL A   1      44.847  25.501  26.400  1.00  0.00     0.029 A 
ATOM     46  C   UNL A   1      44.832  26.864  26.922  1.00  0.00     0.049 A 
ATOM     47  H   UNL A   1      43.299  27.785  27.994  1.00  0.00     0.167 HD
ATOM     48  C   UNL A   1      39.923  29.685  30.032  1.00  0.00     0.034 A 
ATOM     49  C   UNL A   1      45.833  27.758  26.793  1.00  0.00     0.034 A 
ATOM     50  C   UNL A   1      40.979  30.671  30.034  1.00  0.00     0.049 A 
ATOM     51  C   UNL A   1      45.662  29.140  27.372  1.00  0.00     0.074 A 
ATOM     52  C   UNL A   1      40.985  31.924  30.625  1.00  0.00     0.029 A 
ATOM     53  N   UNL A   1      42.209  30.526  29.407  1.00  0.00    -0.354 N 
ATOM     54  N   UNL A   1      44.637  29.641  28.023  1.00  0.00    -0.248 NA
ATOM     55  C   UNL A   1      46.782  30.075  27.205  1.00  0.00     0.031 C 
ATOM     56  C   UNL A   1      42.179  32.566  30.284  1.00  0.00     0.029 A 
ATOM     57  C   UNL A   1      42.961  31.683  29.557  1.00  0.00     0.049 A 
ATOM     58  H   UNL A   1      42.505  29.720  28.924  1.00  0.00     0.167 HD
ATOM     59  C   UNL A   1      45.006  30.939  28.368  1.00  0.00     0.074 A 
ATOM     60  C   UNL A   1      46.350  31.137  27.867  1.00  0.00     0.031 C 
ATOM     61  C   UNL A   1      44.297  31.879  29.044  1.00  0.00     0.034 A 
BRANCH  48  62
ATOM     62  C   UNL A   1      38.600  30.045  30.670  1.00  0.00     0.023 A 
ATOM     63  C   UNL A   1      37.603  30.741  29.964  1.00  0.00     0.031 A 
ATOM     64  C   UNL A   1      38.335  29.698  32.007  1.00  0.00     0.131 A 
ATOM     65  C   UNL A   1      36.425  31.133  30.617  1.00  0.00     0.055 A 
ATOM     66  C   UNL A   1      37.123  30.015  32.625  1.00  0.00     0.041 A 
ATOM     67  F   UNL A   1      39.255  29.052  32.741  1.00  0.00    -0.206 F 
ATOM     68  C   UNL A   1      36.166  30.750  31.934  1.00  0.00     0.022 A 
BRANCH  65  69
ATOM     69  S   UNL A   1      35.306  32.279  29.766  1.00  0.00     0.124 S 
ATOM     70  O   UNL A   1      34.695  31.406  28.768  1.00  0.00    -0.237 OA
ATOM     71  O   UNL A   1      34.433  32.727  30.844  1.00  0.00    -0.237 OA
ATOM     72  O   UNL A   1      36.206  33.297  29.225  1.00  0.00    -0.744 OA
ENDBRANCH  65  69
ENDBRANCH  48  62
BRANCH  49  73
ATOM     73  C   UNL A   1      47.080  27.395  26.055  1.00  0.00     0.023 A 
ATOM     74  C   UNL A   1      47.247  27.740  24.704  1.00  0.00     0.031 A 
ATOM     75  C   UNL A   1      48.101  26.653  26.676  1.00  0.00     0.131 A 
ATOM     76  C   UNL A   1      48.383  27.301  24.006  1.00  0.00     0.055 A 
ATOM     77  C   UNL A   1      49.257  26.272  25.994  1.00  0.00     0.041 A 
ATOM     78  F   UNL A   1      47.993  26.295  27.965  1.00  0.00    -0.206 F 
ATOM     79  C   UNL A   1      49.397  26.583  24.644  1.00  0.00     0.022 A 
BRANCH  76  80
ATOM     80  S   UNL A   1      48.469  27.595  22.218  1.00  0.00     0.124 S 
ATOM     81  O   UNL A   1      49.616  28.492  22.122  1.00  0.00    -0.237 OA
ATOM     82  O   UNL A   1      48.664  26.246  21.698  1.00  0.00    -0.237 OA
ATOM     83  O   UNL A   1      47.175  28.200  21.911  1.00  0.00    -0.744 OA
ENDBRANCH  76  80
ENDBRANCH  49  73
BRANCH  61  84
ATOM     84  C   UNL A   1      44.982  33.197  29.321  1.00  0.00     0.023 A 
ATOM     85  C   UNL A   1      44.774  34.327  28.510  1.00  0.00     0.031 A 
ATOM     86  C   UNL A   1      45.856  33.323  30.416  1.00  0.00     0.131 A 
ATOM     87  C   UNL A   1      45.468  35.517  28.778  1.00  0.00     0.055 A 
ATOM     88  C   UNL A   1      46.493  34.528  30.715  1.00  0.00     0.041 A 
ATOM     89  F   UNL A   1      46.097  32.276  31.221  1.00  0.00    -0.206 F 
ATOM     90  C   UNL A   1      46.310  35.631  29.887  1.00  0.00     0.022 A 
BRANCH  87  91
ATOM     91  S   UNL A   1      45.322  36.896  27.607  1.00  0.00     0.124 S 
ATOM     92  O   UNL A   1      44.441  36.335  26.587  1.00  0.00    -0.237 OA
ATOM     93  O   UNL A   1      44.747  37.951  28.436  1.00  0.00    -0.237 OA
ATOM     94  O   UNL A   1      46.699  37.129  27.178  1.00  0.00    -0.744 OA
ENDBRANCH  87  91
ENDBRANCH  61  84
ENDBRANCH  35  36
ENDBRANCH  27  30
ENDBRANCH  25  26
ENDBRANCH   1  25
TORSDOF 16
ENDMDL
MODEL 3
REMARK VINA RESULT:     -12.0      1.738      2.211
REMARK SMILES O=C(CC1CC[NH+](C[C@H]2Cc3ccccc3O2)CC1)NCCCNC(=O)c1ccc(-c2c3nc(c(-c4cc(S(=O)(=O)[O-])ccc4F)c4ccc([nH]4)c(-c4cc(S(=O)(=O)[O-])ccc4F)c4nc(c(-c5cc(S(=O)(=O)[O-])ccc5F)c5ccc2[nH]5)C=C4)C=C3)cc1
REMARK SMILES IDX 22 1 21 2 20 3 1 4 2 5 3 7 4 8 5 9 19 10 6 11 18 12 7 13
REMARK SMILES IDX 8 15 9 16 10 17 17 18 11 19 16 20 12 21 15 22 13 23 14 24
REMARK SMILES IDX 23 25 24 26 25 27 26 29 27 30 28 31 89 32 29 33 88 34 30 35
REMARK SMILES IDX 31 36 32 37 82 38 33 39 87 40 81 41 83 42 34 43 86 44 80 45
REMARK SMILES IDX 79 46 35 48 67 49 47 50 66 51 48 52 51 53 65 54 84 55 49 56
REMARK SMILES IDX 50 57 64 59 85 60 52 61 36 62 37 63 45 64 38 65 44 66 46 67
REMARK SMILES IDX 43 68 39 69 40 70 41 71 42 72 68 73 69 74 77 75 70 76 76 77
REMARK SMILES IDX 78 78 75 79 71 80 72 81 73 82 74 83 53 84 54 85 62 86 55 87
REMARK SMILES IDX 61 88 63 89 60 90 56 91 57 92 58 93 59 94
REMARK H PARENT 20 6 7 14 24 28 83 47 51 58
REMARK Flexibility Score: inf
ROOT
ATOM      1  C   UNL A   1      30.991  31.785  26.669  1.00  0.00     0.042 C 
ENDROOT
BRANCH   1   2
ATOM      2  C   UNL A   1      30.597  31.437  25.233  1.00  0.00     0.117 C 
BRANCH   2   3
ATOM      3  N   UNL A   1      31.162  30.178  24.788  1.00  0.00    -0.356 N 
ATOM      4  O   UNL A   1      29.448  29.550  23.393  1.00  0.00    -0.275 OA
ATOM      5  C   UNL A   1      30.552  29.339  23.882  1.00  0.00     0.220 C 
ATOM      6  H   UNL A   1      32.035  29.908  25.155  1.00  0.00     0.163 HD
BRANCH   5   7
ATOM      7  C   UNL A   1      31.375  28.104  23.543  1.00  0.00     0.104 C 
BRANCH   7   8
ATOM      8  C   UNL A   1      32.899  28.325  23.493  1.00  0.00     0.009 C 
ATOM      9  C   UNL A   1      33.525  27.603  22.286  1.00  0.00     0.066 C 
ATOM     10  C   UNL A   1      33.658  27.834  24.732  1.00  0.00     0.066 C 
ATOM     11  C   UNL A   1      33.509  26.074  22.435  1.00  0.00     0.262 C 
ATOM     12  C   UNL A   1      33.574  26.314  24.893  1.00  0.00     0.262 C 
ATOM     13  N   UNL A   1      34.011  25.577  23.716  1.00  0.00    -0.332 N 
ATOM     14  H   UNL A   1      35.007  25.787  23.661  1.00  0.00     0.348 HD
BRANCH  13  15
ATOM     15  C   UNL A   1      33.923  24.106  23.875  1.00  0.00     0.308 C 
BRANCH  15  16
ATOM     16  C   UNL A   1      32.605  23.314  24.183  1.00  0.00     0.232 C 
ATOM     17  C   UNL A   1      31.954  22.517  23.038  1.00  0.00     0.090 C 
ATOM     18  O   UNL A   1      32.775  22.437  25.329  1.00  0.00    -0.484 OA
ATOM     19  C   UNL A   1      32.268  21.139  23.483  1.00  0.00    -0.002 A 
ATOM     20  C   UNL A   1      32.685  21.172  24.803  1.00  0.00     0.123 A 
ATOM     21  C   UNL A   1      32.190  19.937  22.802  1.00  0.00     0.007 A 
ATOM     22  C   UNL A   1      33.073  20.034  25.483  1.00  0.00     0.047 A 
ATOM     23  C   UNL A   1      32.615  18.775  23.457  1.00  0.00     0.001 A 
ATOM     24  C   UNL A   1      33.059  18.824  24.788  1.00  0.00     0.004 A 
ENDBRANCH  15  16
ENDBRANCH  13  15
ENDBRANCH   7   8
ENDBRANCH   5   7
ENDBRANCH   2   3
ENDBRANCH   1   2
BRANCH   1  25
ATOM     25  C   UNL A   1      32.387  32.384  26.852  1.00  0.00     0.118 C 
BRANCH  25  26
ATOM     26  N   UNL A   1      32.376  33.722  27.418  1.00  0.00    -0.352 N 
ATOM     27  C   UNL A   1      33.214  34.297  28.348  1.00  0.00     0.251 C 
ATOM     28  H   UNL A   1      31.660  34.309  27.085  1.00  0.00     0.163 HD
ATOM     29  O   UNL A   1      32.942  35.407  28.793  1.00  0.00    -0.269 OA
BRANCH  27  30
ATOM     30  C   UNL A   1      34.414  33.576  28.837  1.00  0.00     0.039 A 
ATOM     31  C   UNL A   1      35.667  34.177  28.677  1.00  0.00     0.014 A 
ATOM     32  C   UNL A   1      34.322  32.316  29.433  1.00  0.00     0.014 A 
ATOM     33  C   UNL A   1      36.810  33.557  29.191  1.00  0.00     0.010 A 
ATOM     34  C   UNL A   1      35.455  31.727  30.000  1.00  0.00     0.010 A 
ATOM     35  C   UNL A   1      36.710  32.351  29.901  1.00  0.00    -0.014 A 
BRANCH  35  36
ATOM     36  C   UNL A   1      37.894  31.750  30.579  1.00  0.00     0.031 A 
ATOM     37  C   UNL A   1      38.718  30.695  29.892  1.00  0.00     0.074 A 
ATOM     38  C   UNL A   1      38.187  32.108  31.847  1.00  0.00     0.049 A 
ATOM     39  N   UNL A   1      39.714  29.987  30.361  1.00  0.00    -0.248 NA
ATOM     40  C   UNL A   1      38.359  30.382  28.502  1.00  0.00     0.031 C 
ATOM     41  C   UNL A   1      37.455  33.105  32.631  1.00  0.00     0.029 A 
ATOM     42  N   UNL A   1      39.164  31.668  32.706  1.00  0.00    -0.354 N 
ATOM     43  C   UNL A   1      40.098  29.138  29.329  1.00  0.00     0.074 A 
ATOM     44  C   UNL A   1      39.189  29.384  28.229  1.00  0.00     0.031 C 
ATOM     45  C   UNL A   1      38.019  33.213  33.844  1.00  0.00     0.029 A 
ATOM     46  C   UNL A   1      39.113  32.252  33.951  1.00  0.00     0.049 A 
ATOM     47  H   UNL A   1      39.839  30.997  32.453  1.00  0.00     0.167 HD
ATOM     48  C   UNL A   1      41.122  28.248  29.297  1.00  0.00     0.034 A 
ATOM     49  C   UNL A   1      39.844  32.027  35.062  1.00  0.00     0.034 A 
ATOM     50  C   UNL A   1      42.022  28.013  30.403  1.00  0.00     0.049 A 
ATOM     51  C   UNL A   1      40.933  30.984  35.023  1.00  0.00     0.074 A 
ATOM     52  C   UNL A   1      43.121  27.171  30.454  1.00  0.00     0.029 A 
ATOM     53  N   UNL A   1      41.923  28.606  31.655  1.00  0.00    -0.354 N 
ATOM     54  N   UNL A   1      41.309  30.219  34.024  1.00  0.00    -0.248 NA
ATOM     55  C   UNL A   1      41.700  30.777  36.260  1.00  0.00     0.031 C 
ATOM     56  C   UNL A   1      43.631  27.191  31.756  1.00  0.00     0.029 A 
ATOM     57  C   UNL A   1      42.911  28.114  32.496  1.00  0.00     0.049 A 
ATOM     58  H   UNL A   1      41.249  29.278  31.909  1.00  0.00     0.167 HD
ATOM     59  C   UNL A   1      42.376  29.465  34.505  1.00  0.00     0.074 A 
ATOM     60  C   UNL A   1      42.593  29.877  35.877  1.00  0.00     0.031 C 
ATOM     61  C   UNL A   1      43.113  28.521  33.868  1.00  0.00     0.034 A 
BRANCH  48  62
ATOM     62  C   UNL A   1      41.304  27.436  28.035  1.00  0.00     0.023 A 
ATOM     63  C   UNL A   1      40.927  26.083  27.965  1.00  0.00     0.031 A 
ATOM     64  C   UNL A   1      41.874  28.018  26.888  1.00  0.00     0.131 A 
ATOM     65  C   UNL A   1      41.192  25.341  26.804  1.00  0.00     0.055 A 
ATOM     66  C   UNL A   1      42.054  27.296  25.707  1.00  0.00     0.041 A 
ATOM     67  F   UNL A   1      42.275  29.300  26.899  1.00  0.00    -0.206 F 
ATOM     68  C   UNL A   1      41.728  25.945  25.665  1.00  0.00     0.022 A 
BRANCH  65  69
ATOM     69  S   UNL A   1      40.968  23.543  26.860  1.00  0.00     0.124 S 
ATOM     70  O   UNL A   1      39.535  23.417  26.606  1.00  0.00    -0.237 OA
ATOM     71  O   UNL A   1      41.848  23.082  25.794  1.00  0.00    -0.237 OA
ATOM     72  O   UNL A   1      41.386  23.187  28.215  1.00  0.00    -0.744 OA
ENDBRANCH  65  69
ENDBRANCH  48  62
BRANCH  49  73
ATOM     73  C   UNL A   1      39.554  32.774  36.322  1.00  0.00     0.023 A 
ATOM     74  C   UNL A   1      38.650  32.269  37.270  1.00  0.00     0.031 A 
ATOM     75  C   UNL A   1      40.139  34.028  36.573  1.00  0.00     0.131 A 
ATOM     76  C   UNL A   1      38.319  33.036  38.399  1.00  0.00     0.055 A 
ATOM     77  C   UNL A   1      39.853  34.759  37.728  1.00  0.00     0.041 A 
ATOM     78  F   UNL A   1      41.010  34.558  35.701  1.00  0.00    -0.206 F 
ATOM     79  C   UNL A   1      38.926  34.270  38.642  1.00  0.00     0.022 A 
BRANCH  76  80
ATOM     80  S   UNL A   1      37.002  32.442  39.496  1.00  0.00     0.124 S 
ATOM     81  O   UNL A   1      37.357  31.035  39.648  1.00  0.00    -0.237 OA
ATOM     82  O   UNL A   1      37.187  33.283  40.674  1.00  0.00    -0.237 OA
ATOM     83  O   UNL A   1      35.783  32.699  38.733  1.00  0.00    -0.744 OA
ENDBRANCH  76  80
ENDBRANCH  49  73
BRANCH  61  84
ATOM     84  C   UNL A   1      44.256  27.898  34.635  1.00  0.00     0.023 A 
ATOM     85  C   UNL A   1      44.129  26.654  35.279  1.00  0.00     0.031 A 
ATOM     86  C   UNL A   1      45.494  28.561  34.721  1.00  0.00     0.131 A 
ATOM     87  C   UNL A   1      45.203  26.137  36.019  1.00  0.00     0.055 A 
ATOM     88  C   UNL A   1      46.579  28.011  35.405  1.00  0.00     0.041 A 
ATOM     89  F   UNL A   1      45.672  29.754  34.130  1.00  0.00    -0.206 F 
ATOM     90  C   UNL A   1      46.434  26.797  36.069  1.00  0.00     0.022 A 
BRANCH  87  91
ATOM     91  S   UNL A   1      44.947  24.626  36.991  1.00  0.00     0.124 S 
ATOM     92  O   UNL A   1      44.355  25.151  38.218  1.00  0.00    -0.237 OA
ATOM     93  O   UNL A   1      44.053  23.852  36.134  1.00  0.00    -0.237 OA
ATOM     94  O   UNL A   1      46.293  24.078  37.136  1.00  0.00    -0.744 OA
ENDBRANCH  87  91
ENDBRANCH  61  84
ENDBRANCH  35  36
ENDBRANCH  27  30
ENDBRANCH  25  26
ENDBRANCH   1  25
TORSDOF 16
ENDMDL
