MODEL 1
REMARK VINA RESULT:     -13.1      0.000      0.000
REMARK SMILES C[C@@H]1CC[C@H](C)[N@H+]1Cc1cc2c(cc1Cl)C=C(C(=O)NCCCNC(=O)c1ccc(-c3c4nc(c(-c5cc(S(=O)(=O)[O-])ccc5F)c5ccc([nH]5)c(-c5cc(S(=O)(=O)[O-])ccc5F)c5nc(c(-c6cc(S(=O)(=O)[O-])ccc6F)c6ccc3[nH]6)C=C5)C=C4)cc1)[C@@H](C(F)(F)F)O2
REMARK SMILES IDX 22 1 21 2 20 3 18 4 19 5 17 7 9 8 10 9 14 10 11 11 13 12
REMARK SMILES IDX 15 13 12 14 95 15 16 16 90 17 8 18 7 19 6 20 5 21 4 22 3 23
REMARK SMILES IDX 2 24 1 26 91 27 92 28 93 29 94 30 23 31 24 32 25 33 26 35
REMARK SMILES IDX 27 36 28 37 89 38 29 39 88 40 30 41 31 42 32 43 82 44 33 45
REMARK SMILES IDX 87 46 81 47 83 48 34 49 86 50 80 51 79 52 35 54 67 55 47 56
REMARK SMILES IDX 66 57 48 58 51 59 65 60 84 61 49 62 50 63 64 65 85 66 52 67
REMARK SMILES IDX 36 68 37 69 45 70 38 71 44 72 46 73 43 74 39 75 40 76 41 77
REMARK SMILES IDX 42 78 68 79 69 80 77 81 70 82 76 83 78 84 75 85 71 86 72 87
REMARK SMILES IDX 73 88 74 89 53 90 54 91 62 92 55 93 61 94 63 95 60 96 56 97
REMARK SMILES IDX 57 98 58 99 59 100
REMARK H PARENT 20 6 7 25 24 34 83 53 51 64
REMARK Flexibility Score: inf
ROOT
ATOM      1  C   UNL A   1      31.108  31.963  26.095  1.00  0.00     0.042 C 
ENDROOT
BRANCH   1   2
ATOM      2  C   UNL A   1      31.098  30.571  25.487  1.00  0.00     0.118 C 
BRANCH   2   3
ATOM      3  N   UNL A   1      30.264  30.517  24.296  1.00  0.00    -0.352 N 
ATOM      4  C   UNL A   1      30.033  29.648  23.288  1.00  0.00     0.251 C 
ATOM      5  O   UNL A   1      29.227  30.034  22.435  1.00  0.00    -0.270 OA
ATOM      6  H   UNL A   1      29.722  31.332  24.199  1.00  0.00     0.163 HD
BRANCH   4   7
ATOM      7  C   UNL A   1      30.653  28.303  23.161  1.00  0.00     0.067 C 
ATOM      8  C   UNL A   1      31.746  23.400  23.591  1.00  0.00     0.029 A 
ATOM      9  C   UNL A   1      32.049  24.400  22.645  1.00  0.00     0.058 A 
ATOM     10  C   UNL A   1      30.974  23.766  24.708  1.00  0.00     0.050 A 
ATOM     11  C   UNL A   1      31.532  25.684  22.779  1.00  0.00     0.128 A 
ATOM     12  C   UNL A   1      30.390  25.037  24.791  1.00  0.00     0.033 A 
ATOM     13  Cl  UNL A   1      30.763  22.739  26.083  1.00  0.00    -0.084 Cl
ATOM     14  C   UNL A   1      30.657  25.993  23.817  1.00  0.00     0.019 A 
ATOM     15  O   UNL A   1      31.911  26.618  21.854  1.00  0.00    -0.475 OA
ATOM     16  C   UNL A   1      30.058  27.320  23.862  1.00  0.00     0.025 C 
ATOM     17  C   UNL A   1      31.885  27.989  22.358  1.00  0.00     0.314 C 
BRANCH   8  18
ATOM     18  C   UNL A   1      32.252  21.993  23.328  1.00  0.00     0.301 C 
BRANCH  18  19
ATOM     19  N   UNL A   1      33.561  21.644  23.906  1.00  0.00    -0.327 N 
ATOM     20  C   UNL A   1      33.634  19.230  24.501  1.00  0.00     0.075 C 
ATOM     21  C   UNL A   1      33.559  20.665  25.006  1.00  0.00     0.181 C 
ATOM     22  C   UNL A   1      34.774  21.033  25.853  1.00  0.00     0.071 C 
ATOM     23  C   UNL A   1      34.820  22.540  25.722  1.00  0.00     0.071 C 
ATOM     24  C   UNL A   1      34.408  22.783  24.275  1.00  0.00     0.181 C 
ATOM     25  H   UNL A   1      33.978  21.177  23.099  1.00  0.00     0.348 HD
ATOM     26  C   UNL A   1      35.609  22.827  23.331  1.00  0.00     0.075 C 
ENDBRANCH  18  19
ENDBRANCH   8  18
BRANCH  17  27
ATOM     27  C   UNL A   1      33.182  28.296  23.139  1.00  0.00     0.429 C 
ATOM     28  F   UNL A   1      34.226  27.597  22.629  1.00  0.00    -0.167 F 
ATOM     29  F   UNL A   1      33.527  29.606  23.077  1.00  0.00    -0.167 F 
ATOM     30  F   UNL A   1      33.096  27.988  24.453  1.00  0.00    -0.167 F 
ENDBRANCH  17  27
ENDBRANCH   4   7
ENDBRANCH   2   3
ENDBRANCH   1   2
BRANCH   1  31
ATOM     31  C   UNL A   1      32.299  32.176  27.020  1.00  0.00     0.118 C 
BRANCH  31  32
ATOM     32  N   UNL A   1      32.474  33.582  27.372  1.00  0.00    -0.352 N 
ATOM     33  C   UNL A   1      33.407  34.181  28.189  1.00  0.00     0.251 C 
ATOM     34  H   UNL A   1      31.826  34.198  26.961  1.00  0.00     0.163 HD
ATOM     35  O   UNL A   1      33.242  35.335  28.560  1.00  0.00    -0.269 OA
BRANCH  33  36
ATOM     36  C   UNL A   1      34.585  33.406  28.629  1.00  0.00     0.039 A 
ATOM     37  C   UNL A   1      34.418  32.118  29.136  1.00  0.00     0.014 A 
ATOM     38  C   UNL A   1      35.858  33.978  28.567  1.00  0.00     0.014 A 
ATOM     39  C   UNL A   1      35.474  31.497  29.785  1.00  0.00     0.010 A 
ATOM     40  C   UNL A   1      36.948  33.293  29.109  1.00  0.00     0.010 A 
ATOM     41  C   UNL A   1      36.754  32.073  29.778  1.00  0.00    -0.014 A 
BRANCH  41  42
ATOM     42  C   UNL A   1      37.864  31.364  30.465  1.00  0.00     0.031 A 
ATOM     43  C   UNL A   1      38.706  30.352  29.737  1.00  0.00     0.074 A 
ATOM     44  C   UNL A   1      38.146  31.687  31.742  1.00  0.00     0.049 A 
ATOM     45  N   UNL A   1      39.732  29.671  30.179  1.00  0.00    -0.248 NA
ATOM     46  C   UNL A   1      38.352  30.059  28.340  1.00  0.00     0.031 C 
ATOM     47  C   UNL A   1      37.391  32.656  32.539  1.00  0.00     0.029 A 
ATOM     48  N   UNL A   1      39.147  31.273  32.584  1.00  0.00    -0.354 N 
ATOM     49  C   UNL A   1      40.122  28.844  29.131  1.00  0.00     0.074 A 
ATOM     50  C   UNL A   1      39.209  29.092  28.038  1.00  0.00     0.031 C 
ATOM     51  C   UNL A   1      37.994  32.816  33.722  1.00  0.00     0.029 A 
ATOM     52  C   UNL A   1      39.122  31.892  33.811  1.00  0.00     0.049 A 
ATOM     53  H   UNL A   1      39.818  30.598  32.333  1.00  0.00     0.167 HD
ATOM     54  C   UNL A   1      41.155  27.968  29.088  1.00  0.00     0.034 A 
ATOM     55  C   UNL A   1      39.901  31.728  34.899  1.00  0.00     0.034 A 
ATOM     56  C   UNL A   1      42.074  27.766  30.178  1.00  0.00     0.049 A 
ATOM     57  C   UNL A   1      41.038  30.748  34.829  1.00  0.00     0.074 A 
ATOM     58  C   UNL A   1      43.187  26.945  30.211  1.00  0.00     0.029 A 
ATOM     59  N   UNL A   1      41.997  28.383  31.419  1.00  0.00    -0.354 N 
ATOM     60  N   UNL A   1      41.422  30.009  33.814  1.00  0.00    -0.248 NA
ATOM     61  C   UNL A   1      41.848  30.571  36.041  1.00  0.00     0.031 C 
ATOM     62  C   UNL A   1      43.741  27.012  31.491  1.00  0.00     0.029 A 
ATOM     63  C   UNL A   1      43.021  27.934  32.237  1.00  0.00     0.049 A 
ATOM     64  H   UNL A   1      41.315  29.044  31.680  1.00  0.00     0.167 HD
ATOM     65  C   UNL A   1      42.519  29.281  34.262  1.00  0.00     0.074 A 
ATOM     66  C   UNL A   1      42.757  29.693  35.631  1.00  0.00     0.031 C 
ATOM     67  C   UNL A   1      43.252  28.350  33.602  1.00  0.00     0.034 A 
BRANCH  54  68
ATOM     68  C   UNL A   1      41.361  27.151  27.837  1.00  0.00     0.023 A 
ATOM     69  C   UNL A   1      41.062  25.775  27.844  1.00  0.00     0.031 A 
ATOM     70  C   UNL A   1      41.957  27.694  26.684  1.00  0.00     0.131 A 
ATOM     71  C   UNL A   1      41.383  24.985  26.734  1.00  0.00     0.055 A 
ATOM     72  C   UNL A   1      42.239  26.908  25.564  1.00  0.00     0.041 A 
ATOM     73  F   UNL A   1      42.263  29.000  26.626  1.00  0.00    -0.206 F 
ATOM     74  C   UNL A   1      41.963  25.545  25.592  1.00  0.00     0.022 A 
BRANCH  71  75
ATOM     75  S   UNL A   1      41.122  23.190  26.752  1.00  0.00     0.124 S 
ATOM     76  O   UNL A   1      41.547  22.841  28.106  1.00  0.00    -0.237 OA
ATOM     77  O   UNL A   1      39.686  23.087  26.505  1.00  0.00    -0.237 OA
ATOM     78  O   UNL A   1      41.984  22.698  25.684  1.00  0.00    -0.744 OA
ENDBRANCH  71  75
ENDBRANCH  54  68
BRANCH  55  79
ATOM     79  C   UNL A   1      39.617  32.553  36.110  1.00  0.00     0.023 A 
ATOM     80  C   UNL A   1      38.830  32.035  37.157  1.00  0.00     0.031 A 
ATOM     81  C   UNL A   1      39.971  33.911  36.157  1.00  0.00     0.131 A 
ATOM     82  C   UNL A   1      38.334  32.894  38.145  1.00  0.00     0.055 A 
ATOM     83  C   UNL A   1      39.545  34.745  37.192  1.00  0.00     0.041 A 
ATOM     84  F   UNL A   1      40.710  34.451  35.176  1.00  0.00    -0.206 F 
ATOM     85  C   UNL A   1      38.700  34.244  38.179  1.00  0.00     0.022 A 
BRANCH  82  86
ATOM     86  S   UNL A   1      37.058  32.330  39.306  1.00  0.00     0.124 S 
ATOM     87  O   UNL A   1      37.265  30.885  39.309  1.00  0.00    -0.237 OA
ATOM     88  O   UNL A   1      37.444  33.026  40.531  1.00  0.00    -0.237 OA
ATOM     89  O   UNL A   1      35.814  32.788  38.699  1.00  0.00    -0.744 OA
ENDBRANCH  82  86
ENDBRANCH  55  79
BRANCH  67  90
ATOM     90  C   UNL A   1      44.389  27.680  34.331  1.00  0.00     0.023 A 
ATOM     91  C   UNL A   1      44.143  26.540  35.121  1.00  0.00     0.031 A 
ATOM     92  C   UNL A   1      45.668  28.262  34.380  1.00  0.00     0.131 A 
ATOM     93  C   UNL A   1      45.146  26.049  35.965  1.00  0.00     0.055 A 
ATOM     94  C   UNL A   1      46.679  27.738  35.186  1.00  0.00     0.041 A 
ATOM     95  F   UNL A   1      45.947  29.354  33.652  1.00  0.00    -0.206 F 
ATOM     96  C   UNL A   1      46.416  26.638  35.996  1.00  0.00     0.022 A 
BRANCH  93  97
ATOM     97  S   UNL A   1      44.813  24.693  37.123  1.00  0.00     0.124 S 
ATOM     98  O   UNL A   1      43.604  25.161  37.796  1.00  0.00    -0.237 OA
ATOM     99  O   UNL A   1      44.628  23.558  36.224  1.00  0.00    -0.237 OA
ATOM    100  O   UNL A   1      46.008  24.642  37.959  1.00  0.00    -0.744 OA
ENDBRANCH  93  97
ENDBRANCH  67  90
ENDBRANCH  41  42
ENDBRANCH  33  36
ENDBRANCH  31  32
ENDBRANCH   1  31
TORSDOF 16
ENDMDL
MODEL 2
REMARK VINA RESULT:     -13.1      1.356      7.406
REMARK SMILES C[C@@H]1CC[C@H](C)[N@H+]1Cc1cc2c(cc1Cl)C=C(C(=O)NCCCNC(=O)c1ccc(-c3c4nc(c(-c5cc(S(=O)(=O)[O-])ccc5F)c5ccc([nH]5)c(-c5cc(S(=O)(=O)[O-])ccc5F)c5nc(c(-c6cc(S(=O)(=O)[O-])ccc6F)c6ccc3[nH]6)C=C5)C=C4)cc1)[C@@H](C(F)(F)F)O2
REMARK SMILES IDX 22 1 21 2 20 3 18 4 19 5 17 7 9 8 10 9 14 10 11 11 13 12
REMARK SMILES IDX 15 13 12 14 95 15 16 16 90 17 8 18 7 19 6 20 5 21 4 22 3 23
REMARK SMILES IDX 2 24 1 26 91 27 92 28 93 29 94 30 23 31 24 32 25 33 26 35
REMARK SMILES IDX 27 36 28 37 89 38 29 39 88 40 30 41 31 42 32 43 82 44 33 45
REMARK SMILES IDX 87 46 81 47 83 48 34 49 86 50 80 51 79 52 35 54 67 55 47 56
REMARK SMILES IDX 66 57 48 58 51 59 65 60 84 61 49 62 50 63 64 65 85 66 52 67
REMARK SMILES IDX 36 68 37 69 45 70 38 71 44 72 46 73 43 74 39 75 40 76 41 77
REMARK SMILES IDX 42 78 68 79 69 80 77 81 70 82 76 83 78 84 75 85 71 86 72 87
REMARK SMILES IDX 73 88 74 89 53 90 54 91 62 92 55 93 61 94 63 95 60 96 56 97
REMARK SMILES IDX 57 98 58 99 59 100
REMARK H PARENT 20 6 7 25 24 34 83 53 51 64
REMARK Flexibility Score: inf
ROOT
ATOM      1  C   UNL A   1      30.937  31.939  25.843  1.00  0.00     0.042 C 
ENDROOT
BRANCH   1   2
ATOM      2  C   UNL A   1      31.031  30.545  25.247  1.00  0.00     0.118 C 
BRANCH   2   3
ATOM      3  N   UNL A   1      30.163  30.402  24.088  1.00  0.00    -0.352 N 
ATOM      4  C   UNL A   1      29.949  29.486  23.120  1.00  0.00     0.251 C 
ATOM      5  O   UNL A   1      29.095  29.795  22.282  1.00  0.00    -0.270 OA
ATOM      6  H   UNL A   1      29.573  31.183  23.982  1.00  0.00     0.163 HD
BRANCH   4   7
ATOM      7  C   UNL A   1      30.638  28.173  23.018  1.00  0.00     0.067 C 
ATOM      8  C   UNL A   1      31.927  23.318  23.457  1.00  0.00     0.029 A 
ATOM      9  C   UNL A   1      32.249  24.347  22.549  1.00  0.00     0.058 A 
ATOM     10  C   UNL A   1      31.061  23.629  24.521  1.00  0.00     0.050 A 
ATOM     11  C   UNL A   1      31.664  25.603  22.664  1.00  0.00     0.128 A 
ATOM     12  C   UNL A   1      30.414  24.870  24.580  1.00  0.00     0.033 A 
ATOM     13  Cl  UNL A   1      30.802  22.570  25.863  1.00  0.00    -0.084 Cl
ATOM     14  C   UNL A   1      30.704  25.854  23.641  1.00  0.00     0.019 A 
ATOM     15  O   UNL A   1      32.063  26.570  21.781  1.00  0.00    -0.475 OA
ATOM     16  C   UNL A   1      30.042  27.151  23.662  1.00  0.00     0.025 C 
ATOM     17  C   UNL A   1      31.937  27.929  22.301  1.00  0.00     0.314 C 
BRANCH   8  18
ATOM     18  C   UNL A   1      32.516  21.941  23.211  1.00  0.00     0.301 C 
BRANCH  18  19
ATOM     19  N   UNL A   1      33.766  21.620  23.921  1.00  0.00    -0.327 N 
ATOM     20  C   UNL A   1      33.761  19.248  24.665  1.00  0.00     0.075 C 
ATOM     21  C   UNL A   1      33.658  20.711  25.074  1.00  0.00     0.181 C 
ATOM     22  C   UNL A   1      34.798  21.124  26.000  1.00  0.00     0.071 C 
ATOM     23  C   UNL A   1      34.871  22.620  25.782  1.00  0.00     0.071 C 
ATOM     24  C   UNL A   1      34.589  22.776  24.294  1.00  0.00     0.181 C 
ATOM     25  H   UNL A   1      34.246  21.104  23.184  1.00  0.00     0.348 HD
ATOM     26  C   UNL A   1      35.868  22.756  23.457  1.00  0.00     0.075 C 
ENDBRANCH  18  19
ENDBRANCH   8  18
BRANCH  17  27
ATOM     27  C   UNL A   1      33.160  28.281  23.177  1.00  0.00     0.429 C 
ATOM     28  F   UNL A   1      32.904  28.025  24.483  1.00  0.00    -0.167 F 
ATOM     29  F   UNL A   1      34.258  27.556  22.849  1.00  0.00    -0.167 F 
ATOM     30  F   UNL A   1      33.522  29.581  23.086  1.00  0.00    -0.167 F 
ENDBRANCH  17  27
ENDBRANCH   4   7
ENDBRANCH   2   3
ENDBRANCH   1   2
BRANCH   1  31
ATOM     31  C   UNL A   1      32.004  32.185  26.901  1.00  0.00     0.118 C 
BRANCH  31  32
ATOM     32  N   UNL A   1      32.090  33.594  27.275  1.00  0.00    -0.352 N 
ATOM     33  C   UNL A   1      32.979  34.236  28.108  1.00  0.00     0.251 C 
ATOM     34  H   UNL A   1      31.407  34.175  26.869  1.00  0.00     0.163 HD
ATOM     35  O   UNL A   1      32.741  35.371  28.495  1.00  0.00    -0.269 OA
BRANCH  33  36
ATOM     36  C   UNL A   1      34.201  33.528  28.544  1.00  0.00     0.039 A 
ATOM     37  C   UNL A   1      34.096  32.298  29.189  1.00  0.00     0.014 A 
ATOM     38  C   UNL A   1      35.454  34.111  28.338  1.00  0.00     0.014 A 
ATOM     39  C   UNL A   1      35.206  31.763  29.824  1.00  0.00     0.010 A 
ATOM     40  C   UNL A   1      36.592  33.501  28.872  1.00  0.00     0.010 A 
ATOM     41  C   UNL A   1      36.469  32.355  29.672  1.00  0.00    -0.014 A 
BRANCH  41  42
ATOM     42  C   UNL A   1      37.638  31.736  30.351  1.00  0.00     0.031 A 
ATOM     43  C   UNL A   1      37.951  32.042  31.789  1.00  0.00     0.074 A 
ATOM     44  C   UNL A   1      38.382  30.842  29.670  1.00  0.00     0.049 A 
ATOM     45  N   UNL A   1      38.909  31.562  32.539  1.00  0.00    -0.248 NA
ATOM     46  C   UNL A   1      37.088  33.015  32.476  1.00  0.00     0.031 C 
ATOM     47  C   UNL A   1      38.163  30.473  28.271  1.00  0.00     0.029 A 
ATOM     48  N   UNL A   1      39.442  30.061  30.058  1.00  0.00    -0.354 N 
ATOM     49  C   UNL A   1      38.789  32.198  33.769  1.00  0.00     0.074 A 
ATOM     50  C   UNL A   1      37.678  33.118  33.659  1.00  0.00     0.031 C 
ATOM     51  C   UNL A   1      39.008  29.491  27.939  1.00  0.00     0.029 A 
ATOM     52  C   UNL A   1      39.896  29.224  29.066  1.00  0.00     0.049 A 
ATOM     53  H   UNL A   1      39.838  30.098  30.958  1.00  0.00     0.167 HD
ATOM     54  C   UNL A   1      39.534  32.022  34.886  1.00  0.00     0.034 A 
ATOM     55  C   UNL A   1      40.923  28.351  29.050  1.00  0.00     0.034 A 
ATOM     56  C   UNL A   1      40.613  31.072  34.983  1.00  0.00     0.049 A 
ATOM     57  C   UNL A   1      41.737  28.174  30.300  1.00  0.00     0.074 A 
ATOM     58  C   UNL A   1      41.390  30.777  36.089  1.00  0.00     0.029 A 
ATOM     59  N   UNL A   1      41.069  30.267  33.948  1.00  0.00    -0.354 N 
ATOM     60  N   UNL A   1      41.580  28.749  31.469  1.00  0.00    -0.248 NA
ATOM     61  C   UNL A   1      42.868  27.239  30.239  1.00  0.00     0.031 C 
ATOM     62  C   UNL A   1      42.357  29.846  35.706  1.00  0.00     0.029 A 
ATOM     63  C   UNL A   1      42.140  29.502  34.380  1.00  0.00     0.049 A 
ATOM     64  H   UNL A   1      40.688  30.244  33.040  1.00  0.00     0.167 HD
ATOM     65  C   UNL A   1      42.588  28.245  32.285  1.00  0.00     0.074 A 
ATOM     66  C   UNL A   1      43.330  27.292  31.483  1.00  0.00     0.031 C 
ATOM     67  C   UNL A   1      42.875  28.553  33.574  1.00  0.00     0.034 A 
BRANCH  54  68
ATOM     68  C   UNL A   1      39.229  32.862  36.103  1.00  0.00     0.023 A 
ATOM     69  C   UNL A   1      39.817  34.133  36.239  1.00  0.00     0.031 A 
ATOM     70  C   UNL A   1      38.461  32.368  37.173  1.00  0.00     0.131 A 
ATOM     71  C   UNL A   1      39.651  34.856  37.426  1.00  0.00     0.055 A 
ATOM     72  C   UNL A   1      38.267  33.110  38.340  1.00  0.00     0.041 A 
ATOM     73  F   UNL A   1      37.879  31.160  37.095  1.00  0.00    -0.206 F 
ATOM     74  C   UNL A   1      38.873  34.355  38.474  1.00  0.00     0.022 A 
BRANCH  71  75
ATOM     75  S   UNL A   1      40.490  36.444  37.684  1.00  0.00     0.124 S 
ATOM     76  O   UNL A   1      40.721  36.885  36.310  1.00  0.00    -0.237 OA
ATOM     77  O   UNL A   1      39.485  37.205  38.420  1.00  0.00    -0.237 OA
ATOM     78  O   UNL A   1      41.690  36.090  38.434  1.00  0.00    -0.744 OA
ENDBRANCH  71  75
ENDBRANCH  54  68
BRANCH  55  79
ATOM     79  C   UNL A   1      41.180  27.577  27.800  1.00  0.00     0.023 A 
ATOM     80  C   UNL A   1      40.864  26.206  27.732  1.00  0.00     0.031 A 
ATOM     81  C   UNL A   1      41.898  28.144  26.735  1.00  0.00     0.131 A 
ATOM     82  C   UNL A   1      41.360  25.429  26.678  1.00  0.00     0.055 A 
ATOM     83  C   UNL A   1      42.317  27.381  25.643  1.00  0.00     0.041 A 
ATOM     84  F   UNL A   1      42.232  29.443  26.761  1.00  0.00    -0.206 F 
ATOM     85  C   UNL A   1      42.071  26.011  25.624  1.00  0.00     0.022 A 
BRANCH  82  86
ATOM     86  S   UNL A   1      41.256  23.618  26.736  1.00  0.00     0.124 S 
ATOM     87  O   UNL A   1      41.711  23.329  28.093  1.00  0.00    -0.237 OA
ATOM     88  O   UNL A   1      39.835  23.395  26.485  1.00  0.00    -0.237 OA
ATOM     89  O   UNL A   1      42.149  23.187  25.667  1.00  0.00    -0.744 OA
ENDBRANCH  82  86
ENDBRANCH  55  79
BRANCH  67  90
ATOM     90  C   UNL A   1      44.052  27.875  34.231  1.00  0.00     0.023 A 
ATOM     91  C   UNL A   1      43.842  26.786  35.098  1.00  0.00     0.031 A 
ATOM     92  C   UNL A   1      45.348  28.409  34.131  1.00  0.00     0.131 A 
ATOM     93  C   UNL A   1      44.902  26.298  35.871  1.00  0.00     0.055 A 
ATOM     94  C   UNL A   1      46.412  27.887  34.868  1.00  0.00     0.041 A 
ATOM     95  F   UNL A   1      45.595  29.453  33.324  1.00  0.00    -0.206 F 
ATOM     96  C   UNL A   1      46.188  26.838  35.755  1.00  0.00     0.022 A 
BRANCH  93  97
ATOM     97  S   UNL A   1      44.633  25.015  37.124  1.00  0.00     0.124 S 
ATOM     98  O   UNL A   1      45.314  23.867  36.532  1.00  0.00    -0.237 OA
ATOM     99  O   UNL A   1      45.283  25.590  38.299  1.00  0.00    -0.237 OA
ATOM    100  O   UNL A   1      43.180  24.901  37.205  1.00  0.00    -0.744 OA
ENDBRANCH  93  97
ENDBRANCH  67  90
ENDBRANCH  41  42
ENDBRANCH  33  36
ENDBRANCH  31  32
ENDBRANCH   1  31
TORSDOF 16
ENDMDL
MODEL 3
REMARK VINA RESULT:     -13.1      5.579      9.559
REMARK SMILES C[C@@H]1CC[C@H](C)[N@H+]1Cc1cc2c(cc1Cl)C=C(C(=O)NCCCNC(=O)c1ccc(-c3c4nc(c(-c5cc(S(=O)(=O)[O-])ccc5F)c5ccc([nH]5)c(-c5cc(S(=O)(=O)[O-])ccc5F)c5nc(c(-c6cc(S(=O)(=O)[O-])ccc6F)c6ccc3[nH]6)C=C5)C=C4)cc1)[C@@H](C(F)(F)F)O2
REMARK SMILES IDX 22 1 21 2 20 3 18 4 19 5 17 7 9 8 10 9 14 10 11 11 13 12
REMARK SMILES IDX 15 13 12 14 95 15 16 16 90 17 8 18 7 19 6 20 5 21 4 22 3 23
REMARK SMILES IDX 2 24 1 26 91 27 92 28 93 29 94 30 23 31 24 32 25 33 26 35
REMARK SMILES IDX 27 36 28 37 89 38 29 39 88 40 30 41 31 42 32 43 82 44 33 45
REMARK SMILES IDX 87 46 81 47 83 48 34 49 86 50 80 51 79 52 35 54 67 55 47 56
REMARK SMILES IDX 66 57 48 58 51 59 65 60 84 61 49 62 50 63 64 65 85 66 52 67
REMARK SMILES IDX 36 68 37 69 45 70 38 71 44 72 46 73 43 74 39 75 40 76 41 77
REMARK SMILES IDX 42 78 68 79 69 80 77 81 70 82 76 83 78 84 75 85 71 86 72 87
REMARK SMILES IDX 73 88 74 89 53 90 54 91 62 92 55 93 61 94 63 95 60 96 56 97
REMARK SMILES IDX 57 98 58 99 59 100
REMARK H PARENT 20 6 7 25 24 34 83 53 51 64
REMARK Flexibility Score: inf
ROOT
ATOM      1  C   UNL A   1      37.965  19.841  24.759  1.00  0.00     0.042 C 
ENDROOT
BRANCH   1   2
ATOM      2  C   UNL A   1      36.610  20.444  25.087  1.00  0.00     0.118 C 
BRANCH   2   3
ATOM      3  N   UNL A   1      35.539  19.475  24.909  1.00  0.00    -0.352 N 
ATOM      4  C   UNL A   1      34.190  19.493  24.838  1.00  0.00     0.251 C 
ATOM      5  O   UNL A   1      33.656  18.388  24.699  1.00  0.00    -0.270 OA
ATOM      6  H   UNL A   1      35.892  18.562  24.815  1.00  0.00     0.163 HD
BRANCH   4   7
ATOM      7  C   UNL A   1      33.348  20.716  24.894  1.00  0.00     0.067 C 
ATOM      8  C   UNL A   1      30.791  24.909  23.751  1.00  0.00     0.029 A 
ATOM      9  C   UNL A   1      30.731  23.972  24.802  1.00  0.00     0.058 A 
ATOM     10  C   UNL A   1      31.762  24.714  22.753  1.00  0.00     0.050 A 
ATOM     11  C   UNL A   1      31.556  22.852  24.802  1.00  0.00     0.128 A 
ATOM     12  C   UNL A   1      32.529  23.542  22.717  1.00  0.00     0.033 A 
ATOM     13  Cl  UNL A   1      32.147  25.914  21.569  1.00  0.00    -0.084 Cl
ATOM     14  C   UNL A   1      32.415  22.602  23.735  1.00  0.00     0.019 A 
ATOM     15  O   UNL A   1      31.483  22.012  25.880  1.00  0.00    -0.475 OA
ATOM     16  C   UNL A   1      33.186  21.367  23.726  1.00  0.00     0.025 C 
ATOM     17  C   UNL A   1      32.719  21.279  26.140  1.00  0.00     0.314 C 
BRANCH   8  18
ATOM     18  C   UNL A   1      29.788  26.049  23.756  1.00  0.00     0.301 C 
BRANCH  18  19
ATOM     19  N   UNL A   1      30.276  27.355  24.233  1.00  0.00    -0.327 N 
ATOM     20  C   UNL A   1      29.035  29.204  23.126  1.00  0.00     0.075 C 
ATOM     21  C   UNL A   1      30.347  28.438  23.238  1.00  0.00     0.181 C 
ATOM     22  C   UNL A   1      31.486  29.331  23.720  1.00  0.00     0.071 C 
ATOM     23  C   UNL A   1      32.448  28.333  24.330  1.00  0.00     0.071 C 
ATOM     24  C   UNL A   1      31.529  27.316  24.994  1.00  0.00     0.181 C 
ATOM     25  H   UNL A   1      29.515  27.592  24.870  1.00  0.00     0.348 HD
ATOM     26  C   UNL A   1      31.229  27.671  26.451  1.00  0.00     0.075 C 
ENDBRANCH  18  19
ENDBRANCH   8  18
BRANCH  17  27
ATOM     27  C   UNL A   1      33.704  22.158  26.942  1.00  0.00     0.429 C 
ATOM     28  F   UNL A   1      33.039  23.118  27.630  1.00  0.00    -0.167 F 
ATOM     29  F   UNL A   1      34.407  21.446  27.856  1.00  0.00    -0.167 F 
ATOM     30  F   UNL A   1      34.617  22.781  26.162  1.00  0.00    -0.167 F 
ENDBRANCH  17  27
ENDBRANCH   4   7
ENDBRANCH   2   3
ENDBRANCH   1   2
BRANCH   1  31
ATOM     31  C   UNL A   1      39.037  20.263  25.755  1.00  0.00     0.118 C 
BRANCH  31  32
ATOM     32  N   UNL A   1      40.035  19.217  25.962  1.00  0.00    -0.352 N 
ATOM     33  C   UNL A   1      41.397  19.314  26.140  1.00  0.00     0.251 C 
ATOM     34  H   UNL A   1      39.678  18.299  25.976  1.00  0.00     0.163 HD
ATOM     35  O   UNL A   1      42.097  18.316  26.047  1.00  0.00    -0.269 OA
BRANCH  33  36
ATOM     36  C   UNL A   1      41.996  20.637  26.415  1.00  0.00     0.039 A 
ATOM     37  C   UNL A   1      42.288  21.005  27.727  1.00  0.00     0.014 A 
ATOM     38  C   UNL A   1      42.234  21.525  25.364  1.00  0.00     0.014 A 
ATOM     39  C   UNL A   1      42.601  22.325  28.011  1.00  0.00     0.010 A 
ATOM     40  C   UNL A   1      42.673  22.822  25.645  1.00  0.00     0.010 A 
ATOM     41  C   UNL A   1      42.801  23.251  26.975  1.00  0.00    -0.014 A 
BRANCH  41  42
ATOM     42  C   UNL A   1      43.157  24.651  27.323  1.00  0.00     0.031 A 
ATOM     43  C   UNL A   1      44.506  25.218  26.974  1.00  0.00     0.074 A 
ATOM     44  C   UNL A   1      42.224  25.430  27.905  1.00  0.00     0.049 A 
ATOM     45  N   UNL A   1      44.962  26.427  27.174  1.00  0.00    -0.248 NA
ATOM     46  C   UNL A   1      45.470  24.316  26.325  1.00  0.00     0.031 C 
ATOM     47  C   UNL A   1      40.885  24.978  28.285  1.00  0.00     0.029 A 
ATOM     48  N   UNL A   1      42.238  26.758  28.250  1.00  0.00    -0.354 N 
ATOM     49  C   UNL A   1      46.274  26.423  26.713  1.00  0.00     0.074 A 
ATOM     50  C   UNL A   1      46.549  25.083  26.242  1.00  0.00     0.031 C 
ATOM     51  C   UNL A   1      40.183  26.021  28.741  1.00  0.00     0.029 A 
ATOM     52  C   UNL A   1      41.047  27.198  28.780  1.00  0.00     0.049 A 
ATOM     53  H   UNL A   1      43.023  27.339  28.130  1.00  0.00     0.167 HD
ATOM     54  C   UNL A   1      47.159  27.447  26.678  1.00  0.00     0.034 A 
ATOM     55  C   UNL A   1      40.688  28.404  29.264  1.00  0.00     0.034 A 
ATOM     56  C   UNL A   1      46.849  28.783  27.119  1.00  0.00     0.049 A 
ATOM     57  C   UNL A   1      41.688  29.525  29.219  1.00  0.00     0.074 A 
ATOM     58  C   UNL A   1      47.659  29.904  27.070  1.00  0.00     0.029 A 
ATOM     59  N   UNL A   1      45.646  29.184  27.684  1.00  0.00    -0.354 N 
ATOM     60  N   UNL A   1      42.909  29.515  28.735  1.00  0.00    -0.248 NA
ATOM     61  C   UNL A   1      41.276  30.816  29.782  1.00  0.00     0.031 C 
ATOM     62  C   UNL A   1      46.973  30.964  27.667  1.00  0.00     0.029 A 
ATOM     63  C   UNL A   1      45.705  30.526  28.021  1.00  0.00     0.049 A 
ATOM     64  H   UNL A   1      44.866  28.600  27.824  1.00  0.00     0.167 HD
ATOM     65  C   UNL A   1      43.410  30.797  28.933  1.00  0.00     0.074 A 
ATOM     66  C   UNL A   1      42.348  31.566  29.551  1.00  0.00     0.031 C 
ATOM     67  C   UNL A   1      44.641  31.286  28.637  1.00  0.00     0.034 A 
BRANCH  54  68
ATOM     68  C   UNL A   1      48.551  27.187  26.155  1.00  0.00     0.023 A 
ATOM     69  C   UNL A   1      48.860  27.486  24.815  1.00  0.00     0.031 A 
ATOM     70  C   UNL A   1      49.528  26.540  26.934  1.00  0.00     0.131 A 
ATOM     71  C   UNL A   1      50.103  27.116  24.286  1.00  0.00     0.055 A 
ATOM     72  C   UNL A   1      50.780  26.209  26.412  1.00  0.00     0.041 A 
ATOM     73  F   UNL A   1      49.283  26.232  28.218  1.00  0.00    -0.206 F 
ATOM     74  C   UNL A   1      51.067  26.486  25.079  1.00  0.00     0.022 A 
BRANCH  71  75
ATOM     75  S   UNL A   1      50.493  27.378  22.534  1.00  0.00     0.124 S 
ATOM     76  O   UNL A   1      51.787  26.710  22.415  1.00  0.00    -0.237 OA
ATOM     77  O   UNL A   1      49.382  26.704  21.869  1.00  0.00    -0.237 OA
ATOM     78  O   UNL A   1      50.526  28.829  22.394  1.00  0.00    -0.744 OA
ENDBRANCH  71  75
ENDBRANCH  54  68
BRANCH  55  79
ATOM     79  C   UNL A   1      39.302  28.576  29.791  1.00  0.00     0.023 A 
ATOM     80  C   UNL A   1      38.287  29.100  28.968  1.00  0.00     0.031 A 
ATOM     81  C   UNL A   1      39.021  28.391  31.154  1.00  0.00     0.131 A 
ATOM     82  C   UNL A   1      37.079  29.522  29.536  1.00  0.00     0.055 A 
ATOM     83  C   UNL A   1      37.782  28.734  31.700  1.00  0.00     0.041 A 
ATOM     84  F   UNL A   1      39.961  27.906  31.979  1.00  0.00    -0.206 F 
ATOM     85  C   UNL A   1      36.813  29.327  30.895  1.00  0.00     0.022 A 
BRANCH  82  86
ATOM     86  S   UNL A   1      35.893  30.498  28.569  1.00  0.00     0.124 S 
ATOM     87  O   UNL A   1      36.765  31.191  27.626  1.00  0.00    -0.237 OA
ATOM     88  O   UNL A   1      35.046  29.454  27.998  1.00  0.00    -0.237 OA
ATOM     89  O   UNL A   1      35.247  31.343  29.568  1.00  0.00    -0.744 OA
ENDBRANCH  82  86
ENDBRANCH  55  79
BRANCH  67  90
ATOM     90  C   UNL A   1      44.945  32.723  28.980  1.00  0.00     0.023 A 
ATOM     91  C   UNL A   1      44.836  33.720  27.992  1.00  0.00     0.031 A 
ATOM     92  C   UNL A   1      45.499  33.073  30.223  1.00  0.00     0.131 A 
ATOM     93  C   UNL A   1      45.322  35.008  28.247  1.00  0.00     0.055 A 
ATOM     94  C   UNL A   1      45.938  34.371  30.488  1.00  0.00     0.041 A 
ATOM     95  F   UNL A   1      45.632  32.155  31.193  1.00  0.00    -0.206 F 
ATOM     96  C   UNL A   1      45.866  35.341  29.492  1.00  0.00     0.022 A 
BRANCH  93  97
ATOM     97  S   UNL A   1      45.358  36.268  26.943  1.00  0.00     0.124 S 
ATOM     98  O   UNL A   1      45.833  35.501  25.794  1.00  0.00    -0.237 OA
ATOM     99  O   UNL A   1      43.961  36.687  26.880  1.00  0.00    -0.237 OA
ATOM    100  O   UNL A   1      46.291  37.271  27.448  1.00  0.00    -0.744 OA
ENDBRANCH  93  97
ENDBRANCH  67  90
ENDBRANCH  41  42
ENDBRANCH  33  36
ENDBRANCH  31  32
ENDBRANCH   1  31
TORSDOF 16
ENDMDL
