MODEL 1
REMARK VINA RESULT:     -11.6      0.000      0.000
REMARK SMILES O=C(NCCCNC(=O)[C@H](Cc1ccccn1)[C@H]1CCS(=O)(=O)C1)c1ccc(-c2c3nc(c(-c4cc(S(=O)(=O)[O-])ccc4F)c4ccc([nH]4)c(-c4cc(S(=O)(=O)[O-])ccc4F)c4nc(c(-c5cc(S(=O)(=O)[O-])ccc5F)c5ccc2[nH]5)C=C4)C=C3)cc1
REMARK SMILES IDX 4 1 3 2 1 3 2 4 25 6 26 7 87 8 27 9 86 10 28 11 29 12 30 13
REMARK SMILES IDX 80 14 31 15 85 16 79 17 81 18 32 19 84 20 78 21 77 22 33 24
REMARK SMILES IDX 65 25 45 26 64 27 46 28 49 29 63 30 82 31 47 32 48 33 62 35
REMARK SMILES IDX 83 36 50 37 34 38 35 39 43 40 36 41 42 42 44 43 41 44 37 45
REMARK SMILES IDX 38 46 39 47 40 48 66 49 67 50 75 51 68 52 74 53 76 54 73 55
REMARK SMILES IDX 69 56 70 57 71 58 72 59 51 60 52 61 60 62 53 63 59 64 61 65
REMARK SMILES IDX 58 66 54 67 55 68 56 69 57 70 5 71 6 72 7 73 8 74 9 76 10 77
REMARK SMILES IDX 11 78 12 79 13 80 17 81 14 82 16 83 15 84 18 85 19 86 24 87
REMARK SMILES IDX 20 88 21 89 22 90 23 91
REMARK H PARENT 3 5 81 23 49 34 7 75
REMARK Flexibility Score: inf
ROOT
ATOM      1  C   UNL A   1      33.523  29.270  24.705  1.00  0.00     0.118 C 
ENDROOT
BRANCH   1   2
ATOM      2  N   UNL A   1      32.715  30.301  25.337  1.00  0.00    -0.352 N 
ATOM      3  O   UNL A   1      31.970  31.628  26.996  1.00  0.00    -0.269 OA
ATOM      4  C   UNL A   1      32.867  30.908  26.563  1.00  0.00     0.251 C 
ATOM      5  H   UNL A   1      31.946  30.613  24.808  1.00  0.00     0.163 HD
BRANCH   4   6
ATOM      6  C   UNL A   1      34.094  30.681  27.362  1.00  0.00     0.039 A 
ATOM      7  C   UNL A   1      34.411  29.405  27.826  1.00  0.00     0.014 A 
ATOM      8  C   UNL A   1      34.951  31.751  27.638  1.00  0.00     0.014 A 
ATOM      9  C   UNL A   1      35.465  29.231  28.710  1.00  0.00     0.010 A 
ATOM     10  C   UNL A   1      36.098  31.543  28.415  1.00  0.00     0.010 A 
ATOM     11  C   UNL A   1      36.354  30.284  28.977  1.00  0.00    -0.014 A 
BRANCH  11  12
ATOM     12  C   UNL A   1      37.590  29.985  29.750  1.00  0.00     0.031 A 
ATOM     13  C   UNL A   1      37.781  30.473  31.159  1.00  0.00     0.074 A 
ATOM     14  C   UNL A   1      38.527  29.208  29.164  1.00  0.00     0.049 A 
ATOM     15  N   UNL A   1      38.790  30.266  31.967  1.00  0.00    -0.248 NA
ATOM     16  C   UNL A   1      36.713  31.303  31.733  1.00  0.00     0.031 C 
ATOM     17  C   UNL A   1      38.448  28.684  27.795  1.00  0.00     0.029 A 
ATOM     18  N   UNL A   1      39.706  28.694  29.641  1.00  0.00    -0.354 N 
ATOM     19  C   UNL A   1      38.487  30.943  33.143  1.00  0.00     0.074 A 
ATOM     20  C   UNL A   1      37.213  31.600  32.927  1.00  0.00     0.031 C 
ATOM     21  C   UNL A   1      39.488  27.872  27.571  1.00  0.00     0.029 A 
ATOM     22  C   UNL A   1      40.363  27.894  28.734  1.00  0.00     0.049 A 
ATOM     23  H   UNL A   1      40.048  28.880  30.545  1.00  0.00     0.167 HD
ATOM     24  C   UNL A   1      39.202  31.001  34.294  1.00  0.00     0.034 A 
ATOM     25  C   UNL A   1      41.554  27.273  28.810  1.00  0.00     0.034 A 
ATOM     26  C   UNL A   1      40.475  30.344  34.486  1.00  0.00     0.049 A 
ATOM     27  C   UNL A   1      42.350  27.409  30.079  1.00  0.00     0.074 A 
ATOM     28  C   UNL A   1      41.274  30.328  35.616  1.00  0.00     0.029 A 
ATOM     29  N   UNL A   1      41.140  29.591  33.525  1.00  0.00    -0.354 N 
ATOM     30  N   UNL A   1      42.036  28.042  31.186  1.00  0.00    -0.248 NA
ATOM     31  C   UNL A   1      43.657  26.744  30.112  1.00  0.00     0.031 C 
ATOM     32  C   UNL A   1      42.451  29.634  35.316  1.00  0.00     0.029 A 
ATOM     33  C   UNL A   1      42.352  29.138  34.027  1.00  0.00     0.049 A 
ATOM     34  H   UNL A   1      40.800  29.407  32.619  1.00  0.00     0.167 HD
ATOM     35  C   UNL A   1      43.103  27.833  32.053  1.00  0.00     0.074 A 
ATOM     36  C   UNL A   1      44.044  26.983  31.354  1.00  0.00     0.031 C 
ATOM     37  C   UNL A   1      43.291  28.306  33.312  1.00  0.00     0.034 A 
BRANCH  24  38
ATOM     38  C   UNL A   1      38.647  31.833  35.428  1.00  0.00     0.023 A 
ATOM     39  C   UNL A   1      38.157  31.246  36.606  1.00  0.00     0.031 A 
ATOM     40  C   UNL A   1      38.626  33.237  35.335  1.00  0.00     0.131 A 
ATOM     41  C   UNL A   1      37.625  32.054  37.624  1.00  0.00     0.055 A 
ATOM     42  C   UNL A   1      38.163  34.039  36.380  1.00  0.00     0.041 A 
ATOM     43  F   UNL A   1      39.062  33.856  34.226  1.00  0.00    -0.206 F 
ATOM     44  C   UNL A   1      37.649  33.448  37.530  1.00  0.00     0.022 A 
BRANCH  41  45
ATOM     45  S   UNL A   1      36.795  31.253  39.024  1.00  0.00     0.124 S 
ATOM     46  O   UNL A   1      37.764  31.456  40.098  1.00  0.00    -0.237 OA
ATOM     47  O   UNL A   1      35.555  32.012  39.132  1.00  0.00    -0.237 OA
ATOM     48  O   UNL A   1      36.643  29.867  38.584  1.00  0.00    -0.744 OA
ENDBRANCH  41  45
ENDBRANCH  24  38
BRANCH  25  49
ATOM     49  C   UNL A   1      42.094  26.519  27.640  1.00  0.00     0.023 A 
ATOM     50  C   UNL A   1      41.986  25.122  27.564  1.00  0.00     0.031 A 
ATOM     51  C   UNL A   1      42.787  27.181  26.610  1.00  0.00     0.131 A 
ATOM     52  C   UNL A   1      42.615  24.430  26.519  1.00  0.00     0.055 A 
ATOM     53  C   UNL A   1      43.345  26.494  25.533  1.00  0.00     0.041 A 
ATOM     54  F   UNL A   1      42.925  28.517  26.630  1.00  0.00    -0.206 F 
ATOM     55  C   UNL A   1      43.279  25.106  25.494  1.00  0.00     0.022 A 
BRANCH  52  56
ATOM     56  S   UNL A   1      42.670  22.618  26.594  1.00  0.00     0.124 S 
ATOM     57  O   UNL A   1      44.105  22.368  26.650  1.00  0.00    -0.237 OA
ATOM     58  O   UNL A   1      41.923  22.344  27.817  1.00  0.00    -0.237 OA
ATOM     59  O   UNL A   1      42.010  22.208  25.357  1.00  0.00    -0.744 OA
ENDBRANCH  52  56
ENDBRANCH  25  49
BRANCH  37  60
ATOM     60  C   UNL A   1      44.556  27.872  34.013  1.00  0.00     0.023 A 
ATOM     61  C   UNL A   1      44.617  26.676  34.751  1.00  0.00     0.031 A 
ATOM     62  C   UNL A   1      45.700  28.689  33.984  1.00  0.00     0.131 A 
ATOM     63  C   UNL A   1      45.767  26.371  35.494  1.00  0.00     0.055 A 
ATOM     64  C   UNL A   1      46.868  28.342  34.664  1.00  0.00     0.041 A 
ATOM     65  F   UNL A   1      45.699  29.845  33.301  1.00  0.00    -0.206 F 
ATOM     66  C   UNL A   1      46.899  27.186  35.440  1.00  0.00     0.022 A 
BRANCH  63  67
ATOM     67  S   UNL A   1      45.713  24.963  36.635  1.00  0.00     0.124 S 
ATOM     68  O   UNL A   1      44.498  25.237  37.396  1.00  0.00    -0.237 OA
ATOM     69  O   UNL A   1      45.652  23.825  35.725  1.00  0.00    -0.237 OA
ATOM     70  O   UNL A   1      46.959  25.086  37.390  1.00  0.00    -0.744 OA
ENDBRANCH  63  67
ENDBRANCH  37  60
ENDBRANCH  11  12
ENDBRANCH   4   6
ENDBRANCH   1   2
BRANCH   1  71
ATOM     71  C   UNL A   1      32.955  28.814  23.374  1.00  0.00     0.042 C 
BRANCH  71  72
ATOM     72  C   UNL A   1      33.998  28.263  22.412  1.00  0.00     0.117 C 
BRANCH  72  73
ATOM     73  N   UNL A   1      33.529  27.118  21.658  1.00  0.00    -0.356 N 
ATOM     74  C   UNL A   1      33.371  25.797  21.847  1.00  0.00     0.223 C 
ATOM     75  H   UNL A   1      33.250  27.382  20.752  1.00  0.00     0.163 HD
ATOM     76  O   UNL A   1      32.932  25.214  20.841  1.00  0.00    -0.275 OA
BRANCH  74  77
ATOM     77  C   UNL A   1      33.598  24.959  23.118  1.00  0.00     0.088 C 
BRANCH  77  78
ATOM     78  C   UNL A   1      33.816  23.489  22.650  1.00  0.00     0.070 C 
BRANCH  78  79
ATOM     79  C   UNL A   1      34.754  22.654  23.497  1.00  0.00     0.041 A 
ATOM     80  C   UNL A   1      36.124  22.903  23.433  1.00  0.00     0.024 A 
ATOM     81  N   UNL A   1      34.234  21.732  24.339  1.00  0.00    -0.261 NA
ATOM     82  C   UNL A   1      36.982  22.194  24.271  1.00  0.00     0.003 A 
ATOM     83  C   UNL A   1      35.085  21.070  25.153  1.00  0.00     0.111 A 
ATOM     84  C   UNL A   1      36.455  21.265  25.155  1.00  0.00     0.020 A 
ENDBRANCH  78  79
ENDBRANCH  77  78
BRANCH  77  85
ATOM     85  C   UNL A   1      32.750  25.023  24.412  1.00  0.00     0.018 C 
ATOM     86  C   UNL A   1      33.503  25.613  25.609  1.00  0.00     0.021 C 
ATOM     87  C   UNL A   1      31.363  25.643  24.269  1.00  0.00     0.141 C 
ATOM     88  C   UNL A   1      32.545  26.267  26.596  1.00  0.00     0.137 C 
ATOM     89  S   UNL A   1      30.940  26.362  25.837  1.00  0.00     0.150 S 
ATOM     90  O   UNL A   1      30.039  25.452  26.516  1.00  0.00    -0.229 OA
ATOM     91  O   UNL A   1      30.602  27.752  25.608  1.00  0.00    -0.229 OA
ENDBRANCH  77  85
ENDBRANCH  74  77
ENDBRANCH  72  73
ENDBRANCH  71  72
ENDBRANCH   1  71
TORSDOF 16
ENDMDL
MODEL 2
REMARK VINA RESULT:     -11.6      2.753      3.966
REMARK SMILES O=C(NCCCNC(=O)[C@H](Cc1ccccn1)[C@H]1CCS(=O)(=O)C1)c1ccc(-c2c3nc(c(-c4cc(S(=O)(=O)[O-])ccc4F)c4ccc([nH]4)c(-c4cc(S(=O)(=O)[O-])ccc4F)c4nc(c(-c5cc(S(=O)(=O)[O-])ccc5F)c5ccc2[nH]5)C=C4)C=C3)cc1
REMARK SMILES IDX 4 1 3 2 1 3 2 4 25 6 26 7 87 8 27 9 86 10 28 11 29 12 30 13
REMARK SMILES IDX 80 14 31 15 85 16 79 17 81 18 32 19 84 20 78 21 77 22 33 24
REMARK SMILES IDX 65 25 45 26 64 27 46 28 49 29 63 30 82 31 47 32 48 33 62 35
REMARK SMILES IDX 83 36 50 37 34 38 35 39 43 40 36 41 42 42 44 43 41 44 37 45
REMARK SMILES IDX 38 46 39 47 40 48 66 49 67 50 75 51 68 52 74 53 76 54 73 55
REMARK SMILES IDX 69 56 70 57 71 58 72 59 51 60 52 61 60 62 53 63 59 64 61 65
REMARK SMILES IDX 58 66 54 67 55 68 56 69 57 70 5 71 6 72 7 73 8 74 9 76 10 77
REMARK SMILES IDX 11 78 12 79 13 80 17 81 14 82 16 83 15 84 18 85 19 86 24 87
REMARK SMILES IDX 20 88 21 89 22 90 23 91
REMARK H PARENT 3 5 81 23 49 34 7 75
REMARK Flexibility Score: inf
ROOT
ATOM      1  C   UNL A   1      32.966  32.577  27.029  1.00  0.00     0.118 C 
ENDROOT
BRANCH   1   2
ATOM      2  N   UNL A   1      32.649  33.877  27.599  1.00  0.00    -0.352 N 
ATOM      3  O   UNL A   1      32.653  35.530  29.127  1.00  0.00    -0.269 OA
ATOM      4  C   UNL A   1      33.186  34.510  28.697  1.00  0.00     0.251 C 
ATOM      5  H   UNL A   1      31.944  34.380  27.129  1.00  0.00     0.163 HD
BRANCH   4   6
ATOM      6  C   UNL A   1      34.388  33.958  29.364  1.00  0.00     0.039 A 
ATOM      7  C   UNL A   1      34.262  33.016  30.384  1.00  0.00     0.014 A 
ATOM      8  C   UNL A   1      35.661  34.368  28.954  1.00  0.00     0.014 A 
ATOM      9  C   UNL A   1      35.377  32.630  31.114  1.00  0.00     0.010 A 
ATOM     10  C   UNL A   1      36.798  33.866  29.601  1.00  0.00     0.010 A 
ATOM     11  C   UNL A   1      36.664  33.008  30.703  1.00  0.00    -0.014 A 
BRANCH  11  12
ATOM     12  C   UNL A   1      37.833  32.387  31.383  1.00  0.00     0.031 A 
ATOM     13  C   UNL A   1      38.281  32.828  32.749  1.00  0.00     0.074 A 
ATOM     14  C   UNL A   1      38.456  31.365  30.758  1.00  0.00     0.049 A 
ATOM     15  N   UNL A   1      39.261  32.360  33.480  1.00  0.00    -0.248 NA
ATOM     16  C   UNL A   1      37.546  33.937  33.372  1.00  0.00     0.031 C 
ATOM     17  C   UNL A   1      38.108  30.859  29.425  1.00  0.00     0.029 A 
ATOM     18  N   UNL A   1      39.482  30.548  31.158  1.00  0.00    -0.354 N 
ATOM     19  C   UNL A   1      39.269  33.118  34.645  1.00  0.00     0.074 A 
ATOM     20  C   UNL A   1      38.215  34.104  34.506  1.00  0.00     0.031 C 
ATOM     21  C   UNL A   1      38.854  29.781  29.152  1.00  0.00     0.029 A 
ATOM     22  C   UNL A   1      39.803  29.577  30.237  1.00  0.00     0.049 A 
ATOM     23  H   UNL A   1      39.945  30.647  32.021  1.00  0.00     0.167 HD
ATOM     24  C   UNL A   1      40.074  32.994  35.730  1.00  0.00     0.034 A 
ATOM     25  C   UNL A   1      40.775  28.646  30.241  1.00  0.00     0.034 A 
ATOM     26  C   UNL A   1      41.124  32.007  35.845  1.00  0.00     0.049 A 
ATOM     27  C   UNL A   1      41.690  28.576  31.434  1.00  0.00     0.074 A 
ATOM     28  C   UNL A   1      41.987  31.788  36.905  1.00  0.00     0.029 A 
ATOM     29  N   UNL A   1      41.461  31.078  34.867  1.00  0.00    -0.354 N 
ATOM     30  N   UNL A   1      41.669  29.294  32.533  1.00  0.00    -0.248 NA
ATOM     31  C   UNL A   1      42.755  27.569  31.388  1.00  0.00     0.031 C 
ATOM     32  C   UNL A   1      42.890  30.783  36.540  1.00  0.00     0.029 A 
ATOM     33  C   UNL A   1      42.538  30.310  35.287  1.00  0.00     0.049 A 
ATOM     34  H   UNL A   1      41.001  30.980  34.001  1.00  0.00     0.167 HD
ATOM     35  C   UNL A   1      42.709  28.809  33.318  1.00  0.00     0.074 A 
ATOM     36  C   UNL A   1      43.307  27.714  32.582  1.00  0.00     0.031 C 
ATOM     37  C   UNL A   1      43.137  29.233  34.535  1.00  0.00     0.034 A 
BRANCH  24  38
ATOM     38  C   UNL A   1      39.881  33.970  36.867  1.00  0.00     0.023 A 
ATOM     39  C   UNL A   1      39.338  33.573  38.100  1.00  0.00     0.031 A 
ATOM     40  C   UNL A   1      40.265  35.316  36.721  1.00  0.00     0.131 A 
ATOM     41  C   UNL A   1      39.150  34.519  39.121  1.00  0.00     0.055 A 
ATOM     42  C   UNL A   1      40.143  36.236  37.765  1.00  0.00     0.041 A 
ATOM     43  F   UNL A   1      40.771  35.761  35.559  1.00  0.00    -0.206 F 
ATOM     44  C   UNL A   1      39.574  35.841  38.971  1.00  0.00     0.022 A 
BRANCH  41  45
ATOM     45  S   UNL A   1      38.238  34.020  40.608  1.00  0.00     0.124 S 
ATOM     46  O   UNL A   1      37.893  35.314  41.192  1.00  0.00    -0.237 OA
ATOM     47  O   UNL A   1      37.128  33.254  40.055  1.00  0.00    -0.237 OA
ATOM     48  O   UNL A   1      39.217  33.243  41.366  1.00  0.00    -0.744 OA
ENDBRANCH  41  45
ENDBRANCH  24  38
BRANCH  25  49
ATOM     49  C   UNL A   1      40.972  27.747  29.066  1.00  0.00     0.023 A 
ATOM     50  C   UNL A   1      41.991  27.985  28.133  1.00  0.00     0.031 A 
ATOM     51  C   UNL A   1      40.097  26.671  28.824  1.00  0.00     0.131 A 
ATOM     52  C   UNL A   1      42.071  27.202  26.972  1.00  0.00     0.055 A 
ATOM     53  C   UNL A   1      40.229  25.848  27.707  1.00  0.00     0.041 A 
ATOM     54  F   UNL A   1      39.101  26.397  29.682  1.00  0.00    -0.206 F 
ATOM     55  C   UNL A   1      41.208  26.124  26.761  1.00  0.00     0.022 A 
BRANCH  52  56
ATOM     56  S   UNL A   1      43.235  27.698  25.673  1.00  0.00     0.124 S 
ATOM     57  O   UNL A   1      42.330  28.092  24.599  1.00  0.00    -0.237 OA
ATOM     58  O   UNL A   1      43.967  28.780  26.323  1.00  0.00    -0.237 OA
ATOM     59  O   UNL A   1      44.008  26.484  25.428  1.00  0.00    -0.744 OA
ENDBRANCH  52  56
ENDBRANCH  25  49
BRANCH  37  60
ATOM     60  C   UNL A   1      44.289  28.473  35.147  1.00  0.00     0.023 A 
ATOM     61  C   UNL A   1      44.079  27.459  36.099  1.00  0.00     0.031 A 
ATOM     62  C   UNL A   1      45.615  28.800  34.812  1.00  0.00     0.131 A 
ATOM     63  C   UNL A   1      45.176  26.866  36.741  1.00  0.00     0.055 A 
ATOM     64  C   UNL A   1      46.702  28.152  35.398  1.00  0.00     0.041 A 
ATOM     65  F   UNL A   1      45.876  29.764  33.914  1.00  0.00    -0.206 F 
ATOM     66  C   UNL A   1      46.486  27.192  36.383  1.00  0.00     0.022 A 
BRANCH  63  67
ATOM     67  S   UNL A   1      44.865  25.758  38.143  1.00  0.00     0.124 S 
ATOM     68  O   UNL A   1      43.767  26.435  38.825  1.00  0.00    -0.237 OA
ATOM     69  O   UNL A   1      44.527  24.503  37.480  1.00  0.00    -0.237 OA
ATOM     70  O   UNL A   1      46.136  25.753  38.865  1.00  0.00    -0.744 OA
ENDBRANCH  63  67
ENDBRANCH  37  60
ENDBRANCH  11  12
ENDBRANCH   4   6
ENDBRANCH   1   2
BRANCH   1  71
ATOM     71  C   UNL A   1      31.757  31.664  26.943  1.00  0.00     0.042 C 
BRANCH  71  72
ATOM     72  C   UNL A   1      32.100  30.182  26.942  1.00  0.00     0.117 C 
BRANCH  72  73
ATOM     73  N   UNL A   1      32.700  29.736  25.701  1.00  0.00    -0.356 N 
ATOM     74  C   UNL A   1      32.294  29.245  24.517  1.00  0.00     0.223 C 
ATOM     75  H   UNL A   1      33.681  29.813  25.734  1.00  0.00     0.163 HD
ATOM     76  O   UNL A   1      33.239  28.986  23.752  1.00  0.00    -0.275 OA
BRANCH  74  77
ATOM     77  C   UNL A   1      30.865  29.029  23.989  1.00  0.00     0.088 C 
BRANCH  77  78
ATOM     78  C   UNL A   1      30.831  27.601  23.367  1.00  0.00     0.070 C 
BRANCH  78  79
ATOM     79  C   UNL A   1      31.013  26.450  24.335  1.00  0.00     0.041 A 
ATOM     80  C   UNL A   1      30.011  26.188  25.269  1.00  0.00     0.024 A 
ATOM     81  N   UNL A   1      32.112  25.669  24.228  1.00  0.00    -0.261 NA
ATOM     82  C   UNL A   1      30.136  25.082  26.106  1.00  0.00     0.003 A 
ATOM     83  C   UNL A   1      32.201  24.593  25.040  1.00  0.00     0.111 A 
ATOM     84  C   UNL A   1      31.248  24.261  25.986  1.00  0.00     0.020 A 
ENDBRANCH  78  79
ENDBRANCH  77  78
BRANCH  77  85
ATOM     85  C   UNL A   1      30.047  30.036  23.144  1.00  0.00     0.018 C 
ATOM     86  C   UNL A   1      29.056  29.368  22.184  1.00  0.00     0.021 C 
ATOM     87  C   UNL A   1      29.388  31.174  23.918  1.00  0.00     0.141 C 
ATOM     88  C   UNL A   1      27.869  30.277  21.895  1.00  0.00     0.137 C 
ATOM     89  S   UNL A   1      27.934  31.654  23.018  1.00  0.00     0.150 S 
ATOM     90  O   UNL A   1      28.247  32.858  22.275  1.00  0.00    -0.229 OA
ATOM     91  O   UNL A   1      26.808  31.582  23.928  1.00  0.00    -0.229 OA
ENDBRANCH  77  85
ENDBRANCH  74  77
ENDBRANCH  72  73
ENDBRANCH  71  72
ENDBRANCH   1  71
TORSDOF 16
ENDMDL
MODEL 3
REMARK VINA RESULT:     -11.5      1.218      2.090
REMARK SMILES O=C(NCCCNC(=O)[C@H](Cc1ccccn1)[C@H]1CCS(=O)(=O)C1)c1ccc(-c2c3nc(c(-c4cc(S(=O)(=O)[O-])ccc4F)c4ccc([nH]4)c(-c4cc(S(=O)(=O)[O-])ccc4F)c4nc(c(-c5cc(S(=O)(=O)[O-])ccc5F)c5ccc2[nH]5)C=C4)C=C3)cc1
REMARK SMILES IDX 4 1 3 2 1 3 2 4 25 6 26 7 87 8 27 9 86 10 28 11 29 12 30 13
REMARK SMILES IDX 80 14 31 15 85 16 79 17 81 18 32 19 84 20 78 21 77 22 33 24
REMARK SMILES IDX 65 25 45 26 64 27 46 28 49 29 63 30 82 31 47 32 48 33 62 35
REMARK SMILES IDX 83 36 50 37 34 38 35 39 43 40 36 41 42 42 44 43 41 44 37 45
REMARK SMILES IDX 38 46 39 47 40 48 66 49 67 50 75 51 68 52 74 53 76 54 73 55
REMARK SMILES IDX 69 56 70 57 71 58 72 59 51 60 52 61 60 62 53 63 59 64 61 65
REMARK SMILES IDX 58 66 54 67 55 68 56 69 57 70 5 71 6 72 7 73 8 74 9 76 10 77
REMARK SMILES IDX 11 78 12 79 13 80 17 81 14 82 16 83 15 84 18 85 19 86 24 87
REMARK SMILES IDX 20 88 21 89 22 90 23 91
REMARK H PARENT 3 5 81 23 49 34 7 75
REMARK Flexibility Score: inf
ROOT
ATOM      1  C   UNL A   1      33.248  29.238  25.312  1.00  0.00     0.118 C 
ENDROOT
BRANCH   1   2
ATOM      2  N   UNL A   1      32.663  30.491  25.763  1.00  0.00    -0.352 N 
ATOM      3  O   UNL A   1      32.256  32.206  27.163  1.00  0.00    -0.269 OA
ATOM      4  C   UNL A   1      32.993  31.276  26.844  1.00  0.00     0.251 C 
ATOM      5  H   UNL A   1      31.919  30.827  25.213  1.00  0.00     0.163 HD
BRANCH   4   6
ATOM      6  C   UNL A   1      34.219  30.993  27.626  1.00  0.00     0.039 A 
ATOM      7  C   UNL A   1      34.473  29.708  28.103  1.00  0.00     0.014 A 
ATOM      8  C   UNL A   1      35.139  32.016  27.872  1.00  0.00     0.014 A 
ATOM      9  C   UNL A   1      35.532  29.487  28.973  1.00  0.00     0.010 A 
ATOM     10  C   UNL A   1      36.286  31.757  28.634  1.00  0.00     0.010 A 
ATOM     11  C   UNL A   1      36.482  30.493  29.210  1.00  0.00    -0.014 A 
BRANCH  11  12
ATOM     12  C   UNL A   1      37.712  30.137  29.966  1.00  0.00     0.031 A 
ATOM     13  C   UNL A   1      37.910  30.550  31.398  1.00  0.00     0.074 A 
ATOM     14  C   UNL A   1      38.637  29.375  29.343  1.00  0.00     0.049 A 
ATOM     15  N   UNL A   1      38.914  30.288  32.195  1.00  0.00    -0.248 NA
ATOM     16  C   UNL A   1      36.855  31.368  32.013  1.00  0.00     0.031 C 
ATOM     17  C   UNL A   1      38.551  28.921  27.950  1.00  0.00     0.029 A 
ATOM     18  N   UNL A   1      39.807  28.819  29.793  1.00  0.00    -0.354 N 
ATOM     19  C   UNL A   1      38.621  30.910  33.403  1.00  0.00     0.074 A 
ATOM     20  C   UNL A   1      37.358  31.597  33.220  1.00  0.00     0.031 C 
ATOM     21  C   UNL A   1      39.578  28.105  27.685  1.00  0.00     0.029 A 
ATOM     22  C   UNL A   1      40.452  28.055  28.848  1.00  0.00     0.049 A 
ATOM     23  H   UNL A   1      40.152  28.954  30.705  1.00  0.00     0.167 HD
ATOM     24  C   UNL A   1      39.336  30.900  34.556  1.00  0.00     0.034 A 
ATOM     25  C   UNL A   1      41.634  27.413  28.892  1.00  0.00     0.034 A 
ATOM     26  C   UNL A   1      40.599  30.214  34.715  1.00  0.00     0.049 A 
ATOM     27  C   UNL A   1      42.431  27.472  30.167  1.00  0.00     0.074 A 
ATOM     28  C   UNL A   1      41.397  30.129  35.843  1.00  0.00     0.029 A 
ATOM     29  N   UNL A   1      41.253  29.499  33.718  1.00  0.00    -0.354 N 
ATOM     30  N   UNL A   1      42.126  28.055  31.304  1.00  0.00    -0.248 NA
ATOM     31  C   UNL A   1      43.727  26.786  30.166  1.00  0.00     0.031 C 
ATOM     32  C   UNL A   1      42.563  29.432  35.509  1.00  0.00     0.029 A 
ATOM     33  C   UNL A   1      42.457  29.003  34.197  1.00  0.00     0.049 A 
ATOM     34  H   UNL A   1      40.911  29.366  32.804  1.00  0.00     0.167 HD
ATOM     35  C   UNL A   1      43.189  27.786  32.160  1.00  0.00     0.074 A 
ATOM     36  C   UNL A   1      44.117  26.958  31.419  1.00  0.00     0.031 C 
ATOM     37  C   UNL A   1      43.384  28.192  33.441  1.00  0.00     0.034 A 
BRANCH  24  38
ATOM     38  C   UNL A   1      38.794  31.683  35.729  1.00  0.00     0.023 A 
ATOM     39  C   UNL A   1      38.163  31.050  36.814  1.00  0.00     0.031 A 
ATOM     40  C   UNL A   1      38.927  33.083  35.772  1.00  0.00     0.131 A 
ATOM     41  C   UNL A   1      37.649  31.818  37.871  1.00  0.00     0.055 A 
ATOM     42  C   UNL A   1      38.479  33.834  36.861  1.00  0.00     0.041 A 
ATOM     43  F   UNL A   1      39.502  33.747  34.756  1.00  0.00    -0.206 F 
ATOM     44  C   UNL A   1      37.826  33.202  37.915  1.00  0.00     0.022 A 
BRANCH  41  45
ATOM     45  S   UNL A   1      36.644  30.991  39.135  1.00  0.00     0.124 S 
ATOM     46  O   UNL A   1      36.351  29.713  38.490  1.00  0.00    -0.237 OA
ATOM     47  O   UNL A   1      37.552  30.936  40.275  1.00  0.00    -0.237 OA
ATOM     48  O   UNL A   1      35.494  31.880  39.294  1.00  0.00    -0.744 OA
ENDBRANCH  41  45
ENDBRANCH  24  38
BRANCH  25  49
ATOM     49  C   UNL A   1      42.163  26.709  27.687  1.00  0.00     0.023 A 
ATOM     50  C   UNL A   1      42.003  25.325  27.526  1.00  0.00     0.031 A 
ATOM     51  C   UNL A   1      42.896  27.404  26.707  1.00  0.00     0.131 A 
ATOM     52  C   UNL A   1      42.622  24.672  26.449  1.00  0.00     0.055 A 
ATOM     53  C   UNL A   1      43.444  26.762  25.598  1.00  0.00     0.041 A 
ATOM     54  F   UNL A   1      43.083  28.731  26.809  1.00  0.00    -0.206 F 
ATOM     55  C   UNL A   1      43.326  25.382  25.475  1.00  0.00     0.022 A 
BRANCH  52  56
ATOM     56  S   UNL A   1      42.607  22.858  26.416  1.00  0.00     0.124 S 
ATOM     57  O   UNL A   1      41.371  22.559  27.129  1.00  0.00    -0.237 OA
ATOM     58  O   UNL A   1      42.603  22.584  24.983  1.00  0.00    -0.237 OA
ATOM     59  O   UNL A   1      43.837  22.496  27.115  1.00  0.00    -0.744 OA
ENDBRANCH  52  56
ENDBRANCH  25  49
BRANCH  37  60
ATOM     60  C   UNL A   1      44.641  27.705  34.119  1.00  0.00     0.023 A 
ATOM     61  C   UNL A   1      44.670  26.495  34.837  1.00  0.00     0.031 A 
ATOM     62  C   UNL A   1      45.812  28.483  34.089  1.00  0.00     0.131 A 
ATOM     63  C   UNL A   1      45.817  26.140  35.561  1.00  0.00     0.055 A 
ATOM     64  C   UNL A   1      46.975  28.084  34.748  1.00  0.00     0.041 A 
ATOM     65  F   UNL A   1      45.842  29.649  33.425  1.00  0.00    -0.206 F 
ATOM     66  C   UNL A   1      46.976  26.916  35.506  1.00  0.00     0.022 A 
BRANCH  63  67
ATOM     67  S   UNL A   1      45.728  24.715  36.681  1.00  0.00     0.124 S 
ATOM     68  O   UNL A   1      44.759  23.859  36.004  1.00  0.00    -0.237 OA
ATOM     69  O   UNL A   1      47.106  24.237  36.687  1.00  0.00    -0.237 OA
ATOM     70  O   UNL A   1      45.269  25.298  37.941  1.00  0.00    -0.744 OA
ENDBRANCH  63  67
ENDBRANCH  37  60
ENDBRANCH  11  12
ENDBRANCH   4   6
ENDBRANCH   1   2
BRANCH   1  71
ATOM     71  C   UNL A   1      32.273  28.078  25.375  1.00  0.00     0.042 C 
BRANCH  71  72
ATOM     72  C   UNL A   1      32.643  27.012  26.394  1.00  0.00     0.117 C 
BRANCH  72  73
ATOM     73  N   UNL A   1      31.570  26.074  26.656  1.00  0.00    -0.356 N 
ATOM     74  C   UNL A   1      31.117  24.912  26.155  1.00  0.00     0.223 C 
ATOM     75  H   UNL A   1      31.015  26.374  27.412  1.00  0.00     0.163 HD
ATOM     76  O   UNL A   1      30.104  24.495  26.741  1.00  0.00    -0.275 OA
BRANCH  74  77
ATOM     77  C   UNL A   1      31.706  24.037  25.035  1.00  0.00     0.088 C 
BRANCH  77  78
ATOM     78  C   UNL A   1      33.034  23.439  25.588  1.00  0.00     0.070 C 
BRANCH  78  79
ATOM     79  C   UNL A   1      33.311  21.992  25.233  1.00  0.00     0.041 A 
ATOM     80  C   UNL A   1      34.629  21.537  25.228  1.00  0.00     0.024 A 
ATOM     81  N   UNL A   1      32.269  21.164  24.992  1.00  0.00    -0.261 NA
ATOM     82  C   UNL A   1      34.881  20.190  24.983  1.00  0.00     0.003 A 
ATOM     83  C   UNL A   1      32.538  19.858  24.774  1.00  0.00     0.111 A 
ATOM     84  C   UNL A   1      33.816  19.328  24.760  1.00  0.00     0.020 A 
ENDBRANCH  78  79
ENDBRANCH  77  78
BRANCH  77  85
ATOM     85  C   UNL A   1      31.841  24.437  23.545  1.00  0.00     0.018 C 
ATOM     86  C   UNL A   1      30.803  25.470  23.091  1.00  0.00     0.021 C 
ATOM     87  C   UNL A   1      33.245  24.821  23.084  1.00  0.00     0.141 C 
ATOM     88  C   UNL A   1      31.328  26.308  21.933  1.00  0.00     0.137 C 
ATOM     89  S   UNL A   1      33.064  25.972  21.743  1.00  0.00     0.150 S 
ATOM     90  O   UNL A   1      33.273  25.249  20.504  1.00  0.00    -0.229 OA
ATOM     91  O   UNL A   1      33.820  27.161  22.077  1.00  0.00    -0.229 OA
ENDBRANCH  77  85
ENDBRANCH  74  77
ENDBRANCH  72  73
ENDBRANCH  71  72
ENDBRANCH   1  71
TORSDOF 16
ENDMDL
