MODEL 1
REMARK VINA RESULT:     -10.6      0.000      0.000
REMARK SMILES C[C@H](C(=O)NCCCNC(=O)c1ccc(-c2c3nc(c(-c4cc(S(=O)(=O)[O-])ccc4F)c4ccc([nH]4)c(-c4cc(S(=O)(=O)[O-])ccc4F)c4nc(c(-c5cc(S(=O)(=O)[O-])ccc5F)c5ccc2[nH]5)C=C4)C=C3)cc1)N1CCc2ccccc21
REMARK SMILES IDX 8 1 7 2 6 3 5 4 3 5 4 6 2 8 1 9 75 10 76 11 83 12 77 13
REMARK SMILES IDX 78 14 82 15 79 16 81 17 80 18 9 19 10 20 11 22 12 23 13 24
REMARK SMILES IDX 74 25 14 26 73 27 15 28 16 29 17 30 67 31 18 32 72 33 66 34
REMARK SMILES IDX 68 35 19 36 71 37 65 38 64 39 20 41 52 42 32 43 51 44 33 45
REMARK SMILES IDX 36 46 50 47 69 48 34 49 35 50 49 52 70 53 37 54 21 55 22 56
REMARK SMILES IDX 30 57 23 58 29 59 31 60 28 61 24 62 25 63 26 64 27 65 53 66
REMARK SMILES IDX 54 67 62 68 55 69 61 70 63 71 60 72 56 73 57 74 58 75 59 76
REMARK SMILES IDX 38 77 39 78 47 79 40 80 46 81 48 82 45 83 41 84 42 85 43 86
REMARK SMILES IDX 44 87
REMARK H PARENT 5 7 9 21 68 40 36 51
REMARK Flexibility Score: inf
ROOT
ATOM      1  C   UNL A   1      34.608  33.253  28.911  1.00  0.00     0.118 C 
ENDROOT
BRANCH   1   2
ATOM      2  C   UNL A   1      34.629  34.674  28.350  1.00  0.00     0.042 C 
BRANCH   2   3
ATOM      3  C   UNL A   1      33.846  35.702  29.154  1.00  0.00     0.117 C 
BRANCH   3   4
ATOM      4  N   UNL A   1      33.039  35.114  30.202  1.00  0.00    -0.354 N 
ATOM      5  C   UNL A   1      33.163  35.216  31.557  1.00  0.00     0.242 C 
ATOM      6  O   UNL A   1      32.125  35.015  32.199  1.00  0.00    -0.273 OA
ATOM      7  H   UNL A   1      32.289  34.557  29.890  1.00  0.00     0.163 HD
BRANCH   5   8
ATOM      8  C   UNL A   1      34.540  35.536  32.227  1.00  0.00     0.168 C 
ATOM      9  C   UNL A   1      34.371  36.695  33.207  1.00  0.00     0.042 C 
BRANCH   8  10
ATOM     10  N   UNL A   1      35.157  34.318  32.858  1.00  0.00    -0.359 N 
ATOM     11  C   UNL A   1      35.035  34.245  34.341  1.00  0.00     0.122 C 
ATOM     12  C   UNL A   1      36.538  34.135  32.611  1.00  0.00     0.041 A 
ATOM     13  C   UNL A   1      36.390  33.830  34.932  1.00  0.00     0.059 C 
ATOM     14  C   UNL A   1      37.288  34.120  33.785  1.00  0.00    -0.023 A 
ATOM     15  C   UNL A   1      37.176  34.139  31.384  1.00  0.00     0.026 A 
ATOM     16  C   UNL A   1      38.644  34.390  33.770  1.00  0.00     0.006 A 
ATOM     17  C   UNL A   1      38.544  34.401  31.344  1.00  0.00     0.002 A 
ATOM     18  C   UNL A   1      39.260  34.590  32.532  1.00  0.00     0.000 A 
ENDBRANCH   8  10
ENDBRANCH   5   8
ENDBRANCH   3   4
ENDBRANCH   2   3
ENDBRANCH   1   2
BRANCH   1  19
ATOM     19  N   UNL A   1      33.894  32.307  28.066  1.00  0.00    -0.352 N 
ATOM     20  C   UNL A   1      34.250  31.057  27.617  1.00  0.00     0.251 C 
ATOM     21  H   UNL A   1      33.008  32.613  27.766  1.00  0.00     0.163 HD
ATOM     22  O   UNL A   1      33.536  30.502  26.782  1.00  0.00    -0.269 OA
BRANCH  20  23
ATOM     23  C   UNL A   1      35.486  30.391  28.089  1.00  0.00     0.039 A 
ATOM     24  C   UNL A   1      36.608  30.388  27.253  1.00  0.00     0.014 A 
ATOM     25  C   UNL A   1      35.550  29.749  29.329  1.00  0.00     0.014 A 
ATOM     26  C   UNL A   1      37.809  29.823  27.695  1.00  0.00     0.010 A 
ATOM     27  C   UNL A   1      36.768  29.259  29.799  1.00  0.00     0.010 A 
ATOM     28  C   UNL A   1      37.916  29.298  28.992  1.00  0.00    -0.014 A 
BRANCH  28  29
ATOM     29  C   UNL A   1      39.219  28.806  29.524  1.00  0.00     0.031 A 
ATOM     30  C   UNL A   1      39.898  29.519  30.664  1.00  0.00     0.074 A 
ATOM     31  C   UNL A   1      39.819  27.746  28.944  1.00  0.00     0.049 A 
ATOM     32  N   UNL A   1      41.068  29.288  31.204  1.00  0.00    -0.248 NA
ATOM     33  C   UNL A   1      39.176  30.655  31.255  1.00  0.00     0.031 C 
ATOM     34  C   UNL A   1      39.279  26.981  27.818  1.00  0.00     0.029 A 
ATOM     35  N   UNL A   1      41.016  27.130  29.215  1.00  0.00    -0.354 N 
ATOM     36  C   UNL A   1      41.227  30.252  32.195  1.00  0.00     0.074 A 
ATOM     37  C   UNL A   1      40.059  31.106  32.134  1.00  0.00     0.031 C 
ATOM     38  C   UNL A   1      40.123  25.982  27.518  1.00  0.00     0.029 A 
ATOM     39  C   UNL A   1      41.292  26.063  28.388  1.00  0.00     0.049 A 
ATOM     40  H   UNL A   1      41.622  27.423  29.933  1.00  0.00     0.167 HD
ATOM     41  C   UNL A   1      42.239  30.398  33.086  1.00  0.00     0.034 A 
ATOM     42  C   UNL A   1      42.367  25.252  28.325  1.00  0.00     0.034 A 
ATOM     43  C   UNL A   1      43.397  29.537  33.141  1.00  0.00     0.049 A 
ATOM     44  C   UNL A   1      43.504  25.469  29.292  1.00  0.00     0.074 A 
ATOM     45  C   UNL A   1      44.459  29.577  34.027  1.00  0.00     0.029 A 
ATOM     46  N   UNL A   1      43.651  28.484  32.271  1.00  0.00    -0.354 N 
ATOM     47  N   UNL A   1      43.625  26.370  30.239  1.00  0.00    -0.248 NA
ATOM     48  C   UNL A   1      44.648  24.554  29.183  1.00  0.00     0.031 C 
ATOM     49  C   UNL A   1      45.387  28.601  33.649  1.00  0.00     0.029 A 
ATOM     50  C   UNL A   1      44.866  27.891  32.580  1.00  0.00     0.049 A 
ATOM     51  H   UNL A   1      43.054  28.199  31.541  1.00  0.00     0.167 HD
ATOM     52  C   UNL A   1      44.841  26.104  30.862  1.00  0.00     0.074 A 
ATOM     53  C   UNL A   1      45.409  24.952  30.192  1.00  0.00     0.031 C 
ATOM     54  C   UNL A   1      45.431  26.748  31.901  1.00  0.00     0.034 A 
BRANCH  41  55
ATOM     55  C   UNL A   1      42.148  31.549  34.062  1.00  0.00     0.023 A 
ATOM     56  C   UNL A   1      41.322  31.489  35.199  1.00  0.00     0.031 A 
ATOM     57  C   UNL A   1      42.884  32.728  33.848  1.00  0.00     0.131 A 
ATOM     58  C   UNL A   1      41.198  32.607  36.035  1.00  0.00     0.055 A 
ATOM     59  C   UNL A   1      42.821  33.807  34.731  1.00  0.00     0.041 A 
ATOM     60  F   UNL A   1      43.674  32.854  32.770  1.00  0.00    -0.206 F 
ATOM     61  C   UNL A   1      41.963  33.757  35.826  1.00  0.00     0.022 A 
BRANCH  58  62
ATOM     62  S   UNL A   1      39.915  32.590  37.318  1.00  0.00     0.124 S 
ATOM     63  O   UNL A   1      40.709  32.366  38.524  1.00  0.00    -0.237 OA
ATOM     64  O   UNL A   1      39.317  33.914  37.184  1.00  0.00    -0.237 OA
ATOM     65  O   UNL A   1      39.056  31.474  36.929  1.00  0.00    -0.744 OA
ENDBRANCH  58  62
ENDBRANCH  41  55
BRANCH  42  66
ATOM     66  C   UNL A   1      42.434  24.161  27.309  1.00  0.00     0.023 A 
ATOM     67  C   UNL A   1      41.807  22.925  27.537  1.00  0.00     0.031 A 
ATOM     68  C   UNL A   1      43.165  24.318  26.119  1.00  0.00     0.131 A 
ATOM     69  C   UNL A   1      41.963  21.880  26.614  1.00  0.00     0.055 A 
ATOM     70  C   UNL A   1      43.270  23.294  25.175  1.00  0.00     0.041 A 
ATOM     71  F   UNL A   1      43.784  25.479  25.848  1.00  0.00    -0.206 F 
ATOM     72  C   UNL A   1      42.678  22.061  25.428  1.00  0.00     0.022 A 
BRANCH  69  73
ATOM     73  S   UNL A   1      41.293  20.247  27.031  1.00  0.00     0.124 S 
ATOM     74  O   UNL A   1      42.457  19.391  26.841  1.00  0.00    -0.237 OA
ATOM     75  O   UNL A   1      40.856  20.442  28.409  1.00  0.00    -0.237 OA
ATOM     76  O   UNL A   1      40.217  20.064  26.059  1.00  0.00    -0.744 OA
ENDBRANCH  69  73
ENDBRANCH  42  66
BRANCH  54  77
ATOM     77  C   UNL A   1      46.739  26.187  32.408  1.00  0.00     0.023 A 
ATOM     78  C   UNL A   1      47.972  26.534  31.830  1.00  0.00     0.031 A 
ATOM     79  C   UNL A   1      46.747  25.281  33.485  1.00  0.00     0.131 A 
ATOM     80  C   UNL A   1      49.155  25.936  32.290  1.00  0.00     0.055 A 
ATOM     81  C   UNL A   1      47.933  24.740  33.982  1.00  0.00     0.041 A 
ATOM     82  F   UNL A   1      45.599  24.910  34.075  1.00  0.00    -0.206 F 
ATOM     83  C   UNL A   1      49.145  25.055  33.375  1.00  0.00     0.022 A 
BRANCH  80  84
ATOM     84  S   UNL A   1      50.698  26.245  31.389  1.00  0.00     0.124 S 
ATOM     85  O   UNL A   1      50.337  25.862  30.028  1.00  0.00    -0.237 OA
ATOM     86  O   UNL A   1      50.910  27.672  31.614  1.00  0.00    -0.237 OA
ATOM     87  O   UNL A   1      51.663  25.365  32.045  1.00  0.00    -0.744 OA
ENDBRANCH  80  84
ENDBRANCH  54  77
ENDBRANCH  28  29
ENDBRANCH  20  23
ENDBRANCH   1  19
TORSDOF 14
ENDMDL
MODEL 2
REMARK VINA RESULT:     -10.6      4.257     10.388
REMARK SMILES C[C@H](C(=O)NCCCNC(=O)c1ccc(-c2c3nc(c(-c4cc(S(=O)(=O)[O-])ccc4F)c4ccc([nH]4)c(-c4cc(S(=O)(=O)[O-])ccc4F)c4nc(c(-c5cc(S(=O)(=O)[O-])ccc5F)c5ccc2[nH]5)C=C4)C=C3)cc1)N1CCc2ccccc21
REMARK SMILES IDX 8 1 7 2 6 3 5 4 3 5 4 6 2 8 1 9 75 10 76 11 83 12 77 13
REMARK SMILES IDX 78 14 82 15 79 16 81 17 80 18 9 19 10 20 11 22 12 23 13 24
REMARK SMILES IDX 74 25 14 26 73 27 15 28 16 29 17 30 67 31 18 32 72 33 66 34
REMARK SMILES IDX 68 35 19 36 71 37 65 38 64 39 20 41 52 42 32 43 51 44 33 45
REMARK SMILES IDX 36 46 50 47 69 48 34 49 35 50 49 52 70 53 37 54 21 55 22 56
REMARK SMILES IDX 30 57 23 58 29 59 31 60 28 61 24 62 25 63 26 64 27 65 53 66
REMARK SMILES IDX 54 67 62 68 55 69 61 70 63 71 60 72 56 73 57 74 58 75 59 76
REMARK SMILES IDX 38 77 39 78 47 79 40 80 46 81 48 82 45 83 41 84 42 85 43 86
REMARK SMILES IDX 44 87
REMARK H PARENT 5 7 9 21 68 40 36 51
REMARK Flexibility Score: inf
ROOT
ATOM      1  C   UNL A   1      32.790  32.298  27.262  1.00  0.00     0.118 C 
ENDROOT
BRANCH   1   2
ATOM      2  C   UNL A   1      31.581  31.613  26.628  1.00  0.00     0.042 C 
BRANCH   2   3
ATOM      3  C   UNL A   1      31.882  30.315  25.891  1.00  0.00     0.117 C 
BRANCH   3   4
ATOM      4  N   UNL A   1      31.122  30.162  24.669  1.00  0.00    -0.354 N 
ATOM      5  C   UNL A   1      30.620  29.032  24.091  1.00  0.00     0.242 C 
ATOM      6  O   UNL A   1      29.657  29.208  23.336  1.00  0.00    -0.273 OA
ATOM      7  H   UNL A   1      30.938  30.999  24.183  1.00  0.00     0.163 HD
BRANCH   5   8
ATOM      8  C   UNL A   1      31.260  27.629  24.357  1.00  0.00     0.168 C 
ATOM      9  C   UNL A   1      30.167  26.563  24.342  1.00  0.00     0.042 C 
BRANCH   8  10
ATOM     10  N   UNL A   1      32.385  27.332  23.404  1.00  0.00    -0.359 N 
ATOM     11  C   UNL A   1      31.962  26.857  22.056  1.00  0.00     0.122 C 
ATOM     12  C   UNL A   1      33.315  26.360  23.841  1.00  0.00     0.041 A 
ATOM     13  C   UNL A   1      32.830  25.656  21.657  1.00  0.00     0.059 C 
ATOM     14  C   UNL A   1      33.383  25.268  22.980  1.00  0.00    -0.023 A 
ATOM     15  C   UNL A   1      33.987  26.330  25.049  1.00  0.00     0.026 A 
ATOM     16  C   UNL A   1      33.868  24.046  23.411  1.00  0.00     0.006 A 
ATOM     17  C   UNL A   1      34.493  25.112  25.501  1.00  0.00     0.002 A 
ATOM     18  C   UNL A   1      34.373  23.963  24.710  1.00  0.00     0.000 A 
ENDBRANCH   8  10
ENDBRANCH   5   8
ENDBRANCH   3   4
ENDBRANCH   2   3
ENDBRANCH   1   2
BRANCH   1  19
ATOM     19  N   UNL A   1      32.559  33.700  27.580  1.00  0.00    -0.352 N 
ATOM     20  C   UNL A   1      33.157  34.520  28.509  1.00  0.00     0.251 C 
ATOM     21  H   UNL A   1      31.859  34.133  27.043  1.00  0.00     0.163 HD
ATOM     22  O   UNL A   1      32.687  35.641  28.698  1.00  0.00    -0.269 OA
BRANCH  20  23
ATOM     23  C   UNL A   1      34.324  34.066  29.301  1.00  0.00     0.039 A 
ATOM     24  C   UNL A   1      34.099  33.274  30.432  1.00  0.00     0.014 A 
ATOM     25  C   UNL A   1      35.630  34.428  28.963  1.00  0.00     0.014 A 
ATOM     26  C   UNL A   1      35.182  32.777  31.165  1.00  0.00     0.010 A 
ATOM     27  C   UNL A   1      36.710  33.868  29.646  1.00  0.00     0.010 A 
ATOM     28  C   UNL A   1      36.499  33.027  30.750  1.00  0.00    -0.014 A 
BRANCH  28  29
ATOM     29  C   UNL A   1      37.662  32.403  31.444  1.00  0.00     0.031 A 
ATOM     30  C   UNL A   1      38.400  31.250  30.817  1.00  0.00     0.074 A 
ATOM     31  C   UNL A   1      38.020  32.841  32.669  1.00  0.00     0.049 A 
ATOM     32  N   UNL A   1      39.378  30.530  31.304  1.00  0.00    -0.248 NA
ATOM     33  C   UNL A   1      37.962  30.839  29.475  1.00  0.00     0.031 C 
ATOM     34  C   UNL A   1      37.374  33.934  33.399  1.00  0.00     0.029 A 
ATOM     35  N   UNL A   1      39.012  32.420  33.521  1.00  0.00    -0.354 N 
ATOM     36  C   UNL A   1      39.670  29.577  30.334  1.00  0.00     0.074 A 
ATOM     37  C   UNL A   1      38.721  29.775  29.259  1.00  0.00     0.031 C 
ATOM     38  C   UNL A   1      38.005  34.118  34.569  1.00  0.00     0.029 A 
ATOM     39  C   UNL A   1      39.064  33.123  34.704  1.00  0.00     0.049 A 
ATOM     40  H   UNL A   1      39.629  31.684  33.306  1.00  0.00     0.167 HD
ATOM     41  C   UNL A   1      40.652  28.640  30.329  1.00  0.00     0.034 A 
ATOM     42  C   UNL A   1      39.862  32.977  35.782  1.00  0.00     0.034 A 
ATOM     43  C   UNL A   1      41.596  28.455  31.406  1.00  0.00     0.049 A 
ATOM     44  C   UNL A   1      40.910  31.893  35.774  1.00  0.00     0.074 A 
ATOM     45  C   UNL A   1      42.650  27.560  31.483  1.00  0.00     0.029 A 
ATOM     46  N   UNL A   1      41.601  29.171  32.596  1.00  0.00    -0.354 N 
ATOM     47  N   UNL A   1      41.188  31.018  34.836  1.00  0.00    -0.248 NA
ATOM     48  C   UNL A   1      41.755  31.782  36.971  1.00  0.00     0.031 C 
ATOM     49  C   UNL A   1      43.241  27.683  32.744  1.00  0.00     0.029 A 
ATOM     50  C   UNL A   1      42.616  28.714  33.425  1.00  0.00     0.049 A 
ATOM     51  H   UNL A   1      40.974  29.897  32.820  1.00  0.00     0.167 HD
ATOM     52  C   UNL A   1      42.266  30.278  35.316  1.00  0.00     0.074 A 
ATOM     53  C   UNL A   1      42.593  30.818  36.619  1.00  0.00     0.031 C 
ATOM     54  C   UNL A   1      42.931  29.251  34.728  1.00  0.00     0.034 A 
BRANCH  41  55
ATOM     55  C   UNL A   1      40.738  27.728  29.128  1.00  0.00     0.023 A 
ATOM     56  C   UNL A   1      41.682  27.938  28.107  1.00  0.00     0.031 A 
ATOM     57  C   UNL A   1      39.856  26.640  28.992  1.00  0.00     0.131 A 
ATOM     58  C   UNL A   1      41.676  27.121  26.966  1.00  0.00     0.055 A 
ATOM     59  C   UNL A   1      39.911  25.779  27.893  1.00  0.00     0.041 A 
ATOM     60  F   UNL A   1      38.919  26.399  29.922  1.00  0.00    -0.206 F 
ATOM     61  C   UNL A   1      40.815  26.026  26.865  1.00  0.00     0.022 A 
BRANCH  58  62
ATOM     62  S   UNL A   1      42.710  27.598  25.555  1.00  0.00     0.124 S 
ATOM     63  O   UNL A   1      43.998  27.841  26.204  1.00  0.00    -0.237 OA
ATOM     64  O   UNL A   1      42.639  26.420  24.699  1.00  0.00    -0.237 OA
ATOM     65  O   UNL A   1      42.049  28.792  25.032  1.00  0.00    -0.744 OA
ENDBRANCH  58  62
ENDBRANCH  41  55
BRANCH  42  66
ATOM     66  C   UNL A   1      39.705  33.871  36.966  1.00  0.00     0.023 A 
ATOM     67  C   UNL A   1      39.096  33.408  38.144  1.00  0.00     0.031 A 
ATOM     68  C   UNL A   1      40.117  35.215  36.924  1.00  0.00     0.131 A 
ATOM     69  C   UNL A   1      38.871  34.291  39.210  1.00  0.00     0.055 A 
ATOM     70  C   UNL A   1      39.944  36.076  38.009  1.00  0.00     0.041 A 
ATOM     71  F   UNL A   1      40.707  35.712  35.824  1.00  0.00    -0.206 F 
ATOM     72  C   UNL A   1      39.304  35.618  39.157  1.00  0.00     0.022 A 
BRANCH  69  73
ATOM     73  S   UNL A   1      37.919  33.703  40.637  1.00  0.00     0.124 S 
ATOM     74  O   UNL A   1      36.943  32.827  40.001  1.00  0.00    -0.237 OA
ATOM     75  O   UNL A   1      38.947  33.047  41.437  1.00  0.00    -0.237 OA
ATOM     76  O   UNL A   1      37.375  34.932  41.212  1.00  0.00    -0.744 OA
ENDBRANCH  69  73
ENDBRANCH  42  66
BRANCH  54  77
ATOM     77  C   UNL A   1      44.113  28.678  35.473  1.00  0.00     0.023 A 
ATOM     78  C   UNL A   1      43.973  27.629  36.398  1.00  0.00     0.031 A 
ATOM     79  C   UNL A   1      45.403  29.199  35.257  1.00  0.00     0.131 A 
ATOM     80  C   UNL A   1      45.090  27.175  37.116  1.00  0.00     0.055 A 
ATOM     81  C   UNL A   1      46.520  28.698  35.925  1.00  0.00     0.041 A 
ATOM     82  F   UNL A   1      45.597  30.204  34.388  1.00  0.00    -0.206 F 
ATOM     83  C   UNL A   1      46.366  27.690  36.872  1.00  0.00     0.022 A 
BRANCH  80  84
ATOM     84  S   UNL A   1      44.840  25.969  38.447  1.00  0.00     0.124 S 
ATOM     85  O   UNL A   1      44.285  24.829  37.725  1.00  0.00    -0.237 OA
ATOM     86  O   UNL A   1      46.192  25.796  38.970  1.00  0.00    -0.237 OA
ATOM     87  O   UNL A   1      43.908  26.642  39.352  1.00  0.00    -0.744 OA
ENDBRANCH  80  84
ENDBRANCH  54  77
ENDBRANCH  28  29
ENDBRANCH  20  23
ENDBRANCH   1  19
TORSDOF 14
ENDMDL
MODEL 3
REMARK VINA RESULT:     -10.6      4.049     10.114
REMARK SMILES C[C@H](C(=O)NCCCNC(=O)c1ccc(-c2c3nc(c(-c4cc(S(=O)(=O)[O-])ccc4F)c4ccc([nH]4)c(-c4cc(S(=O)(=O)[O-])ccc4F)c4nc(c(-c5cc(S(=O)(=O)[O-])ccc5F)c5ccc2[nH]5)C=C4)C=C3)cc1)N1CCc2ccccc21
REMARK SMILES IDX 8 1 7 2 6 3 5 4 3 5 4 6 2 8 1 9 75 10 76 11 83 12 77 13
REMARK SMILES IDX 78 14 82 15 79 16 81 17 80 18 9 19 10 20 11 22 12 23 13 24
REMARK SMILES IDX 74 25 14 26 73 27 15 28 16 29 17 30 67 31 18 32 72 33 66 34
REMARK SMILES IDX 68 35 19 36 71 37 65 38 64 39 20 41 52 42 32 43 51 44 33 45
REMARK SMILES IDX 36 46 50 47 69 48 34 49 35 50 49 52 70 53 37 54 21 55 22 56
REMARK SMILES IDX 30 57 23 58 29 59 31 60 28 61 24 62 25 63 26 64 27 65 53 66
REMARK SMILES IDX 54 67 62 68 55 69 61 70 63 71 60 72 56 73 57 74 58 75 59 76
REMARK SMILES IDX 38 77 39 78 47 79 40 80 46 81 48 82 45 83 41 84 42 85 43 86
REMARK SMILES IDX 44 87
REMARK H PARENT 5 7 9 21 68 40 36 51
REMARK Flexibility Score: inf
ROOT
ATOM      1  C   UNL A   1      32.670  29.115  25.650  1.00  0.00     0.118 C 
ENDROOT
BRANCH   1   2
ATOM      2  C   UNL A   1      31.777  28.044  26.274  1.00  0.00     0.042 C 
BRANCH   2   3
ATOM      3  C   UNL A   1      32.406  26.663  26.392  1.00  0.00     0.117 C 
BRANCH   3   4
ATOM      4  N   UNL A   1      31.431  25.596  26.471  1.00  0.00    -0.354 N 
ATOM      5  C   UNL A   1      31.596  24.290  26.832  1.00  0.00     0.242 C 
ATOM      6  O   UNL A   1      30.578  23.726  27.249  1.00  0.00    -0.273 OA
ATOM      7  H   UNL A   1      30.511  25.851  26.228  1.00  0.00     0.163 HD
BRANCH   5   8
ATOM      8  C   UNL A   1      32.980  23.575  26.688  1.00  0.00     0.168 C 
ATOM      9  C   UNL A   1      33.195  22.643  27.879  1.00  0.00     0.042 C 
BRANCH   8  10
ATOM     10  N   UNL A   1      33.119  22.877  25.362  1.00  0.00    -0.359 N 
ATOM     11  C   UNL A   1      32.561  21.496  25.314  1.00  0.00     0.122 C 
ATOM     12  C   UNL A   1      34.442  22.737  24.882  1.00  0.00     0.041 A 
ATOM     13  C   UNL A   1      33.569  20.577  24.610  1.00  0.00     0.059 C 
ATOM     14  C   UNL A   1      34.800  21.403  24.699  1.00  0.00    -0.023 A 
ATOM     15  C   UNL A   1      35.393  23.732  24.750  1.00  0.00     0.026 A 
ATOM     16  C   UNL A   1      36.128  21.018  24.666  1.00  0.00     0.006 A 
ATOM     17  C   UNL A   1      36.738  23.368  24.705  1.00  0.00     0.002 A 
ATOM     18  C   UNL A   1      37.103  22.016  24.730  1.00  0.00     0.000 A 
ENDBRANCH   8  10
ENDBRANCH   5   8
ENDBRANCH   3   4
ENDBRANCH   2   3
ENDBRANCH   1   2
BRANCH   1  19
ATOM     19  N   UNL A   1      32.340  30.466  26.081  1.00  0.00    -0.352 N 
ATOM     20  C   UNL A   1      32.951  31.291  26.996  1.00  0.00     0.251 C 
ATOM     21  H   UNL A   1      31.548  30.854  25.645  1.00  0.00     0.163 HD
ATOM     22  O   UNL A   1      32.397  32.346  27.305  1.00  0.00    -0.269 OA
BRANCH  20  23
ATOM     23  C   UNL A   1      34.233  30.916  27.637  1.00  0.00     0.039 A 
ATOM     24  C   UNL A   1      35.187  31.914  27.863  1.00  0.00     0.014 A 
ATOM     25  C   UNL A   1      34.519  29.597  27.996  1.00  0.00     0.014 A 
ATOM     26  C   UNL A   1      36.381  31.605  28.524  1.00  0.00     0.010 A 
ATOM     27  C   UNL A   1      35.673  29.305  28.724  1.00  0.00     0.010 A 
ATOM     28  C   UNL A   1      36.614  30.308  29.006  1.00  0.00    -0.014 A 
BRANCH  28  29
ATOM     29  C   UNL A   1      37.822  29.989  29.819  1.00  0.00     0.031 A 
ATOM     30  C   UNL A   1      38.879  29.057  29.287  1.00  0.00     0.074 A 
ATOM     31  C   UNL A   1      37.941  30.495  31.063  1.00  0.00     0.049 A 
ATOM     32  N   UNL A   1      39.953  28.600  29.879  1.00  0.00    -0.248 NA
ATOM     33  C   UNL A   1      38.689  28.557  27.918  1.00  0.00     0.031 C 
ATOM     34  C   UNL A   1      36.977  31.390  31.707  1.00  0.00     0.029 A 
ATOM     35  N   UNL A   1      38.919  30.329  32.014  1.00  0.00    -0.354 N 
ATOM     36  C   UNL A   1      40.564  27.753  28.959  1.00  0.00     0.074 A 
ATOM     37  C   UNL A   1      39.704  27.715  27.795  1.00  0.00     0.031 C 
ATOM     38  C   UNL A   1      37.426  31.719  32.928  1.00  0.00     0.029 A 
ATOM     39  C   UNL A   1      38.680  31.018  33.183  1.00  0.00     0.049 A 
ATOM     40  H   UNL A   1      39.716  29.770  31.873  1.00  0.00     0.167 HD
ATOM     41  C   UNL A   1      41.743  27.089  29.066  1.00  0.00     0.034 A 
ATOM     42  C   UNL A   1      39.381  31.069  34.334  1.00  0.00     0.034 A 
ATOM     43  C   UNL A   1      42.595  27.138  30.231  1.00  0.00     0.049 A 
ATOM     44  C   UNL A   1      40.660  30.278  34.447  1.00  0.00     0.074 A 
ATOM     45  C   UNL A   1      43.824  26.532  30.425  1.00  0.00     0.029 A 
ATOM     46  N   UNL A   1      42.307  27.827  31.402  1.00  0.00    -0.354 N 
ATOM     47  N   UNL A   1      41.236  29.504  33.556  1.00  0.00    -0.248 NA
ATOM     48  C   UNL A   1      41.386  30.374  35.720  1.00  0.00     0.031 C 
ATOM     49  C   UNL A   1      44.242  26.791  31.734  1.00  0.00     0.029 A 
ATOM     50  C   UNL A   1      43.318  27.632  32.332  1.00  0.00     0.049 A 
ATOM     51  H   UNL A   1      41.501  28.374  31.551  1.00  0.00     0.167 HD
ATOM     52  C   UNL A   1      42.411  29.052  34.151  1.00  0.00     0.074 A 
ATOM     53  C   UNL A   1      42.467  29.650  35.469  1.00  0.00     0.031 C 
ATOM     54  C   UNL A   1      43.362  28.224  33.649  1.00  0.00     0.034 A 
BRANCH  41  55
ATOM     55  C   UNL A   1      42.167  26.232  27.896  1.00  0.00     0.023 A 
ATOM     56  C   UNL A   1      41.655  24.936  27.707  1.00  0.00     0.031 A 
ATOM     57  C   UNL A   1      43.105  26.709  26.963  1.00  0.00     0.131 A 
ATOM     58  C   UNL A   1      42.135  24.138  26.658  1.00  0.00     0.055 A 
ATOM     59  C   UNL A   1      43.516  25.941  25.871  1.00  0.00     0.041 A 
ATOM     60  F   UNL A   1      43.645  27.930  27.100  1.00  0.00    -0.206 F 
ATOM     61  C   UNL A   1      43.041  24.641  25.722  1.00  0.00     0.022 A 
BRANCH  58  62
ATOM     62  S   UNL A   1      41.667  22.386  26.618  1.00  0.00     0.124 S 
ATOM     63  O   UNL A   1      42.291  21.888  27.843  1.00  0.00    -0.237 OA
ATOM     64  O   UNL A   1      40.210  22.449  26.623  1.00  0.00    -0.237 OA
ATOM     65  O   UNL A   1      42.267  21.898  25.379  1.00  0.00    -0.744 OA
ENDBRANCH  58  62
ENDBRANCH  41  55
BRANCH  42  66
ATOM     66  C   UNL A   1      38.894  31.891  35.481  1.00  0.00     0.023 A 
ATOM     67  C   UNL A   1      38.315  31.284  36.607  1.00  0.00     0.031 A 
ATOM     68  C   UNL A   1      38.956  33.295  35.448  1.00  0.00     0.131 A 
ATOM     69  C   UNL A   1      37.776  32.079  37.630  1.00  0.00     0.055 A 
ATOM     70  C   UNL A   1      38.471  34.080  36.495  1.00  0.00     0.041 A 
ATOM     71  F   UNL A   1      39.502  33.928  34.396  1.00  0.00    -0.206 F 
ATOM     72  C   UNL A   1      37.864  33.472  37.589  1.00  0.00     0.022 A 
BRANCH  69  73
ATOM     73  S   UNL A   1      36.875  31.264  38.977  1.00  0.00     0.124 S 
ATOM     74  O   UNL A   1      36.716  29.914  38.452  1.00  0.00    -0.237 OA
ATOM     75  O   UNL A   1      37.799  31.416  40.095  1.00  0.00    -0.237 OA
ATOM     76  O   UNL A   1      35.642  32.044  39.080  1.00  0.00    -0.744 OA
ENDBRANCH  69  73
ENDBRANCH  42  66
BRANCH  54  77
ATOM     77  C   UNL A   1      44.572  27.958  34.514  1.00  0.00     0.023 A 
ATOM     78  C   UNL A   1      44.624  26.875  35.408  1.00  0.00     0.031 A 
ATOM     79  C   UNL A   1      45.689  28.812  34.447  1.00  0.00     0.131 A 
ATOM     80  C   UNL A   1      45.742  26.707  36.240  1.00  0.00     0.055 A 
ATOM     81  C   UNL A   1      46.824  28.602  35.229  1.00  0.00     0.041 A 
ATOM     82  F   UNL A   1      45.694  29.865  33.614  1.00  0.00    -0.206 F 
ATOM     83  C   UNL A   1      46.850  27.553  36.143  1.00  0.00     0.022 A 
BRANCH  80  84
ATOM     84  S   UNL A   1      45.689  25.427  37.523  1.00  0.00     0.124 S 
ATOM     85  O   UNL A   1      46.455  24.348  36.909  1.00  0.00    -0.237 OA
ATOM     86  O   UNL A   1      46.325  26.094  38.656  1.00  0.00    -0.237 OA
ATOM     87  O   UNL A   1      44.261  25.158  37.685  1.00  0.00    -0.744 OA
ENDBRANCH  80  84
ENDBRANCH  54  77
ENDBRANCH  28  29
ENDBRANCH  20  23
ENDBRANCH   1  19
TORSDOF 14
ENDMDL
