MODEL 1
REMARK VINA RESULT:     -14.0      0.000      0.000
REMARK SMILES COc1ccccc1[C@@H]1CN(C(=O)c2cnn3ccccc23)C[C@H]1C(=O)NCCCNC(=O)c1ccc(-c2c3nc(c(-c4cc(S(=O)(=O)[O-])ccc4F)c4ccc([nH]4)c(-c4cc(S(=O)(=O)[O-])ccc4F)c4nc(c(-c5cc(S(=O)(=O)[O-])ccc5F)c5ccc2[nH]5)C=C4)C=C3)cc1
REMARK SMILES IDX 29 1 28 2 27 3 25 4 26 5 24 7 9 8 10 9 11 10 23 11 8 12 3 13
REMARK SMILES IDX 4 14 5 15 7 16 6 17 2 18 1 19 12 20 13 21 14 22 15 23 22 24
REMARK SMILES IDX 16 25 17 26 21 27 18 28 20 29 19 30 30 31 31 32 32 33 33 35
REMARK SMILES IDX 34 36 35 37 96 38 36 39 95 40 37 41 38 42 39 43 89 44 40 45
REMARK SMILES IDX 94 46 88 47 90 48 41 49 93 50 87 51 86 52 42 54 74 55 54 56
REMARK SMILES IDX 73 57 55 58 58 59 72 60 91 61 56 62 57 63 71 65 92 66 59 67
REMARK SMILES IDX 43 68 44 69 52 70 45 71 51 72 53 73 50 74 46 75 47 76 48 77
REMARK SMILES IDX 49 78 75 79 76 80 84 81 77 82 83 83 85 84 82 85 78 86 79 87
REMARK SMILES IDX 80 88 81 89 60 90 61 91 69 92 62 93 68 94 70 95 67 96 63 97
REMARK SMILES IDX 64 98 65 99 66 100
REMARK H PARENT 27 6 31 34 90 53 58 64
REMARK Flexibility Score: inf
ROOT
ATOM      1  C   UNL A   1      34.764  29.281  27.251  1.00  0.00     0.042 C 
ENDROOT
BRANCH   1   2
ATOM      2  C   UNL A   1      33.377  29.903  27.107  1.00  0.00     0.117 C 
BRANCH   2   3
ATOM      3  N   UNL A   1      32.315  29.030  27.576  1.00  0.00    -0.356 N 
ATOM      4  C   UNL A   1      31.811  27.872  27.083  1.00  0.00     0.225 C 
ATOM      5  O   UNL A   1      30.924  27.318  27.740  1.00  0.00    -0.275 OA
ATOM      6  H   UNL A   1      31.881  29.337  28.405  1.00  0.00     0.163 HD
BRANCH   4   7
ATOM      7  C   UNL A   1      32.284  27.244  25.785  1.00  0.00     0.107 C 
ATOM      8  C   UNL A   1      31.746  25.822  25.530  1.00  0.00     0.057 C 
ATOM      9  C   UNL A   1      31.546  25.761  24.018  1.00  0.00     0.129 C 
ATOM     10  N   UNL A   1      31.195  27.128  23.676  1.00  0.00    -0.337 N 
ATOM     11  C   UNL A   1      31.910  28.056  24.542  1.00  0.00     0.134 C 
BRANCH   8  12
ATOM     12  C   UNL A   1      32.532  24.676  26.127  1.00  0.00    -0.000 A 
ATOM     13  C   UNL A   1      32.001  23.662  26.941  1.00  0.00     0.122 A 
ATOM     14  C   UNL A   1      32.829  22.665  27.473  1.00  0.00     0.047 A 
ATOM     15  C   UNL A   1      34.199  22.671  27.218  1.00  0.00     0.004 A 
ATOM     16  C   UNL A   1      33.923  24.658  25.884  1.00  0.00     0.008 A 
ATOM     17  C   UNL A   1      34.749  23.678  26.434  1.00  0.00     0.001 A 
BRANCH  13  18
ATOM     18  O   UNL A   1      30.722  23.702  27.433  1.00  0.00    -0.496 OA
ATOM     19  C   UNL A   1      29.871  22.683  26.920  1.00  0.00     0.278 C 
ENDBRANCH  13  18
ENDBRANCH   8  12
BRANCH  10  20
ATOM     20  C   UNL A   1      30.438  27.574  22.610  1.00  0.00     0.257 C 
ATOM     21  O   UNL A   1      30.750  27.326  21.449  1.00  0.00    -0.269 OA
BRANCH  20  22
ATOM     22  C   UNL A   1      29.237  28.330  22.904  1.00  0.00     0.085 A 
ATOM     23  C   UNL A   1      27.989  27.802  23.287  1.00  0.00     0.150 A 
ATOM     24  C   UNL A   1      28.999  29.689  22.800  1.00  0.00     0.079 A 
ATOM     25  N   UNL A   1      27.063  28.734  23.510  1.00  0.00    -0.176 NA
ATOM     26  N   UNL A   1      27.683  29.906  23.221  1.00  0.00    -0.240 N 
ATOM     27  C   UNL A   1      29.757  30.829  22.396  1.00  0.00     0.029 A 
ATOM     28  C   UNL A   1      27.139  31.190  23.315  1.00  0.00     0.113 A 
ATOM     29  C   UNL A   1      29.222  32.061  22.488  1.00  0.00     0.004 A 
ATOM     30  C   UNL A   1      27.870  32.264  22.975  1.00  0.00     0.020 A 
ENDBRANCH  20  22
ENDBRANCH  10  20
ENDBRANCH   4   7
ENDBRANCH   2   3
ENDBRANCH   1   2
BRANCH   1  31
ATOM     31  C   UNL A   1      35.783  30.259  27.799  1.00  0.00     0.118 C 
BRANCH  31  32
ATOM     32  N   UNL A   1      35.781  30.291  29.257  1.00  0.00    -0.352 N 
ATOM     33  C   UNL A   1      36.598  29.586  30.119  1.00  0.00     0.251 C 
ATOM     34  H   UNL A   1      35.117  30.885  29.677  1.00  0.00     0.163 HD
ATOM     35  O   UNL A   1      36.284  29.442  31.286  1.00  0.00    -0.269 OA
BRANCH  33  36
ATOM     36  C   UNL A   1      37.837  28.995  29.576  1.00  0.00     0.039 A 
ATOM     37  C   UNL A   1      38.437  29.545  28.444  1.00  0.00     0.014 A 
ATOM     38  C   UNL A   1      38.419  27.919  30.246  1.00  0.00     0.014 A 
ATOM     39  C   UNL A   1      39.678  29.058  28.044  1.00  0.00     0.010 A 
ATOM     40  C   UNL A   1      39.695  27.518  29.922  1.00  0.00     0.010 A 
ATOM     41  C   UNL A   1      40.322  28.065  28.807  1.00  0.00    -0.014 A 
BRANCH  41  42
ATOM     42  C   UNL A   1      41.721  27.732  28.540  1.00  0.00     0.031 A 
ATOM     43  C   UNL A   1      41.901  26.450  27.807  1.00  0.00     0.074 A 
ATOM     44  C   UNL A   1      42.758  28.576  28.736  1.00  0.00     0.049 A 
ATOM     45  N   UNL A   1      42.380  25.343  28.266  1.00  0.00    -0.248 NA
ATOM     46  C   UNL A   1      41.319  26.324  26.460  1.00  0.00     0.031 C 
ATOM     47  C   UNL A   1      42.716  29.974  29.170  1.00  0.00     0.029 A 
ATOM     48  N   UNL A   1      44.085  28.383  28.484  1.00  0.00    -0.354 N 
ATOM     49  C   UNL A   1      42.404  24.458  27.194  1.00  0.00     0.074 A 
ATOM     50  C   UNL A   1      41.545  25.035  26.196  1.00  0.00     0.031 C 
ATOM     51  C   UNL A   1      43.912  30.560  28.936  1.00  0.00     0.029 A 
ATOM     52  C   UNL A   1      44.853  29.546  28.493  1.00  0.00     0.049 A 
ATOM     53  H   UNL A   1      44.469  27.493  28.310  1.00  0.00     0.167 HD
ATOM     54  C   UNL A   1      43.332  23.461  27.132  1.00  0.00     0.034 A 
ATOM     55  C   UNL A   1      46.164  29.678  28.149  1.00  0.00     0.034 A 
ATOM     56  C   UNL A   1      43.943  23.255  28.430  1.00  0.00     0.049 A 
ATOM     57  C   UNL A   1      46.776  28.335  28.290  1.00  0.00     0.074 A 
ATOM     58  C   UNL A   1      43.459  22.946  29.687  1.00  0.00     0.029 A 
ATOM     59  N   UNL A   1      45.205  23.768  28.641  1.00  0.00    -0.354 N 
ATOM     60  N   UNL A   1      46.895  27.722  29.435  1.00  0.00    -0.248 NA
ATOM     61  C   UNL A   1      46.804  27.469  27.121  1.00  0.00     0.031 C 
ATOM     62  C   UNL A   1      44.216  23.759  30.581  1.00  0.00     0.029 A 
ATOM     63  C   UNL A   1      45.186  24.438  29.840  1.00  0.00     0.049 A 
ATOM     64  H   UNL A   1      45.980  23.672  28.041  1.00  0.00     0.167 HD
ATOM     65  C   UNL A   1      46.557  26.404  29.172  1.00  0.00     0.074 A 
ATOM     66  C   UNL A   1      46.614  26.287  27.715  1.00  0.00     0.031 C 
ATOM     67  C   UNL A   1      45.989  25.613  30.130  1.00  0.00     0.034 A 
BRANCH  54  68
ATOM     68  C   UNL A   1      43.974  22.946  25.857  1.00  0.00     0.023 A 
ATOM     69  C   UNL A   1      44.050  21.546  25.704  1.00  0.00     0.031 A 
ATOM     70  C   UNL A   1      44.755  23.698  24.950  1.00  0.00     0.131 A 
ATOM     71  C   UNL A   1      44.959  20.962  24.805  1.00  0.00     0.055 A 
ATOM     72  C   UNL A   1      45.607  23.111  24.010  1.00  0.00     0.041 A 
ATOM     73  F   UNL A   1      44.812  25.033  24.968  1.00  0.00    -0.206 F 
ATOM     74  C   UNL A   1      45.744  21.736  23.958  1.00  0.00     0.022 A 
BRANCH  71  75
ATOM     75  S   UNL A   1      45.231  19.175  24.908  1.00  0.00     0.124 S 
ATOM     76  O   UNL A   1      45.421  18.832  23.503  1.00  0.00    -0.237 OA
ATOM     77  O   UNL A   1      46.415  19.100  25.758  1.00  0.00    -0.237 OA
ATOM     78  O   UNL A   1      43.996  18.680  25.513  1.00  0.00    -0.744 OA
ENDBRANCH  71  75
ENDBRANCH  54  68
BRANCH  55  79
ATOM     79  C   UNL A   1      46.823  30.815  27.442  1.00  0.00     0.023 A 
ATOM     80  C   UNL A   1      46.108  31.905  26.895  1.00  0.00     0.031 A 
ATOM     81  C   UNL A   1      48.227  30.962  27.524  1.00  0.00     0.131 A 
ATOM     82  C   UNL A   1      46.793  33.070  26.468  1.00  0.00     0.055 A 
ATOM     83  C   UNL A   1      48.897  32.112  27.101  1.00  0.00     0.041 A 
ATOM     84  F   UNL A   1      48.990  30.022  28.104  1.00  0.00    -0.206 F 
ATOM     85  C   UNL A   1      48.181  33.178  26.580  1.00  0.00     0.022 A 
BRANCH  82  86
ATOM     86  S   UNL A   1      45.876  34.517  25.839  1.00  0.00     0.124 S 
ATOM     87  O   UNL A   1      46.937  35.497  25.640  1.00  0.00    -0.237 OA
ATOM     88  O   UNL A   1      45.242  33.991  24.637  1.00  0.00    -0.237 OA
ATOM     89  O   UNL A   1      44.948  34.833  26.928  1.00  0.00    -0.744 OA
ENDBRANCH  82  86
ENDBRANCH  55  79
BRANCH  67  90
ATOM     90  C   UNL A   1      46.022  26.081  31.574  1.00  0.00     0.023 A 
ATOM     91  C   UNL A   1      44.933  26.647  32.280  1.00  0.00     0.031 A 
ATOM     92  C   UNL A   1      47.201  25.825  32.299  1.00  0.00     0.131 A 
ATOM     93  C   UNL A   1      45.059  26.939  33.655  1.00  0.00     0.055 A 
ATOM     94  C   UNL A   1      47.312  26.091  33.662  1.00  0.00     0.041 A 
ATOM     95  F   UNL A   1      48.264  25.270  31.693  1.00  0.00    -0.206 F 
ATOM     96  C   UNL A   1      46.243  26.655  34.345  1.00  0.00     0.022 A 
BRANCH  93  97
ATOM     97  S   UNL A   1      43.690  27.716  34.577  1.00  0.00     0.124 S 
ATOM     98  O   UNL A   1      44.189  29.054  34.867  1.00  0.00    -0.237 OA
ATOM     99  O   UNL A   1      42.584  27.636  33.626  1.00  0.00    -0.237 OA
ATOM    100  O   UNL A   1      43.541  26.854  35.752  1.00  0.00    -0.744 OA
ENDBRANCH  93  97
ENDBRANCH  67  90
ENDBRANCH  41  42
ENDBRANCH  33  36
ENDBRANCH  31  32
ENDBRANCH   1  31
TORSDOF 17
ENDMDL
MODEL 2
REMARK VINA RESULT:     -13.6      4.336      6.665
REMARK SMILES COc1ccccc1[C@@H]1CN(C(=O)c2cnn3ccccc23)C[C@H]1C(=O)NCCCNC(=O)c1ccc(-c2c3nc(c(-c4cc(S(=O)(=O)[O-])ccc4F)c4ccc([nH]4)c(-c4cc(S(=O)(=O)[O-])ccc4F)c4nc(c(-c5cc(S(=O)(=O)[O-])ccc5F)c5ccc2[nH]5)C=C4)C=C3)cc1
REMARK SMILES IDX 29 1 28 2 27 3 25 4 26 5 24 7 9 8 10 9 11 10 23 11 8 12 3 13
REMARK SMILES IDX 4 14 5 15 7 16 6 17 2 18 1 19 12 20 13 21 14 22 15 23 22 24
REMARK SMILES IDX 16 25 17 26 21 27 18 28 20 29 19 30 30 31 31 32 32 33 33 35
REMARK SMILES IDX 34 36 35 37 96 38 36 39 95 40 37 41 38 42 39 43 89 44 40 45
REMARK SMILES IDX 94 46 88 47 90 48 41 49 93 50 87 51 86 52 42 54 74 55 54 56
REMARK SMILES IDX 73 57 55 58 58 59 72 60 91 61 56 62 57 63 71 65 92 66 59 67
REMARK SMILES IDX 43 68 44 69 52 70 45 71 51 72 53 73 50 74 46 75 47 76 48 77
REMARK SMILES IDX 49 78 75 79 76 80 84 81 77 82 83 83 85 84 82 85 78 86 79 87
REMARK SMILES IDX 80 88 81 89 60 90 61 91 69 92 62 93 68 94 70 95 67 96 63 97
REMARK SMILES IDX 64 98 65 99 66 100
REMARK H PARENT 27 6 31 34 90 53 58 64
REMARK Flexibility Score: inf
ROOT
ATOM      1  C   UNL A   1      31.796  31.059  26.591  1.00  0.00     0.042 C 
ENDROOT
BRANCH   1   2
ATOM      2  C   UNL A   1      32.186  29.625  26.242  1.00  0.00     0.117 C 
BRANCH   2   3
ATOM      3  N   UNL A   1      33.086  29.545  25.105  1.00  0.00    -0.356 N 
ATOM      4  C   UNL A   1      33.102  28.733  24.018  1.00  0.00     0.225 C 
ATOM      5  O   UNL A   1      33.980  28.937  23.174  1.00  0.00    -0.275 OA
ATOM      6  H   UNL A   1      33.820  30.201  25.127  1.00  0.00     0.163 HD
BRANCH   4   7
ATOM      7  C   UNL A   1      32.105  27.611  23.804  1.00  0.00     0.107 C 
ATOM      8  C   UNL A   1      31.294  27.716  22.496  1.00  0.00     0.057 C 
ATOM      9  C   UNL A   1      31.109  26.268  22.050  1.00  0.00     0.129 C 
ATOM     10  N   UNL A   1      32.320  25.621  22.522  1.00  0.00    -0.337 N 
ATOM     11  C   UNL A   1      32.746  26.221  23.780  1.00  0.00     0.134 C 
BRANCH   8  12
ATOM     12  C   UNL A   1      30.031  28.548  22.540  1.00  0.00    -0.000 A 
ATOM     13  C   UNL A   1      28.833  28.174  23.171  1.00  0.00     0.122 A 
ATOM     14  C   UNL A   1      27.708  29.009  23.119  1.00  0.00     0.047 A 
ATOM     15  C   UNL A   1      27.753  30.217  22.426  1.00  0.00     0.004 A 
ATOM     16  C   UNL A   1      30.050  29.777  21.845  1.00  0.00     0.008 A 
ATOM     17  C   UNL A   1      28.921  30.595  21.776  1.00  0.00     0.001 A 
BRANCH  13  18
ATOM     18  O   UNL A   1      28.621  26.917  23.673  1.00  0.00    -0.496 OA
ATOM     19  C   UNL A   1      27.272  26.661  24.046  1.00  0.00     0.278 C 
ENDBRANCH  13  18
ENDBRANCH   8  12
BRANCH  10  20
ATOM     20  C   UNL A   1      32.944  24.500  22.010  1.00  0.00     0.257 C 
ATOM     21  O   UNL A   1      33.326  24.452  20.844  1.00  0.00    -0.269 OA
BRANCH  20  22
ATOM     22  C   UNL A   1      33.162  23.380  22.904  1.00  0.00     0.085 A 
ATOM     23  C   UNL A   1      32.169  22.587  23.508  1.00  0.00     0.150 A 
ATOM     24  C   UNL A   1      34.343  22.889  23.435  1.00  0.00     0.079 A 
ATOM     25  N   UNL A   1      32.660  21.612  24.273  1.00  0.00    -0.176 NA
ATOM     26  N   UNL A   1      34.005  21.786  24.226  1.00  0.00    -0.240 N 
ATOM     27  C   UNL A   1      35.724  23.237  23.346  1.00  0.00     0.029 A 
ATOM     28  C   UNL A   1      34.977  21.001  24.852  1.00  0.00     0.113 A 
ATOM     29  C   UNL A   1      36.651  22.476  23.956  1.00  0.00     0.004 A 
ATOM     30  C   UNL A   1      36.279  21.306  24.731  1.00  0.00     0.020 A 
ENDBRANCH  20  22
ENDBRANCH  10  20
ENDBRANCH   4   7
ENDBRANCH   2   3
ENDBRANCH   1   2
BRANCH   1  31
ATOM     31  C   UNL A   1      32.937  31.834  27.216  1.00  0.00     0.118 C 
BRANCH  31  32
ATOM     32  N   UNL A   1      32.544  33.192  27.573  1.00  0.00    -0.352 N 
ATOM     33  C   UNL A   1      33.131  34.024  28.507  1.00  0.00     0.251 C 
ATOM     34  H   UNL A   1      31.767  33.560  27.093  1.00  0.00     0.163 HD
ATOM     35  O   UNL A   1      32.522  34.982  28.947  1.00  0.00    -0.269 OA
BRANCH  33  36
ATOM     36  C   UNL A   1      34.494  33.698  28.970  1.00  0.00     0.039 A 
ATOM     37  C   UNL A   1      34.681  32.798  30.019  1.00  0.00     0.014 A 
ATOM     38  C   UNL A   1      35.583  34.262  28.306  1.00  0.00     0.014 A 
ATOM     39  C   UNL A   1      35.977  32.402  30.334  1.00  0.00     0.010 A 
ATOM     40  C   UNL A   1      36.852  33.783  28.539  1.00  0.00     0.010 A 
ATOM     41  C   UNL A   1      37.060  32.871  29.569  1.00  0.00    -0.014 A 
BRANCH  41  42
ATOM     42  C   UNL A   1      38.384  32.269  29.730  1.00  0.00     0.031 A 
ATOM     43  C   UNL A   1      38.449  30.845  29.305  1.00  0.00     0.074 A 
ATOM     44  C   UNL A   1      39.506  32.959  30.031  1.00  0.00     0.049 A 
ATOM     45  N   UNL A   1      38.576  29.805  30.059  1.00  0.00    -0.248 NA
ATOM     46  C   UNL A   1      38.158  30.518  27.899  1.00  0.00     0.031 C 
ATOM     47  C   UNL A   1      39.662  34.407  30.186  1.00  0.00     0.029 A 
ATOM     48  N   UNL A   1      40.786  32.507  30.163  1.00  0.00    -0.354 N 
ATOM     49  C   UNL A   1      38.647  28.712  29.202  1.00  0.00     0.074 A 
ATOM     50  C   UNL A   1      38.164  29.183  27.933  1.00  0.00     0.031 C 
ATOM     51  C   UNL A   1      40.975  34.730  30.164  1.00  0.00     0.029 A 
ATOM     52  C   UNL A   1      41.758  33.506  30.161  1.00  0.00     0.049 A 
ATOM     53  H   UNL A   1      41.006  31.551  30.253  1.00  0.00     0.167 HD
ATOM     54  C   UNL A   1      39.340  27.592  29.555  1.00  0.00     0.034 A 
ATOM     55  C   UNL A   1      43.111  33.349  30.144  1.00  0.00     0.034 A 
ATOM     56  C   UNL A   1      39.599  27.584  30.981  1.00  0.00     0.049 A 
ATOM     57  C   UNL A   1      43.386  31.990  30.671  1.00  0.00     0.074 A 
ATOM     58  C   UNL A   1      38.801  27.642  32.109  1.00  0.00     0.029 A 
ATOM     59  N   UNL A   1      40.863  27.924  31.413  1.00  0.00    -0.354 N 
ATOM     60  N   UNL A   1      43.124  31.635  31.898  1.00  0.00    -0.248 NA
ATOM     61  C   UNL A   1      43.485  30.894  29.719  1.00  0.00     0.031 C 
ATOM     62  C   UNL A   1      39.498  28.502  33.007  1.00  0.00     0.029 A 
ATOM     63  C   UNL A   1      40.725  28.837  32.429  1.00  0.00     0.049 A 
ATOM     64  H   UNL A   1      41.712  27.575  31.056  1.00  0.00     0.167 HD
ATOM     65  C   UNL A   1      42.585  30.362  31.795  1.00  0.00     0.074 A 
ATOM     66  C   UNL A   1      42.931  29.918  30.445  1.00  0.00     0.031 C 
ATOM     67  C   UNL A   1      41.671  29.904  32.702  1.00  0.00     0.034 A 
BRANCH  54  68
ATOM     68  C   UNL A   1      40.121  26.712  28.597  1.00  0.00     0.023 A 
ATOM     69  C   UNL A   1      41.254  27.286  27.985  1.00  0.00     0.031 A 
ATOM     70  C   UNL A   1      39.680  25.493  28.033  1.00  0.00     0.131 A 
ATOM     71  C   UNL A   1      41.798  26.744  26.809  1.00  0.00     0.055 A 
ATOM     72  C   UNL A   1      40.269  24.921  26.901  1.00  0.00     0.041 A 
ATOM     73  F   UNL A   1      38.612  24.825  28.480  1.00  0.00    -0.206 F 
ATOM     74  C   UNL A   1      41.309  25.564  26.258  1.00  0.00     0.022 A 
BRANCH  71  75
ATOM     75  S   UNL A   1      43.029  27.720  25.909  1.00  0.00     0.124 S 
ATOM     76  O   UNL A   1      44.166  26.806  25.895  1.00  0.00    -0.237 OA
ATOM     77  O   UNL A   1      42.361  27.939  24.630  1.00  0.00    -0.237 OA
ATOM     78  O   UNL A   1      43.191  28.909  26.742  1.00  0.00    -0.744 OA
ENDBRANCH  71  75
ENDBRANCH  54  68
BRANCH  55  79
ATOM     79  C   UNL A   1      44.129  34.181  29.438  1.00  0.00     0.023 A 
ATOM     80  C   UNL A   1      44.697  33.818  28.196  1.00  0.00     0.031 A 
ATOM     81  C   UNL A   1      44.367  35.504  29.876  1.00  0.00     0.131 A 
ATOM     82  C   UNL A   1      45.456  34.758  27.452  1.00  0.00     0.055 A 
ATOM     83  C   UNL A   1      45.115  36.426  29.140  1.00  0.00     0.041 A 
ATOM     84  F   UNL A   1      43.802  35.975  30.999  1.00  0.00    -0.206 F 
ATOM     85  C   UNL A   1      45.655  36.059  27.917  1.00  0.00     0.022 A 
BRANCH  82  86
ATOM     86  S   UNL A   1      46.124  34.331  25.809  1.00  0.00     0.124 S 
ATOM     87  O   UNL A   1      46.849  35.541  25.442  1.00  0.00    -0.237 OA
ATOM     88  O   UNL A   1      46.930  33.150  26.094  1.00  0.00    -0.237 OA
ATOM     89  O   UNL A   1      44.925  34.070  25.009  1.00  0.00    -0.744 OA
ENDBRANCH  82  86
ENDBRANCH  55  79
BRANCH  67  90
ATOM     90  C   UNL A   1      41.488  30.669  34.000  1.00  0.00     0.023 A 
ATOM     91  C   UNL A   1      40.635  31.783  34.184  1.00  0.00     0.031 A 
ATOM     92  C   UNL A   1      42.134  30.153  35.139  1.00  0.00     0.131 A 
ATOM     93  C   UNL A   1      40.466  32.338  35.470  1.00  0.00     0.055 A 
ATOM     94  C   UNL A   1      41.945  30.688  36.411  1.00  0.00     0.041 A 
ATOM     95  F   UNL A   1      42.940  29.083  35.037  1.00  0.00    -0.206 F 
ATOM     96  C   UNL A   1      41.114  31.788  36.581  1.00  0.00     0.022 A 
BRANCH  93  97
ATOM     97  S   UNL A   1      39.415  33.807  35.727  1.00  0.00     0.124 S 
ATOM     98  O   UNL A   1      39.557  34.552  34.483  1.00  0.00    -0.237 OA
ATOM     99  O   UNL A   1      38.102  33.215  35.973  1.00  0.00    -0.237 OA
ATOM    100  O   UNL A   1      40.015  34.453  36.896  1.00  0.00    -0.744 OA
ENDBRANCH  93  97
ENDBRANCH  67  90
ENDBRANCH  41  42
ENDBRANCH  33  36
ENDBRANCH  31  32
ENDBRANCH   1  31
TORSDOF 17
ENDMDL
MODEL 3
REMARK VINA RESULT:     -13.4      2.968      7.890
REMARK SMILES COc1ccccc1[C@@H]1CN(C(=O)c2cnn3ccccc23)C[C@H]1C(=O)NCCCNC(=O)c1ccc(-c2c3nc(c(-c4cc(S(=O)(=O)[O-])ccc4F)c4ccc([nH]4)c(-c4cc(S(=O)(=O)[O-])ccc4F)c4nc(c(-c5cc(S(=O)(=O)[O-])ccc5F)c5ccc2[nH]5)C=C4)C=C3)cc1
REMARK SMILES IDX 29 1 28 2 27 3 25 4 26 5 24 7 9 8 10 9 11 10 23 11 8 12 3 13
REMARK SMILES IDX 4 14 5 15 7 16 6 17 2 18 1 19 12 20 13 21 14 22 15 23 22 24
REMARK SMILES IDX 16 25 17 26 21 27 18 28 20 29 19 30 30 31 31 32 32 33 33 35
REMARK SMILES IDX 34 36 35 37 96 38 36 39 95 40 37 41 38 42 39 43 89 44 40 45
REMARK SMILES IDX 94 46 88 47 90 48 41 49 93 50 87 51 86 52 42 54 74 55 54 56
REMARK SMILES IDX 73 57 55 58 58 59 72 60 91 61 56 62 57 63 71 65 92 66 59 67
REMARK SMILES IDX 43 68 44 69 52 70 45 71 51 72 53 73 50 74 46 75 47 76 48 77
REMARK SMILES IDX 49 78 75 79 76 80 84 81 77 82 83 83 85 84 82 85 78 86 79 87
REMARK SMILES IDX 80 88 81 89 60 90 61 91 69 92 62 93 68 94 70 95 67 96 63 97
REMARK SMILES IDX 64 98 65 99 66 100
REMARK H PARENT 27 6 31 34 90 53 58 64
REMARK Flexibility Score: inf
ROOT
ATOM      1  C   UNL A   1      33.993  28.798  25.905  1.00  0.00     0.042 C 
ENDROOT
BRANCH   1   2
ATOM      2  C   UNL A   1      33.547  27.349  25.719  1.00  0.00     0.117 C 
BRANCH   2   3
ATOM      3  N   UNL A   1      32.311  27.044  26.418  1.00  0.00    -0.356 N 
ATOM      4  C   UNL A   1      31.101  26.620  25.975  1.00  0.00     0.225 C 
ATOM      5  O   UNL A   1      30.237  26.391  26.827  1.00  0.00    -0.275 OA
ATOM      6  H   UNL A   1      32.361  27.167  27.394  1.00  0.00     0.163 HD
BRANCH   4   7
ATOM      7  C   UNL A   1      30.776  26.420  24.507  1.00  0.00     0.107 C 
ATOM      8  C   UNL A   1      31.309  27.528  23.577  1.00  0.00     0.057 C 
ATOM      9  C   UNL A   1      31.690  26.793  22.294  1.00  0.00     0.129 C 
ATOM     10  N   UNL A   1      32.110  25.489  22.775  1.00  0.00    -0.337 N 
ATOM     11  C   UNL A   1      31.315  25.106  23.935  1.00  0.00     0.134 C 
BRANCH   8  12
ATOM     12  C   UNL A   1      30.432  28.746  23.391  1.00  0.00    -0.000 A 
ATOM     13  C   UNL A   1      30.417  29.873  24.229  1.00  0.00     0.122 A 
ATOM     14  C   UNL A   1      29.535  30.934  23.983  1.00  0.00     0.047 A 
ATOM     15  C   UNL A   1      28.643  30.883  22.913  1.00  0.00     0.004 A 
ATOM     16  C   UNL A   1      29.519  28.719  22.314  1.00  0.00     0.008 A 
ATOM     17  C   UNL A   1      28.626  29.766  22.085  1.00  0.00     0.001 A 
BRANCH  13  18
ATOM     18  O   UNL A   1      31.083  29.915  25.425  1.00  0.00    -0.496 OA
ATOM     19  C   UNL A   1      31.263  31.228  25.944  1.00  0.00     0.278 C 
ENDBRANCH  13  18
ENDBRANCH   8  12
BRANCH  10  20
ATOM     20  C   UNL A   1      33.000  24.609  22.189  1.00  0.00     0.257 C 
ATOM     21  O   UNL A   1      33.206  24.611  20.979  1.00  0.00    -0.269 OA
BRANCH  20  22
ATOM     22  C   UNL A   1      33.711  23.691  23.056  1.00  0.00     0.085 A 
ATOM     23  C   UNL A   1      34.946  23.927  23.690  1.00  0.00     0.150 A 
ATOM     24  C   UNL A   1      33.415  22.381  23.390  1.00  0.00     0.079 A 
ATOM     25  N   UNL A   1      35.359  22.908  24.445  1.00  0.00    -0.176 NA
ATOM     26  N   UNL A   1      34.412  21.951  24.273  1.00  0.00    -0.240 N 
ATOM     27  C   UNL A   1      32.384  21.452  23.059  1.00  0.00     0.029 A 
ATOM     28  C   UNL A   1      34.375  20.689  24.871  1.00  0.00     0.113 A 
ATOM     29  C   UNL A   1      32.360  20.237  23.639  1.00  0.00     0.004 A 
ATOM     30  C   UNL A   1      33.379  19.833  24.590  1.00  0.00     0.020 A 
ENDBRANCH  20  22
ENDBRANCH  10  20
ENDBRANCH   4   7
ENDBRANCH   2   3
ENDBRANCH   1   2
BRANCH   1  31
ATOM     31  C   UNL A   1      34.497  29.073  27.306  1.00  0.00     0.118 C 
BRANCH  31  32
ATOM     32  N   UNL A   1      34.255  30.453  27.712  1.00  0.00    -0.352 N 
ATOM     33  C   UNL A   1      34.913  31.174  28.690  1.00  0.00     0.251 C 
ATOM     34  H   UNL A   1      33.537  30.927  27.232  1.00  0.00     0.163 HD
ATOM     35  O   UNL A   1      34.409  32.179  29.157  1.00  0.00    -0.269 OA
BRANCH  33  36
ATOM     36  C   UNL A   1      36.218  30.674  29.164  1.00  0.00     0.039 A 
ATOM     37  C   UNL A   1      36.275  29.681  30.141  1.00  0.00     0.014 A 
ATOM     38  C   UNL A   1      37.382  31.173  28.579  1.00  0.00     0.014 A 
ATOM     39  C   UNL A   1      37.512  29.129  30.460  1.00  0.00     0.010 A 
ATOM     40  C   UNL A   1      38.587  30.548  28.808  1.00  0.00     0.010 A 
ATOM     41  C   UNL A   1      38.664  29.542  29.766  1.00  0.00    -0.014 A 
BRANCH  41  42
ATOM     42  C   UNL A   1      39.914  28.796  29.916  1.00  0.00     0.031 A 
ATOM     43  C   UNL A   1      40.302  28.558  31.333  1.00  0.00     0.074 A 
ATOM     44  C   UNL A   1      40.566  28.185  28.902  1.00  0.00     0.049 A 
ATOM     45  N   UNL A   1      41.280  29.097  31.980  1.00  0.00    -0.248 NA
ATOM     46  C   UNL A   1      39.397  27.770  32.186  1.00  0.00     0.031 C 
ATOM     47  C   UNL A   1      40.156  28.074  27.501  1.00  0.00     0.029 A 
ATOM     48  N   UNL A   1      41.705  27.436  28.939  1.00  0.00    -0.354 N 
ATOM     49  C   UNL A   1      41.273  28.517  33.244  1.00  0.00     0.074 A 
ATOM     50  C   UNL A   1      39.983  27.897  33.379  1.00  0.00     0.031 C 
ATOM     51  C   UNL A   1      40.898  27.129  26.882  1.00  0.00     0.029 A 
ATOM     52  C   UNL A   1      41.944  26.686  27.788  1.00  0.00     0.049 A 
ATOM     53  H   UNL A   1      42.311  27.426  29.715  1.00  0.00     0.167 HD
ATOM     54  C   UNL A   1      42.427  28.385  33.958  1.00  0.00     0.034 A 
ATOM     55  C   UNL A   1      42.919  25.756  27.590  1.00  0.00     0.034 A 
ATOM     56  C   UNL A   1      43.463  29.236  33.409  1.00  0.00     0.049 A 
ATOM     57  C   UNL A   1      43.993  26.055  28.566  1.00  0.00     0.074 A 
ATOM     58  C   UNL A   1      43.575  30.594  33.173  1.00  0.00     0.029 A 
ATOM     59  N   UNL A   1      44.438  28.650  32.630  1.00  0.00    -0.354 N 
ATOM     60  N   UNL A   1      44.704  27.148  28.532  1.00  0.00    -0.248 NA
ATOM     61  C   UNL A   1      43.951  25.388  29.858  1.00  0.00     0.031 C 
ATOM     62  C   UNL A   1      44.227  30.693  31.909  1.00  0.00     0.029 A 
ATOM     63  C   UNL A   1      44.571  29.405  31.491  1.00  0.00     0.049 A 
ATOM     64  H   UNL A   1      44.947  27.836  32.851  1.00  0.00     0.167 HD
ATOM     65  C   UNL A   1      44.811  27.547  29.855  1.00  0.00     0.074 A 
ATOM     66  C   UNL A   1      44.421  26.370  30.632  1.00  0.00     0.031 C 
ATOM     67  C   UNL A   1      44.929  28.866  30.191  1.00  0.00     0.034 A 
BRANCH  54  68
ATOM     68  C   UNL A   1      42.752  27.227  34.883  1.00  0.00     0.023 A 
ATOM     69  C   UNL A   1      43.587  26.215  34.367  1.00  0.00     0.031 A 
ATOM     70  C   UNL A   1      42.085  26.906  36.087  1.00  0.00     0.131 A 
ATOM     71  C   UNL A   1      43.622  24.935  34.946  1.00  0.00     0.055 A 
ATOM     72  C   UNL A   1      42.177  25.652  36.698  1.00  0.00     0.041 A 
ATOM     73  F   UNL A   1      41.243  27.743  36.702  1.00  0.00    -0.206 F 
ATOM     74  C   UNL A   1      42.918  24.644  36.109  1.00  0.00     0.022 A 
BRANCH  71  75
ATOM     75  S   UNL A   1      44.454  23.609  34.037  1.00  0.00     0.124 S 
ATOM     76  O   UNL A   1      45.331  24.371  33.155  1.00  0.00    -0.237 OA
ATOM     77  O   UNL A   1      45.104  22.869  35.113  1.00  0.00    -0.237 OA
ATOM     78  O   UNL A   1      43.353  22.912  33.376  1.00  0.00    -0.744 OA
ENDBRANCH  71  75
ENDBRANCH  54  68
BRANCH  55  79
ATOM     79  C   UNL A   1      42.835  24.479  26.821  1.00  0.00     0.023 A 
ATOM     80  C   UNL A   1      43.866  24.019  25.971  1.00  0.00     0.031 A 
ATOM     81  C   UNL A   1      41.810  23.554  27.125  1.00  0.00     0.131 A 
ATOM     82  C   UNL A   1      43.846  22.692  25.473  1.00  0.00     0.055 A 
ATOM     83  C   UNL A   1      41.795  22.247  26.631  1.00  0.00     0.041 A 
ATOM     84  F   UNL A   1      40.830  23.862  27.988  1.00  0.00    -0.206 F 
ATOM     85  C   UNL A   1      42.820  21.806  25.810  1.00  0.00     0.022 A 
BRANCH  82  86
ATOM     86  S   UNL A   1      45.213  22.057  24.445  1.00  0.00     0.124 S 
ATOM     87  O   UNL A   1      44.579  20.962  23.722  1.00  0.00    -0.237 OA
ATOM     88  O   UNL A   1      45.586  23.227  23.658  1.00  0.00    -0.237 OA
ATOM     89  O   UNL A   1      46.217  21.641  25.428  1.00  0.00    -0.744 OA
ENDBRANCH  82  86
ENDBRANCH  55  79
BRANCH  67  90
ATOM     90  C   UNL A   1      45.263  29.867  29.101  1.00  0.00     0.023 A 
ATOM     91  C   UNL A   1      46.568  30.244  28.702  1.00  0.00     0.031 A 
ATOM     92  C   UNL A   1      44.185  30.375  28.352  1.00  0.00     0.131 A 
ATOM     93  C   UNL A   1      46.748  31.103  27.598  1.00  0.00     0.055 A 
ATOM     94  C   UNL A   1      44.369  31.203  27.246  1.00  0.00     0.041 A 
ATOM     95  F   UNL A   1      42.922  30.041  28.664  1.00  0.00    -0.206 F 
ATOM     96  C   UNL A   1      45.652  31.575  26.868  1.00  0.00     0.022 A 
BRANCH  93  97
ATOM     97  S   UNL A   1      48.415  31.646  27.094  1.00  0.00     0.124 S 
ATOM     98  O   UNL A   1      49.024  32.086  28.343  1.00  0.00    -0.237 OA
ATOM     99  O   UNL A   1      48.976  30.434  26.501  1.00  0.00    -0.237 OA
ATOM    100  O   UNL A   1      48.147  32.720  26.135  1.00  0.00    -0.744 OA
ENDBRANCH  93  97
ENDBRANCH  67  90
ENDBRANCH  41  42
ENDBRANCH  33  36
ENDBRANCH  31  32
ENDBRANCH   1  31
TORSDOF 17
ENDMDL
