MODEL 1
REMARK VINA RESULT:     -11.9      0.000      0.000
REMARK SMILES CC[C@]1(C(=O)NCCCNC(=O)c2ccc(-c3c4nc(c(-c5cc(S(=O)(=O)[O-])ccc5F)c5ccc([nH]5)c(-c5cc(S(=O)(=O)[O-])ccc5F)c5nc(c(-c6cc(S(=O)(=O)[O-])ccc6F)c6ccc3[nH]6)C=C5)C=C4)cc2)CCC[N@@H+]([C@@H]2CCC[C@H](S(C)(=O)=O)C2)C1
REMARK SMILES IDX 8 1 7 2 6 3 4 4 5 5 3 7 76 8 90 9 77 10 79 11 78 12 2 14
REMARK SMILES IDX 1 15 80 16 81 17 89 18 82 19 84 20 83 21 85 22 86 23 87 24
REMARK SMILES IDX 88 25 9 26 10 27 11 28 12 30 13 31 14 32 75 33 15 34 74 35
REMARK SMILES IDX 16 36 17 37 18 38 68 39 19 40 73 41 67 42 69 43 20 44 72 45
REMARK SMILES IDX 66 46 65 47 21 49 53 50 33 51 52 52 34 53 37 54 51 55 70 56
REMARK SMILES IDX 35 57 36 58 50 60 71 61 38 62 22 63 23 64 31 65 24 66 30 67
REMARK SMILES IDX 32 68 29 69 25 70 26 71 27 72 28 73 54 74 55 75 63 76 56 77
REMARK SMILES IDX 62 78 64 79 61 80 57 81 58 82 59 83 60 84 39 85 40 86 48 87
REMARK SMILES IDX 41 88 47 89 49 90 46 91 42 92 43 93 44 94 45 95
REMARK H PARENT 6 6 79 13 10 29 69 48 37 59
REMARK Flexibility Score: inf
ROOT
ATOM      1  C   UNL A   1      30.979  31.451  26.138  1.00  0.00     0.042 C 
ENDROOT
BRANCH   1   2
ATOM      2  C   UNL A   1      31.041  30.448  24.996  1.00  0.00     0.117 C 
BRANCH   2   3
ATOM      3  N   UNL A   1      32.372  29.880  24.814  1.00  0.00    -0.355 N 
ATOM      4  C   UNL A   1      32.848  28.603  24.874  1.00  0.00     0.231 C 
ATOM      5  O   UNL A   1      34.021  28.455  24.518  1.00  0.00    -0.274 OA
ATOM      6  H   UNL A   1      33.062  30.551  24.606  1.00  0.00     0.163 HD
BRANCH   4   7
ATOM      7  C   UNL A   1      31.965  27.410  25.303  1.00  0.00     0.098 C 
ATOM      8  C   UNL A   1      30.899  27.109  24.223  1.00  0.00     0.028 C 
ATOM      9  C   UNL A   1      32.940  26.211  25.538  1.00  0.00     0.279 C 
ATOM     10  C   UNL A   1      30.337  25.702  24.340  1.00  0.00     0.063 C 
ATOM     11  N   UNL A   1      32.352  24.859  25.504  1.00  0.00    -0.332 N 
ATOM     12  C   UNL A   1      31.459  24.671  24.352  1.00  0.00     0.262 C 
ATOM     13  H   UNL A   1      31.750  24.758  26.321  1.00  0.00     0.348 HD
BRANCH   7  14
ATOM     14  C   UNL A   1      31.257  27.696  26.672  1.00  0.00     0.019 C 
ATOM     15  C   UNL A   1      32.135  28.161  27.833  1.00  0.00     0.005 C 
ENDBRANCH   7  14
BRANCH  11  16
ATOM     16  C   UNL A   1      33.399  23.811  25.635  1.00  0.00     0.185 C 
ATOM     17  C   UNL A   1      34.728  24.112  24.904  1.00  0.00     0.065 C 
ATOM     18  C   UNL A   1      32.840  22.437  25.221  1.00  0.00     0.084 C 
ATOM     19  C   UNL A   1      35.736  22.979  25.070  1.00  0.00     0.007 C 
ATOM     20  C   UNL A   1      33.869  21.302  25.308  1.00  0.00     0.114 C 
ATOM     21  C   UNL A   1      35.164  21.659  24.576  1.00  0.00     0.020 C 
BRANCH  20  22
ATOM     22  S   UNL A   1      33.120  19.795  24.641  1.00  0.00     0.150 S 
ATOM     23  C   UNL A   1      32.387  20.286  23.101  1.00  0.00     0.158 C 
ATOM     24  O   UNL A   1      34.197  18.876  24.314  1.00  0.00    -0.229 OA
ATOM     25  O   UNL A   1      32.041  19.385  25.518  1.00  0.00    -0.229 OA
ENDBRANCH  20  22
ENDBRANCH  11  16
ENDBRANCH   4   7
ENDBRANCH   2   3
ENDBRANCH   1   2
BRANCH   1  26
ATOM     26  C   UNL A   1      32.326  31.730  26.783  1.00  0.00     0.118 C 
BRANCH  26  27
ATOM     27  N   UNL A   1      32.514  33.140  27.092  1.00  0.00    -0.352 N 
ATOM     28  C   UNL A   1      33.457  33.753  27.882  1.00  0.00     0.251 C 
ATOM     29  H   UNL A   1      31.866  33.750  26.668  1.00  0.00     0.163 HD
ATOM     30  O   UNL A   1      33.308  34.933  28.188  1.00  0.00    -0.269 OA
BRANCH  28  31
ATOM     31  C   UNL A   1      34.621  32.988  28.381  1.00  0.00     0.039 A 
ATOM     32  C   UNL A   1      35.888  33.576  28.338  1.00  0.00     0.014 A 
ATOM     33  C   UNL A   1      34.469  31.695  28.887  1.00  0.00     0.014 A 
ATOM     34  C   UNL A   1      36.984  32.895  28.873  1.00  0.00     0.010 A 
ATOM     35  C   UNL A   1      35.541  31.062  29.508  1.00  0.00     0.010 A 
ATOM     36  C   UNL A   1      36.813  31.651  29.503  1.00  0.00    -0.014 A 
BRANCH  36  37
ATOM     37  C   UNL A   1      37.950  30.949  30.157  1.00  0.00     0.031 A 
ATOM     38  C   UNL A   1      38.296  31.249  31.593  1.00  0.00     0.074 A 
ATOM     39  C   UNL A   1      38.706  30.091  29.440  1.00  0.00     0.049 A 
ATOM     40  N   UNL A   1      39.290  30.800  32.314  1.00  0.00    -0.248 NA
ATOM     41  C   UNL A   1      37.426  32.201  32.303  1.00  0.00     0.031 C 
ATOM     42  C   UNL A   1      38.493  29.748  28.031  1.00  0.00     0.029 A 
ATOM     43  N   UNL A   1      39.812  29.356  29.791  1.00  0.00    -0.354 N 
ATOM     44  C   UNL A   1      39.180  31.431  33.549  1.00  0.00     0.074 A 
ATOM     45  C   UNL A   1      38.050  32.329  33.464  1.00  0.00     0.031 C 
ATOM     46  C   UNL A   1      39.414  28.850  27.650  1.00  0.00     0.029 A 
ATOM     47  C   UNL A   1      40.322  28.593  28.763  1.00  0.00     0.049 A 
ATOM     48  H   UNL A   1      40.204  29.373  30.693  1.00  0.00     0.167 HD
ATOM     49  C   UNL A   1      39.942  31.261  34.658  1.00  0.00     0.034 A 
ATOM     50  C   UNL A   1      41.406  27.792  28.718  1.00  0.00     0.034 A 
ATOM     51  C   UNL A   1      41.046  30.336  34.735  1.00  0.00     0.049 A 
ATOM     52  C   UNL A   1      42.248  27.644  29.964  1.00  0.00     0.074 A 
ATOM     53  C   UNL A   1      41.827  30.027  35.834  1.00  0.00     0.029 A 
ATOM     54  N   UNL A   1      41.533  29.583  33.676  1.00  0.00    -0.354 N 
ATOM     55  N   UNL A   1      42.080  28.192  31.146  1.00  0.00    -0.248 NA
ATOM     56  C   UNL A   1      43.418  26.761  29.873  1.00  0.00     0.031 C 
ATOM     57  C   UNL A   1      42.839  29.156  35.420  1.00  0.00     0.029 A 
ATOM     58  C   UNL A   1      42.632  28.846  34.085  1.00  0.00     0.049 A 
ATOM     59  H   UNL A   1      41.153  29.575  32.767  1.00  0.00     0.167 HD
ATOM     60  C   UNL A   1      43.100  27.682  31.946  1.00  0.00     0.074 A 
ATOM     61  C   UNL A   1      43.862  26.771  31.119  1.00  0.00     0.031 C 
ATOM     62  C   UNL A   1      43.381  27.938  33.250  1.00  0.00     0.034 A 
BRANCH  49  63
ATOM     63  C   UNL A   1      39.634  32.108  35.868  1.00  0.00     0.023 A 
ATOM     64  C   UNL A   1      38.699  31.712  36.839  1.00  0.00     0.031 A 
ATOM     65  C   UNL A   1      40.315  33.323  36.065  1.00  0.00     0.131 A 
ATOM     66  C   UNL A   1      38.437  32.544  37.938  1.00  0.00     0.055 A 
ATOM     67  C   UNL A   1      40.104  34.111  37.198  1.00  0.00     0.041 A 
ATOM     68  F   UNL A   1      41.201  33.765  35.158  1.00  0.00    -0.206 F 
ATOM     69  C   UNL A   1      39.154  33.726  38.140  1.00  0.00     0.022 A 
BRANCH  66  70
ATOM     70  S   UNL A   1      37.070  32.113  39.049  1.00  0.00     0.124 S 
ATOM     71  O   UNL A   1      37.505  32.721  40.303  1.00  0.00    -0.237 OA
ATOM     72  O   UNL A   1      35.926  32.740  38.397  1.00  0.00    -0.237 OA
ATOM     73  O   UNL A   1      37.068  30.652  39.041  1.00  0.00    -0.744 OA
ENDBRANCH  66  70
ENDBRANCH  49  63
BRANCH  50  74
ATOM     74  C   UNL A   1      41.788  27.079  27.462  1.00  0.00     0.023 A 
ATOM     75  C   UNL A   1      41.630  25.689  27.347  1.00  0.00     0.031 A 
ATOM     76  C   UNL A   1      42.406  27.757  26.396  1.00  0.00     0.131 A 
ATOM     77  C   UNL A   1      42.156  25.012  26.236  1.00  0.00     0.055 A 
ATOM     78  C   UNL A   1      42.861  27.089  25.258  1.00  0.00     0.041 A 
ATOM     79  F   UNL A   1      42.585  29.087  26.448  1.00  0.00    -0.206 F 
ATOM     80  C   UNL A   1      42.757  25.703  25.184  1.00  0.00     0.022 A 
BRANCH  77  81
ATOM     81  S   UNL A   1      42.176  23.197  26.260  1.00  0.00     0.124 S 
ATOM     82  O   UNL A   1      43.094  22.927  27.360  1.00  0.00    -0.237 OA
ATOM     83  O   UNL A   1      40.773  22.883  26.503  1.00  0.00    -0.237 OA
ATOM     84  O   UNL A   1      42.673  22.846  24.931  1.00  0.00    -0.744 OA
ENDBRANCH  77  81
ENDBRANCH  50  74
BRANCH  62  85
ATOM     85  C   UNL A   1      44.523  27.173  33.874  1.00  0.00     0.023 A 
ATOM     86  C   UNL A   1      44.344  25.900  34.442  1.00  0.00     0.031 A 
ATOM     87  C   UNL A   1      45.812  27.735  33.906  1.00  0.00     0.131 A 
ATOM     88  C   UNL A   1      45.420  25.259  35.072  1.00  0.00     0.055 A 
ATOM     89  C   UNL A   1      46.895  27.061  34.470  1.00  0.00     0.041 A 
ATOM     90  F   UNL A   1      46.042  28.950  33.381  1.00  0.00    -0.206 F 
ATOM     91  C   UNL A   1      46.700  25.822  35.071  1.00  0.00     0.022 A 
BRANCH  88  92
ATOM     92  S   UNL A   1      45.106  23.722  35.984  1.00  0.00     0.124 S 
ATOM     93  O   UNL A   1      43.831  23.291  35.419  1.00  0.00    -0.237 OA
ATOM     94  O   UNL A   1      46.266  22.908  35.634  1.00  0.00    -0.237 OA
ATOM     95  O   UNL A   1      45.051  24.156  37.378  1.00  0.00    -0.744 OA
ENDBRANCH  88  92
ENDBRANCH  62  85
ENDBRANCH  36  37
ENDBRANCH  28  31
ENDBRANCH  26  27
ENDBRANCH   1  26
TORSDOF 16
ENDMDL
MODEL 2
REMARK VINA RESULT:     -11.9      1.731      7.663
REMARK SMILES CC[C@]1(C(=O)NCCCNC(=O)c2ccc(-c3c4nc(c(-c5cc(S(=O)(=O)[O-])ccc5F)c5ccc([nH]5)c(-c5cc(S(=O)(=O)[O-])ccc5F)c5nc(c(-c6cc(S(=O)(=O)[O-])ccc6F)c6ccc3[nH]6)C=C5)C=C4)cc2)CCC[N@@H+]([C@@H]2CCC[C@H](S(C)(=O)=O)C2)C1
REMARK SMILES IDX 8 1 7 2 6 3 4 4 5 5 3 7 76 8 90 9 77 10 79 11 78 12 2 14
REMARK SMILES IDX 1 15 80 16 81 17 89 18 82 19 84 20 83 21 85 22 86 23 87 24
REMARK SMILES IDX 88 25 9 26 10 27 11 28 12 30 13 31 14 32 75 33 15 34 74 35
REMARK SMILES IDX 16 36 17 37 18 38 68 39 19 40 73 41 67 42 69 43 20 44 72 45
REMARK SMILES IDX 66 46 65 47 21 49 53 50 33 51 52 52 34 53 37 54 51 55 70 56
REMARK SMILES IDX 35 57 36 58 50 60 71 61 38 62 22 63 23 64 31 65 24 66 30 67
REMARK SMILES IDX 32 68 29 69 25 70 26 71 27 72 28 73 54 74 55 75 63 76 56 77
REMARK SMILES IDX 62 78 64 79 61 80 57 81 58 82 59 83 60 84 39 85 40 86 48 87
REMARK SMILES IDX 41 88 47 89 49 90 46 91 42 92 43 93 44 94 45 95
REMARK H PARENT 6 6 79 13 10 29 69 48 37 59
REMARK Flexibility Score: inf
ROOT
ATOM      1  C   UNL A   1      31.119  31.934  25.740  1.00  0.00     0.042 C 
ENDROOT
BRANCH   1   2
ATOM      2  C   UNL A   1      31.024  30.461  25.373  1.00  0.00     0.117 C 
BRANCH   2   3
ATOM      3  N   UNL A   1      32.221  29.966  24.702  1.00  0.00    -0.355 N 
ATOM      4  C   UNL A   1      32.955  28.825  24.842  1.00  0.00     0.231 C 
ATOM      5  O   UNL A   1      33.839  28.654  23.998  1.00  0.00    -0.274 OA
ATOM      6  H   UNL A   1      32.566  30.577  24.011  1.00  0.00     0.163 HD
BRANCH   4   7
ATOM      7  C   UNL A   1      32.663  27.785  25.947  1.00  0.00     0.098 C 
ATOM      8  C   UNL A   1      31.159  27.425  25.969  1.00  0.00     0.028 C 
ATOM      9  C   UNL A   1      33.574  26.553  25.633  1.00  0.00     0.279 C 
ATOM     10  C   UNL A   1      30.890  26.102  26.667  1.00  0.00     0.063 C 
ATOM     11  N   UNL A   1      33.179  25.265  26.234  1.00  0.00    -0.332 N 
ATOM     12  C   UNL A   1      31.745  24.991  26.068  1.00  0.00     0.262 C 
ATOM     13  H   UNL A   1      33.318  25.333  27.241  1.00  0.00     0.348 HD
BRANCH   7  14
ATOM     14  C   UNL A   1      33.094  28.322  27.355  1.00  0.00     0.019 C 
ATOM     15  C   UNL A   1      34.416  29.084  27.442  1.00  0.00     0.005 C 
ENDBRANCH   7  14
BRANCH  11  16
ATOM     16  C   UNL A   1      34.063  24.161  25.773  1.00  0.00     0.185 C 
ATOM     17  C   UNL A   1      35.009  24.518  24.603  1.00  0.00     0.065 C 
ATOM     18  C   UNL A   1      33.231  22.907  25.446  1.00  0.00     0.084 C 
ATOM     19  C   UNL A   1      35.861  23.327  24.179  1.00  0.00     0.007 C 
ATOM     20  C   UNL A   1      34.071  21.725  24.941  1.00  0.00     0.114 C 
ATOM     21  C   UNL A   1      34.992  22.140  23.793  1.00  0.00     0.020 C 
BRANCH  20  22
ATOM     22  S   UNL A   1      32.949  20.393  24.449  1.00  0.00     0.150 S 
ATOM     23  C   UNL A   1      32.335  20.871  22.854  1.00  0.00     0.158 C 
ATOM     24  O   UNL A   1      33.750  19.198  24.244  1.00  0.00    -0.229 OA
ATOM     25  O   UNL A   1      31.819  20.377  25.356  1.00  0.00    -0.229 OA
ENDBRANCH  20  22
ENDBRANCH  11  16
ENDBRANCH   4   7
ENDBRANCH   2   3
ENDBRANCH   1   2
BRANCH   1  26
ATOM     26  C   UNL A   1      32.063  32.219  26.896  1.00  0.00     0.118 C 
BRANCH  26  27
ATOM     27  N   UNL A   1      32.102  33.631  27.248  1.00  0.00    -0.352 N 
ATOM     28  C   UNL A   1      32.934  34.304  28.111  1.00  0.00     0.251 C 
ATOM     29  H   UNL A   1      31.429  34.192  26.797  1.00  0.00     0.163 HD
ATOM     30  O   UNL A   1      32.659  35.456  28.433  1.00  0.00    -0.269 OA
BRANCH  28  31
ATOM     31  C   UNL A   1      34.129  33.632  28.668  1.00  0.00     0.039 A 
ATOM     32  C   UNL A   1      35.375  34.251  28.543  1.00  0.00     0.014 A 
ATOM     33  C   UNL A   1      34.027  32.395  29.308  1.00  0.00     0.014 A 
ATOM     34  C   UNL A   1      36.500  33.665  29.128  1.00  0.00     0.010 A 
ATOM     35  C   UNL A   1      35.126  31.864  29.974  1.00  0.00     0.010 A 
ATOM     36  C   UNL A   1      36.378  32.490  29.887  1.00  0.00    -0.014 A 
BRANCH  36  37
ATOM     37  C   UNL A   1      37.546  31.895  30.591  1.00  0.00     0.031 A 
ATOM     38  C   UNL A   1      38.390  30.853  29.904  1.00  0.00     0.074 A 
ATOM     39  C   UNL A   1      37.806  32.248  31.867  1.00  0.00     0.049 A 
ATOM     40  N   UNL A   1      39.398  30.165  30.373  1.00  0.00    -0.248 NA
ATOM     41  C   UNL A   1      38.036  30.519  28.514  1.00  0.00     0.031 C 
ATOM     42  C   UNL A   1      37.037  33.219  32.652  1.00  0.00     0.029 A 
ATOM     43  N   UNL A   1      38.783  31.827  32.737  1.00  0.00    -0.354 N 
ATOM     44  C   UNL A   1      39.782  29.304  29.350  1.00  0.00     0.074 A 
ATOM     45  C   UNL A   1      38.868  29.523  28.251  1.00  0.00     0.031 C 
ATOM     46  C   UNL A   1      37.590  33.341  33.869  1.00  0.00     0.029 A 
ATOM     47  C   UNL A   1      38.714  32.418  33.979  1.00  0.00     0.049 A 
ATOM     48  H   UNL A   1      39.469  31.164  32.494  1.00  0.00     0.167 HD
ATOM     49  C   UNL A   1      40.814  28.425  29.326  1.00  0.00     0.034 A 
ATOM     50  C   UNL A   1      39.462  32.227  35.086  1.00  0.00     0.034 A 
ATOM     51  C   UNL A   1      41.735  28.243  30.421  1.00  0.00     0.049 A 
ATOM     52  C   UNL A   1      40.589  31.221  35.032  1.00  0.00     0.074 A 
ATOM     53  C   UNL A   1      42.862  27.441  30.465  1.00  0.00     0.029 A 
ATOM     54  N   UNL A   1      41.633  28.856  31.661  1.00  0.00    -0.354 N 
ATOM     55  N   UNL A   1      40.982  30.472  34.028  1.00  0.00    -0.248 NA
ATOM     56  C   UNL A   1      41.379  31.044  36.258  1.00  0.00     0.031 C 
ATOM     57  C   UNL A   1      43.390  27.502  31.758  1.00  0.00     0.029 A 
ATOM     58  C   UNL A   1      42.650  28.415  32.492  1.00  0.00     0.049 A 
ATOM     59  H   UNL A   1      40.940  29.508  31.913  1.00  0.00     0.167 HD
ATOM     60  C   UNL A   1      42.093  29.770  34.492  1.00  0.00     0.074 A 
ATOM     61  C   UNL A   1      42.316  30.200  35.856  1.00  0.00     0.031 C 
ATOM     62  C   UNL A   1      42.864  28.856  33.850  1.00  0.00     0.034 A 
BRANCH  49  63
ATOM     63  C   UNL A   1      40.989  27.570  28.095  1.00  0.00     0.023 A 
ATOM     64  C   UNL A   1      40.564  26.232  28.047  1.00  0.00     0.031 A 
ATOM     65  C   UNL A   1      41.567  28.120  26.936  1.00  0.00     0.131 A 
ATOM     66  C   UNL A   1      40.764  25.475  26.883  1.00  0.00     0.055 A 
ATOM     67  C   UNL A   1      41.696  27.385  25.757  1.00  0.00     0.041 A 
ATOM     68  F   UNL A   1      42.014  29.386  26.930  1.00  0.00    -0.206 F 
ATOM     69  C   UNL A   1      41.301  26.051  25.728  1.00  0.00     0.022 A 
BRANCH  66  70
ATOM     70  S   UNL A   1      40.413  23.697  26.929  1.00  0.00     0.124 S 
ATOM     71  O   UNL A   1      40.491  23.418  28.360  1.00  0.00    -0.237 OA
ATOM     72  O   UNL A   1      39.084  23.622  26.335  1.00  0.00    -0.237 OA
ATOM     73  O   UNL A   1      41.488  23.114  26.129  1.00  0.00    -0.744 OA
ENDBRANCH  66  70
ENDBRANCH  49  63
BRANCH  50  74
ATOM     74  C   UNL A   1      39.176  32.970  36.349  1.00  0.00     0.023 A 
ATOM     75  C   UNL A   1      39.747  34.231  36.587  1.00  0.00     0.031 A 
ATOM     76  C   UNL A   1      38.411  32.395  37.380  1.00  0.00     0.131 A 
ATOM     77  C   UNL A   1      39.615  34.836  37.847  1.00  0.00     0.055 A 
ATOM     78  C   UNL A   1      38.219  33.034  38.606  1.00  0.00     0.041 A 
ATOM     79  F   UNL A   1      37.839  31.191  37.211  1.00  0.00    -0.206 F 
ATOM     80  C   UNL A   1      38.842  34.253  38.852  1.00  0.00     0.022 A 
BRANCH  77  81
ATOM     81  S   UNL A   1      40.594  36.323  38.199  1.00  0.00     0.124 S 
ATOM     82  O   UNL A   1      41.288  36.525  36.933  1.00  0.00    -0.237 OA
ATOM     83  O   UNL A   1      39.556  37.295  38.525  1.00  0.00    -0.237 OA
ATOM     84  O   UNL A   1      41.440  35.914  39.318  1.00  0.00    -0.744 OA
ENDBRANCH  77  81
ENDBRANCH  50  74
BRANCH  62  85
ATOM     85  C   UNL A   1      44.056  28.310  34.598  1.00  0.00     0.023 A 
ATOM     86  C   UNL A   1      43.973  27.146  35.382  1.00  0.00     0.031 A 
ATOM     87  C   UNL A   1      45.294  28.973  34.528  1.00  0.00     0.131 A 
ATOM     88  C   UNL A   1      45.090  26.718  36.115  1.00  0.00     0.055 A 
ATOM     89  C   UNL A   1      46.420  28.501  35.201  1.00  0.00     0.041 A 
ATOM     90  F   UNL A   1      45.431  30.091  33.796  1.00  0.00    -0.206 F 
ATOM     91  C   UNL A   1      46.319  27.375  36.012  1.00  0.00     0.022 A 
BRANCH  88  92
ATOM     92  S   UNL A   1      44.890  25.346  37.284  1.00  0.00     0.124 S 
ATOM     93  O   UNL A   1      46.223  25.249  37.869  1.00  0.00    -0.237 OA
ATOM     94  O   UNL A   1      43.840  25.841  38.170  1.00  0.00    -0.237 OA
ATOM     95  O   UNL A   1      44.503  24.223  36.432  1.00  0.00    -0.744 OA
ENDBRANCH  88  92
ENDBRANCH  62  85
ENDBRANCH  36  37
ENDBRANCH  28  31
ENDBRANCH  26  27
ENDBRANCH   1  26
TORSDOF 16
ENDMDL
MODEL 3
REMARK VINA RESULT:     -11.9      1.839      7.834
REMARK SMILES CC[C@]1(C(=O)NCCCNC(=O)c2ccc(-c3c4nc(c(-c5cc(S(=O)(=O)[O-])ccc5F)c5ccc([nH]5)c(-c5cc(S(=O)(=O)[O-])ccc5F)c5nc(c(-c6cc(S(=O)(=O)[O-])ccc6F)c6ccc3[nH]6)C=C5)C=C4)cc2)CCC[N@@H+]([C@@H]2CCC[C@H](S(C)(=O)=O)C2)C1
REMARK SMILES IDX 8 1 7 2 6 3 4 4 5 5 3 7 76 8 90 9 77 10 79 11 78 12 2 14
REMARK SMILES IDX 1 15 80 16 81 17 89 18 82 19 84 20 83 21 85 22 86 23 87 24
REMARK SMILES IDX 88 25 9 26 10 27 11 28 12 30 13 31 14 32 75 33 15 34 74 35
REMARK SMILES IDX 16 36 17 37 18 38 68 39 19 40 73 41 67 42 69 43 20 44 72 45
REMARK SMILES IDX 66 46 65 47 21 49 53 50 33 51 52 52 34 53 37 54 51 55 70 56
REMARK SMILES IDX 35 57 36 58 50 60 71 61 38 62 22 63 23 64 31 65 24 66 30 67
REMARK SMILES IDX 32 68 29 69 25 70 26 71 27 72 28 73 54 74 55 75 63 76 56 77
REMARK SMILES IDX 62 78 64 79 61 80 57 81 58 82 59 83 60 84 39 85 40 86 48 87
REMARK SMILES IDX 41 88 47 89 49 90 46 91 42 92 43 93 44 94 45 95
REMARK H PARENT 6 6 79 13 10 29 69 48 37 59
REMARK Flexibility Score: inf
ROOT
ATOM      1  C   UNL A   1      31.587  31.781  26.635  1.00  0.00     0.042 C 
ENDROOT
BRANCH   1   2
ATOM      2  C   UNL A   1      31.875  30.428  26.003  1.00  0.00     0.117 C 
BRANCH   2   3
ATOM      3  N   UNL A   1      33.044  29.771  26.580  1.00  0.00    -0.355 N 
ATOM      4  C   UNL A   1      33.614  28.550  26.371  1.00  0.00     0.231 C 
ATOM      5  O   UNL A   1      34.699  28.367  26.931  1.00  0.00    -0.274 OA
ATOM      6  H   UNL A   1      33.512  30.318  27.252  1.00  0.00     0.163 HD
BRANCH   4   7
ATOM      7  C   UNL A   1      32.976  27.485  25.451  1.00  0.00     0.098 C 
ATOM      8  C   UNL A   1      33.293  27.791  23.968  1.00  0.00     0.028 C 
ATOM      9  C   UNL A   1      33.550  26.108  25.919  1.00  0.00     0.279 C 
ATOM     10  C   UNL A   1      33.127  26.572  23.076  1.00  0.00     0.063 C 
ATOM     11  N   UNL A   1      33.480  24.996  24.953  1.00  0.00    -0.332 N 
ATOM     12  C   UNL A   1      33.933  25.395  23.613  1.00  0.00     0.262 C 
ATOM     13  H   UNL A   1      32.499  24.745  24.833  1.00  0.00     0.348 HD
BRANCH   7  14
ATOM     14  C   UNL A   1      31.423  27.423  25.652  1.00  0.00     0.019 C 
ATOM     15  C   UNL A   1      30.546  27.600  24.413  1.00  0.00     0.005 C 
ENDBRANCH   7  14
BRANCH  11  16
ATOM     16  C   UNL A   1      34.151  23.779  25.481  1.00  0.00     0.185 C 
ATOM     17  C   UNL A   1      35.667  23.684  25.190  1.00  0.00     0.065 C 
ATOM     18  C   UNL A   1      33.418  22.510  25.005  1.00  0.00     0.084 C 
ATOM     19  C   UNL A   1      36.272  22.398  25.746  1.00  0.00     0.007 C 
ATOM     20  C   UNL A   1      34.065  21.206  25.492  1.00  0.00     0.114 C 
ATOM     21  C   UNL A   1      35.563  21.173  25.187  1.00  0.00     0.020 C 
BRANCH  20  22
ATOM     22  S   UNL A   1      33.197  19.814  24.727  1.00  0.00     0.150 S 
ATOM     23  C   UNL A   1      32.429  20.489  23.276  1.00  0.00     0.158 C 
ATOM     24  O   UNL A   1      34.201  18.872  24.264  1.00  0.00    -0.229 OA
ATOM     25  O   UNL A   1      32.135  19.384  25.614  1.00  0.00    -0.229 OA
ENDBRANCH  20  22
ENDBRANCH  11  16
ENDBRANCH   4   7
ENDBRANCH   2   3
ENDBRANCH   1   2
BRANCH   1  26
ATOM     26  C   UNL A   1      32.799  32.422  27.291  1.00  0.00     0.118 C 
BRANCH  26  27
ATOM     27  N   UNL A   1      32.591  33.833  27.586  1.00  0.00    -0.352 N 
ATOM     28  C   UNL A   1      33.167  34.628  28.547  1.00  0.00     0.251 C 
ATOM     29  H   UNL A   1      31.937  34.288  27.006  1.00  0.00     0.163 HD
ATOM     30  O   UNL A   1      32.693  35.738  28.771  1.00  0.00    -0.269 OA
BRANCH  28  31
ATOM     31  C   UNL A   1      34.327  34.137  29.323  1.00  0.00     0.039 A 
ATOM     32  C   UNL A   1      34.102  33.363  30.464  1.00  0.00     0.014 A 
ATOM     33  C   UNL A   1      35.634  34.438  28.932  1.00  0.00     0.014 A 
ATOM     34  C   UNL A   1      35.188  32.831  31.164  1.00  0.00     0.010 A 
ATOM     35  C   UNL A   1      36.708  33.826  29.569  1.00  0.00     0.010 A 
ATOM     36  C   UNL A   1      36.499  33.020  30.697  1.00  0.00    -0.014 A 
BRANCH  36  37
ATOM     37  C   UNL A   1      37.664  32.390  31.375  1.00  0.00     0.031 A 
ATOM     38  C   UNL A   1      38.406  31.262  30.706  1.00  0.00     0.074 A 
ATOM     39  C   UNL A   1      38.011  32.791  32.616  1.00  0.00     0.049 A 
ATOM     40  N   UNL A   1      39.393  30.536  31.163  1.00  0.00    -0.248 NA
ATOM     41  C   UNL A   1      37.960  30.879  29.356  1.00  0.00     0.031 C 
ATOM     42  C   UNL A   1      37.344  33.848  33.382  1.00  0.00     0.029 A 
ATOM     43  N   UNL A   1      39.004  32.355  33.459  1.00  0.00    -0.354 N 
ATOM     44  C   UNL A   1      39.670  29.601  30.171  1.00  0.00     0.074 A 
ATOM     45  C   UNL A   1      38.715  29.820  29.108  1.00  0.00     0.031 C 
ATOM     46  C   UNL A   1      37.966  33.998  34.562  1.00  0.00     0.029 A 
ATOM     47  C   UNL A   1      39.036  33.012  34.668  1.00  0.00     0.049 A 
ATOM     48  H   UNL A   1      39.635  31.637  33.219  1.00  0.00     0.167 HD
ATOM     49  C   UNL A   1      40.644  28.657  30.145  1.00  0.00     0.034 A 
ATOM     50  C   UNL A   1      39.827  32.831  35.746  1.00  0.00     0.034 A 
ATOM     51  C   UNL A   1      41.608  28.474  31.202  1.00  0.00     0.049 A 
ATOM     52  C   UNL A   1      40.887  31.755  35.693  1.00  0.00     0.074 A 
ATOM     53  C   UNL A   1      42.685  27.606  31.236  1.00  0.00     0.029 A 
ATOM     54  N   UNL A   1      41.608  29.157  32.410  1.00  0.00    -0.354 N 
ATOM     55  N   UNL A   1      41.181  30.931  34.713  1.00  0.00    -0.248 NA
ATOM     56  C   UNL A   1      41.727  31.592  36.887  1.00  0.00     0.031 C 
ATOM     57  C   UNL A   1      43.282  27.700  32.496  1.00  0.00     0.029 A 
ATOM     58  C   UNL A   1      42.638  28.696  33.214  1.00  0.00     0.049 A 
ATOM     59  H   UNL A   1      40.970  29.864  32.659  1.00  0.00     0.167 HD
ATOM     60  C   UNL A   1      42.269  30.185  35.161  1.00  0.00     0.074 A 
ATOM     61  C   UNL A   1      42.588  30.670  36.487  1.00  0.00     0.031 C 
ATOM     62  C   UNL A   1      42.949  29.191  34.533  1.00  0.00     0.034 A 
BRANCH  49  63
ATOM     63  C   UNL A   1      40.702  27.730  28.956  1.00  0.00     0.023 A 
ATOM     64  C   UNL A   1      41.654  27.885  27.934  1.00  0.00     0.031 A 
ATOM     65  C   UNL A   1      39.803  26.652  28.862  1.00  0.00     0.131 A 
ATOM     66  C   UNL A   1      41.656  27.005  26.841  1.00  0.00     0.055 A 
ATOM     67  C   UNL A   1      39.858  25.736  27.810  1.00  0.00     0.041 A 
ATOM     68  F   UNL A   1      38.856  26.469  29.796  1.00  0.00    -0.206 F 
ATOM     69  C   UNL A   1      40.784  25.914  26.787  1.00  0.00     0.022 A 
BRANCH  66  70
ATOM     70  S   UNL A   1      42.744  27.365  25.436  1.00  0.00     0.124 S 
ATOM     71  O   UNL A   1      42.694  26.109  24.694  1.00  0.00    -0.237 OA
ATOM     72  O   UNL A   1      42.085  28.505  24.811  1.00  0.00    -0.237 OA
ATOM     73  O   UNL A   1      44.031  27.658  26.065  1.00  0.00    -0.744 OA
ENDBRANCH  66  70
ENDBRANCH  49  63
BRANCH  50  74
ATOM     74  C   UNL A   1      39.654  33.656  36.979  1.00  0.00     0.023 A 
ATOM     75  C   UNL A   1      39.011  33.132  38.112  1.00  0.00     0.031 A 
ATOM     76  C   UNL A   1      40.038  35.010  37.013  1.00  0.00     0.131 A 
ATOM     77  C   UNL A   1      38.697  33.970  39.193  1.00  0.00     0.055 A 
ATOM     78  C   UNL A   1      39.791  35.822  38.121  1.00  0.00     0.041 A 
ATOM     79  F   UNL A   1      40.656  35.568  35.960  1.00  0.00    -0.206 F 
ATOM     80  C   UNL A   1      39.096  35.307  39.212  1.00  0.00     0.022 A 
BRANCH  77  81
ATOM     81  S   UNL A   1      37.627  33.322  40.508  1.00  0.00     0.124 S 
ATOM     82  O   UNL A   1      36.508  32.789  39.740  1.00  0.00    -0.237 OA
ATOM     83  O   UNL A   1      38.496  32.339  41.145  1.00  0.00    -0.237 OA
ATOM     84  O   UNL A   1      37.327  34.504  41.313  1.00  0.00    -0.744 OA
ENDBRANCH  77  81
ENDBRANCH  50  74
BRANCH  62  85
ATOM     85  C   UNL A   1      44.143  28.610  35.251  1.00  0.00     0.023 A 
ATOM     86  C   UNL A   1      44.020  27.538  36.152  1.00  0.00     0.031 A 
ATOM     87  C   UNL A   1      45.425  29.147  35.033  1.00  0.00     0.131 A 
ATOM     88  C   UNL A   1      45.148  27.079  36.848  1.00  0.00     0.055 A 
ATOM     89  C   UNL A   1      46.554  28.638  35.674  1.00  0.00     0.041 A 
ATOM     90  F   UNL A   1      45.601  30.174  34.186  1.00  0.00    -0.206 F 
ATOM     91  C   UNL A   1      46.418  27.608  36.598  1.00  0.00     0.022 A 
BRANCH  88  92
ATOM     92  S   UNL A   1      44.920  25.847  38.159  1.00  0.00     0.124 S 
ATOM     93  O   UNL A   1      44.441  24.691  37.408  1.00  0.00    -0.237 OA
ATOM     94  O   UNL A   1      46.264  25.732  38.717  1.00  0.00    -0.237 OA
ATOM     95  O   UNL A   1      43.933  26.465  39.042  1.00  0.00    -0.744 OA
ENDBRANCH  88  92
ENDBRANCH  62  85
ENDBRANCH  36  37
ENDBRANCH  28  31
ENDBRANCH  26  27
ENDBRANCH   1  26
TORSDOF 16
ENDMDL
