MODEL 1
REMARK VINA RESULT:     -12.6      0.000      0.000
REMARK SMILES CCC[C@@H]1C[N@@H+](Cc2cc(OC)c3c(c2)OCO3)C[C@H]1C(=O)NCCCNC(=O)c1ccc(-c2c3nc(c(-c4cc(S(=O)(=O)[O-])ccc4F)c4ccc([nH]4)c(-c4cc(S(=O)(=O)[O-])ccc4F)c4nc(c(-c5cc(S(=O)(=O)[O-])ccc5F)c5ccc2[nH]5)C=C4)C=C3)cc1
REMARK SMILES IDX 25 1 24 2 23 3 21 4 22 5 20 7 4 8 5 9 6 10 19 11 3 13 2 14
REMARK SMILES IDX 1 15 7 16 8 17 9 18 15 19 10 20 14 21 13 22 16 23 18 24
REMARK SMILES IDX 17 25 11 26 12 27 26 28 27 29 28 30 29 32 30 33 31 34 92 35
REMARK SMILES IDX 32 36 91 37 33 38 34 39 35 40 85 41 36 42 90 43 84 44 86 45
REMARK SMILES IDX 37 46 89 47 83 48 82 49 38 51 70 52 50 53 69 54 51 55 54 56
REMARK SMILES IDX 68 57 87 58 52 59 53 60 67 62 88 63 55 64 39 65 40 66 48 67
REMARK SMILES IDX 41 68 47 69 49 70 46 71 42 72 43 73 44 74 45 75 71 76 72 77
REMARK SMILES IDX 80 78 73 79 79 80 81 81 78 82 74 83 75 84 76 85 77 86 56 87
REMARK SMILES IDX 57 88 65 89 58 90 64 91 66 92 63 93 59 94 60 95 61 96 62 97
REMARK H PARENT 23 6 6 12 27 31 86 50 54 61
REMARK Flexibility Score: inf
ROOT
ATOM      1  C   UNL A   1      31.776  29.073  26.907  1.00  0.00     0.042 C 
ENDROOT
BRANCH   1   2
ATOM      2  C   UNL A   1      32.023  27.571  26.574  1.00  0.00     0.117 C 
BRANCH   2   3
ATOM      3  N   UNL A   1      30.911  26.599  26.637  1.00  0.00    -0.356 N 
ATOM      4  C   UNL A   1      30.278  25.678  25.846  1.00  0.00     0.229 C 
ATOM      5  O   UNL A   1      29.572  24.872  26.475  1.00  0.00    -0.275 OA
ATOM      6  H   UNL A   1      30.494  26.621  27.528  1.00  0.00     0.163 HD
BRANCH   4   7
ATOM      7  C   UNL A   1      30.291  25.546  24.299  1.00  0.00     0.142 C 
ATOM      8  C   UNL A   1      31.417  26.366  23.575  1.00  0.00     0.062 C 
ATOM      9  C   UNL A   1      31.628  25.562  22.290  1.00  0.00     0.267 C 
ATOM     10  N   UNL A   1      31.543  24.173  22.717  1.00  0.00    -0.330 N 
ATOM     11  C   UNL A   1      30.459  24.139  23.706  1.00  0.00     0.276 C 
ATOM     12  H   UNL A   1      31.306  23.552  21.943  1.00  0.00     0.348 HD
BRANCH   8  13
ATOM     13  C   UNL A   1      31.311  27.874  23.322  1.00  0.00     0.010 C 
BRANCH  13  14
ATOM     14  C   UNL A   1      29.831  28.325  23.122  1.00  0.00    -0.003 C 
ATOM     15  C   UNL A   1      29.529  29.806  23.331  1.00  0.00     0.004 C 
ENDBRANCH  13  14
ENDBRANCH   8  13
BRANCH  10  16
ATOM     16  C   UNL A   1      32.837  23.528  23.070  1.00  0.00     0.299 C 
BRANCH  16  17
ATOM     17  C   UNL A   1      32.894  22.194  23.812  1.00  0.00     0.014 A 
ATOM     18  C   UNL A   1      33.268  22.143  25.158  1.00  0.00     0.060 A 
ATOM     19  C   UNL A   1      32.501  20.977  23.259  1.00  0.00     0.060 A 
ATOM     20  C   UNL A   1      33.441  21.000  25.941  1.00  0.00     0.165 A 
ATOM     21  C   UNL A   1      32.563  19.835  24.062  1.00  0.00     0.170 A 
ATOM     22  C   UNL A   1      33.039  19.834  25.364  1.00  0.00     0.207 A 
ATOM     23  O   UNL A   1      32.152  18.594  23.676  1.00  0.00    -0.453 OA
ATOM     24  O   UNL A   1      32.996  18.603  25.932  1.00  0.00    -0.450 OA
ATOM     25  C   UNL A   1      32.326  17.851  24.901  1.00  0.00     0.468 C 
BRANCH  20  26
ATOM     26  O   UNL A   1      33.945  21.261  27.174  1.00  0.00    -0.493 OA
ATOM     27  C   UNL A   1      33.283  22.202  28.000  1.00  0.00     0.278 C 
ENDBRANCH  20  26
ENDBRANCH  16  17
ENDBRANCH  10  16
ENDBRANCH   4   7
ENDBRANCH   2   3
ENDBRANCH   1   2
BRANCH   1  28
ATOM     28  C   UNL A   1      32.177  30.150  25.862  1.00  0.00     0.118 C 
BRANCH  28  29
ATOM     29  N   UNL A   1      32.071  31.503  26.395  1.00  0.00    -0.352 N 
ATOM     30  C   UNL A   1      32.855  32.244  27.251  1.00  0.00     0.251 C 
ATOM     31  H   UNL A   1      31.274  31.986  26.078  1.00  0.00     0.163 HD
ATOM     32  O   UNL A   1      32.344  33.274  27.699  1.00  0.00    -0.269 OA
BRANCH  30  33
ATOM     33  C   UNL A   1      34.259  31.923  27.664  1.00  0.00     0.039 A 
ATOM     34  C   UNL A   1      34.524  30.601  28.059  1.00  0.00     0.014 A 
ATOM     35  C   UNL A   1      35.252  32.879  27.894  1.00  0.00     0.014 A 
ATOM     36  C   UNL A   1      35.737  30.245  28.678  1.00  0.00     0.010 A 
ATOM     37  C   UNL A   1      36.486  32.516  28.499  1.00  0.00     0.010 A 
ATOM     38  C   UNL A   1      36.740  31.196  28.918  1.00  0.00    -0.014 A 
BRANCH  38  39
ATOM     39  C   UNL A   1      38.005  30.769  29.616  1.00  0.00     0.031 A 
ATOM     40  C   UNL A   1      38.306  31.177  31.045  1.00  0.00     0.074 A 
ATOM     41  C   UNL A   1      38.868  29.930  29.001  1.00  0.00     0.049 A 
ATOM     42  N   UNL A   1      39.277  30.777  31.836  1.00  0.00    -0.248 NA
ATOM     43  C   UNL A   1      37.408  32.161  31.658  1.00  0.00     0.031 C 
ATOM     44  C   UNL A   1      38.735  29.449  27.626  1.00  0.00     0.029 A 
ATOM     45  N   UNL A   1      40.015  29.315  29.454  1.00  0.00    -0.354 N 
ATOM     46  C   UNL A   1      39.096  31.445  33.046  1.00  0.00     0.074 A 
ATOM     47  C   UNL A   1      37.953  32.319  32.858  1.00  0.00     0.031 C 
ATOM     48  C   UNL A   1      39.733  28.589  27.360  1.00  0.00     0.029 A 
ATOM     49  C   UNL A   1      40.596  28.468  28.534  1.00  0.00     0.049 A 
ATOM     50  H   UNL A   1      40.387  29.466  30.354  1.00  0.00     0.167 HD
ATOM     51  C   UNL A   1      39.790  31.330  34.210  1.00  0.00     0.034 A 
ATOM     52  C   UNL A   1      41.684  27.671  28.617  1.00  0.00     0.034 A 
ATOM     53  C   UNL A   1      40.936  30.468  34.410  1.00  0.00     0.049 A 
ATOM     54  C   UNL A   1      42.459  27.587  29.912  1.00  0.00     0.074 A 
ATOM     55  C   UNL A   1      41.680  30.274  35.565  1.00  0.00     0.029 A 
ATOM     56  N   UNL A   1      41.510  29.660  33.441  1.00  0.00    -0.354 N 
ATOM     57  N   UNL A   1      42.229  28.189  31.055  1.00  0.00    -0.248 NA
ATOM     58  C   UNL A   1      43.630  26.697  29.927  1.00  0.00     0.031 C 
ATOM     59  C   UNL A   1      42.736  29.402  35.277  1.00  0.00     0.029 A 
ATOM     60  C   UNL A   1      42.612  28.992  33.962  1.00  0.00     0.049 A 
ATOM     61  H   UNL A   1      41.184  29.571  32.516  1.00  0.00     0.167 HD
ATOM     62  C   UNL A   1      43.208  27.720  31.931  1.00  0.00     0.074 A 
ATOM     63  C   UNL A   1      44.008  26.768  31.194  1.00  0.00     0.031 C 
ATOM     64  C   UNL A   1      43.425  28.050  33.230  1.00  0.00     0.034 A 
BRANCH  51  65
ATOM     65  C   UNL A   1      39.339  32.178  35.380  1.00  0.00     0.023 A 
ATOM     66  C   UNL A   1      39.800  33.495  35.554  1.00  0.00     0.031 A 
ATOM     67  C   UNL A   1      38.413  31.677  36.314  1.00  0.00     0.131 A 
ATOM     68  C   UNL A   1      39.380  34.245  36.663  1.00  0.00     0.055 A 
ATOM     69  C   UNL A   1      37.945  32.454  37.377  1.00  0.00     0.041 A 
ATOM     70  F   UNL A   1      37.945  30.424  36.207  1.00  0.00    -0.206 F 
ATOM     71  C   UNL A   1      38.437  33.742  37.562  1.00  0.00     0.022 A 
BRANCH  68  72
ATOM     72  S   UNL A   1      40.162  35.852  36.971  1.00  0.00     0.124 S 
ATOM     73  O   UNL A   1      39.642  36.184  38.295  1.00  0.00    -0.237 OA
ATOM     74  O   UNL A   1      41.582  35.532  36.901  1.00  0.00    -0.237 OA
ATOM     75  O   UNL A   1      39.659  36.692  35.884  1.00  0.00    -0.744 OA
ENDBRANCH  68  72
ENDBRANCH  51  65
BRANCH  52  76
ATOM     76  C   UNL A   1      42.136  26.872  27.437  1.00  0.00     0.023 A 
ATOM     77  C   UNL A   1      41.865  25.497  27.342  1.00  0.00     0.031 A 
ATOM     78  C   UNL A   1      42.931  27.457  26.435  1.00  0.00     0.131 A 
ATOM     79  C   UNL A   1      42.438  24.739  26.308  1.00  0.00     0.055 A 
ATOM     80  C   UNL A   1      43.447  26.711  25.374  1.00  0.00     0.041 A 
ATOM     81  F   UNL A   1      43.222  28.767  26.478  1.00  0.00    -0.206 F 
ATOM     82  C   UNL A   1      43.218  25.340  25.317  1.00  0.00     0.022 A 
BRANCH  79  83
ATOM     83  S   UNL A   1      42.254  22.933  26.346  1.00  0.00     0.124 S 
ATOM     84  O   UNL A   1      43.193  22.560  27.398  1.00  0.00    -0.237 OA
ATOM     85  O   UNL A   1      40.838  22.783  26.667  1.00  0.00    -0.237 OA
ATOM     86  O   UNL A   1      42.633  22.525  24.996  1.00  0.00    -0.744 OA
ENDBRANCH  79  83
ENDBRANCH  52  76
BRANCH  64  87
ATOM     87  C   UNL A   1      44.558  27.343  33.941  1.00  0.00     0.023 A 
ATOM     88  C   UNL A   1      44.326  26.259  34.806  1.00  0.00     0.031 A 
ATOM     89  C   UNL A   1      45.883  27.793  33.794  1.00  0.00     0.131 A 
ATOM     90  C   UNL A   1      45.386  25.711  35.549  1.00  0.00     0.055 A 
ATOM     91  C   UNL A   1      46.943  27.203  34.487  1.00  0.00     0.041 A 
ATOM     92  F   UNL A   1      46.169  28.825  32.983  1.00  0.00    -0.206 F 
ATOM     93  C   UNL A   1      46.696  26.169  35.384  1.00  0.00     0.022 A 
BRANCH  90  94
ATOM     94  S   UNL A   1      45.012  24.473  36.822  1.00  0.00     0.124 S 
ATOM     95  O   UNL A   1      46.045  24.738  37.818  1.00  0.00    -0.237 OA
ATOM     96  O   UNL A   1      43.650  24.827  37.209  1.00  0.00    -0.237 OA
ATOM     97  O   UNL A   1      45.144  23.201  36.114  1.00  0.00    -0.744 OA
ENDBRANCH  90  94
ENDBRANCH  64  87
ENDBRANCH  38  39
ENDBRANCH  30  33
ENDBRANCH  28  29
ENDBRANCH   1  28
TORSDOF 18
ENDMDL
MODEL 2
REMARK VINA RESULT:     -12.3      2.033      2.413
REMARK SMILES CCC[C@@H]1C[N@@H+](Cc2cc(OC)c3c(c2)OCO3)C[C@H]1C(=O)NCCCNC(=O)c1ccc(-c2c3nc(c(-c4cc(S(=O)(=O)[O-])ccc4F)c4ccc([nH]4)c(-c4cc(S(=O)(=O)[O-])ccc4F)c4nc(c(-c5cc(S(=O)(=O)[O-])ccc5F)c5ccc2[nH]5)C=C4)C=C3)cc1
REMARK SMILES IDX 25 1 24 2 23 3 21 4 22 5 20 7 4 8 5 9 6 10 19 11 3 13 2 14
REMARK SMILES IDX 1 15 7 16 8 17 9 18 15 19 10 20 14 21 13 22 16 23 18 24
REMARK SMILES IDX 17 25 11 26 12 27 26 28 27 29 28 30 29 32 30 33 31 34 92 35
REMARK SMILES IDX 32 36 91 37 33 38 34 39 35 40 85 41 36 42 90 43 84 44 86 45
REMARK SMILES IDX 37 46 89 47 83 48 82 49 38 51 70 52 50 53 69 54 51 55 54 56
REMARK SMILES IDX 68 57 87 58 52 59 53 60 67 62 88 63 55 64 39 65 40 66 48 67
REMARK SMILES IDX 41 68 47 69 49 70 46 71 42 72 43 73 44 74 45 75 71 76 72 77
REMARK SMILES IDX 80 78 73 79 79 80 81 81 78 82 74 83 75 84 76 85 77 86 56 87
REMARK SMILES IDX 57 88 65 89 58 90 64 91 66 92 63 93 59 94 60 95 61 96 62 97
REMARK H PARENT 23 6 6 12 27 31 86 50 54 61
REMARK Flexibility Score: inf
ROOT
ATOM      1  C   UNL A   1      31.803  29.153  26.976  1.00  0.00     0.042 C 
ENDROOT
BRANCH   1   2
ATOM      2  C   UNL A   1      32.044  27.654  26.627  1.00  0.00     0.117 C 
BRANCH   2   3
ATOM      3  N   UNL A   1      30.932  26.682  26.696  1.00  0.00    -0.356 N 
ATOM      4  C   UNL A   1      30.208  25.858  25.877  1.00  0.00     0.229 C 
ATOM      5  O   UNL A   1      29.561  24.986  26.482  1.00  0.00    -0.275 OA
ATOM      6  H   UNL A   1      30.611  26.603  27.623  1.00  0.00     0.163 HD
BRANCH   4   7
ATOM      7  C   UNL A   1      30.060  25.902  24.333  1.00  0.00     0.142 C 
ATOM      8  C   UNL A   1      30.677  27.171  23.644  1.00  0.00     0.062 C 
ATOM      9  C   UNL A   1      31.000  26.654  22.241  1.00  0.00     0.267 C 
ATOM     10  N   UNL A   1      31.511  25.309  22.462  1.00  0.00    -0.330 N 
ATOM     11  C   UNL A   1      30.669  24.745  23.525  1.00  0.00     0.276 C 
ATOM     12  H   UNL A   1      31.426  24.727  21.628  1.00  0.00     0.348 HD
BRANCH   8  13
ATOM     13  C   UNL A   1      29.969  28.530  23.628  1.00  0.00     0.010 C 
BRANCH  13  14
ATOM     14  C   UNL A   1      28.493  28.409  23.139  1.00  0.00    -0.003 C 
ATOM     15  C   UNL A   1      27.873  29.653  22.507  1.00  0.00     0.004 C 
ENDBRANCH  13  14
ENDBRANCH   8  13
BRANCH  10  16
ATOM     16  C   UNL A   1      32.988  25.197  22.604  1.00  0.00     0.299 C 
BRANCH  16  17
ATOM     17  C   UNL A   1      33.647  23.957  23.206  1.00  0.00     0.014 A 
ATOM     18  C   UNL A   1      34.918  24.035  23.785  1.00  0.00     0.060 A 
ATOM     19  C   UNL A   1      33.023  22.716  23.312  1.00  0.00     0.060 A 
ATOM     20  C   UNL A   1      35.674  22.980  24.300  1.00  0.00     0.165 A 
ATOM     21  C   UNL A   1      33.722  21.673  23.925  1.00  0.00     0.170 A 
ATOM     22  C   UNL A   1      35.022  21.788  24.391  1.00  0.00     0.207 A 
ATOM     23  O   UNL A   1      33.215  20.429  24.154  1.00  0.00    -0.453 OA
ATOM     24  O   UNL A   1      35.479  20.638  24.946  1.00  0.00    -0.450 OA
ATOM     25  C   UNL A   1      34.292  19.822  24.897  1.00  0.00     0.468 C 
BRANCH  20  26
ATOM     26  O   UNL A   1      36.929  23.345  24.666  1.00  0.00    -0.493 OA
ATOM     27  C   UNL A   1      37.148  23.820  25.982  1.00  0.00     0.278 C 
ENDBRANCH  20  26
ENDBRANCH  16  17
ENDBRANCH  10  16
ENDBRANCH   4   7
ENDBRANCH   2   3
ENDBRANCH   1   2
BRANCH   1  28
ATOM     28  C   UNL A   1      32.224  30.241  25.949  1.00  0.00     0.118 C 
BRANCH  28  29
ATOM     29  N   UNL A   1      32.160  31.584  26.510  1.00  0.00    -0.352 N 
ATOM     30  C   UNL A   1      32.977  32.289  27.367  1.00  0.00     0.251 C 
ATOM     31  H   UNL A   1      31.370  32.093  26.217  1.00  0.00     0.163 HD
ATOM     32  O   UNL A   1      32.498  33.321  27.844  1.00  0.00    -0.269 OA
BRANCH  30  33
ATOM     33  C   UNL A   1      34.379  31.925  27.749  1.00  0.00     0.039 A 
ATOM     34  C   UNL A   1      34.604  30.609  28.186  1.00  0.00     0.014 A 
ATOM     35  C   UNL A   1      35.416  32.848  27.911  1.00  0.00     0.014 A 
ATOM     36  C   UNL A   1      35.821  30.227  28.781  1.00  0.00     0.010 A 
ATOM     37  C   UNL A   1      36.654  32.457  28.491  1.00  0.00     0.010 A 
ATOM     38  C   UNL A   1      36.869  31.144  28.953  1.00  0.00    -0.014 A 
BRANCH  38  39
ATOM     39  C   UNL A   1      38.137  30.691  29.628  1.00  0.00     0.031 A 
ATOM     40  C   UNL A   1      38.474  31.096  31.050  1.00  0.00     0.074 A 
ATOM     41  C   UNL A   1      38.970  29.833  28.999  1.00  0.00     0.049 A 
ATOM     42  N   UNL A   1      39.451  30.678  31.823  1.00  0.00    -0.248 NA
ATOM     43  C   UNL A   1      37.609  32.101  31.677  1.00  0.00     0.031 C 
ATOM     44  C   UNL A   1      38.800  29.352  27.628  1.00  0.00     0.029 A 
ATOM     45  N   UNL A   1      40.112  29.194  29.431  1.00  0.00    -0.354 N 
ATOM     46  C   UNL A   1      39.307  31.352  33.035  1.00  0.00     0.074 A 
ATOM     47  C   UNL A   1      38.181  32.250  32.866  1.00  0.00     0.031 C 
ATOM     48  C   UNL A   1      39.774  28.470  27.345  1.00  0.00     0.029 A 
ATOM     49  C   UNL A   1      40.656  28.332  28.503  1.00  0.00     0.049 A 
ATOM     50  H   UNL A   1      40.504  29.339  30.323  1.00  0.00     0.167 HD
ATOM     51  C   UNL A   1      40.022  31.225  34.186  1.00  0.00     0.034 A 
ATOM     52  C   UNL A   1      41.728  27.512  28.567  1.00  0.00     0.034 A 
ATOM     53  C   UNL A   1      41.152  30.339  34.366  1.00  0.00     0.049 A 
ATOM     54  C   UNL A   1      42.526  27.415  29.847  1.00  0.00     0.074 A 
ATOM     55  C   UNL A   1      41.914  30.132  35.507  1.00  0.00     0.029 A 
ATOM     56  N   UNL A   1      41.690  29.516  33.388  1.00  0.00    -0.354 N 
ATOM     57  N   UNL A   1      42.331  28.024  30.993  1.00  0.00    -0.248 NA
ATOM     58  C   UNL A   1      43.678  26.500  29.843  1.00  0.00     0.031 C 
ATOM     59  C   UNL A   1      42.946  29.236  35.201  1.00  0.00     0.029 A 
ATOM     60  C   UNL A   1      42.788  28.825  33.890  1.00  0.00     0.049 A 
ATOM     61  H   UNL A   1      41.345  29.432  32.469  1.00  0.00     0.167 HD
ATOM     62  C   UNL A   1      43.317  27.536  31.851  1.00  0.00     0.074 A 
ATOM     63  C   UNL A   1      44.082  26.566  31.102  1.00  0.00     0.031 C 
ATOM     64  C   UNL A   1      43.566  27.865  33.145  1.00  0.00     0.034 A 
BRANCH  51  65
ATOM     65  C   UNL A   1      39.612  32.085  35.361  1.00  0.00     0.023 A 
ATOM     66  C   UNL A   1      38.827  31.571  36.409  1.00  0.00     0.031 A 
ATOM     67  C   UNL A   1      40.036  33.424  35.454  1.00  0.00     0.131 A 
ATOM     68  C   UNL A   1      38.445  32.402  37.473  1.00  0.00     0.055 A 
ATOM     69  C   UNL A   1      39.710  34.226  36.550  1.00  0.00     0.041 A 
ATOM     70  F   UNL A   1      40.779  33.974  34.481  1.00  0.00    -0.206 F 
ATOM     71  C   UNL A   1      38.901  33.719  37.563  1.00  0.00     0.022 A 
BRANCH  68  72
ATOM     72  S   UNL A   1      37.257  31.768  38.687  1.00  0.00     0.124 S 
ATOM     73  O   UNL A   1      38.010  31.895  39.931  1.00  0.00    -0.237 OA
ATOM     74  O   UNL A   1      36.126  32.673  38.526  1.00  0.00    -0.237 OA
ATOM     75  O   UNL A   1      37.020  30.392  38.248  1.00  0.00    -0.744 OA
ENDBRANCH  68  72
ENDBRANCH  51  65
BRANCH  52  76
ATOM     76  C   UNL A   1      42.140  26.701  27.381  1.00  0.00     0.023 A 
ATOM     77  C   UNL A   1      41.792  25.344  27.270  1.00  0.00     0.031 A 
ATOM     78  C   UNL A   1      42.972  27.250  26.389  1.00  0.00     0.131 A 
ATOM     79  C   UNL A   1      42.327  24.566  26.231  1.00  0.00     0.055 A 
ATOM     80  C   UNL A   1      43.451  26.487  25.322  1.00  0.00     0.041 A 
ATOM     81  F   UNL A   1      43.337  28.541  26.447  1.00  0.00    -0.206 F 
ATOM     82  C   UNL A   1      43.144  25.131  25.250  1.00  0.00     0.022 A 
BRANCH  79  83
ATOM     83  S   UNL A   1      42.040  22.773  26.250  1.00  0.00     0.124 S 
ATOM     84  O   UNL A   1      40.583  22.705  26.256  1.00  0.00    -0.237 OA
ATOM     85  O   UNL A   1      42.698  22.351  25.017  1.00  0.00    -0.237 OA
ATOM     86  O   UNL A   1      42.692  22.339  27.483  1.00  0.00    -0.744 OA
ENDBRANCH  79  83
ENDBRANCH  52  76
BRANCH  64  87
ATOM     87  C   UNL A   1      44.697  27.135  33.835  1.00  0.00     0.023 A 
ATOM     88  C   UNL A   1      46.014  27.630  33.823  1.00  0.00     0.031 A 
ATOM     89  C   UNL A   1      44.466  25.900  34.469  1.00  0.00     0.131 A 
ATOM     90  C   UNL A   1      47.060  26.861  34.361  1.00  0.00     0.055 A 
ATOM     91  C   UNL A   1      45.501  25.170  35.059  1.00  0.00     0.041 A 
ATOM     92  F   UNL A   1      43.231  25.375  34.514  1.00  0.00    -0.206 F 
ATOM     93  C   UNL A   1      46.809  25.640  34.991  1.00  0.00     0.022 A 
BRANCH  90  94
ATOM     94  S   UNL A   1      48.769  27.423  34.121  1.00  0.00     0.124 S 
ATOM     95  O   UNL A   1      49.261  27.498  35.493  1.00  0.00    -0.237 OA
ATOM     96  O   UNL A   1      49.334  26.357  33.300  1.00  0.00    -0.237 OA
ATOM     97  O   UNL A   1      48.616  28.710  33.445  1.00  0.00    -0.744 OA
ENDBRANCH  90  94
ENDBRANCH  64  87
ENDBRANCH  38  39
ENDBRANCH  30  33
ENDBRANCH  28  29
ENDBRANCH   1  28
TORSDOF 18
ENDMDL
MODEL 3
REMARK VINA RESULT:     -12.3      1.096      1.881
REMARK SMILES CCC[C@@H]1C[N@@H+](Cc2cc(OC)c3c(c2)OCO3)C[C@H]1C(=O)NCCCNC(=O)c1ccc(-c2c3nc(c(-c4cc(S(=O)(=O)[O-])ccc4F)c4ccc([nH]4)c(-c4cc(S(=O)(=O)[O-])ccc4F)c4nc(c(-c5cc(S(=O)(=O)[O-])ccc5F)c5ccc2[nH]5)C=C4)C=C3)cc1
REMARK SMILES IDX 25 1 24 2 23 3 21 4 22 5 20 7 4 8 5 9 6 10 19 11 3 13 2 14
REMARK SMILES IDX 1 15 7 16 8 17 9 18 15 19 10 20 14 21 13 22 16 23 18 24
REMARK SMILES IDX 17 25 11 26 12 27 26 28 27 29 28 30 29 32 30 33 31 34 92 35
REMARK SMILES IDX 32 36 91 37 33 38 34 39 35 40 85 41 36 42 90 43 84 44 86 45
REMARK SMILES IDX 37 46 89 47 83 48 82 49 38 51 70 52 50 53 69 54 51 55 54 56
REMARK SMILES IDX 68 57 87 58 52 59 53 60 67 62 88 63 55 64 39 65 40 66 48 67
REMARK SMILES IDX 41 68 47 69 49 70 46 71 42 72 43 73 44 74 45 75 71 76 72 77
REMARK SMILES IDX 80 78 73 79 79 80 81 81 78 82 74 83 75 84 76 85 77 86 56 87
REMARK SMILES IDX 57 88 65 89 58 90 64 91 66 92 63 93 59 94 60 95 61 96 62 97
REMARK H PARENT 23 6 6 12 27 31 86 50 54 61
REMARK Flexibility Score: inf
ROOT
ATOM      1  C   UNL A   1      31.213  30.469  25.084  1.00  0.00     0.042 C 
ENDROOT
BRANCH   1   2
ATOM      2  C   UNL A   1      31.101  29.005  24.563  1.00  0.00     0.117 C 
BRANCH   2   3
ATOM      3  N   UNL A   1      31.320  27.866  25.480  1.00  0.00    -0.356 N 
ATOM      4  C   UNL A   1      31.633  26.534  25.440  1.00  0.00     0.229 C 
ATOM      5  O   UNL A   1      32.013  26.071  26.529  1.00  0.00    -0.275 OA
ATOM      6  H   UNL A   1      31.204  28.157  26.413  1.00  0.00     0.163 HD
BRANCH   4   7
ATOM      7  C   UNL A   1      31.531  25.543  24.250  1.00  0.00     0.142 C 
ATOM      8  C   UNL A   1      32.885  24.865  23.836  1.00  0.00     0.062 C 
ATOM      9  C   UNL A   1      32.412  23.552  23.209  1.00  0.00     0.267 C 
ATOM     10  N   UNL A   1      31.317  23.119  24.064  1.00  0.00    -0.330 N 
ATOM     11  C   UNL A   1      30.581  24.344  24.401  1.00  0.00     0.276 C 
ATOM     12  H   UNL A   1      30.688  22.477  23.581  1.00  0.00     0.348 HD
BRANCH   8  13
ATOM     13  C   UNL A   1      33.944  25.580  22.990  1.00  0.00     0.010 C 
BRANCH  13  14
ATOM     14  C   UNL A   1      33.314  26.679  22.081  1.00  0.00    -0.003 C 
ATOM     15  C   UNL A   1      33.815  28.107  22.280  1.00  0.00     0.004 C 
ENDBRANCH  13  14
ENDBRANCH   8  13
BRANCH  10  16
ATOM     16  C   UNL A   1      31.691  22.198  25.172  1.00  0.00     0.299 C 
BRANCH  16  17
ATOM     17  C   UNL A   1      32.895  21.263  25.069  1.00  0.00     0.014 A 
ATOM     18  C   UNL A   1      32.740  19.947  24.623  1.00  0.00     0.060 A 
ATOM     19  C   UNL A   1      34.209  21.657  25.308  1.00  0.00     0.060 A 
ATOM     20  C   UNL A   1      33.726  18.961  24.553  1.00  0.00     0.165 A 
ATOM     21  C   UNL A   1      35.225  20.713  25.136  1.00  0.00     0.170 A 
ATOM     22  C   UNL A   1      34.996  19.391  24.788  1.00  0.00     0.207 A 
ATOM     23  O   UNL A   1      36.556  20.972  25.272  1.00  0.00    -0.453 OA
ATOM     24  O   UNL A   1      36.143  18.675  24.681  1.00  0.00    -0.450 OA
ATOM     25  C   UNL A   1      37.127  19.709  24.874  1.00  0.00     0.468 C 
BRANCH  20  26
ATOM     26  O   UNL A   1      33.242  17.739  24.213  1.00  0.00    -0.493 OA
ATOM     27  C   UNL A   1      32.553  16.978  25.189  1.00  0.00     0.278 C 
ENDBRANCH  20  26
ENDBRANCH  16  17
ENDBRANCH  10  16
ENDBRANCH   4   7
ENDBRANCH   2   3
ENDBRANCH   1   2
BRANCH   1  28
ATOM     28  C   UNL A   1      31.807  30.720  26.498  1.00  0.00     0.118 C 
BRANCH  28  29
ATOM     29  N   UNL A   1      31.919  32.140  26.806  1.00  0.00    -0.352 N 
ATOM     30  C   UNL A   1      32.861  32.888  27.477  1.00  0.00     0.251 C 
ATOM     31  H   UNL A   1      31.167  32.675  26.464  1.00  0.00     0.163 HD
ATOM     32  O   UNL A   1      32.524  34.037  27.779  1.00  0.00    -0.269 OA
BRANCH  30  33
ATOM     33  C   UNL A   1      34.241  32.443  27.849  1.00  0.00     0.039 A 
ATOM     34  C   UNL A   1      34.373  31.158  28.401  1.00  0.00     0.014 A 
ATOM     35  C   UNL A   1      35.357  33.284  27.893  1.00  0.00     0.014 A 
ATOM     36  C   UNL A   1      35.576  30.729  28.993  1.00  0.00     0.010 A 
ATOM     37  C   UNL A   1      36.579  32.843  28.470  1.00  0.00     0.010 A 
ATOM     38  C   UNL A   1      36.702  31.565  29.046  1.00  0.00    -0.014 A 
BRANCH  38  39
ATOM     39  C   UNL A   1      37.953  31.068  29.722  1.00  0.00     0.031 A 
ATOM     40  C   UNL A   1      38.291  31.442  31.152  1.00  0.00     0.074 A 
ATOM     41  C   UNL A   1      38.768  30.198  29.085  1.00  0.00     0.049 A 
ATOM     42  N   UNL A   1      39.251  30.986  31.925  1.00  0.00    -0.248 NA
ATOM     43  C   UNL A   1      37.448  32.459  31.790  1.00  0.00     0.031 C 
ATOM     44  C   UNL A   1      38.595  29.742  27.706  1.00  0.00     0.029 A 
ATOM     45  N   UNL A   1      39.890  29.522  29.515  1.00  0.00    -0.354 N 
ATOM     46  C   UNL A   1      39.117  31.645  33.146  1.00  0.00     0.074 A 
ATOM     47  C   UNL A   1      38.015  32.575  32.985  1.00  0.00     0.031 C 
ATOM     48  C   UNL A   1      39.547  28.839  27.416  1.00  0.00     0.029 A 
ATOM     49  C   UNL A   1      40.417  28.661  28.578  1.00  0.00     0.049 A 
ATOM     50  H   UNL A   1      40.279  29.643  30.412  1.00  0.00     0.167 HD
ATOM     51  C   UNL A   1      39.820  31.482  34.300  1.00  0.00     0.034 A 
ATOM     52  C   UNL A   1      41.467  27.812  28.636  1.00  0.00     0.034 A 
ATOM     53  C   UNL A   1      40.925  30.563  34.474  1.00  0.00     0.049 A 
ATOM     54  C   UNL A   1      42.253  27.675  29.919  1.00  0.00     0.074 A 
ATOM     55  C   UNL A   1      41.673  30.319  35.616  1.00  0.00     0.029 A 
ATOM     56  N   UNL A   1      41.448  29.742  33.487  1.00  0.00    -0.354 N 
ATOM     57  N   UNL A   1      42.067  28.271  31.073  1.00  0.00    -0.248 NA
ATOM     58  C   UNL A   1      43.380  26.730  29.908  1.00  0.00     0.031 C 
ATOM     59  C   UNL A   1      42.683  29.401  35.304  1.00  0.00     0.029 A 
ATOM     60  C   UNL A   1      42.524  29.015  33.985  1.00  0.00     0.049 A 
ATOM     61  H   UNL A   1      41.107  29.682  32.565  1.00  0.00     0.167 HD
ATOM     62  C   UNL A   1      43.033  27.744  31.931  1.00  0.00     0.074 A 
ATOM     63  C   UNL A   1      43.778  26.765  31.171  1.00  0.00     0.031 C 
ATOM     64  C   UNL A   1      43.282  28.047  33.230  1.00  0.00     0.034 A 
BRANCH  51  65
ATOM     65  C   UNL A   1      39.424  32.334  35.486  1.00  0.00     0.023 A 
ATOM     66  C   UNL A   1      39.834  33.675  35.597  1.00  0.00     0.031 A 
ATOM     67  C   UNL A   1      38.601  31.813  36.502  1.00  0.00     0.131 A 
ATOM     68  C   UNL A   1      39.468  34.430  36.722  1.00  0.00     0.055 A 
ATOM     69  C   UNL A   1      38.183  32.591  37.584  1.00  0.00     0.041 A 
ATOM     70  F   UNL A   1      38.185  30.538  36.457  1.00  0.00    -0.206 F 
ATOM     71  C   UNL A   1      38.626  33.905  37.705  1.00  0.00     0.022 A 
BRANCH  68  72
ATOM     72  S   UNL A   1      40.195  36.077  36.936  1.00  0.00     0.124 S 
ATOM     73  O   UNL A   1      41.599  35.752  37.173  1.00  0.00    -0.237 OA
ATOM     74  O   UNL A   1      39.893  36.725  35.666  1.00  0.00    -0.237 OA
ATOM     75  O   UNL A   1      39.485  36.618  38.095  1.00  0.00    -0.744 OA
ENDBRANCH  68  72
ENDBRANCH  51  65
BRANCH  52  76
ATOM     76  C   UNL A   1      41.866  27.009  27.440  1.00  0.00     0.023 A 
ATOM     77  C   UNL A   1      41.590  25.634  27.361  1.00  0.00     0.031 A 
ATOM     78  C   UNL A   1      42.617  27.590  26.402  1.00  0.00     0.131 A 
ATOM     79  C   UNL A   1      42.116  24.872  26.306  1.00  0.00     0.055 A 
ATOM     80  C   UNL A   1      43.086  26.839  25.322  1.00  0.00     0.041 A 
ATOM     81  F   UNL A   1      42.912  28.899  26.428  1.00  0.00    -0.206 F 
ATOM     82  C   UNL A   1      42.852  25.468  25.280  1.00  0.00     0.022 A 
BRANCH  79  83
ATOM     83  S   UNL A   1      41.931  23.067  26.358  1.00  0.00     0.124 S 
ATOM     84  O   UNL A   1      40.484  22.919  26.464  1.00  0.00    -0.237 OA
ATOM     85  O   UNL A   1      42.527  22.667  25.088  1.00  0.00    -0.237 OA
ATOM     86  O   UNL A   1      42.686  22.683  27.548  1.00  0.00    -0.744 OA
ENDBRANCH  79  83
ENDBRANCH  52  76
BRANCH  64  87
ATOM     87  C   UNL A   1      44.388  27.277  33.917  1.00  0.00     0.023 A 
ATOM     88  C   UNL A   1      44.129  26.106  34.653  1.00  0.00     0.031 A 
ATOM     89  C   UNL A   1      45.713  27.749  33.882  1.00  0.00     0.131 A 
ATOM     90  C   UNL A   1      45.159  25.491  35.385  1.00  0.00     0.055 A 
ATOM     91  C   UNL A   1      46.746  27.097  34.560  1.00  0.00     0.041 A 
ATOM     92  F   UNL A   1      46.025  28.861  33.198  1.00  0.00    -0.206 F 
ATOM     93  C   UNL A   1      46.469  25.973  35.332  1.00  0.00     0.022 A 
BRANCH  90  94
ATOM     94  S   UNL A   1      44.739  24.124  36.502  1.00  0.00     0.124 S 
ATOM     95  O   UNL A   1      43.948  23.254  35.637  1.00  0.00    -0.237 OA
ATOM     96  O   UNL A   1      46.054  23.618  36.881  1.00  0.00    -0.237 OA
ATOM     97  O   UNL A   1      43.993  24.775  37.577  1.00  0.00    -0.744 OA
ENDBRANCH  90  94
ENDBRANCH  64  87
ENDBRANCH  38  39
ENDBRANCH  30  33
ENDBRANCH  28  29
ENDBRANCH   1  28
TORSDOF 18
ENDMDL
