MODEL 1
REMARK VINA RESULT:     -13.4      0.000      0.000
REMARK SMILES Cc1ccc(Oc2cc(C(=O)NCCCNC(=O)c3ccc(-c4c5nc(c(-c6cc(S(=O)(=O)[O-])ccc6F)c6ccc([nH]6)c(-c6cc(S(=O)(=O)[O-])ccc6F)c6nc(c(-c7cc(S(=O)(=O)[O-])ccc7F)c7ccc4[nH]7)C=C6)C=C5)cc3)nc3ccccc23)cc1
REMARK SMILES IDX 14 1 13 2 12 3 10 4 11 5 9 7 7 8 8 9 88 10 83 11 87 12 82 13
REMARK SMILES IDX 84 14 86 15 85 16 6 17 5 18 1 19 2 20 3 21 90 22 4 23 89 24
REMARK SMILES IDX 15 25 16 26 17 27 18 29 19 30 20 31 81 32 21 33 80 34 22 35
REMARK SMILES IDX 23 36 24 37 74 38 25 39 79 40 73 41 75 42 26 43 78 44 72 45
REMARK SMILES IDX 71 46 27 48 59 49 39 50 58 51 40 52 43 53 57 54 76 55 41 56
REMARK SMILES IDX 42 57 56 59 77 60 44 61 28 62 29 63 37 64 30 65 36 66 38 67
REMARK SMILES IDX 35 68 31 69 32 70 33 71 34 72 60 73 61 74 69 75 62 76 68 77
REMARK SMILES IDX 70 78 67 79 63 80 64 81 65 82 66 83 45 84 46 85 54 86 47 87
REMARK SMILES IDX 53 88 55 89 52 90 48 91 49 92 50 93 51 94
REMARK H PARENT 12 6 16 28 75 47 43 58
REMARK Flexibility Score: inf
ROOT
ATOM      1  C   UNL A   1      33.631  30.505  26.626  1.00  0.00     0.042 C 
ENDROOT
BRANCH   1   2
ATOM      2  C   UNL A   1      33.866  29.309  25.706  1.00  0.00     0.118 C 
BRANCH   2   3
ATOM      3  N   UNL A   1      33.200  29.458  24.417  1.00  0.00    -0.351 N 
ATOM      4  C   UNL A   1      32.568  28.514  23.638  1.00  0.00     0.270 C 
ATOM      5  O   UNL A   1      31.980  28.868  22.613  1.00  0.00    -0.268 OA
ATOM      6  H   UNL A   1      33.203  30.371  24.048  1.00  0.00     0.163 HD
BRANCH   4   7
ATOM      7  C   UNL A   1      32.545  27.058  24.010  1.00  0.00     0.132 A 
ATOM      8  C   UNL A   1      33.448  24.869  23.808  1.00  0.00     0.139 A 
ATOM      9  C   UNL A   1      33.509  26.219  23.479  1.00  0.00     0.082 A 
ATOM     10  C   UNL A   1      32.478  24.384  24.714  1.00  0.00     0.043 A 
ATOM     11  C   UNL A   1      31.547  25.325  25.191  1.00  0.00     0.075 A 
ATOM     12  C   UNL A   1      32.371  23.038  25.146  1.00  0.00     0.014 A 
ATOM     13  N   UNL A   1      31.583  26.619  24.856  1.00  0.00    -0.242 NA
ATOM     14  C   UNL A   1      30.532  24.900  26.036  1.00  0.00     0.029 A 
ATOM     15  C   UNL A   1      31.333  22.633  25.985  1.00  0.00     0.001 A 
ATOM     16  C   UNL A   1      30.407  23.566  26.427  1.00  0.00     0.002 A 
BRANCH   8  17
ATOM     17  O   UNL A   1      34.406  24.060  23.234  1.00  0.00    -0.457 OA
BRANCH  17  18
ATOM     18  C   UNL A   1      35.434  23.592  24.027  1.00  0.00     0.127 A 
ATOM     19  C   UNL A   1      38.865  22.003  26.096  1.00  0.00     0.044 C 
ATOM     20  C   UNL A   1      37.659  22.547  25.390  1.00  0.00    -0.051 A 
ATOM     21  C   UNL A   1      37.191  21.933  24.223  1.00  0.00     0.007 A 
ATOM     22  C   UNL A   1      36.971  23.655  25.898  1.00  0.00     0.007 A 
ATOM     23  C   UNL A   1      36.086  22.455  23.544  1.00  0.00     0.047 A 
ATOM     24  C   UNL A   1      35.857  24.168  25.227  1.00  0.00     0.047 A 
ENDBRANCH  17  18
ENDBRANCH   8  17
ENDBRANCH   4   7
ENDBRANCH   2   3
ENDBRANCH   1   2
BRANCH   1  25
ATOM     25  C   UNL A   1      34.003  30.216  28.075  1.00  0.00     0.118 C 
BRANCH  25  26
ATOM     26  N   UNL A   1      34.753  31.293  28.719  1.00  0.00    -0.352 N 
ATOM     27  C   UNL A   1      36.037  31.267  29.247  1.00  0.00     0.251 C 
ATOM     28  H   UNL A   1      34.284  32.156  28.786  1.00  0.00     0.163 HD
ATOM     29  O   UNL A   1      36.518  32.227  29.809  1.00  0.00    -0.269 OA
BRANCH  27  30
ATOM     30  C   UNL A   1      36.860  30.056  29.002  1.00  0.00     0.039 A 
ATOM     31  C   UNL A   1      37.053  29.184  30.081  1.00  0.00     0.014 A 
ATOM     32  C   UNL A   1      37.606  29.924  27.836  1.00  0.00     0.014 A 
ATOM     33  C   UNL A   1      38.151  28.328  30.075  1.00  0.00     0.010 A 
ATOM     34  C   UNL A   1      38.744  29.143  27.867  1.00  0.00     0.010 A 
ATOM     35  C   UNL A   1      39.050  28.395  29.011  1.00  0.00    -0.014 A 
BRANCH  35  36
ATOM     36  C   UNL A   1      40.394  27.832  29.071  1.00  0.00     0.031 A 
ATOM     37  C   UNL A   1      40.658  26.448  28.633  1.00  0.00     0.074 A 
ATOM     38  C   UNL A   1      41.422  28.614  29.465  1.00  0.00     0.049 A 
ATOM     39  N   UNL A   1      41.669  25.739  29.010  1.00  0.00    -0.248 NA
ATOM     40  C   UNL A   1      39.747  25.725  27.757  1.00  0.00     0.031 C 
ATOM     41  C   UNL A   1      42.849  28.342  29.327  1.00  0.00     0.029 A 
ATOM     42  N   UNL A   1      41.357  29.717  30.312  1.00  0.00    -0.354 N 
ATOM     43  C   UNL A   1      41.714  24.616  28.214  1.00  0.00     0.074 A 
ATOM     44  C   UNL A   1      40.451  24.617  27.512  1.00  0.00     0.031 C 
ATOM     45  C   UNL A   1      43.517  29.063  30.242  1.00  0.00     0.029 A 
ATOM     46  C   UNL A   1      42.529  29.706  31.089  1.00  0.00     0.049 A 
ATOM     47  H   UNL A   1      40.629  30.378  30.358  1.00  0.00     0.167 HD
ATOM     48  C   UNL A   1      42.872  23.899  28.131  1.00  0.00     0.034 A 
ATOM     49  C   UNL A   1      42.470  29.607  32.449  1.00  0.00     0.034 A 
ATOM     50  C   UNL A   1      43.889  24.412  29.052  1.00  0.00     0.049 A 
ATOM     51  C   UNL A   1      43.179  28.389  32.993  1.00  0.00     0.074 A 
ATOM     52  C   UNL A   1      44.996  25.225  28.873  1.00  0.00     0.029 A 
ATOM     53  N   UNL A   1      43.685  24.325  30.426  1.00  0.00    -0.354 N 
ATOM     54  N   UNL A   1      43.514  27.356  32.271  1.00  0.00    -0.248 NA
ATOM     55  C   UNL A   1      43.559  28.234  34.394  1.00  0.00     0.031 C 
ATOM     56  C   UNL A   1      45.410  25.691  30.148  1.00  0.00     0.029 A 
ATOM     57  C   UNL A   1      44.581  25.131  31.105  1.00  0.00     0.049 A 
ATOM     58  H   UNL A   1      42.997  23.767  30.856  1.00  0.00     0.167 HD
ATOM     59  C   UNL A   1      44.125  26.416  33.062  1.00  0.00     0.074 A 
ATOM     60  C   UNL A   1      44.148  27.026  34.380  1.00  0.00     0.031 C 
ATOM     61  C   UNL A   1      44.554  25.219  32.559  1.00  0.00     0.034 A 
BRANCH  48  62
ATOM     62  C   UNL A   1      43.194  22.950  26.990  1.00  0.00     0.023 A 
ATOM     63  C   UNL A   1      42.705  21.625  27.034  1.00  0.00     0.031 A 
ATOM     64  C   UNL A   1      44.010  23.245  25.882  1.00  0.00     0.131 A 
ATOM     65  C   UNL A   1      43.117  20.653  26.101  1.00  0.00     0.055 A 
ATOM     66  C   UNL A   1      44.475  22.267  24.991  1.00  0.00     0.041 A 
ATOM     67  F   UNL A   1      44.347  24.503  25.569  1.00  0.00    -0.206 F 
ATOM     68  C   UNL A   1      44.040  20.957  25.107  1.00  0.00     0.022 A 
BRANCH  65  69
ATOM     69  S   UNL A   1      42.421  18.980  26.196  1.00  0.00     0.124 S 
ATOM     70  O   UNL A   1      43.288  18.230  25.294  1.00  0.00    -0.237 OA
ATOM     71  O   UNL A   1      42.546  18.675  27.618  1.00  0.00    -0.237 OA
ATOM     72  O   UNL A   1      41.047  19.157  25.726  1.00  0.00    -0.744 OA
ENDBRANCH  65  69
ENDBRANCH  48  62
BRANCH  49  73
ATOM     73  C   UNL A   1      41.253  30.249  33.029  1.00  0.00     0.023 A 
ATOM     74  C   UNL A   1      41.260  31.659  33.104  1.00  0.00     0.031 A 
ATOM     75  C   UNL A   1      40.016  29.596  33.088  1.00  0.00     0.131 A 
ATOM     76  C   UNL A   1      40.060  32.377  33.025  1.00  0.00     0.055 A 
ATOM     77  C   UNL A   1      38.815  30.319  33.105  1.00  0.00     0.041 A 
ATOM     78  F   UNL A   1      39.941  28.260  32.997  1.00  0.00    -0.206 F 
ATOM     79  C   UNL A   1      38.832  31.715  33.021  1.00  0.00     0.022 A 
BRANCH  76  80
ATOM     80  S   UNL A   1      40.147  34.143  32.600  1.00  0.00     0.124 S 
ATOM     81  O   UNL A   1      41.333  34.200  31.754  1.00  0.00    -0.237 OA
ATOM     82  O   UNL A   1      38.870  34.374  31.925  1.00  0.00    -0.237 OA
ATOM     83  O   UNL A   1      40.261  34.808  33.895  1.00  0.00    -0.744 OA
ENDBRANCH  76  80
ENDBRANCH  49  73
BRANCH  61  84
ATOM     84  C   UNL A   1      45.073  24.055  33.376  1.00  0.00     0.023 A 
ATOM     85  C   UNL A   1      46.387  23.974  33.861  1.00  0.00     0.031 A 
ATOM     86  C   UNL A   1      44.211  23.000  33.767  1.00  0.00     0.131 A 
ATOM     87  C   UNL A   1      46.822  22.863  34.609  1.00  0.00     0.055 A 
ATOM     88  C   UNL A   1      44.623  21.937  34.578  1.00  0.00     0.041 A 
ATOM     89  F   UNL A   1      42.926  22.959  33.385  1.00  0.00    -0.206 F 
ATOM     90  C   UNL A   1      45.943  21.853  34.990  1.00  0.00     0.022 A 
BRANCH  87  91
ATOM     91  S   UNL A   1      48.583  22.737  35.017  1.00  0.00     0.124 S 
ATOM     92  O   UNL A   1      48.570  22.930  36.465  1.00  0.00    -0.237 OA
ATOM     93  O   UNL A   1      48.916  21.392  34.561  1.00  0.00    -0.237 OA
ATOM     94  O   UNL A   1      49.195  23.823  34.253  1.00  0.00    -0.744 OA
ENDBRANCH  87  91
ENDBRANCH  61  84
ENDBRANCH  35  36
ENDBRANCH  27  30
ENDBRANCH  25  26
ENDBRANCH   1  25
TORSDOF 15
ENDMDL
MODEL 2
REMARK VINA RESULT:     -13.3      4.016     10.484
REMARK SMILES Cc1ccc(Oc2cc(C(=O)NCCCNC(=O)c3ccc(-c4c5nc(c(-c6cc(S(=O)(=O)[O-])ccc6F)c6ccc([nH]6)c(-c6cc(S(=O)(=O)[O-])ccc6F)c6nc(c(-c7cc(S(=O)(=O)[O-])ccc7F)c7ccc4[nH]7)C=C6)C=C5)cc3)nc3ccccc23)cc1
REMARK SMILES IDX 14 1 13 2 12 3 10 4 11 5 9 7 7 8 8 9 88 10 83 11 87 12 82 13
REMARK SMILES IDX 84 14 86 15 85 16 6 17 5 18 1 19 2 20 3 21 90 22 4 23 89 24
REMARK SMILES IDX 15 25 16 26 17 27 18 29 19 30 20 31 81 32 21 33 80 34 22 35
REMARK SMILES IDX 23 36 24 37 74 38 25 39 79 40 73 41 75 42 26 43 78 44 72 45
REMARK SMILES IDX 71 46 27 48 59 49 39 50 58 51 40 52 43 53 57 54 76 55 41 56
REMARK SMILES IDX 42 57 56 59 77 60 44 61 28 62 29 63 37 64 30 65 36 66 38 67
REMARK SMILES IDX 35 68 31 69 32 70 33 71 34 72 60 73 61 74 69 75 62 76 68 77
REMARK SMILES IDX 70 78 67 79 63 80 64 81 65 82 66 83 45 84 46 85 54 86 47 87
REMARK SMILES IDX 53 88 55 89 52 90 48 91 49 92 50 93 51 94
REMARK H PARENT 12 6 16 28 75 47 43 58
REMARK Flexibility Score: inf
ROOT
ATOM      1  C   UNL A   1      38.018  21.563  25.338  1.00  0.00     0.042 C 
ENDROOT
BRANCH   1   2
ATOM      2  C   UNL A   1      36.541  21.655  24.964  1.00  0.00     0.118 C 
BRANCH   2   3
ATOM      3  N   UNL A   1      35.663  21.256  26.057  1.00  0.00    -0.351 N 
ATOM      4  C   UNL A   1      34.398  21.699  26.379  1.00  0.00     0.270 C 
ATOM      5  O   UNL A   1      33.781  21.160  27.300  1.00  0.00    -0.268 OA
ATOM      6  H   UNL A   1      36.027  20.565  26.656  1.00  0.00     0.163 HD
BRANCH   4   7
ATOM      7  C   UNL A   1      33.726  22.810  25.622  1.00  0.00     0.132 A 
ATOM      8  C   UNL A   1      32.406  24.786  25.609  1.00  0.00     0.139 A 
ATOM      9  C   UNL A   1      33.050  23.787  26.331  1.00  0.00     0.082 A 
ATOM     10  C   UNL A   1      32.501  24.843  24.199  1.00  0.00     0.043 A 
ATOM     11  C   UNL A   1      33.212  23.797  23.582  1.00  0.00     0.075 A 
ATOM     12  C   UNL A   1      31.922  25.848  23.385  1.00  0.00     0.014 A 
ATOM     13  N   UNL A   1      33.810  22.818  24.270  1.00  0.00    -0.242 NA
ATOM     14  C   UNL A   1      33.290  23.761  22.198  1.00  0.00     0.029 A 
ATOM     15  C   UNL A   1      32.002  25.782  21.995  1.00  0.00     0.001 A 
ATOM     16  C   UNL A   1      32.685  24.732  21.398  1.00  0.00     0.002 A 
BRANCH   8  17
ATOM     17  O   UNL A   1      31.716  25.723  26.350  1.00  0.00    -0.457 OA
BRANCH  17  18
ATOM     18  C   UNL A   1      32.278  26.972  26.518  1.00  0.00     0.127 A 
ATOM     19  C   UNL A   1      33.730  30.930  27.414  1.00  0.00     0.044 C 
ATOM     20  C   UNL A   1      33.225  29.558  27.082  1.00  0.00    -0.051 A 
ATOM     21  C   UNL A   1      31.871  29.248  27.249  1.00  0.00     0.007 A 
ATOM     22  C   UNL A   1      34.089  28.579  26.580  1.00  0.00     0.007 A 
ATOM     23  C   UNL A   1      31.401  27.961  26.970  1.00  0.00     0.047 A 
ATOM     24  C   UNL A   1      33.617  27.296  26.287  1.00  0.00     0.047 A 
ENDBRANCH  17  18
ENDBRANCH   8  17
ENDBRANCH   4   7
ENDBRANCH   2   3
ENDBRANCH   1   2
BRANCH   1  25
ATOM     25  C   UNL A   1      38.513  22.792  26.091  1.00  0.00     0.118 C 
BRANCH  25  26
ATOM     26  N   UNL A   1      39.942  22.762  26.397  1.00  0.00    -0.352 N 
ATOM     27  C   UNL A   1      40.771  23.803  26.792  1.00  0.00     0.251 C 
ATOM     28  H   UNL A   1      40.376  21.883  26.312  1.00  0.00     0.163 HD
ATOM     29  O   UNL A   1      41.961  23.646  26.959  1.00  0.00    -0.269 OA
BRANCH  27  30
ATOM     30  C   UNL A   1      40.136  25.103  27.124  1.00  0.00     0.039 A 
ATOM     31  C   UNL A   1      40.539  26.220  26.380  1.00  0.00     0.014 A 
ATOM     32  C   UNL A   1      39.371  25.252  28.275  1.00  0.00     0.014 A 
ATOM     33  C   UNL A   1      40.368  27.492  26.917  1.00  0.00     0.010 A 
ATOM     34  C   UNL A   1      39.283  26.504  28.851  1.00  0.00     0.010 A 
ATOM     35  C   UNL A   1      39.838  27.614  28.201  1.00  0.00    -0.014 A 
BRANCH  35  36
ATOM     36  C   UNL A   1      39.953  28.832  28.996  1.00  0.00     0.031 A 
ATOM     37  C   UNL A   1      38.899  29.864  28.963  1.00  0.00     0.074 A 
ATOM     38  C   UNL A   1      41.006  28.982  29.828  1.00  0.00     0.049 A 
ATOM     39  N   UNL A   1      39.073  31.103  29.279  1.00  0.00    -0.248 NA
ATOM     40  C   UNL A   1      37.546  29.575  28.506  1.00  0.00     0.031 C 
ATOM     41  C   UNL A   1      41.164  29.965  30.895  1.00  0.00     0.029 A 
ATOM     42  N   UNL A   1      42.269  28.412  29.690  1.00  0.00    -0.354 N 
ATOM     43  C   UNL A   1      37.833  31.693  29.366  1.00  0.00     0.074 A 
ATOM     44  C   UNL A   1      36.927  30.723  28.795  1.00  0.00     0.031 C 
ATOM     45  C   UNL A   1      42.472  30.127  31.145  1.00  0.00     0.029 A 
ATOM     46  C   UNL A   1      43.199  29.362  30.147  1.00  0.00     0.049 A 
ATOM     47  H   UNL A   1      42.472  27.515  29.339  1.00  0.00     0.167 HD
ATOM     48  C   UNL A   1      37.695  32.869  30.046  1.00  0.00     0.034 A 
ATOM     49  C   UNL A   1      44.162  29.861  29.317  1.00  0.00     0.034 A 
ATOM     50  C   UNL A   1      38.992  33.390  30.486  1.00  0.00     0.049 A 
ATOM     51  C   UNL A   1      44.082  31.358  29.137  1.00  0.00     0.074 A 
ATOM     52  C   UNL A   1      39.649  33.368  31.705  1.00  0.00     0.029 A 
ATOM     53  N   UNL A   1      39.930  33.798  29.542  1.00  0.00    -0.354 N 
ATOM     54  N   UNL A   1      43.034  32.075  29.436  1.00  0.00    -0.248 NA
ATOM     55  C   UNL A   1      45.173  32.166  28.598  1.00  0.00     0.031 C 
ATOM     56  C   UNL A   1      41.012  33.694  31.476  1.00  0.00     0.029 A 
ATOM     57  C   UNL A   1      41.175  33.950  30.125  1.00  0.00     0.049 A 
ATOM     58  H   UNL A   1      39.734  33.958  28.591  1.00  0.00     0.167 HD
ATOM     59  C   UNL A   1      43.274  33.393  29.140  1.00  0.00     0.074 A 
ATOM     60  C   UNL A   1      44.638  33.399  28.638  1.00  0.00     0.031 C 
ATOM     61  C   UNL A   1      42.327  34.359  29.331  1.00  0.00     0.034 A 
BRANCH  48  62
ATOM     62  C   UNL A   1      36.373  33.374  30.595  1.00  0.00     0.023 A 
ATOM     63  C   UNL A   1      35.509  34.107  29.750  1.00  0.00     0.031 A 
ATOM     64  C   UNL A   1      35.928  33.237  31.923  1.00  0.00     0.131 A 
ATOM     65  C   UNL A   1      34.360  34.752  30.247  1.00  0.00     0.055 A 
ATOM     66  C   UNL A   1      34.823  33.930  32.436  1.00  0.00     0.041 A 
ATOM     67  F   UNL A   1      36.503  32.376  32.773  1.00  0.00    -0.206 F 
ATOM     68  C   UNL A   1      34.039  34.707  31.599  1.00  0.00     0.022 A 
BRANCH  65  69
ATOM     69  S   UNL A   1      33.277  35.647  29.099  1.00  0.00     0.124 S 
ATOM     70  O   UNL A   1      32.552  34.563  28.444  1.00  0.00    -0.237 OA
ATOM     71  O   UNL A   1      32.502  36.492  30.001  1.00  0.00    -0.237 OA
ATOM     72  O   UNL A   1      34.215  36.368  28.239  1.00  0.00    -0.744 OA
ENDBRANCH  65  69
ENDBRANCH  48  62
BRANCH  49  73
ATOM     73  C   UNL A   1      44.617  28.874  28.294  1.00  0.00     0.023 A 
ATOM     74  C   UNL A   1      45.318  27.746  28.774  1.00  0.00     0.031 A 
ATOM     75  C   UNL A   1      44.040  28.793  27.020  1.00  0.00     0.131 A 
ATOM     76  C   UNL A   1      45.251  26.527  28.087  1.00  0.00     0.055 A 
ATOM     77  C   UNL A   1      44.057  27.596  26.292  1.00  0.00     0.041 A 
ATOM     78  F   UNL A   1      43.340  29.821  26.519  1.00  0.00    -0.206 F 
ATOM     79  C   UNL A   1      44.619  26.442  26.846  1.00  0.00     0.022 A 
BRANCH  76  80
ATOM     80  S   UNL A   1      45.709  25.013  28.986  1.00  0.00     0.124 S 
ATOM     81  O   UNL A   1      47.035  25.343  29.491  1.00  0.00    -0.237 OA
ATOM     82  O   UNL A   1      44.651  24.904  29.990  1.00  0.00    -0.237 OA
ATOM     83  O   UNL A   1      45.663  23.973  27.962  1.00  0.00    -0.744 OA
ENDBRANCH  76  80
ENDBRANCH  49  73
BRANCH  61  84
ATOM     84  C   UNL A   1      42.431  35.800  28.875  1.00  0.00     0.023 A 
ATOM     85  C   UNL A   1      43.116  36.792  29.592  1.00  0.00     0.031 A 
ATOM     86  C   UNL A   1      41.894  36.206  27.627  1.00  0.00     0.131 A 
ATOM     87  C   UNL A   1      43.174  38.119  29.127  1.00  0.00     0.055 A 
ATOM     88  C   UNL A   1      42.022  37.507  27.129  1.00  0.00     0.041 A 
ATOM     89  F   UNL A   1      41.227  35.355  26.834  1.00  0.00    -0.206 F 
ATOM     90  C   UNL A   1      42.651  38.481  27.888  1.00  0.00     0.022 A 
BRANCH  87  91
ATOM     91  S   UNL A   1      43.895  39.380  30.211  1.00  0.00     0.124 S 
ATOM     92  O   UNL A   1      45.242  39.512  29.663  1.00  0.00    -0.237 OA
ATOM     93  O   UNL A   1      43.010  40.521  29.998  1.00  0.00    -0.237 OA
ATOM     94  O   UNL A   1      43.822  38.776  31.540  1.00  0.00    -0.744 OA
ENDBRANCH  87  91
ENDBRANCH  61  84
ENDBRANCH  35  36
ENDBRANCH  27  30
ENDBRANCH  25  26
ENDBRANCH   1  25
TORSDOF 15
ENDMDL
MODEL 3
REMARK VINA RESULT:     -13.1      1.392      2.393
REMARK SMILES Cc1ccc(Oc2cc(C(=O)NCCCNC(=O)c3ccc(-c4c5nc(c(-c6cc(S(=O)(=O)[O-])ccc6F)c6ccc([nH]6)c(-c6cc(S(=O)(=O)[O-])ccc6F)c6nc(c(-c7cc(S(=O)(=O)[O-])ccc7F)c7ccc4[nH]7)C=C6)C=C5)cc3)nc3ccccc23)cc1
REMARK SMILES IDX 14 1 13 2 12 3 10 4 11 5 9 7 7 8 8 9 88 10 83 11 87 12 82 13
REMARK SMILES IDX 84 14 86 15 85 16 6 17 5 18 1 19 2 20 3 21 90 22 4 23 89 24
REMARK SMILES IDX 15 25 16 26 17 27 18 29 19 30 20 31 81 32 21 33 80 34 22 35
REMARK SMILES IDX 23 36 24 37 74 38 25 39 79 40 73 41 75 42 26 43 78 44 72 45
REMARK SMILES IDX 71 46 27 48 59 49 39 50 58 51 40 52 43 53 57 54 76 55 41 56
REMARK SMILES IDX 42 57 56 59 77 60 44 61 28 62 29 63 37 64 30 65 36 66 38 67
REMARK SMILES IDX 35 68 31 69 32 70 33 71 34 72 60 73 61 74 69 75 62 76 68 77
REMARK SMILES IDX 70 78 67 79 63 80 64 81 65 82 66 83 45 84 46 85 54 86 47 87
REMARK SMILES IDX 53 88 55 89 52 90 48 91 49 92 50 93 51 94
REMARK H PARENT 12 6 16 28 75 47 43 58
REMARK Flexibility Score: inf
ROOT
ATOM      1  C   UNL A   1      34.217  30.160  26.476  1.00  0.00     0.042 C 
ENDROOT
BRANCH   1   2
ATOM      2  C   UNL A   1      33.852  28.823  25.833  1.00  0.00     0.118 C 
BRANCH   2   3
ATOM      3  N   UNL A   1      34.290  28.736  24.445  1.00  0.00    -0.351 N 
ATOM      4  C   UNL A   1      33.554  28.500  23.303  1.00  0.00     0.270 C 
ATOM      5  O   UNL A   1      34.107  28.559  22.203  1.00  0.00    -0.268 OA
ATOM      6  H   UNL A   1      35.255  28.864  24.301  1.00  0.00     0.163 HD
BRANCH   4   7
ATOM      7  C   UNL A   1      32.083  28.199  23.350  1.00  0.00     0.132 A 
ATOM      8  C   UNL A   1      30.310  26.630  23.564  1.00  0.00     0.139 A 
ATOM      9  C   UNL A   1      31.676  26.893  23.560  1.00  0.00     0.082 A 
ATOM     10  C   UNL A   1      29.367  27.675  23.433  1.00  0.00     0.043 A 
ATOM     11  C   UNL A   1      29.893  28.963  23.222  1.00  0.00     0.075 A 
ATOM     12  C   UNL A   1      27.960  27.510  23.475  1.00  0.00     0.014 A 
ATOM     13  N   UNL A   1      31.205  29.218  23.189  1.00  0.00    -0.242 NA
ATOM     14  C   UNL A   1      29.020  30.023  23.024  1.00  0.00     0.029 A 
ATOM     15  C   UNL A   1      27.104  28.588  23.259  1.00  0.00     0.001 A 
ATOM     16  C   UNL A   1      27.635  29.849  23.027  1.00  0.00     0.002 A 
BRANCH   8  17
ATOM     17  O   UNL A   1      29.946  25.312  23.744  1.00  0.00    -0.457 OA
BRANCH  17  18
ATOM     18  C   UNL A   1      30.651  24.553  24.656  1.00  0.00     0.127 A 
ATOM     19  C   UNL A   1      33.163  22.092  27.148  1.00  0.00     0.044 C 
ATOM     20  C   UNL A   1      32.273  22.939  26.289  1.00  0.00    -0.051 A 
ATOM     21  C   UNL A   1      32.087  22.621  24.939  1.00  0.00     0.007 A 
ATOM     22  C   UNL A   1      31.597  24.041  26.826  1.00  0.00     0.007 A 
ATOM     23  C   UNL A   1      31.282  23.425  24.128  1.00  0.00     0.047 A 
ATOM     24  C   UNL A   1      30.780  24.837  26.018  1.00  0.00     0.047 A 
ENDBRANCH  17  18
ENDBRANCH   8  17
ENDBRANCH   4   7
ENDBRANCH   2   3
ENDBRANCH   1   2
BRANCH   1  25
ATOM     25  C   UNL A   1      34.020  30.159  27.987  1.00  0.00     0.118 C 
BRANCH  25  26
ATOM     26  N   UNL A   1      34.746  31.224  28.678  1.00  0.00    -0.352 N 
ATOM     27  C   UNL A   1      36.012  31.187  29.248  1.00  0.00     0.251 C 
ATOM     28  H   UNL A   1      34.274  32.084  28.748  1.00  0.00     0.163 HD
ATOM     29  O   UNL A   1      36.473  32.136  29.845  1.00  0.00    -0.269 OA
BRANCH  27  30
ATOM     30  C   UNL A   1      36.845  29.983  29.005  1.00  0.00     0.039 A 
ATOM     31  C   UNL A   1      37.045  29.115  30.085  1.00  0.00     0.014 A 
ATOM     32  C   UNL A   1      37.592  29.855  27.839  1.00  0.00     0.014 A 
ATOM     33  C   UNL A   1      38.150  28.268  30.081  1.00  0.00     0.010 A 
ATOM     34  C   UNL A   1      38.736  29.083  27.872  1.00  0.00     0.010 A 
ATOM     35  C   UNL A   1      39.048  28.340  29.017  1.00  0.00    -0.014 A 
BRANCH  35  36
ATOM     36  C   UNL A   1      40.396  27.788  29.078  1.00  0.00     0.031 A 
ATOM     37  C   UNL A   1      40.672  26.405  28.643  1.00  0.00     0.074 A 
ATOM     38  C   UNL A   1      41.419  28.579  29.471  1.00  0.00     0.049 A 
ATOM     39  N   UNL A   1      41.689  25.705  29.021  1.00  0.00    -0.248 NA
ATOM     40  C   UNL A   1      39.767  25.673  27.768  1.00  0.00     0.031 C 
ATOM     41  C   UNL A   1      42.848  28.319  29.334  1.00  0.00     0.029 A 
ATOM     42  N   UNL A   1      41.345  29.683  30.316  1.00  0.00    -0.354 N 
ATOM     43  C   UNL A   1      41.743  24.581  28.227  1.00  0.00     0.074 A 
ATOM     44  C   UNL A   1      40.480  24.570  27.525  1.00  0.00     0.031 C 
ATOM     45  C   UNL A   1      43.510  29.046  30.247  1.00  0.00     0.029 A 
ATOM     46  C   UNL A   1      42.517  29.683  31.093  1.00  0.00     0.049 A 
ATOM     47  H   UNL A   1      40.611  30.338  30.360  1.00  0.00     0.167 HD
ATOM     48  C   UNL A   1      42.907  23.873  28.145  1.00  0.00     0.034 A 
ATOM     49  C   UNL A   1      42.458  29.586  32.454  1.00  0.00     0.034 A 
ATOM     50  C   UNL A   1      43.920  24.396  29.065  1.00  0.00     0.049 A 
ATOM     51  C   UNL A   1      43.178  28.375  33.000  1.00  0.00     0.074 A 
ATOM     52  C   UNL A   1      45.020  25.219  28.885  1.00  0.00     0.029 A 
ATOM     53  N   UNL A   1      43.716  24.311  30.440  1.00  0.00    -0.354 N 
ATOM     54  N   UNL A   1      43.521  27.344  32.279  1.00  0.00    -0.248 NA
ATOM     55  C   UNL A   1      43.558  28.226  34.401  1.00  0.00     0.031 C 
ATOM     56  C   UNL A   1      45.431  25.690  30.160  1.00  0.00     0.029 A 
ATOM     57  C   UNL A   1      44.605  25.125  31.117  1.00  0.00     0.049 A 
ATOM     58  H   UNL A   1      43.033  23.748  30.871  1.00  0.00     0.167 HD
ATOM     59  C   UNL A   1      44.139  26.410  33.071  1.00  0.00     0.074 A 
ATOM     60  C   UNL A   1      44.157  27.022  34.389  1.00  0.00     0.031 C 
ATOM     61  C   UNL A   1      44.578  25.215  32.571  1.00  0.00     0.034 A 
BRANCH  48  62
ATOM     62  C   UNL A   1      43.237  22.925  27.006  1.00  0.00     0.023 A 
ATOM     63  C   UNL A   1      42.774  21.591  27.061  1.00  0.00     0.031 A 
ATOM     64  C   UNL A   1      44.037  23.230  25.889  1.00  0.00     0.131 A 
ATOM     65  C   UNL A   1      43.196  20.623  26.130  1.00  0.00     0.055 A 
ATOM     66  C   UNL A   1      44.512  22.257  24.998  1.00  0.00     0.041 A 
ATOM     67  F   UNL A   1      44.346  24.492  25.567  1.00  0.00    -0.206 F 
ATOM     68  C   UNL A   1      44.103  20.939  25.125  1.00  0.00     0.022 A 
BRANCH  65  69
ATOM     69  S   UNL A   1      42.533  18.937  26.239  1.00  0.00     0.124 S 
ATOM     70  O   UNL A   1      41.205  19.084  25.654  1.00  0.00    -0.237 OA
ATOM     71  O   UNL A   1      43.503  18.174  25.461  1.00  0.00    -0.237 OA
ATOM     72  O   UNL A   1      42.546  18.660  27.676  1.00  0.00    -0.744 OA
ENDBRANCH  65  69
ENDBRANCH  48  62
BRANCH  49  73
ATOM     73  C   UNL A   1      41.237  30.219  33.031  1.00  0.00     0.023 A 
ATOM     74  C   UNL A   1      41.212  31.631  33.061  1.00  0.00     0.031 A 
ATOM     75  C   UNL A   1      40.016  29.541  33.132  1.00  0.00     0.131 A 
ATOM     76  C   UNL A   1      39.994  32.318  32.978  1.00  0.00     0.055 A 
ATOM     77  C   UNL A   1      38.799  30.237  33.146  1.00  0.00     0.041 A 
ATOM     78  F   UNL A   1      39.970  28.201  33.086  1.00  0.00    -0.206 F 
ATOM     79  C   UNL A   1      38.783  31.629  33.016  1.00  0.00     0.022 A 
BRANCH  76  80
ATOM     80  S   UNL A   1      40.034  34.071  32.495  1.00  0.00     0.124 S 
ATOM     81  O   UNL A   1      41.448  34.282  32.213  1.00  0.00    -0.237 OA
ATOM     82  O   UNL A   1      39.141  34.105  31.337  1.00  0.00    -0.237 OA
ATOM     83  O   UNL A   1      39.512  34.768  33.667  1.00  0.00    -0.744 OA
ENDBRANCH  76  80
ENDBRANCH  49  73
BRANCH  61  84
ATOM     84  C   UNL A   1      45.107  24.057  33.390  1.00  0.00     0.023 A 
ATOM     85  C   UNL A   1      46.411  24.003  33.903  1.00  0.00     0.031 A 
ATOM     86  C   UNL A   1      44.261  22.979  33.755  1.00  0.00     0.131 A 
ATOM     87  C   UNL A   1      46.856  22.896  34.651  1.00  0.00     0.055 A 
ATOM     88  C   UNL A   1      44.681  21.920  34.566  1.00  0.00     0.041 A 
ATOM     89  F   UNL A   1      42.986  22.912  33.345  1.00  0.00    -0.206 F 
ATOM     90  C   UNL A   1      45.993  21.863  35.006  1.00  0.00     0.022 A 
BRANCH  87  91
ATOM     91  S   UNL A   1      48.611  22.808  35.097  1.00  0.00     0.124 S 
ATOM     92  O   UNL A   1      48.543  22.561  36.534  1.00  0.00    -0.237 OA
ATOM     93  O   UNL A   1      49.085  21.692  34.284  1.00  0.00    -0.237 OA
ATOM     94  O   UNL A   1      49.131  24.120  34.716  1.00  0.00    -0.744 OA
ENDBRANCH  87  91
ENDBRANCH  61  84
ENDBRANCH  35  36
ENDBRANCH  27  30
ENDBRANCH  25  26
ENDBRANCH   1  25
TORSDOF 15
ENDMDL
