MODEL 1
REMARK VINA RESULT:     -12.9      0.000      0.000
REMARK SMILES O=C(NCCCNC(=O)c1ccc(-c2c3nc(c(-c4cc(S(=O)(=O)[O-])ccc4F)c4ccc([nH]4)c(-c4cc(S(=O)(=O)[O-])ccc4F)c4nc(c(-c5cc(S(=O)(=O)[O-])ccc5F)c5ccc2[nH]5)C=C4)C=C3)cc1)C1=Cc2c(ccc(Cl)c2-c2ccccc2)O[C@H]1C(F)(F)F
REMARK SMILES IDX 6 1 5 2 4 3 3 4 1 5 2 6 73 8 74 9 89 10 75 11 88 12 76 13
REMARK SMILES IDX 81 14 77 15 79 16 78 17 80 18 90 19 91 20 92 21 93 22 82 23
REMARK SMILES IDX 83 24 87 25 84 26 86 27 85 28 7 29 8 30 9 32 10 33 11 34
REMARK SMILES IDX 72 35 12 36 71 37 13 38 14 39 15 40 65 41 16 42 70 43 64 44
REMARK SMILES IDX 66 45 17 46 69 47 63 48 62 49 18 51 50 52 30 53 49 54 31 55
REMARK SMILES IDX 34 56 48 57 67 58 32 59 33 60 47 62 68 63 35 64 19 65 20 66
REMARK SMILES IDX 28 67 21 68 27 69 29 70 26 71 22 72 23 73 24 74 25 75 51 76
REMARK SMILES IDX 52 77 60 78 53 79 59 80 61 81 58 82 54 83 55 84 56 85 57 86
REMARK SMILES IDX 36 87 37 88 45 89 38 90 44 91 46 92 43 93 39 94 40 95 41 96
REMARK SMILES IDX 42 97
REMARK H PARENT 3 7 7 31 66 50 34 61
REMARK Flexibility Score: inf
ROOT
ATOM      1  C   UNL A   1      33.007  32.144  27.296  1.00  0.00     0.118 C 
ENDROOT
BRANCH   1   2
ATOM      2  C   UNL A   1      31.786  31.343  26.861  1.00  0.00     0.042 C 
BRANCH   2   3
ATOM      3  C   UNL A   1      32.035  29.846  26.788  1.00  0.00     0.118 C 
BRANCH   3   4
ATOM      4  N   UNL A   1      33.152  29.442  25.951  1.00  0.00    -0.352 N 
ATOM      5  O   UNL A   1      34.183  28.456  24.208  1.00  0.00    -0.270 OA
ATOM      6  C   UNL A   1      33.134  28.719  24.789  1.00  0.00     0.251 C 
ATOM      7  H   UNL A   1      34.042  29.725  26.261  1.00  0.00     0.163 HD
BRANCH   6   8
ATOM      8  C   UNL A   1      31.854  28.252  24.211  1.00  0.00     0.067 C 
ATOM      9  C   UNL A   1      31.450  27.017  24.538  1.00  0.00     0.026 C 
ATOM     10  C   UNL A   1      31.330  28.873  22.951  1.00  0.00     0.314 C 
ATOM     11  C   UNL A   1      31.721  26.099  23.396  1.00  0.00     0.027 A 
ATOM     12  O   UNL A   1      31.220  27.909  21.846  1.00  0.00    -0.475 OA
ATOM     13  C   UNL A   1      31.616  26.617  22.097  1.00  0.00     0.128 A 
ATOM     14  C   UNL A   1      32.247  24.807  23.651  1.00  0.00     0.011 A 
ATOM     15  C   UNL A   1      32.044  25.851  21.019  1.00  0.00     0.049 A 
ATOM     16  C   UNL A   1      32.699  24.065  22.550  1.00  0.00     0.049 A 
ATOM     17  C   UNL A   1      32.603  24.588  21.249  1.00  0.00     0.025 A 
ATOM     18  Cl  UNL A   1      33.438  22.518  22.748  1.00  0.00    -0.084 Cl
BRANCH  10  19
ATOM     19  C   UNL A   1      29.978  29.577  23.198  1.00  0.00     0.429 C 
ATOM     20  F   UNL A   1      28.954  28.711  23.400  1.00  0.00    -0.167 F 
ATOM     21  F   UNL A   1      30.037  30.377  24.289  1.00  0.00    -0.167 F 
ATOM     22  F   UNL A   1      29.612  30.359  22.153  1.00  0.00    -0.167 F 
ENDBRANCH  10  19
BRANCH  14  23
ATOM     23  C   UNL A   1      32.385  24.408  25.065  1.00  0.00    -0.016 A 
ATOM     24  C   UNL A   1      31.326  23.749  25.712  1.00  0.00     0.009 A 
ATOM     25  C   UNL A   1      33.663  24.366  25.650  1.00  0.00     0.009 A 
ATOM     26  C   UNL A   1      31.564  22.972  26.846  1.00  0.00     0.001 A 
ATOM     27  C   UNL A   1      33.899  23.582  26.778  1.00  0.00     0.001 A 
ATOM     28  C   UNL A   1      32.855  22.864  27.360  1.00  0.00     0.000 A 
ENDBRANCH  14  23
ENDBRANCH   6   8
ENDBRANCH   3   4
ENDBRANCH   2   3
ENDBRANCH   1   2
BRANCH   1  29
ATOM     29  N   UNL A   1      32.716  33.532  27.650  1.00  0.00    -0.352 N 
ATOM     30  C   UNL A   1      33.277  34.420  28.543  1.00  0.00     0.251 C 
ATOM     31  H   UNL A   1      31.961  33.912  27.144  1.00  0.00     0.163 HD
ATOM     32  O   UNL A   1      32.749  35.516  28.682  1.00  0.00    -0.269 OA
BRANCH  30  33
ATOM     33  C   UNL A   1      34.452  34.066  29.380  1.00  0.00     0.039 A 
ATOM     34  C   UNL A   1      34.263  33.232  30.491  1.00  0.00     0.014 A 
ATOM     35  C   UNL A   1      35.727  34.546  29.109  1.00  0.00     0.014 A 
ATOM     36  C   UNL A   1      35.363  32.791  31.237  1.00  0.00     0.010 A 
ATOM     37  C   UNL A   1      36.830  34.005  29.763  1.00  0.00     0.010 A 
ATOM     38  C   UNL A   1      36.666  33.113  30.832  1.00  0.00    -0.014 A 
BRANCH  38  39
ATOM     39  C   UNL A   1      37.879  32.551  31.495  1.00  0.00     0.031 A 
ATOM     40  C   UNL A   1      38.640  31.428  30.836  1.00  0.00     0.074 A 
ATOM     41  C   UNL A   1      38.219  32.955  32.736  1.00  0.00     0.049 A 
ATOM     42  N   UNL A   1      39.556  30.637  31.335  1.00  0.00    -0.248 NA
ATOM     43  C   UNL A   1      38.275  31.120  29.445  1.00  0.00     0.031 C 
ATOM     44  C   UNL A   1      37.542  34.001  33.507  1.00  0.00     0.029 A 
ATOM     45  N   UNL A   1      39.211  32.520  33.580  1.00  0.00    -0.354 N 
ATOM     46  C   UNL A   1      39.836  29.707  30.338  1.00  0.00     0.074 A 
ATOM     47  C   UNL A   1      38.945  29.998  29.235  1.00  0.00     0.031 C 
ATOM     48  C   UNL A   1      38.155  34.147  34.692  1.00  0.00     0.029 A 
ATOM     49  C   UNL A   1      39.228  33.164  34.798  1.00  0.00     0.049 A 
ATOM     50  H   UNL A   1      39.852  31.812  33.338  1.00  0.00     0.167 HD
ATOM     51  C   UNL A   1      40.766  28.718  30.331  1.00  0.00     0.034 A 
ATOM     52  C   UNL A   1      40.003  32.972  35.883  1.00  0.00     0.034 A 
ATOM     53  C   UNL A   1      41.685  28.481  31.419  1.00  0.00     0.049 A 
ATOM     54  C   UNL A   1      41.046  31.886  35.847  1.00  0.00     0.074 A 
ATOM     55  C   UNL A   1      42.710  27.554  31.498  1.00  0.00     0.029 A 
ATOM     56  N   UNL A   1      41.699  29.189  32.614  1.00  0.00    -0.354 N 
ATOM     57  N   UNL A   1      41.309  31.025  34.891  1.00  0.00    -0.248 NA
ATOM     58  C   UNL A   1      41.900  31.749  37.034  1.00  0.00     0.031 C 
ATOM     59  C   UNL A   1      43.311  27.670  32.757  1.00  0.00     0.029 A 
ATOM     60  C   UNL A   1      42.704  28.712  33.440  1.00  0.00     0.049 A 
ATOM     61  H   UNL A   1      41.083  29.923  32.841  1.00  0.00     0.167 HD
ATOM     62  C   UNL A   1      42.380  30.264  35.350  1.00  0.00     0.074 A 
ATOM     63  C   UNL A   1      42.722  30.777  36.662  1.00  0.00     0.031 C 
ATOM     64  C   UNL A   1      43.027  29.237  34.745  1.00  0.00     0.034 A 
BRANCH  51  65
ATOM     65  C   UNL A   1      40.818  27.820  29.117  1.00  0.00     0.023 A 
ATOM     66  C   UNL A   1      41.745  28.033  28.082  1.00  0.00     0.031 A 
ATOM     67  C   UNL A   1      39.899  26.766  28.966  1.00  0.00     0.131 A 
ATOM     68  C   UNL A   1      41.669  27.277  26.904  1.00  0.00     0.055 A 
ATOM     69  C   UNL A   1      39.891  25.953  27.829  1.00  0.00     0.041 A 
ATOM     70  F   UNL A   1      38.978  26.521  29.910  1.00  0.00    -0.206 F 
ATOM     71  C   UNL A   1      40.766  26.219  26.780  1.00  0.00     0.022 A 
BRANCH  68  72
ATOM     72  S   UNL A   1      42.654  27.805  25.476  1.00  0.00     0.124 S 
ATOM     73  O   UNL A   1      42.638  26.601  24.649  1.00  0.00    -0.237 OA
ATOM     74  O   UNL A   1      41.891  28.939  24.968  1.00  0.00    -0.237 OA
ATOM     75  O   UNL A   1      43.953  28.135  26.059  1.00  0.00    -0.744 OA
ENDBRANCH  68  72
ENDBRANCH  51  65
BRANCH  52  76
ATOM     76  C   UNL A   1      39.828  33.817  37.100  1.00  0.00     0.023 A 
ATOM     77  C   UNL A   1      39.122  33.331  38.212  1.00  0.00     0.031 A 
ATOM     78  C   UNL A   1      40.325  35.130  37.157  1.00  0.00     0.131 A 
ATOM     79  C   UNL A   1      38.891  34.166  39.314  1.00  0.00     0.055 A 
ATOM     80  C   UNL A   1      40.136  35.942  38.277  1.00  0.00     0.041 A 
ATOM     81  F   UNL A   1      41.015  35.642  36.124  1.00  0.00    -0.206 F 
ATOM     82  C   UNL A   1      39.403  35.465  39.360  1.00  0.00     0.022 A 
BRANCH  79  83
ATOM     83  S   UNL A   1      37.837  33.556  40.658  1.00  0.00     0.124 S 
ATOM     84  O   UNL A   1      37.568  34.780  41.404  1.00  0.00    -0.237 OA
ATOM     85  O   UNL A   1      36.710  32.990  39.924  1.00  0.00    -0.237 OA
ATOM     86  O   UNL A   1      38.686  32.581  41.340  1.00  0.00    -0.744 OA
ENDBRANCH  79  83
ENDBRANCH  52  76
BRANCH  64  87
ATOM     87  C   UNL A   1      44.201  28.643  35.478  1.00  0.00     0.023 A 
ATOM     88  C   UNL A   1      44.038  27.628  36.436  1.00  0.00     0.031 A 
ATOM     89  C   UNL A   1      45.502  29.109  35.219  1.00  0.00     0.131 A 
ATOM     90  C   UNL A   1      45.153  27.146  37.138  1.00  0.00     0.055 A 
ATOM     91  C   UNL A   1      46.614  28.588  35.881  1.00  0.00     0.041 A 
ATOM     92  F   UNL A   1      45.712  30.079  34.313  1.00  0.00    -0.206 F 
ATOM     93  C   UNL A   1      46.441  27.608  36.855  1.00  0.00     0.022 A 
BRANCH  90  94
ATOM     94  S   UNL A   1      44.888  25.958  38.482  1.00  0.00     0.124 S 
ATOM     95  O   UNL A   1      46.199  25.927  39.122  1.00  0.00    -0.237 OA
ATOM     96  O   UNL A   1      43.819  26.588  39.250  1.00  0.00    -0.237 OA
ATOM     97  O   UNL A   1      44.508  24.730  37.785  1.00  0.00    -0.744 OA
ENDBRANCH  90  94
ENDBRANCH  64  87
ENDBRANCH  38  39
ENDBRANCH  30  33
ENDBRANCH   1  29
TORSDOF 15
ENDMDL
MODEL 2
REMARK VINA RESULT:     -12.8      2.389      3.327
REMARK SMILES O=C(NCCCNC(=O)c1ccc(-c2c3nc(c(-c4cc(S(=O)(=O)[O-])ccc4F)c4ccc([nH]4)c(-c4cc(S(=O)(=O)[O-])ccc4F)c4nc(c(-c5cc(S(=O)(=O)[O-])ccc5F)c5ccc2[nH]5)C=C4)C=C3)cc1)C1=Cc2c(ccc(Cl)c2-c2ccccc2)O[C@H]1C(F)(F)F
REMARK SMILES IDX 6 1 5 2 4 3 3 4 1 5 2 6 73 8 74 9 89 10 75 11 88 12 76 13
REMARK SMILES IDX 81 14 77 15 79 16 78 17 80 18 90 19 91 20 92 21 93 22 82 23
REMARK SMILES IDX 83 24 87 25 84 26 86 27 85 28 7 29 8 30 9 32 10 33 11 34
REMARK SMILES IDX 72 35 12 36 71 37 13 38 14 39 15 40 65 41 16 42 70 43 64 44
REMARK SMILES IDX 66 45 17 46 69 47 63 48 62 49 18 51 50 52 30 53 49 54 31 55
REMARK SMILES IDX 34 56 48 57 67 58 32 59 33 60 47 62 68 63 35 64 19 65 20 66
REMARK SMILES IDX 28 67 21 68 27 69 29 70 26 71 22 72 23 73 24 74 25 75 51 76
REMARK SMILES IDX 52 77 60 78 53 79 59 80 61 81 58 82 54 83 55 84 56 85 57 86
REMARK SMILES IDX 36 87 37 88 45 89 38 90 44 91 46 92 43 93 39 94 40 95 41 96
REMARK SMILES IDX 42 97
REMARK H PARENT 3 7 7 31 66 50 34 61
REMARK Flexibility Score: inf
ROOT
ATOM      1  C   UNL A   1      32.774  29.037  25.295  1.00  0.00     0.118 C 
ENDROOT
BRANCH   1   2
ATOM      2  C   UNL A   1      33.652  29.205  24.062  1.00  0.00     0.042 C 
BRANCH   2   3
ATOM      3  C   UNL A   1      32.925  28.935  22.755  1.00  0.00     0.118 C 
BRANCH   3   4
ATOM      4  N   UNL A   1      33.414  27.797  21.995  1.00  0.00    -0.352 N 
ATOM      5  O   UNL A   1      33.649  25.628  21.436  1.00  0.00    -0.270 OA
ATOM      6  C   UNL A   1      33.137  26.468  22.170  1.00  0.00     0.251 C 
ATOM      7  H   UNL A   1      34.028  28.009  21.255  1.00  0.00     0.163 HD
BRANCH   6   8
ATOM      8  C   UNL A   1      32.213  26.024  23.238  1.00  0.00     0.067 C 
ATOM      9  C   UNL A   1      32.748  25.362  24.273  1.00  0.00     0.026 C 
ATOM     10  C   UNL A   1      30.756  25.840  22.938  1.00  0.00     0.314 C 
ATOM     11  C   UNL A   1      32.465  23.908  24.118  1.00  0.00     0.027 A 
ATOM     12  O   UNL A   1      30.308  24.452  23.126  1.00  0.00    -0.475 OA
ATOM     13  C   UNL A   1      31.253  23.534  23.517  1.00  0.00     0.128 A 
ATOM     14  C   UNL A   1      33.484  22.965  24.405  1.00  0.00     0.011 A 
ATOM     15  C   UNL A   1      31.038  22.202  23.183  1.00  0.00     0.049 A 
ATOM     16  C   UNL A   1      33.256  21.633  24.032  1.00  0.00     0.049 A 
ATOM     17  C   UNL A   1      32.046  21.260  23.421  1.00  0.00     0.025 A 
ATOM     18  Cl  UNL A   1      34.460  20.416  24.252  1.00  0.00    -0.084 Cl
BRANCH  10  19
ATOM     19  C   UNL A   1      29.890  26.810  23.771  1.00  0.00     0.429 C 
ATOM     20  F   UNL A   1      29.828  28.058  23.242  1.00  0.00    -0.167 F 
ATOM     21  F   UNL A   1      28.615  26.363  23.872  1.00  0.00    -0.167 F 
ATOM     22  F   UNL A   1      30.358  26.958  25.034  1.00  0.00    -0.167 F 
ENDBRANCH  10  19
BRANCH  14  23
ATOM     23  C   UNL A   1      34.746  23.493  24.960  1.00  0.00    -0.016 A 
ATOM     24  C   UNL A   1      34.952  23.495  26.350  1.00  0.00     0.009 A 
ATOM     25  C   UNL A   1      35.856  23.661  24.114  1.00  0.00     0.009 A 
ATOM     26  C   UNL A   1      36.244  23.543  26.874  1.00  0.00     0.001 A 
ATOM     27  C   UNL A   1      37.147  23.701  24.640  1.00  0.00     0.001 A 
ATOM     28  C   UNL A   1      37.341  23.615  26.017  1.00  0.00     0.000 A 
ENDBRANCH  14  23
ENDBRANCH   6   8
ENDBRANCH   3   4
ENDBRANCH   2   3
ENDBRANCH   1   2
BRANCH   1  29
ATOM     29  N   UNL A   1      32.375  30.295  25.920  1.00  0.00    -0.352 N 
ATOM     30  C   UNL A   1      32.968  31.122  26.852  1.00  0.00     0.251 C 
ATOM     31  H   UNL A   1      31.499  30.622  25.612  1.00  0.00     0.163 HD
ATOM     32  O   UNL A   1      32.337  32.089  27.256  1.00  0.00    -0.269 OA
BRANCH  30  33
ATOM     33  C   UNL A   1      34.310  30.838  27.420  1.00  0.00     0.039 A 
ATOM     34  C   UNL A   1      35.188  31.908  27.645  1.00  0.00     0.014 A 
ATOM     35  C   UNL A   1      34.732  29.549  27.721  1.00  0.00     0.014 A 
ATOM     36  C   UNL A   1      36.418  31.690  28.280  1.00  0.00     0.010 A 
ATOM     37  C   UNL A   1      35.889  29.349  28.468  1.00  0.00     0.010 A 
ATOM     38  C   UNL A   1      36.746  30.417  28.766  1.00  0.00    -0.014 A 
BRANCH  38  39
ATOM     39  C   UNL A   1      37.969  30.156  29.580  1.00  0.00     0.031 A 
ATOM     40  C   UNL A   1      39.041  29.239  29.048  1.00  0.00     0.074 A 
ATOM     41  C   UNL A   1      38.058  30.633  30.838  1.00  0.00     0.049 A 
ATOM     42  N   UNL A   1      40.050  28.685  29.672  1.00  0.00    -0.248 NA
ATOM     43  C   UNL A   1      38.924  28.849  27.635  1.00  0.00     0.031 C 
ATOM     44  C   UNL A   1      37.072  31.495  31.494  1.00  0.00     0.029 A 
ATOM     45  N   UNL A   1      39.017  30.444  31.803  1.00  0.00    -0.354 N 
ATOM     46  C   UNL A   1      40.652  27.842  28.742  1.00  0.00     0.074 A 
ATOM     47  C   UNL A   1      39.855  27.913  27.536  1.00  0.00     0.031 C 
ATOM     48  C   UNL A   1      37.490  31.785  32.737  1.00  0.00     0.029 A 
ATOM     49  C   UNL A   1      38.740  31.079  32.994  1.00  0.00     0.049 A 
ATOM     50  H   UNL A   1      39.828  29.904  31.658  1.00  0.00     0.167 HD
ATOM     51  C   UNL A   1      41.779  27.097  28.873  1.00  0.00     0.034 A 
ATOM     52  C   UNL A   1      39.405  31.077  34.166  1.00  0.00     0.034 A 
ATOM     53  C   UNL A   1      42.594  27.085  30.065  1.00  0.00     0.049 A 
ATOM     54  C   UNL A   1      40.668  30.263  34.283  1.00  0.00     0.074 A 
ATOM     55  C   UNL A   1      43.788  26.422  30.288  1.00  0.00     0.029 A 
ATOM     56  N   UNL A   1      42.302  27.781  31.231  1.00  0.00    -0.354 N 
ATOM     57  N   UNL A   1      41.234  29.484  33.390  1.00  0.00    -0.248 NA
ATOM     58  C   UNL A   1      41.385  30.333  35.563  1.00  0.00     0.031 C 
ATOM     59  C   UNL A   1      44.194  26.680  31.604  1.00  0.00     0.029 A 
ATOM     60  C   UNL A   1      43.287  27.554  32.180  1.00  0.00     0.049 A 
ATOM     61  H   UNL A   1      41.512  28.352  31.364  1.00  0.00     0.167 HD
ATOM     62  C   UNL A   1      42.390  28.995  33.992  1.00  0.00     0.074 A 
ATOM     63  C   UNL A   1      42.446  29.578  35.317  1.00  0.00     0.031 C 
ATOM     64  C   UNL A   1      43.323  28.145  33.496  1.00  0.00     0.034 A 
BRANCH  51  65
ATOM     65  C   UNL A   1      42.181  26.231  27.700  1.00  0.00     0.023 A 
ATOM     66  C   UNL A   1      41.741  24.902  27.581  1.00  0.00     0.031 A 
ATOM     67  C   UNL A   1      43.053  26.723  26.713  1.00  0.00     0.131 A 
ATOM     68  C   UNL A   1      42.250  24.082  26.564  1.00  0.00     0.055 A 
ATOM     69  C   UNL A   1      43.482  25.928  25.647  1.00  0.00     0.041 A 
ATOM     70  F   UNL A   1      43.522  27.979  26.778  1.00  0.00    -0.206 F 
ATOM     71  C   UNL A   1      43.097  24.592  25.579  1.00  0.00     0.022 A 
BRANCH  68  72
ATOM     72  S   UNL A   1      41.921  22.300  26.648  1.00  0.00     0.124 S 
ATOM     73  O   UNL A   1      40.466  22.279  26.780  1.00  0.00    -0.237 OA
ATOM     74  O   UNL A   1      42.454  21.820  25.378  1.00  0.00    -0.237 OA
ATOM     75  O   UNL A   1      42.654  21.872  27.837  1.00  0.00    -0.744 OA
ENDBRANCH  68  72
ENDBRANCH  51  65
BRANCH  52  76
ATOM     76  C   UNL A   1      38.898  31.862  35.328  1.00  0.00     0.023 A 
ATOM     77  C   UNL A   1      38.323  31.213  36.432  1.00  0.00     0.031 A 
ATOM     78  C   UNL A   1      38.942  33.266  35.338  1.00  0.00     0.131 A 
ATOM     79  C   UNL A   1      37.772  31.968  37.479  1.00  0.00     0.055 A 
ATOM     80  C   UNL A   1      38.437  34.013  36.405  1.00  0.00     0.041 A 
ATOM     81  F   UNL A   1      39.489  33.937  34.311  1.00  0.00    -0.206 F 
ATOM     82  C   UNL A   1      37.835  33.363  37.478  1.00  0.00     0.022 A 
BRANCH  79  83
ATOM     83  S   UNL A   1      36.894  31.097  38.806  1.00  0.00     0.124 S 
ATOM     84  O   UNL A   1      37.807  31.269  39.929  1.00  0.00    -0.237 OA
ATOM     85  O   UNL A   1      35.640  31.842  38.877  1.00  0.00    -0.237 OA
ATOM     86  O   UNL A   1      36.777  29.732  38.297  1.00  0.00    -0.744 OA
ENDBRANCH  79  83
ENDBRANCH  52  76
BRANCH  64  87
ATOM     87  C   UNL A   1      44.507  27.843  34.377  1.00  0.00     0.023 A 
ATOM     88  C   UNL A   1      44.525  26.733  35.237  1.00  0.00     0.031 A 
ATOM     89  C   UNL A   1      45.631  28.689  34.359  1.00  0.00     0.131 A 
ATOM     90  C   UNL A   1      45.625  26.524  36.083  1.00  0.00     0.055 A 
ATOM     91  C   UNL A   1      46.745  28.446  35.163  1.00  0.00     0.041 A 
ATOM     92  F   UNL A   1      45.663  29.765  33.556  1.00  0.00    -0.206 F 
ATOM     93  C   UNL A   1      46.740  27.364  36.040  1.00  0.00     0.022 A 
BRANCH  90  94
ATOM     94  S   UNL A   1      45.545  25.180  37.298  1.00  0.00     0.124 S 
ATOM     95  O   UNL A   1      45.912  24.020  36.492  1.00  0.00    -0.237 OA
ATOM     96  O   UNL A   1      46.525  25.600  38.294  1.00  0.00    -0.237 OA
ATOM     97  O   UNL A   1      44.155  25.207  37.749  1.00  0.00    -0.744 OA
ENDBRANCH  90  94
ENDBRANCH  64  87
ENDBRANCH  38  39
ENDBRANCH  30  33
ENDBRANCH   1  29
TORSDOF 15
ENDMDL
MODEL 3
REMARK VINA RESULT:     -12.8      6.254     11.770
REMARK SMILES O=C(NCCCNC(=O)c1ccc(-c2c3nc(c(-c4cc(S(=O)(=O)[O-])ccc4F)c4ccc([nH]4)c(-c4cc(S(=O)(=O)[O-])ccc4F)c4nc(c(-c5cc(S(=O)(=O)[O-])ccc5F)c5ccc2[nH]5)C=C4)C=C3)cc1)C1=Cc2c(ccc(Cl)c2-c2ccccc2)O[C@H]1C(F)(F)F
REMARK SMILES IDX 6 1 5 2 4 3 3 4 1 5 2 6 73 8 74 9 89 10 75 11 88 12 76 13
REMARK SMILES IDX 81 14 77 15 79 16 78 17 80 18 90 19 91 20 92 21 93 22 82 23
REMARK SMILES IDX 83 24 87 25 84 26 86 27 85 28 7 29 8 30 9 32 10 33 11 34
REMARK SMILES IDX 72 35 12 36 71 37 13 38 14 39 15 40 65 41 16 42 70 43 64 44
REMARK SMILES IDX 66 45 17 46 69 47 63 48 62 49 18 51 50 52 30 53 49 54 31 55
REMARK SMILES IDX 34 56 48 57 67 58 32 59 33 60 47 62 68 63 35 64 19 65 20 66
REMARK SMILES IDX 28 67 21 68 27 69 29 70 26 71 22 72 23 73 24 74 25 75 51 76
REMARK SMILES IDX 52 77 60 78 53 79 59 80 61 81 58 82 54 83 55 84 56 85 57 86
REMARK SMILES IDX 36 87 37 88 45 89 38 90 44 91 46 92 43 93 39 94 40 95 41 96
REMARK SMILES IDX 42 97
REMARK H PARENT 3 7 7 31 66 50 34 61
REMARK Flexibility Score: inf
ROOT
ATOM      1  C   UNL A   1      39.125  20.609  25.791  1.00  0.00     0.118 C 
ENDROOT
BRANCH   1   2
ATOM      2  C   UNL A   1      37.901  20.273  24.949  1.00  0.00     0.042 C 
BRANCH   2   3
ATOM      3  C   UNL A   1      37.032  21.478  24.629  1.00  0.00     0.118 C 
BRANCH   3   4
ATOM      4  N   UNL A   1      36.481  22.171  25.781  1.00  0.00    -0.352 N 
ATOM      5  O   UNL A   1      34.876  22.976  27.140  1.00  0.00    -0.270 OA
ATOM      6  C   UNL A   1      35.169  22.350  26.125  1.00  0.00     0.251 C 
ATOM      7  H   UNL A   1      37.140  22.565  26.397  1.00  0.00     0.163 HD
BRANCH   6   8
ATOM      8  C   UNL A   1      34.086  21.788  25.287  1.00  0.00     0.067 C 
ATOM      9  C   UNL A   1      33.519  22.606  24.391  1.00  0.00     0.026 C 
ATOM     10  C   UNL A   1      33.315  20.593  25.763  1.00  0.00     0.314 C 
ATOM     11  C   UNL A   1      32.198  23.057  24.911  1.00  0.00     0.027 A 
ATOM     12  O   UNL A   1      31.885  20.877  25.953  1.00  0.00    -0.475 OA
ATOM     13  C   UNL A   1      31.460  22.160  25.699  1.00  0.00     0.128 A 
ATOM     14  C   UNL A   1      31.815  24.413  24.756  1.00  0.00     0.011 A 
ATOM     15  C   UNL A   1      30.321  22.606  26.357  1.00  0.00     0.049 A 
ATOM     16  C   UNL A   1      30.678  24.847  25.453  1.00  0.00     0.049 A 
ATOM     17  C   UNL A   1      29.944  23.951  26.250  1.00  0.00     0.025 A 
ATOM     18  Cl  UNL A   1      30.167  26.495  25.409  1.00  0.00    -0.084 Cl
BRANCH  10  19
ATOM     19  C   UNL A   1      33.511  19.391  24.814  1.00  0.00     0.429 C 
ATOM     20  F   UNL A   1      34.800  19.218  24.431  1.00  0.00    -0.167 F 
ATOM     21  F   UNL A   1      33.119  18.235  25.403  1.00  0.00    -0.167 F 
ATOM     22  F   UNL A   1      32.791  19.518  23.673  1.00  0.00    -0.167 F 
ENDBRANCH  10  19
BRANCH  14  23
ATOM     23  C   UNL A   1      32.717  25.278  23.971  1.00  0.00    -0.016 A 
ATOM     24  C   UNL A   1      32.571  25.357  22.576  1.00  0.00     0.009 A 
ATOM     25  C   UNL A   1      33.469  26.267  24.628  1.00  0.00     0.009 A 
ATOM     26  C   UNL A   1      33.064  26.459  21.875  1.00  0.00     0.001 A 
ATOM     27  C   UNL A   1      33.953  27.371  23.926  1.00  0.00     0.001 A 
ATOM     28  C   UNL A   1      33.727  27.479  22.555  1.00  0.00     0.000 A 
ENDBRANCH  14  23
ENDBRANCH   6   8
ENDBRANCH   3   4
ENDBRANCH   2   3
ENDBRANCH   1   2
BRANCH   1  29
ATOM     29  N   UNL A   1      40.098  19.524  25.890  1.00  0.00    -0.352 N 
ATOM     30  C   UNL A   1      41.450  19.484  26.161  1.00  0.00     0.251 C 
ATOM     31  H   UNL A   1      39.707  18.634  25.730  1.00  0.00     0.163 HD
ATOM     32  O   UNL A   1      42.026  18.406  26.089  1.00  0.00    -0.269 OA
BRANCH  30  33
ATOM     33  C   UNL A   1      42.232  20.708  26.471  1.00  0.00     0.039 A 
ATOM     34  C   UNL A   1      42.679  21.510  25.412  1.00  0.00     0.014 A 
ATOM     35  C   UNL A   1      42.549  21.076  27.773  1.00  0.00     0.014 A 
ATOM     36  C   UNL A   1      43.324  22.726  25.671  1.00  0.00     0.010 A 
ATOM     37  C   UNL A   1      43.067  22.341  28.034  1.00  0.00     0.010 A 
ATOM     38  C   UNL A   1      43.456  23.189  26.987  1.00  0.00    -0.014 A 
BRANCH  38  39
ATOM     39  C   UNL A   1      43.996  24.540  27.317  1.00  0.00     0.031 A 
ATOM     40  C   UNL A   1      43.072  25.607  27.848  1.00  0.00     0.074 A 
ATOM     41  C   UNL A   1      45.275  24.847  27.020  1.00  0.00     0.049 A 
ATOM     42  N   UNL A   1      43.268  26.896  27.966  1.00  0.00    -0.248 NA
ATOM     43  C   UNL A   1      41.726  25.167  28.245  1.00  0.00     0.031 C 
ATOM     44  C   UNL A   1      46.266  23.923  26.461  1.00  0.00     0.029 A 
ATOM     45  N   UNL A   1      45.962  26.031  27.130  1.00  0.00    -0.354 N 
ATOM     46  C   UNL A   1      42.054  27.425  28.398  1.00  0.00     0.074 A 
ATOM     47  C   UNL A   1      41.118  26.323  28.458  1.00  0.00     0.031 C 
ATOM     48  C   UNL A   1      47.435  24.564  26.307  1.00  0.00     0.029 A 
ATOM     49  C   UNL A   1      47.266  25.961  26.692  1.00  0.00     0.049 A 
ATOM     50  H   UNL A   1      45.560  26.856  27.488  1.00  0.00     0.167 HD
ATOM     51  C   UNL A   1      41.756  28.704  28.738  1.00  0.00     0.034 A 
ATOM     52  C   UNL A   1      48.212  26.915  26.592  1.00  0.00     0.034 A 
ATOM     53  C   UNL A   1      42.720  29.778  28.728  1.00  0.00     0.049 A 
ATOM     54  C   UNL A   1      47.868  28.325  26.998  1.00  0.00     0.074 A 
ATOM     55  C   UNL A   1      42.549  31.096  29.113  1.00  0.00     0.029 A 
ATOM     56  N   UNL A   1      44.043  29.652  28.323  1.00  0.00    -0.354 N 
ATOM     57  N   UNL A   1      46.721  28.805  27.419  1.00  0.00    -0.248 NA
ATOM     58  C   UNL A   1      48.946  29.318  26.920  1.00  0.00     0.031 C 
ATOM     59  C   UNL A   1      43.754  31.777  28.897  1.00  0.00     0.029 A 
ATOM     60  C   UNL A   1      44.694  30.870  28.438  1.00  0.00     0.049 A 
ATOM     61  H   UNL A   1      44.457  28.819  28.002  1.00  0.00     0.167 HD
ATOM     62  C   UNL A   1      46.950  30.152  27.686  1.00  0.00     0.074 A 
ATOM     63  C   UNL A   1      48.346  30.402  27.390  1.00  0.00     0.031 C 
ATOM     64  C   UNL A   1      46.088  31.098  28.136  1.00  0.00     0.034 A 
BRANCH  51  65
ATOM     65  C   UNL A   1      40.328  29.003  29.133  1.00  0.00     0.023 A 
ATOM     66  C   UNL A   1      39.925  29.025  30.480  1.00  0.00     0.031 A 
ATOM     67  C   UNL A   1      39.344  29.223  28.152  1.00  0.00     0.131 A 
ATOM     68  C   UNL A   1      38.567  29.156  30.805  1.00  0.00     0.055 A 
ATOM     69  C   UNL A   1      38.007  29.449  28.488  1.00  0.00     0.041 A 
ATOM     70  F   UNL A   1      39.660  29.198  26.849  1.00  0.00    -0.206 F 
ATOM     71  C   UNL A   1      37.607  29.396  29.820  1.00  0.00     0.022 A 
BRANCH  68  72
ATOM     72  S   UNL A   1      38.057  28.842  32.517  1.00  0.00     0.124 S 
ATOM     73  O   UNL A   1      39.042  29.624  33.262  1.00  0.00    -0.237 OA
ATOM     74  O   UNL A   1      36.690  29.349  32.538  1.00  0.00    -0.237 OA
ATOM     75  O   UNL A   1      38.190  27.393  32.654  1.00  0.00    -0.744 OA
ENDBRANCH  68  72
ENDBRANCH  51  65
BRANCH  52  76
ATOM     76  C   UNL A   1      49.575  26.583  26.084  1.00  0.00     0.023 A 
ATOM     77  C   UNL A   1      49.999  27.038  24.826  1.00  0.00     0.031 A 
ATOM     78  C   UNL A   1      50.455  25.776  26.825  1.00  0.00     0.131 A 
ATOM     79  C   UNL A   1      51.249  26.646  24.325  1.00  0.00     0.055 A 
ATOM     80  C   UNL A   1      51.720  25.430  26.344  1.00  0.00     0.041 A 
ATOM     81  F   UNL A   1      50.103  25.322  28.039  1.00  0.00    -0.206 F 
ATOM     82  C   UNL A   1      52.117  25.854  25.080  1.00  0.00     0.022 A 
BRANCH  79  83
ATOM     83  S   UNL A   1      51.691  27.119  22.630  1.00  0.00     0.124 S 
ATOM     84  O   UNL A   1      52.780  26.195  22.338  1.00  0.00    -0.237 OA
ATOM     85  O   UNL A   1      50.440  26.885  21.916  1.00  0.00    -0.237 OA
ATOM     86  O   UNL A   1      52.079  28.522  22.760  1.00  0.00    -0.744 OA
ENDBRANCH  79  83
ENDBRANCH  52  76
BRANCH  64  87
ATOM     87  C   UNL A   1      46.652  32.472  28.386  1.00  0.00     0.023 A 
ATOM     88  C   UNL A   1      46.777  33.418  27.355  1.00  0.00     0.031 A 
ATOM     89  C   UNL A   1      47.079  32.834  29.676  1.00  0.00     0.131 A 
ATOM     90  C   UNL A   1      47.363  34.665  27.620  1.00  0.00     0.055 A 
ATOM     91  C   UNL A   1      47.611  34.095  29.945  1.00  0.00     0.041 A 
ATOM     92  F   UNL A   1      46.982  31.966  30.696  1.00  0.00    -0.206 F 
ATOM     93  C   UNL A   1      47.766  35.014  28.911  1.00  0.00     0.022 A 
BRANCH  90  94
ATOM     94  S   UNL A   1      47.662  35.798  26.236  1.00  0.00     0.124 S 
ATOM     95  O   UNL A   1      48.805  36.568  26.716  1.00  0.00    -0.237 OA
ATOM     96  O   UNL A   1      47.929  34.881  25.133  1.00  0.00    -0.237 OA
ATOM     97  O   UNL A   1      46.411  36.546  26.129  1.00  0.00    -0.744 OA
ENDBRANCH  90  94
ENDBRANCH  64  87
ENDBRANCH  38  39
ENDBRANCH  30  33
ENDBRANCH   1  29
TORSDOF 15
ENDMDL
