MODEL 1
REMARK VINA RESULT:     -12.8      0.000      0.000
REMARK SMILES CC[C@@H](C)[C@@H](NC(=O)Cn1ncc2ccccc2c1=O)C(=O)NCCCNC(=O)c1ccc(-c2c3nc(c(-c4cc(S(=O)(=O)[O-])ccc4F)c4ccc([nH]4)c(-c4cc(S(=O)(=O)[O-])ccc4F)c4nc(c(-c5cc(S(=O)(=O)[O-])ccc5F)c5ccc2[nH]5)C=C4)C=C3)cc1
REMARK SMILES IDX 25 1 24 2 23 3 21 4 22 5 5 7 3 8 4 9 2 10 1 11 6 12 7 13
REMARK SMILES IDX 8 15 9 16 10 17 11 18 19 19 12 20 18 21 20 22 13 23 17 24
REMARK SMILES IDX 14 25 16 26 15 27 26 28 27 29 28 30 29 32 30 33 31 34 92 35
REMARK SMILES IDX 32 36 91 37 33 38 34 39 35 40 85 41 36 42 90 43 84 44 86 45
REMARK SMILES IDX 37 46 89 47 83 48 82 49 38 51 70 52 50 53 69 54 51 55 54 56
REMARK SMILES IDX 68 57 87 58 52 59 53 60 67 62 88 63 55 64 39 65 40 66 48 67
REMARK SMILES IDX 41 68 47 69 49 70 46 71 42 72 43 73 44 74 45 75 71 76 72 77
REMARK SMILES IDX 80 78 73 79 79 80 81 81 78 82 74 83 75 84 76 85 77 86 56 87
REMARK SMILES IDX 57 88 65 89 58 90 64 91 66 92 63 93 59 94 60 95 61 96 62 97
REMARK H PARENT 23 6 6 14 27 31 86 50 54 61
REMARK Flexibility Score: inf
ROOT
ATOM      1  C   UNL A   1      35.190  22.788  26.687  1.00  0.00     0.042 C 
ENDROOT
BRANCH   1   2
ATOM      2  C   UNL A   1      33.914  22.069  27.454  1.00  0.00     0.117 C 
BRANCH   2   3
ATOM      3  N   UNL A   1      32.637  22.095  26.720  1.00  0.00    -0.354 N 
ATOM      4  C   UNL A   1      32.265  21.564  25.526  1.00  0.00     0.242 C 
ATOM      5  O   UNL A   1      31.074  21.459  25.240  1.00  0.00    -0.273 OA
ATOM      6  H   UNL A   1      31.920  22.590  27.179  1.00  0.00     0.163 HD
BRANCH   4   7
ATOM      7  C   UNL A   1      33.349  21.216  24.558  1.00  0.00     0.174 C 
BRANCH   7   8
ATOM      8  C   UNL A   1      33.314  19.629  24.522  1.00  0.00     0.018 C 
ATOM      9  C   UNL A   1      34.703  18.989  24.774  1.00  0.00     0.010 C 
BRANCH   8  10
ATOM     10  C   UNL A   1      32.570  18.952  23.370  1.00  0.00     0.002 C 
ATOM     11  C   UNL A   1      32.907  17.451  23.335  1.00  0.00     0.004 C 
ENDBRANCH   8  10
ENDBRANCH   7   8
BRANCH   7  12
ATOM     12  N   UNL A   1      33.011  21.963  23.318  1.00  0.00    -0.342 N 
ATOM     13  C   UNL A   1      33.310  23.247  22.884  1.00  0.00     0.242 C 
ATOM     14  H   UNL A   1      32.470  21.445  22.679  1.00  0.00     0.164 HD
ATOM     15  O   UNL A   1      33.345  23.359  21.647  1.00  0.00    -0.273 OA
BRANCH  13  16
ATOM     16  C   UNL A   1      33.591  24.546  23.766  1.00  0.00     0.248 C 
BRANCH  16  17
ATOM     17  N   UNL A   1      32.453  25.407  24.163  1.00  0.00    -0.220 N 
ATOM     18  N   UNL A   1      31.514  25.762  23.160  1.00  0.00    -0.177 NA
ATOM     19  C   UNL A   1      32.241  25.676  25.522  1.00  0.00     0.275 A 
ATOM     20  C   UNL A   1      30.852  26.880  23.246  1.00  0.00     0.142 A 
ATOM     21  C   UNL A   1      31.792  27.057  25.750  1.00  0.00     0.050 A 
ATOM     22  O   UNL A   1      32.642  25.022  26.472  1.00  0.00    -0.267 OA
ATOM     23  C   UNL A   1      31.122  27.846  24.301  1.00  0.00     0.007 A 
ATOM     24  C   UNL A   1      32.214  28.046  27.210  1.00  0.00     0.014 A 
ATOM     25  C   UNL A   1      30.905  29.636  24.234  1.00  0.00     0.010 A 
ATOM     26  C   UNL A   1      31.961  29.840  27.194  1.00  0.00     0.001 A 
ATOM     27  C   UNL A   1      31.333  30.634  25.687  1.00  0.00     0.001 A 
ENDBRANCH  16  17
ENDBRANCH  13  16
ENDBRANCH   7  12
ENDBRANCH   4   7
ENDBRANCH   2   3
ENDBRANCH   1   2
BRANCH   1  28
ATOM     28  C   UNL A   1      36.865  22.180  25.416  1.00  0.00     0.118 C 
BRANCH  28  29
ATOM     29  N   UNL A   1      37.909  20.951  25.468  1.00  0.00    -0.352 N 
ATOM     30  C   UNL A   1      39.176  20.938  26.021  1.00  0.00     0.251 C 
ATOM     31  H   UNL A   1      37.607  20.109  25.057  1.00  0.00     0.163 HD
ATOM     32  O   UNL A   1      39.886  19.943  25.970  1.00  0.00    -0.269 OA
BRANCH  30  33
ATOM     33  C   UNL A   1      39.635  22.173  26.675  1.00  0.00     0.039 A 
ATOM     34  C   UNL A   1      39.175  23.381  26.154  1.00  0.00     0.014 A 
ATOM     35  C   UNL A   1      40.683  22.131  27.590  1.00  0.00     0.014 A 
ATOM     36  C   UNL A   1      39.956  24.504  26.328  1.00  0.00     0.010 A 
ATOM     37  C   UNL A   1      41.313  23.325  27.946  1.00  0.00     0.010 A 
ATOM     38  C   UNL A   1      40.986  24.518  27.284  1.00  0.00    -0.014 A 
BRANCH  38  39
ATOM     39  C   UNL A   1      41.611  25.825  27.618  1.00  0.00     0.031 A 
ATOM     40  C   UNL A   1      42.970  26.219  27.112  1.00  0.00     0.074 A 
ATOM     41  C   UNL A   1      40.888  26.678  28.375  1.00  0.00     0.049 A 
ATOM     42  N   UNL A   1      43.635  27.321  27.344  1.00  0.00    -0.248 NA
ATOM     43  C   UNL A   1      43.691  25.259  26.259  1.00  0.00     0.031 C 
ATOM     44  C   UNL A   1      39.563  26.380  28.933  1.00  0.00     0.029 A 
ATOM     45  N   UNL A   1      41.117  27.969  28.769  1.00  0.00    -0.354 N 
ATOM     46  C   UNL A   1      44.867  27.169  26.719  1.00  0.00     0.074 A 
ATOM     47  C   UNL A   1      44.866  25.858  26.108  1.00  0.00     0.031 C 
ATOM     48  C   UNL A   1      39.046  27.484  29.470  1.00  0.00     0.029 A 
ATOM     49  C   UNL A   1      40.062  28.523  29.459  1.00  0.00     0.049 A 
ATOM     50  H   UNL A   1      41.952  28.453  28.577  1.00  0.00     0.167 HD
ATOM     51  C   UNL A   1      45.894  28.051  26.665  1.00  0.00     0.034 A 
ATOM     52  C   UNL A   1      39.929  29.719  30.061  1.00  0.00     0.034 A 
ATOM     53  C   UNL A   1      45.843  29.366  27.260  1.00  0.00     0.049 A 
ATOM     54  C   UNL A   1      41.085  30.669  29.984  1.00  0.00     0.074 A 
ATOM     55  C   UNL A   1      46.811  30.356  27.226  1.00  0.00     0.029 A 
ATOM     56  N   UNL A   1      44.778  29.881  27.990  1.00  0.00    -0.354 N 
ATOM     57  N   UNL A   1      42.228  30.523  29.354  1.00  0.00    -0.248 NA
ATOM     58  C   UNL A   1      40.944  31.940  30.698  1.00  0.00     0.031 C 
ATOM     59  C   UNL A   1      46.368  31.428  28.002  1.00  0.00     0.029 A 
ATOM     60  C   UNL A   1      45.082  31.157  28.442  1.00  0.00     0.049 A 
ATOM     61  H   UNL A   1      43.931  29.409  28.161  1.00  0.00     0.167 HD
ATOM     62  C   UNL A   1      42.945  31.686  29.597  1.00  0.00     0.074 A 
ATOM     63  C   UNL A   1      42.078  32.548  30.377  1.00  0.00     0.031 C 
ATOM     64  C   UNL A   1      44.212  32.004  29.228  1.00  0.00     0.034 A 
BRANCH  51  65
ATOM     65  C   UNL A   1      47.170  27.658  25.952  1.00  0.00     0.023 A 
ATOM     66  C   UNL A   1      47.317  27.947  24.582  1.00  0.00     0.031 A 
ATOM     67  C   UNL A   1      48.159  26.872  26.570  1.00  0.00     0.131 A 
ATOM     68  C   UNL A   1      48.392  27.407  23.863  1.00  0.00     0.055 A 
ATOM     69  C   UNL A   1      49.260  26.386  25.862  1.00  0.00     0.041 A 
ATOM     70  F   UNL A   1      48.070  26.563  27.875  1.00  0.00    -0.206 F 
ATOM     71  C   UNL A   1      49.371  26.637  24.497  1.00  0.00     0.022 A 
BRANCH  68  72
ATOM     72  S   UNL A   1      48.509  27.603  22.062  1.00  0.00     0.124 S 
ATOM     73  O   UNL A   1      49.663  28.489  21.931  1.00  0.00    -0.237 OA
ATOM     74  O   UNL A   1      48.726  26.227  21.624  1.00  0.00    -0.237 OA
ATOM     75  O   UNL A   1      47.227  28.191  21.689  1.00  0.00    -0.744 OA
ENDBRANCH  68  72
ENDBRANCH  51  65
BRANCH  52  76
ATOM     76  C   UNL A   1      38.649  30.049  30.754  1.00  0.00     0.023 A 
ATOM     77  C   UNL A   1      37.591  30.672  30.063  1.00  0.00     0.031 A 
ATOM     78  C   UNL A   1      38.521  29.887  32.142  1.00  0.00     0.131 A 
ATOM     79  C   UNL A   1      36.510  31.206  30.775  1.00  0.00     0.055 A 
ATOM     80  C   UNL A   1      37.393  30.331  32.834  1.00  0.00     0.041 A 
ATOM     81  F   UNL A   1      39.508  29.315  32.850  1.00  0.00    -0.206 F 
ATOM     82  C   UNL A   1      36.393  31.017  32.154  1.00  0.00     0.022 A 
BRANCH  79  83
ATOM     83  S   UNL A   1      35.323  32.315  29.964  1.00  0.00     0.124 S 
ATOM     84  O   UNL A   1      34.357  32.556  31.030  1.00  0.00    -0.237 OA
ATOM     85  O   UNL A   1      36.172  33.448  29.609  1.00  0.00    -0.237 OA
ATOM     86  O   UNL A   1      34.836  31.530  28.833  1.00  0.00    -0.744 OA
ENDBRANCH  79  83
ENDBRANCH  52  76
BRANCH  64  87
ATOM     87  C   UNL A   1      44.757  33.340  29.673  1.00  0.00     0.023 A 
ATOM     88  C   UNL A   1      44.655  34.463  28.831  1.00  0.00     0.031 A 
ATOM     89  C   UNL A   1      45.464  33.479  30.883  1.00  0.00     0.131 A 
ATOM     90  C   UNL A   1      45.278  35.663  29.193  1.00  0.00     0.055 A 
ATOM     91  C   UNL A   1      46.021  34.697  31.271  1.00  0.00     0.041 A 
ATOM     92  F   UNL A   1      45.605  32.435  31.715  1.00  0.00    -0.206 F 
ATOM     93  C   UNL A   1      45.941  35.793  30.417  1.00  0.00     0.022 A 
BRANCH  90  94
ATOM     94  S   UNL A   1      45.333  37.067  28.048  1.00  0.00     0.124 S 
ATOM     95  O   UNL A   1      45.399  38.202  28.966  1.00  0.00    -0.237 OA
ATOM     96  O   UNL A   1      46.557  36.800  27.297  1.00  0.00    -0.237 OA
ATOM     97  O   UNL A   1      44.093  36.952  27.288  1.00  0.00    -0.744 OA
ENDBRANCH  90  94
ENDBRANCH  64  87
ENDBRANCH  38  39
ENDBRANCH  30  33
ENDBRANCH  28  29
ENDBRANCH   1  28
TORSDOF 18
ENDMDL
MODEL 2
REMARK VINA RESULT:     -12.7      0.771      7.414
REMARK SMILES CC[C@@H](C)[C@@H](NC(=O)Cn1ncc2ccccc2c1=O)C(=O)NCCCNC(=O)c1ccc(-c2c3nc(c(-c4cc(S(=O)(=O)[O-])ccc4F)c4ccc([nH]4)c(-c4cc(S(=O)(=O)[O-])ccc4F)c4nc(c(-c5cc(S(=O)(=O)[O-])ccc5F)c5ccc2[nH]5)C=C4)C=C3)cc1
REMARK SMILES IDX 25 1 24 2 23 3 21 4 22 5 5 7 3 8 4 9 2 10 1 11 6 12 7 13
REMARK SMILES IDX 8 15 9 16 10 17 11 18 19 19 12 20 18 21 20 22 13 23 17 24
REMARK SMILES IDX 14 25 16 26 15 27 26 28 27 29 28 30 29 32 30 33 31 34 92 35
REMARK SMILES IDX 32 36 91 37 33 38 34 39 35 40 85 41 36 42 90 43 84 44 86 45
REMARK SMILES IDX 37 46 89 47 83 48 82 49 38 51 70 52 50 53 69 54 51 55 54 56
REMARK SMILES IDX 68 57 87 58 52 59 53 60 67 62 88 63 55 64 39 65 40 66 48 67
REMARK SMILES IDX 41 68 47 69 49 70 46 71 42 72 43 73 44 74 45 75 71 76 72 77
REMARK SMILES IDX 80 78 73 79 79 80 81 81 78 82 74 83 75 84 76 85 77 86 56 87
REMARK SMILES IDX 57 88 65 89 58 90 64 91 66 92 63 93 59 94 60 95 61 96 62 97
REMARK H PARENT 23 6 6 14 27 31 86 50 54 61
REMARK Flexibility Score: inf
ROOT
ATOM      1  C   UNL A   1      35.405  21.726  25.798  1.00  0.00     0.042 C 
ENDROOT
BRANCH   1   2
ATOM      2  C   UNL A   1      34.227  21.516  26.938  1.00  0.00     0.117 C 
BRANCH   2   3
ATOM      3  N   UNL A   1      32.851  21.782  26.484  1.00  0.00    -0.354 N 
ATOM      4  C   UNL A   1      32.128  21.293  25.442  1.00  0.00     0.242 C 
ATOM      5  O   UNL A   1      30.906  21.432  25.419  1.00  0.00    -0.273 OA
ATOM      6  H   UNL A   1      32.365  22.437  27.036  1.00  0.00     0.163 HD
BRANCH   4   7
ATOM      7  C   UNL A   1      32.882  20.683  24.306  1.00  0.00     0.174 C 
BRANCH   7   8
ATOM      8  C   UNL A   1      32.348  19.188  24.271  1.00  0.00     0.018 C 
ATOM      9  C   UNL A   1      32.803  18.356  25.497  1.00  0.00     0.010 C 
BRANCH   8  10
ATOM     10  C   UNL A   1      32.483  18.405  22.964  1.00  0.00     0.002 C 
ATOM     11  C   UNL A   1      33.435  17.212  23.160  1.00  0.00     0.004 C 
ENDBRANCH   8  10
ENDBRANCH   7   8
BRANCH   7  12
ATOM     12  N   UNL A   1      32.603  21.565  23.142  1.00  0.00    -0.342 N 
ATOM     13  C   UNL A   1      32.966  22.870  22.845  1.00  0.00     0.242 C 
ATOM     14  H   UNL A   1      32.053  21.139  22.445  1.00  0.00     0.164 HD
ATOM     15  O   UNL A   1      33.031  23.104  21.627  1.00  0.00    -0.273 OA
BRANCH  13  16
ATOM     16  C   UNL A   1      33.283  24.061  23.858  1.00  0.00     0.248 C 
BRANCH  16  17
ATOM     17  N   UNL A   1      32.206  25.014  24.211  1.00  0.00    -0.220 N 
ATOM     18  N   UNL A   1      31.319  25.417  23.181  1.00  0.00    -0.177 NA
ATOM     19  C   UNL A   1      31.985  25.326  25.560  1.00  0.00     0.275 A 
ATOM     20  C   UNL A   1      30.741  26.583  23.230  1.00  0.00     0.142 A 
ATOM     21  C   UNL A   1      31.638  26.742  25.750  1.00  0.00     0.050 A 
ATOM     22  O   UNL A   1      32.316  24.664  26.532  1.00  0.00    -0.267 OA
ATOM     23  C   UNL A   1      31.061  27.548  24.271  1.00  0.00     0.007 A 
ATOM     24  C   UNL A   1      32.102  27.727  27.200  1.00  0.00     0.014 A 
ATOM     25  C   UNL A   1      30.981  29.348  24.164  1.00  0.00     0.010 A 
ATOM     26  C   UNL A   1      31.986  29.535  27.144  1.00  0.00     0.001 A 
ATOM     27  C   UNL A   1      31.453  30.341  25.607  1.00  0.00     0.001 A 
ENDBRANCH  16  17
ENDBRANCH  13  16
ENDBRANCH   7  12
ENDBRANCH   4   7
ENDBRANCH   2   3
ENDBRANCH   1   2
BRANCH   1  28
ATOM     28  C   UNL A   1      37.584  21.928  25.742  1.00  0.00     0.118 C 
BRANCH  28  29
ATOM     29  N   UNL A   1      38.800  20.877  25.882  1.00  0.00    -0.352 N 
ATOM     30  C   UNL A   1      40.031  21.080  26.479  1.00  0.00     0.251 C 
ATOM     31  H   UNL A   1      38.647  19.984  25.496  1.00  0.00     0.163 HD
ATOM     32  O   UNL A   1      40.885  20.204  26.494  1.00  0.00    -0.269 OA
BRANCH  30  33
ATOM     33  C   UNL A   1      40.269  22.393  27.096  1.00  0.00     0.039 A 
ATOM     34  C   UNL A   1      39.737  23.508  26.451  1.00  0.00     0.014 A 
ATOM     35  C   UNL A   1      41.204  22.525  28.119  1.00  0.00     0.014 A 
ATOM     36  C   UNL A   1      40.360  24.724  26.635  1.00  0.00     0.010 A 
ATOM     37  C   UNL A   1      41.650  23.803  28.462  1.00  0.00     0.010 A 
ATOM     38  C   UNL A   1      41.267  24.912  27.692  1.00  0.00    -0.014 A 
BRANCH  38  39
ATOM     39  C   UNL A   1      41.698  26.300  28.005  1.00  0.00     0.031 A 
ATOM     40  C   UNL A   1      40.829  27.257  28.770  1.00  0.00     0.074 A 
ATOM     41  C   UNL A   1      42.934  26.667  27.604  1.00  0.00     0.049 A 
ATOM     42  N   UNL A   1      41.079  28.500  29.093  1.00  0.00    -0.248 NA
ATOM     43  C   UNL A   1      39.507  26.783  29.213  1.00  0.00     0.031 C 
ATOM     44  C   UNL A   1      43.849  25.813  26.836  1.00  0.00     0.029 A 
ATOM     45  N   UNL A   1      43.663  27.807  27.814  1.00  0.00    -0.354 N 
ATOM     46  C   UNL A   1      39.934  28.974  29.724  1.00  0.00     0.074 A 
ATOM     47  C   UNL A   1      38.979  27.888  29.724  1.00  0.00     0.031 C 
ATOM     48  C   UNL A   1      45.045  26.396  26.760  1.00  0.00     0.029 A 
ATOM     49  C   UNL A   1      44.943  27.736  27.313  1.00  0.00     0.049 A 
ATOM     50  H   UNL A   1      43.306  28.598  28.278  1.00  0.00     0.167 HD
ATOM     51  C   UNL A   1      39.716  30.203  30.250  1.00  0.00     0.034 A 
ATOM     52  C   UNL A   1      45.924  28.655  27.257  1.00  0.00     0.034 A 
ATOM     53  C   UNL A   1      40.710  31.251  30.260  1.00  0.00     0.049 A 
ATOM     54  C   UNL A   1      45.647  30.004  27.847  1.00  0.00     0.074 A 
ATOM     55  C   UNL A   1      40.608  32.518  30.808  1.00  0.00     0.029 A 
ATOM     56  N   UNL A   1      41.981  31.163  29.706  1.00  0.00    -0.354 N 
ATOM     57  N   UNL A   1      44.572  30.421  28.475  1.00  0.00    -0.248 NA
ATOM     58  C   UNL A   1      46.705  31.009  27.722  1.00  0.00     0.031 C 
ATOM     59  C   UNL A   1      41.777  33.219  30.512  1.00  0.00     0.029 A 
ATOM     60  C   UNL A   1      42.656  32.365  29.865  1.00  0.00     0.049 A 
ATOM     61  H   UNL A   1      42.349  30.364  29.264  1.00  0.00     0.167 HD
ATOM     62  C   UNL A   1      44.824  31.742  28.820  1.00  0.00     0.074 A 
ATOM     63  C   UNL A   1      46.178  32.029  28.386  1.00  0.00     0.031 C 
ATOM     64  C   UNL A   1      44.003  32.641  29.420  1.00  0.00     0.034 A 
BRANCH  51  65
ATOM     65  C   UNL A   1      38.368  30.515  30.863  1.00  0.00     0.023 A 
ATOM     66  C   UNL A   1      37.392  31.179  30.094  1.00  0.00     0.031 A 
ATOM     67  C   UNL A   1      38.102  30.307  32.228  1.00  0.00     0.131 A 
ATOM     68  C   UNL A   1      36.226  31.661  30.705  1.00  0.00     0.055 A 
ATOM     69  C   UNL A   1      36.912  30.737  32.820  1.00  0.00     0.041 A 
ATOM     70  F   UNL A   1      38.997  29.681  33.011  1.00  0.00    -0.206 F 
ATOM     71  C   UNL A   1      35.975  31.434  32.061  1.00  0.00     0.022 A 
BRANCH  68  72
ATOM     72  S   UNL A   1      35.039  32.681  29.787  1.00  0.00     0.124 S 
ATOM     73  O   UNL A   1      34.124  33.103  30.845  1.00  0.00    -0.237 OA
ATOM     74  O   UNL A   1      35.899  33.733  29.249  1.00  0.00    -0.237 OA
ATOM     75  O   UNL A   1      34.474  31.763  28.805  1.00  0.00    -0.744 OA
ENDBRANCH  68  72
ENDBRANCH  51  65
BRANCH  52  76
ATOM     76  C   UNL A   1      47.231  28.291  26.636  1.00  0.00     0.023 A 
ATOM     77  C   UNL A   1      47.403  28.324  25.238  1.00  0.00     0.031 A 
ATOM     78  C   UNL A   1      48.272  27.762  27.413  1.00  0.00     0.131 A 
ATOM     79  C   UNL A   1      48.536  27.739  24.659  1.00  0.00     0.055 A 
ATOM     80  C   UNL A   1      49.446  27.272  26.837  1.00  0.00     0.041 A 
ATOM     81  F   UNL A   1      48.152  27.692  28.748  1.00  0.00    -0.206 F 
ATOM     82  C   UNL A   1      49.570  27.234  25.452  1.00  0.00     0.022 A 
BRANCH  79  83
ATOM     83  S   UNL A   1      48.618  27.448  22.869  1.00  0.00     0.124 S 
ATOM     84  O   UNL A   1      48.497  25.996  22.792  1.00  0.00    -0.237 OA
ATOM     85  O   UNL A   1      47.464  28.206  22.393  1.00  0.00    -0.237 OA
ATOM     86  O   UNL A   1      49.917  27.997  22.490  1.00  0.00    -0.744 OA
ENDBRANCH  79  83
ENDBRANCH  52  76
BRANCH  64  87
ATOM     87  C   UNL A   1      44.535  34.038  29.636  1.00  0.00     0.023 A 
ATOM     88  C   UNL A   1      44.432  35.001  28.614  1.00  0.00     0.031 A 
ATOM     89  C   UNL A   1      45.230  34.388  30.809  1.00  0.00     0.131 A 
ATOM     90  C   UNL A   1      45.043  36.250  28.770  1.00  0.00     0.055 A 
ATOM     91  C   UNL A   1      45.774  35.659  30.988  1.00  0.00     0.041 A 
ATOM     92  F   UNL A   1      45.371  33.502  31.808  1.00  0.00    -0.206 F 
ATOM     93  C   UNL A   1      45.694  36.592  29.959  1.00  0.00     0.022 A 
BRANCH  90  94
ATOM     94  S   UNL A   1      45.098  37.439  27.403  1.00  0.00     0.124 S 
ATOM     95  O   UNL A   1      43.689  37.528  27.024  1.00  0.00    -0.237 OA
ATOM     96  O   UNL A   1      45.645  38.627  28.053  1.00  0.00    -0.237 OA
ATOM     97  O   UNL A   1      45.968  36.806  26.419  1.00  0.00    -0.744 OA
ENDBRANCH  90  94
ENDBRANCH  64  87
ENDBRANCH  38  39
ENDBRANCH  30  33
ENDBRANCH  28  29
ENDBRANCH   1  28
TORSDOF 18
ENDMDL
MODEL 3
REMARK VINA RESULT:     -12.7      5.146      8.726
REMARK SMILES CC[C@@H](C)[C@@H](NC(=O)Cn1ncc2ccccc2c1=O)C(=O)NCCCNC(=O)c1ccc(-c2c3nc(c(-c4cc(S(=O)(=O)[O-])ccc4F)c4ccc([nH]4)c(-c4cc(S(=O)(=O)[O-])ccc4F)c4nc(c(-c5cc(S(=O)(=O)[O-])ccc5F)c5ccc2[nH]5)C=C4)C=C3)cc1
REMARK SMILES IDX 25 1 24 2 23 3 21 4 22 5 5 7 3 8 4 9 2 10 1 11 6 12 7 13
REMARK SMILES IDX 8 15 9 16 10 17 11 18 19 19 12 20 18 21 20 22 13 23 17 24
REMARK SMILES IDX 14 25 16 26 15 27 26 28 27 29 28 30 29 32 30 33 31 34 92 35
REMARK SMILES IDX 32 36 91 37 33 38 34 39 35 40 85 41 36 42 90 43 84 44 86 45
REMARK SMILES IDX 37 46 89 47 83 48 82 49 38 51 70 52 50 53 69 54 51 55 54 56
REMARK SMILES IDX 68 57 87 58 52 59 53 60 67 62 88 63 55 64 39 65 40 66 48 67
REMARK SMILES IDX 41 68 47 69 49 70 46 71 42 72 43 73 44 74 45 75 71 76 72 77
REMARK SMILES IDX 80 78 73 79 79 80 81 81 78 82 74 83 75 84 76 85 77 86 56 87
REMARK SMILES IDX 57 88 65 89 58 90 64 91 66 92 63 93 59 94 60 95 61 96 62 97
REMARK H PARENT 23 6 6 14 27 31 86 50 54 61
REMARK Flexibility Score: inf
ROOT
ATOM      1  C   UNL A   1      32.457  30.559  27.093  1.00  0.00     0.042 C 
ENDROOT
BRANCH   1   2
ATOM      2  C   UNL A   1      32.813  29.173  26.265  1.00  0.00     0.117 C 
BRANCH   2   3
ATOM      3  N   UNL A   1      33.488  29.364  24.970  1.00  0.00    -0.354 N 
ATOM      4  C   UNL A   1      33.342  28.741  23.770  1.00  0.00     0.242 C 
ATOM      5  O   UNL A   1      33.799  29.252  22.750  1.00  0.00    -0.273 OA
ATOM      6  H   UNL A   1      34.171  30.073  24.973  1.00  0.00     0.163 HD
BRANCH   4   7
ATOM      7  C   UNL A   1      32.705  27.390  23.768  1.00  0.00     0.174 C 
BRANCH   7   8
ATOM      8  C   UNL A   1      31.152  27.716  23.819  1.00  0.00     0.018 C 
ATOM      9  C   UNL A   1      30.327  26.618  24.539  1.00  0.00     0.010 C 
BRANCH   8  10
ATOM     10  C   UNL A   1      30.473  28.193  22.534  1.00  0.00     0.002 C 
ATOM     11  C   UNL A   1      29.048  28.686  22.842  1.00  0.00     0.004 C 
ENDBRANCH   8  10
ENDBRANCH   7   8
BRANCH   7  12
ATOM     12  N   UNL A   1      33.249  26.710  22.563  1.00  0.00    -0.342 N 
ATOM     13  C   UNL A   1      33.025  25.458  22.010  1.00  0.00     0.242 C 
ATOM     14  H   UNL A   1      33.893  27.257  22.058  1.00  0.00     0.164 HD
ATOM     15  O   UNL A   1      33.204  25.417  20.781  1.00  0.00    -0.273 OA
BRANCH  13  16
ATOM     16  C   UNL A   1      32.593  24.114  22.753  1.00  0.00     0.248 C 
BRANCH  16  17
ATOM     17  N   UNL A   1      33.457  23.575  23.829  1.00  0.00    -0.220 N 
ATOM     18  N   UNL A   1      34.517  24.395  24.296  1.00  0.00    -0.177 NA
ATOM     19  C   UNL A   1      33.089  22.384  24.469  1.00  0.00     0.275 A 
ATOM     20  C   UNL A   1      35.596  23.857  24.788  1.00  0.00     0.142 A 
ATOM     21  C   UNL A   1      34.252  21.539  24.776  1.00  0.00     0.050 A 
ATOM     22  O   UNL A   1      31.972  21.892  24.521  1.00  0.00    -0.267 OA
ATOM     23  C   UNL A   1      35.801  22.416  24.778  1.00  0.00     0.007 A 
ATOM     24  C   UNL A   1      34.234  19.726  24.766  1.00  0.00     0.014 A 
ATOM     25  C   UNL A   1      37.372  21.530  24.711  1.00  0.00     0.010 A 
ATOM     26  C   UNL A   1      35.794  18.803  24.751  1.00  0.00     0.001 A 
ATOM     27  C   UNL A   1      37.363  19.716  24.692  1.00  0.00     0.001 A 
ENDBRANCH  16  17
ENDBRANCH  13  16
ENDBRANCH   7  12
ENDBRANCH   4   7
ENDBRANCH   2   3
ENDBRANCH   1   2
BRANCH   1  28
ATOM     28  C   UNL A   1      32.444  32.714  26.709  1.00  0.00     0.118 C 
BRANCH  28  29
ATOM     29  N   UNL A   1      32.267  34.009  27.656  1.00  0.00    -0.352 N 
ATOM     30  C   UNL A   1      33.107  34.440  28.666  1.00  0.00     0.251 C 
ATOM     31  H   UNL A   1      31.466  34.558  27.494  1.00  0.00     0.163 HD
ATOM     32  O   UNL A   1      32.845  35.431  29.336  1.00  0.00    -0.269 OA
BRANCH  30  33
ATOM     33  C   UNL A   1      34.330  33.658  28.903  1.00  0.00     0.039 A 
ATOM     34  C   UNL A   1      34.193  32.447  29.577  1.00  0.00     0.014 A 
ATOM     35  C   UNL A   1      35.579  34.237  28.698  1.00  0.00     0.014 A 
ATOM     36  C   UNL A   1      35.273  31.974  30.292  1.00  0.00     0.010 A 
ATOM     37  C   UNL A   1      36.707  33.608  29.230  1.00  0.00     0.010 A 
ATOM     38  C   UNL A   1      36.560  32.495  30.071  1.00  0.00    -0.014 A 
BRANCH  38  39
ATOM     39  C   UNL A   1      37.717  31.772  30.664  1.00  0.00     0.031 A 
ATOM     40  C   UNL A   1      38.536  30.787  29.880  1.00  0.00     0.074 A 
ATOM     41  C   UNL A   1      38.036  32.064  31.943  1.00  0.00     0.049 A 
ATOM     42  N   UNL A   1      39.558  30.077  30.284  1.00  0.00    -0.248 NA
ATOM     43  C   UNL A   1      38.160  30.542  28.478  1.00  0.00     0.031 C 
ATOM     44  C   UNL A   1      37.287  32.995  32.797  1.00  0.00     0.029 A 
ATOM     45  N   UNL A   1      39.077  31.668  32.739  1.00  0.00    -0.354 N 
ATOM     46  C   UNL A   1      39.913  29.264  29.213  1.00  0.00     0.074 A 
ATOM     47  C   UNL A   1      38.985  29.557  28.143  1.00  0.00     0.031 C 
ATOM     48  C   UNL A   1      37.959  33.200  33.930  1.00  0.00     0.029 A 
ATOM     49  C   UNL A   1      39.091  32.289  33.968  1.00  0.00     0.049 A 
ATOM     50  H   UNL A   1      39.749  31.005  32.460  1.00  0.00     0.167 HD
ATOM     51  C   UNL A   1      40.922  28.364  29.143  1.00  0.00     0.034 A 
ATOM     52  C   UNL A   1      39.892  32.121  35.035  1.00  0.00     0.034 A 
ATOM     53  C   UNL A   1      41.850  28.126  30.224  1.00  0.00     0.049 A 
ATOM     54  C   UNL A   1      40.997  31.116  34.924  1.00  0.00     0.074 A 
ATOM     55  C   UNL A   1      42.937  27.268  30.242  1.00  0.00     0.029 A 
ATOM     56  N   UNL A   1      41.811  28.738  31.471  1.00  0.00    -0.354 N 
ATOM     57  N   UNL A   1      41.342  30.385  33.888  1.00  0.00    -0.248 NA
ATOM     58  C   UNL A   1      41.821  30.904  36.117  1.00  0.00     0.031 C 
ATOM     59  C   UNL A   1      43.498  27.299  31.519  1.00  0.00     0.029 A 
ATOM     60  C   UNL A   1      42.830  28.248  32.276  1.00  0.00     0.049 A 
ATOM     61  H   UNL A   1      41.155  29.420  31.744  1.00  0.00     0.167 HD
ATOM     62  C   UNL A   1      42.424  29.623  34.307  1.00  0.00     0.074 A 
ATOM     63  C   UNL A   1      42.714  30.033  35.668  1.00  0.00     0.031 C 
ATOM     64  C   UNL A   1      43.103  28.658  33.635  1.00  0.00     0.034 A 
BRANCH  51  65
ATOM     65  C   UNL A   1      41.105  27.555  27.877  1.00  0.00     0.023 A 
ATOM     66  C   UNL A   1      40.831  26.173  27.890  1.00  0.00     0.031 A 
ATOM     67  C   UNL A   1      41.688  28.101  26.720  1.00  0.00     0.131 A 
ATOM     68  C   UNL A   1      41.194  25.377  26.796  1.00  0.00     0.055 A 
ATOM     69  C   UNL A   1      41.993  27.312  25.608  1.00  0.00     0.041 A 
ATOM     70  F   UNL A   1      41.972  29.412  26.651  1.00  0.00    -0.206 F 
ATOM     71  C   UNL A   1      41.763  25.939  25.650  1.00  0.00     0.022 A 
BRANCH  68  72
ATOM     72  S   UNL A   1      41.030  23.570  26.856  1.00  0.00     0.124 S 
ATOM     73  O   UNL A   1      41.396  23.281  28.241  1.00  0.00    -0.237 OA
ATOM     74  O   UNL A   1      39.618  23.385  26.532  1.00  0.00    -0.237 OA
ATOM     75  O   UNL A   1      41.977  23.099  25.851  1.00  0.00    -0.744 OA
ENDBRANCH  68  72
ENDBRANCH  51  65
BRANCH  52  76
ATOM     76  C   UNL A   1      39.661  32.944  36.259  1.00  0.00     0.023 A 
ATOM     77  C   UNL A   1      38.944  32.426  37.356  1.00  0.00     0.031 A 
ATOM     78  C   UNL A   1      40.018  34.301  36.289  1.00  0.00     0.131 A 
ATOM     79  C   UNL A   1      38.515  33.283  38.377  1.00  0.00     0.055 A 
ATOM     80  C   UNL A   1      39.674  35.129  37.359  1.00  0.00     0.041 A 
ATOM     81  F   UNL A   1      40.686  34.848  35.261  1.00  0.00    -0.206 F 
ATOM     82  C   UNL A   1      38.897  34.626  38.397  1.00  0.00     0.022 A 
BRANCH  79  83
ATOM     83  S   UNL A   1      37.301  32.725  39.606  1.00  0.00     0.124 S 
ATOM     84  O   UNL A   1      37.380  33.779  40.612  1.00  0.00    -0.237 OA
ATOM     85  O   UNL A   1      36.073  32.695  38.816  1.00  0.00    -0.237 OA
ATOM     86  O   UNL A   1      37.802  31.417  40.017  1.00  0.00    -0.744 OA
ENDBRANCH  79  83
ENDBRANCH  52  76
BRANCH  64  87
ATOM     87  C   UNL A   1      44.224  27.956  34.363  1.00  0.00     0.023 A 
ATOM     88  C   UNL A   1      43.951  26.844  35.181  1.00  0.00     0.031 A 
ATOM     89  C   UNL A   1      45.544  28.445  34.327  1.00  0.00     0.131 A 
ATOM     90  C   UNL A   1      44.972  26.280  35.954  1.00  0.00     0.055 A 
ATOM     91  C   UNL A   1      46.572  27.834  35.045  1.00  0.00     0.041 A 
ATOM     92  F   UNL A   1      45.856  29.513  33.576  1.00  0.00    -0.206 F 
ATOM     93  C   UNL A   1      46.285  26.755  35.874  1.00  0.00     0.022 A 
BRANCH  90  94
ATOM     94  S   UNL A   1      44.616  24.976  37.162  1.00  0.00     0.124 S 
ATOM     95  O   UNL A   1      45.181  23.797  36.508  1.00  0.00    -0.237 OA
ATOM     96  O   UNL A   1      45.342  25.445  38.339  1.00  0.00    -0.237 OA
ATOM     97  O   UNL A   1      43.162  24.988  37.276  1.00  0.00    -0.744 OA
ENDBRANCH  90  94
ENDBRANCH  64  87
ENDBRANCH  38  39
ENDBRANCH  30  33
ENDBRANCH  28  29
ENDBRANCH   1  28
TORSDOF 18
ENDMDL
