MODEL 1
REMARK VINA RESULT:     -11.8      0.000      0.000
REMARK SMILES O=C(CSc1ccccc1C(=O)NCCCNC(=O)c1ccc(-c2c3nc(c(-c4cc(S(=O)(=O)[O-])ccc4F)c4ccc([nH]4)c(-c4cc(S(=O)(=O)[O-])ccc4F)c4nc(c(-c5cc(S(=O)(=O)[O-])ccc5F)c5ccc2[nH]5)C=C4)C=C3)cc1)c1ccc(Cl)cc1
REMARK SMILES IDX 14 1 13 2 11 3 12 4 10 6 5 7 6 8 7 9 9 10 8 11 4 12 3 13
REMARK SMILES IDX 2 14 1 15 83 16 84 17 89 18 85 19 88 20 86 21 87 22 15 23
REMARK SMILES IDX 16 24 17 25 18 26 19 28 20 29 21 30 82 31 22 32 81 33 23 34
REMARK SMILES IDX 24 35 25 36 75 37 26 38 80 39 74 40 76 41 27 42 79 43 73 44
REMARK SMILES IDX 72 45 28 47 60 48 40 49 59 50 41 51 44 52 58 53 77 54 42 55
REMARK SMILES IDX 43 56 57 58 78 59 45 60 29 61 30 62 38 63 31 64 37 65 39 66
REMARK SMILES IDX 36 67 32 68 33 69 34 70 35 71 61 72 62 73 70 74 63 75 69 76
REMARK SMILES IDX 71 77 68 78 64 79 65 80 66 81 67 82 46 83 47 84 55 85 48 86
REMARK SMILES IDX 54 87 56 88 53 89 49 90 50 91 51 92 52 93
REMARK H PARENT 13 5 17 27 76 46 44 57
REMARK Flexibility Score: inf
ROOT
ATOM      1  C   UNL A   1      35.447  23.232  26.165  1.00  0.00     0.118 C 
ENDROOT
BRANCH   1   2
ATOM      2  N   UNL A   1      35.212  23.916  24.905  1.00  0.00    -0.352 N 
ATOM      3  C   UNL A   1      34.264  24.775  24.415  1.00  0.00     0.252 C 
ATOM      4  O   UNL A   1      34.405  25.062  23.219  1.00  0.00    -0.269 OA
ATOM      5  H   UNL A   1      35.906  23.711  24.237  1.00  0.00     0.163 HD
BRANCH   3   6
ATOM      6  C   UNL A   1      33.160  25.464  25.160  1.00  0.00     0.053 A 
ATOM      7  C   UNL A   1      31.788  25.164  25.232  1.00  0.00     0.020 A 
ATOM      8  C   UNL A   1      30.928  26.015  25.969  1.00  0.00     0.016 A 
ATOM      9  C   UNL A   1      31.386  27.183  26.572  1.00  0.00     0.001 A 
ATOM     10  C   UNL A   1      33.593  26.663  25.784  1.00  0.00     0.015 A 
ATOM     11  C   UNL A   1      32.724  27.517  26.468  1.00  0.00     0.001 A 
BRANCH   7  12
ATOM     12  S   UNL A   1      30.908  23.832  24.446  1.00  0.00    -0.117 SA
BRANCH  12  13
ATOM     13  C   UNL A   1      31.893  22.407  24.998  1.00  0.00     0.156 C 
BRANCH  13  14
ATOM     14  C   UNL A   1      32.353  21.574  23.828  1.00  0.00     0.173 C 
ATOM     15  O   UNL A   1      32.607  22.034  22.721  1.00  0.00    -0.293 OA
BRANCH  14  16
ATOM     16  C   UNL A   1      32.533  20.130  24.076  1.00  0.00     0.018 A 
ATOM     17  C   UNL A   1      32.502  19.231  23.005  1.00  0.00     0.013 A 
ATOM     18  C   UNL A   1      32.702  19.679  25.387  1.00  0.00     0.013 A 
ATOM     19  C   UNL A   1      32.614  17.865  23.252  1.00  0.00     0.021 A 
ATOM     20  C   UNL A   1      32.821  18.308  25.626  1.00  0.00     0.021 A 
ATOM     21  C   UNL A   1      32.773  17.408  24.560  1.00  0.00     0.041 A 
ATOM     22  Cl  UNL A   1      32.916  15.721  24.853  1.00  0.00    -0.084 Cl
ENDBRANCH  14  16
ENDBRANCH  13  14
ENDBRANCH  12  13
ENDBRANCH   7  12
ENDBRANCH   3   6
ENDBRANCH   1   2
BRANCH   1  23
ATOM     23  C   UNL A   1      35.734  21.748  25.904  1.00  0.00     0.042 C 
BRANCH  23  24
ATOM     24  C   UNL A   1      36.829  21.469  24.882  1.00  0.00     0.118 C 
BRANCH  24  25
ATOM     25  N   UNL A   1      37.744  20.442  25.346  1.00  0.00    -0.352 N 
ATOM     26  C   UNL A   1      39.023  20.520  25.848  1.00  0.00     0.251 C 
ATOM     27  H   UNL A   1      37.386  19.527  25.293  1.00  0.00     0.163 HD
ATOM     28  O   UNL A   1      39.675  19.477  25.901  1.00  0.00    -0.269 OA
BRANCH  26  29
ATOM     29  C   UNL A   1      39.644  21.794  26.310  1.00  0.00     0.039 A 
ATOM     30  C   UNL A   1      39.133  22.998  25.806  1.00  0.00     0.014 A 
ATOM     31  C   UNL A   1      40.772  21.841  27.131  1.00  0.00     0.014 A 
ATOM     32  C   UNL A   1      39.729  24.224  26.137  1.00  0.00     0.010 A 
ATOM     33  C   UNL A   1      41.308  23.069  27.539  1.00  0.00     0.010 A 
ATOM     34  C   UNL A   1      40.814  24.277  27.024  1.00  0.00    -0.014 A 
BRANCH  34  35
ATOM     35  C   UNL A   1      41.473  25.571  27.370  1.00  0.00     0.031 A 
ATOM     36  C   UNL A   1      40.730  26.611  28.178  1.00  0.00     0.074 A 
ATOM     37  C   UNL A   1      42.721  25.838  26.932  1.00  0.00     0.049 A 
ATOM     38  N   UNL A   1      41.098  27.820  28.518  1.00  0.00    -0.248 NA
ATOM     39  C   UNL A   1      39.380  26.250  28.635  1.00  0.00     0.031 C 
ATOM     40  C   UNL A   1      43.540  24.938  26.118  1.00  0.00     0.029 A 
ATOM     41  N   UNL A   1      43.519  26.944  27.104  1.00  0.00    -0.354 N 
ATOM     42  C   UNL A   1      40.017  28.373  29.201  1.00  0.00     0.074 A 
ATOM     43  C   UNL A   1      38.961  27.385  29.175  1.00  0.00     0.031 C 
ATOM     44  C   UNL A   1      44.730  25.516  25.883  1.00  0.00     0.029 A 
ATOM     45  C   UNL A   1      44.746  26.845  26.487  1.00  0.00     0.049 A 
ATOM     46  H   UNL A   1      43.240  27.734  27.620  1.00  0.00     0.167 HD
ATOM     47  C   UNL A   1      39.920  29.581  29.814  1.00  0.00     0.034 A 
ATOM     48  C   UNL A   1      45.765  27.725  26.406  1.00  0.00     0.034 A 
ATOM     49  C   UNL A   1      40.993  30.545  29.866  1.00  0.00     0.049 A 
ATOM     50  C   UNL A   1      45.636  29.060  27.097  1.00  0.00     0.074 A 
ATOM     51  C   UNL A   1      41.025  31.765  30.519  1.00  0.00     0.029 A 
ATOM     52  N   UNL A   1      42.224  30.401  29.240  1.00  0.00    -0.354 N 
ATOM     53  N   UNL A   1      44.624  29.543  27.781  1.00  0.00    -0.248 NA
ATOM     54  C   UNL A   1      46.792  29.963  27.016  1.00  0.00     0.031 C 
ATOM     55  C   UNL A   1      42.246  32.387  30.232  1.00  0.00     0.029 A 
ATOM     56  C   UNL A   1      43.009  31.522  29.466  1.00  0.00     0.049 A 
ATOM     57  H   UNL A   1      42.500  29.616  28.712  1.00  0.00     0.167 HD
ATOM     58  C   UNL A   1      45.037  30.792  28.238  1.00  0.00     0.074 A 
ATOM     59  C   UNL A   1      46.393  30.979  27.767  1.00  0.00     0.031 C 
ATOM     60  C   UNL A   1      44.358  31.702  28.984  1.00  0.00     0.034 A 
BRANCH  47  61
ATOM     61  C   UNL A   1      38.597  29.936  30.455  1.00  0.00     0.023 A 
ATOM     62  C   UNL A   1      37.600  30.642  29.759  1.00  0.00     0.031 A 
ATOM     63  C   UNL A   1      38.335  29.582  31.792  1.00  0.00     0.131 A 
ATOM     64  C   UNL A   1      36.427  31.039  30.421  1.00  0.00     0.055 A 
ATOM     65  C   UNL A   1      37.130  29.904  32.419  1.00  0.00     0.041 A 
ATOM     66  F   UNL A   1      39.254  28.922  32.515  1.00  0.00    -0.206 F 
ATOM     67  C   UNL A   1      36.174  30.652  31.739  1.00  0.00     0.022 A 
BRANCH  64  68
ATOM     68  S   UNL A   1      35.306  32.190  29.581  1.00  0.00     0.124 S 
ATOM     69  O   UNL A   1      36.249  33.122  28.966  1.00  0.00    -0.237 OA
ATOM     70  O   UNL A   1      34.582  31.317  28.668  1.00  0.00    -0.237 OA
ATOM     71  O   UNL A   1      34.511  32.753  30.673  1.00  0.00    -0.744 OA
ENDBRANCH  64  68
ENDBRANCH  47  61
BRANCH  48  72
ATOM     72  C   UNL A   1      46.998  27.387  25.634  1.00  0.00     0.023 A 
ATOM     73  C   UNL A   1      47.140  27.773  24.290  1.00  0.00     0.031 A 
ATOM     74  C   UNL A   1      48.032  26.630  26.213  1.00  0.00     0.131 A 
ATOM     75  C   UNL A   1      48.262  27.359  23.557  1.00  0.00     0.055 A 
ATOM     76  C   UNL A   1      49.173  26.267  25.495  1.00  0.00     0.041 A 
ATOM     77  F   UNL A   1      47.952  26.239  27.495  1.00  0.00    -0.206 F 
ATOM     78  C   UNL A   1      49.286  26.620  24.154  1.00  0.00     0.022 A 
BRANCH  75  79
ATOM     79  S   UNL A   1      48.322  27.721  21.780  1.00  0.00     0.124 S 
ATOM     80  O   UNL A   1      47.011  28.318  21.555  1.00  0.00    -0.237 OA
ATOM     81  O   UNL A   1      49.463  28.626  21.697  1.00  0.00    -0.237 OA
ATOM     82  O   UNL A   1      48.525  26.408  21.172  1.00  0.00    -0.744 OA
ENDBRANCH  75  79
ENDBRANCH  48  72
BRANCH  60  83
ATOM     83  C   UNL A   1      45.096  32.960  29.372  1.00  0.00     0.023 A 
ATOM     84  C   UNL A   1      45.063  34.116  28.572  1.00  0.00     0.031 A 
ATOM     85  C   UNL A   1      45.858  32.996  30.554  1.00  0.00     0.131 A 
ATOM     86  C   UNL A   1      45.825  35.238  28.932  1.00  0.00     0.055 A 
ATOM     87  C   UNL A   1      46.563  34.137  30.939  1.00  0.00     0.041 A 
ATOM     88  F   UNL A   1      45.926  31.922  31.356  1.00  0.00    -0.206 F 
ATOM     89  C   UNL A   1      46.562  35.261  30.120  1.00  0.00     0.022 A 
BRANCH  86  90
ATOM     90  S   UNL A   1      45.921  36.634  27.778  1.00  0.00     0.124 S 
ATOM     91  O   UNL A   1      47.362  36.832  27.661  1.00  0.00    -0.237 OA
ATOM     92  O   UNL A   1      45.252  36.106  26.594  1.00  0.00    -0.237 OA
ATOM     93  O   UNL A   1      45.203  37.702  28.471  1.00  0.00    -0.744 OA
ENDBRANCH  86  90
ENDBRANCH  60  83
ENDBRANCH  34  35
ENDBRANCH  26  29
ENDBRANCH  24  25
ENDBRANCH  23  24
ENDBRANCH   1  23
TORSDOF 17
ENDMDL
MODEL 2
REMARK VINA RESULT:     -11.8      5.454     10.279
REMARK SMILES O=C(CSc1ccccc1C(=O)NCCCNC(=O)c1ccc(-c2c3nc(c(-c4cc(S(=O)(=O)[O-])ccc4F)c4ccc([nH]4)c(-c4cc(S(=O)(=O)[O-])ccc4F)c4nc(c(-c5cc(S(=O)(=O)[O-])ccc5F)c5ccc2[nH]5)C=C4)C=C3)cc1)c1ccc(Cl)cc1
REMARK SMILES IDX 14 1 13 2 11 3 12 4 10 6 5 7 6 8 7 9 9 10 8 11 4 12 3 13
REMARK SMILES IDX 2 14 1 15 83 16 84 17 89 18 85 19 88 20 86 21 87 22 15 23
REMARK SMILES IDX 16 24 17 25 18 26 19 28 20 29 21 30 82 31 22 32 81 33 23 34
REMARK SMILES IDX 24 35 25 36 75 37 26 38 80 39 74 40 76 41 27 42 79 43 73 44
REMARK SMILES IDX 72 45 28 47 60 48 40 49 59 50 41 51 44 52 58 53 77 54 42 55
REMARK SMILES IDX 43 56 57 58 78 59 45 60 29 61 30 62 38 63 31 64 37 65 39 66
REMARK SMILES IDX 36 67 32 68 33 69 34 70 35 71 61 72 62 73 70 74 63 75 69 76
REMARK SMILES IDX 71 77 68 78 64 79 65 80 66 81 67 82 46 83 47 84 55 85 48 86
REMARK SMILES IDX 54 87 56 88 53 89 49 90 50 91 51 92 52 93
REMARK H PARENT 13 5 17 27 76 46 44 57
REMARK Flexibility Score: inf
ROOT
ATOM      1  C   UNL A   1      32.606  27.055  26.489  1.00  0.00     0.118 C 
ENDROOT
BRANCH   1   2
ATOM      2  N   UNL A   1      31.689  25.973  26.808  1.00  0.00    -0.352 N 
ATOM      3  C   UNL A   1      31.727  24.605  26.751  1.00  0.00     0.252 C 
ATOM      4  O   UNL A   1      30.661  24.053  27.053  1.00  0.00    -0.269 OA
ATOM      5  H   UNL A   1      30.828  26.305  27.151  1.00  0.00     0.163 HD
BRANCH   3   6
ATOM      6  C   UNL A   1      32.901  23.718  26.462  1.00  0.00     0.053 A 
ATOM      7  C   UNL A   1      33.861  23.786  25.437  1.00  0.00     0.020 A 
ATOM      8  C   UNL A   1      34.853  22.779  25.346  1.00  0.00     0.016 A 
ATOM      9  C   UNL A   1      34.869  21.680  26.200  1.00  0.00     0.001 A 
ATOM     10  C   UNL A   1      32.945  22.583  27.315  1.00  0.00     0.015 A 
ATOM     11  C   UNL A   1      33.902  21.574  27.182  1.00  0.00     0.001 A 
BRANCH   7  12
ATOM     12  S   UNL A   1      33.992  24.984  24.128  1.00  0.00    -0.117 SA
BRANCH  12  13
ATOM     13  C   UNL A   1      32.989  24.185  22.840  1.00  0.00     0.156 C 
BRANCH  13  14
ATOM     14  C   UNL A   1      31.519  24.256  23.168  1.00  0.00     0.173 C 
ATOM     15  O   UNL A   1      30.837  23.281  23.463  1.00  0.00    -0.293 OA
BRANCH  14  16
ATOM     16  C   UNL A   1      30.905  25.599  23.162  1.00  0.00     0.018 A 
ATOM     17  C   UNL A   1      29.723  25.826  23.875  1.00  0.00     0.013 A 
ATOM     18  C   UNL A   1      31.501  26.618  22.416  1.00  0.00     0.013 A 
ATOM     19  C   UNL A   1      29.116  27.079  23.818  1.00  0.00     0.021 A 
ATOM     20  C   UNL A   1      30.891  27.874  22.369  1.00  0.00     0.021 A 
ATOM     21  C   UNL A   1      29.702  28.097  23.066  1.00  0.00     0.041 A 
ATOM     22  Cl  UNL A   1      28.949  29.641  23.006  1.00  0.00    -0.084 Cl
ENDBRANCH  14  16
ENDBRANCH  13  14
ENDBRANCH  12  13
ENDBRANCH   7  12
ENDBRANCH   3   6
ENDBRANCH   1   2
BRANCH   1  23
ATOM     23  C   UNL A   1      31.812  28.314  26.121  1.00  0.00     0.042 C 
BRANCH  23  24
ATOM     24  C   UNL A   1      32.582  29.353  25.314  1.00  0.00     0.118 C 
BRANCH  24  25
ATOM     25  N   UNL A   1      32.243  30.705  25.722  1.00  0.00    -0.352 N 
ATOM     26  C   UNL A   1      32.651  31.462  26.796  1.00  0.00     0.251 C 
ATOM     27  H   UNL A   1      31.609  31.161  25.123  1.00  0.00     0.163 HD
ATOM     28  O   UNL A   1      31.996  32.470  27.059  1.00  0.00    -0.269 OA
BRANCH  26  29
ATOM     29  C   UNL A   1      33.824  31.110  27.645  1.00  0.00     0.039 A 
ATOM     30  C   UNL A   1      34.715  32.134  27.998  1.00  0.00     0.014 A 
ATOM     31  C   UNL A   1      34.137  29.800  28.014  1.00  0.00     0.014 A 
ATOM     32  C   UNL A   1      35.881  31.851  28.723  1.00  0.00     0.010 A 
ATOM     33  C   UNL A   1      35.249  29.531  28.820  1.00  0.00     0.010 A 
ATOM     34  C   UNL A   1      36.154  30.547  29.161  1.00  0.00    -0.014 A 
BRANCH  34  35
ATOM     35  C   UNL A   1      37.402  30.225  29.916  1.00  0.00     0.031 A 
ATOM     36  C   UNL A   1      38.462  29.346  29.292  1.00  0.00     0.074 A 
ATOM     37  C   UNL A   1      37.577  30.685  31.172  1.00  0.00     0.049 A 
ATOM     38  N   UNL A   1      39.578  28.893  29.807  1.00  0.00    -0.248 NA
ATOM     39  C   UNL A   1      38.216  28.891  27.915  1.00  0.00     0.031 C 
ATOM     40  C   UNL A   1      36.621  31.516  31.906  1.00  0.00     0.029 A 
ATOM     41  N   UNL A   1      38.614  30.516  32.058  1.00  0.00    -0.354 N 
ATOM     42  C   UNL A   1      40.149  28.079  28.832  1.00  0.00     0.074 A 
ATOM     43  C   UNL A   1      39.226  28.057  27.718  1.00  0.00     0.031 C 
ATOM     44  C   UNL A   1      37.126  31.805  33.117  1.00  0.00     0.029 A 
ATOM     45  C   UNL A   1      38.418  31.142  33.268  1.00  0.00     0.049 A 
ATOM     46  H   UNL A   1      39.421  29.995  31.847  1.00  0.00     0.167 HD
ATOM     47  C   UNL A   1      41.341  27.429  28.850  1.00  0.00     0.034 A 
ATOM     48  C   UNL A   1      39.185  31.174  34.378  1.00  0.00     0.034 A 
ATOM     49  C   UNL A   1      42.271  27.488  29.952  1.00  0.00     0.049 A 
ATOM     50  C   UNL A   1      40.507  30.446  34.376  1.00  0.00     0.074 A 
ATOM     51  C   UNL A   1      43.534  26.927  30.046  1.00  0.00     0.029 A 
ATOM     52  N   UNL A   1      42.041  28.144  31.154  1.00  0.00    -0.354 N 
ATOM     53  N   UNL A   1      41.052  29.724  33.424  1.00  0.00    -0.248 NA
ATOM     54  C   UNL A   1      41.323  30.550  35.593  1.00  0.00     0.031 C 
ATOM     55  C   UNL A   1      44.037  27.186  31.326  1.00  0.00     0.029 A 
ATOM     56  C   UNL A   1      43.124  27.976  32.005  1.00  0.00     0.049 A 
ATOM     57  H   UNL A   1      41.228  28.655  31.372  1.00  0.00     0.167 HD
ATOM     58  C   UNL A   1      42.288  29.316  33.917  1.00  0.00     0.074 A 
ATOM     59  C   UNL A   1      42.415  29.887  35.242  1.00  0.00     0.031 C 
ATOM     60  C   UNL A   1      43.236  28.542  33.328  1.00  0.00     0.034 A 
BRANCH  47  61
ATOM     61  C   UNL A   1      41.693  26.577  27.651  1.00  0.00     0.023 A 
ATOM     62  C   UNL A   1      41.392  25.205  27.601  1.00  0.00     0.031 A 
ATOM     63  C   UNL A   1      42.360  27.142  26.548  1.00  0.00     0.131 A 
ATOM     64  C   UNL A   1      41.825  24.430  26.512  1.00  0.00     0.055 A 
ATOM     65  C   UNL A   1      42.711  26.383  25.430  1.00  0.00     0.041 A 
ATOM     66  F   UNL A   1      42.690  28.443  26.543  1.00  0.00    -0.206 F 
ATOM     67  C   UNL A   1      42.459  25.014  25.415  1.00  0.00     0.022 A 
BRANCH  64  68
ATOM     68  S   UNL A   1      41.676  22.626  26.622  1.00  0.00     0.124 S 
ATOM     69  O   UNL A   1      42.279  22.204  25.359  1.00  0.00    -0.237 OA
ATOM     70  O   UNL A   1      42.432  22.317  27.826  1.00  0.00    -0.237 OA
ATOM     71  O   UNL A   1      40.232  22.406  26.715  1.00  0.00    -0.744 OA
ENDBRANCH  64  68
ENDBRANCH  47  61
BRANCH  48  72
ATOM     72  C   UNL A   1      38.725  31.908  35.595  1.00  0.00     0.023 A 
ATOM     73  C   UNL A   1      38.174  31.222  36.689  1.00  0.00     0.031 A 
ATOM     74  C   UNL A   1      38.786  33.311  35.661  1.00  0.00     0.131 A 
ATOM     75  C   UNL A   1      37.658  31.940  37.779  1.00  0.00     0.055 A 
ATOM     76  C   UNL A   1      38.323  34.018  36.772  1.00  0.00     0.041 A 
ATOM     77  F   UNL A   1      39.309  34.018  34.646  1.00  0.00    -0.206 F 
ATOM     78  C   UNL A   1      37.741  33.333  37.834  1.00  0.00     0.022 A 
BRANCH  75  79
ATOM     79  S   UNL A   1      36.791  31.031  39.088  1.00  0.00     0.124 S 
ATOM     80  O   UNL A   1      36.656  29.708  38.490  1.00  0.00    -0.237 OA
ATOM     81  O   UNL A   1      37.728  31.140  40.201  1.00  0.00    -0.237 OA
ATOM     82  O   UNL A   1      35.544  31.775  39.250  1.00  0.00    -0.744 OA
ENDBRANCH  75  79
ENDBRANCH  48  72
BRANCH  60  83
ATOM     83  C   UNL A   1      44.512  28.312  34.101  1.00  0.00     0.023 A 
ATOM     84  C   UNL A   1      44.671  27.208  34.957  1.00  0.00     0.031 A 
ATOM     85  C   UNL A   1      45.580  29.221  33.990  1.00  0.00     0.131 A 
ATOM     86  C   UNL A   1      45.845  27.073  35.714  1.00  0.00     0.055 A 
ATOM     87  C   UNL A   1      46.770  29.048  34.698  1.00  0.00     0.041 A 
ATOM     88  F   UNL A   1      45.484  30.294  33.188  1.00  0.00    -0.206 F 
ATOM     89  C   UNL A   1      46.902  27.978  35.577  1.00  0.00     0.022 A 
BRANCH  86  90
ATOM     90  S   UNL A   1      45.936  25.755  36.956  1.00  0.00     0.124 S 
ATOM     91  O   UNL A   1      44.642  25.874  37.620  1.00  0.00    -0.237 OA
ATOM     92  O   UNL A   1      46.123  24.564  36.133  1.00  0.00    -0.237 OA
ATOM     93  O   UNL A   1      47.088  26.130  37.773  1.00  0.00    -0.744 OA
ENDBRANCH  86  90
ENDBRANCH  60  83
ENDBRANCH  34  35
ENDBRANCH  26  29
ENDBRANCH  24  25
ENDBRANCH  23  24
ENDBRANCH   1  23
TORSDOF 17
ENDMDL
MODEL 3
REMARK VINA RESULT:     -11.6      1.213      7.601
REMARK SMILES O=C(CSc1ccccc1C(=O)NCCCNC(=O)c1ccc(-c2c3nc(c(-c4cc(S(=O)(=O)[O-])ccc4F)c4ccc([nH]4)c(-c4cc(S(=O)(=O)[O-])ccc4F)c4nc(c(-c5cc(S(=O)(=O)[O-])ccc5F)c5ccc2[nH]5)C=C4)C=C3)cc1)c1ccc(Cl)cc1
REMARK SMILES IDX 14 1 13 2 11 3 12 4 10 6 5 7 6 8 7 9 9 10 8 11 4 12 3 13
REMARK SMILES IDX 2 14 1 15 83 16 84 17 89 18 85 19 88 20 86 21 87 22 15 23
REMARK SMILES IDX 16 24 17 25 18 26 19 28 20 29 21 30 82 31 22 32 81 33 23 34
REMARK SMILES IDX 24 35 25 36 75 37 26 38 80 39 74 40 76 41 27 42 79 43 73 44
REMARK SMILES IDX 72 45 28 47 60 48 40 49 59 50 41 51 44 52 58 53 77 54 42 55
REMARK SMILES IDX 43 56 57 58 78 59 45 60 29 61 30 62 38 63 31 64 37 65 39 66
REMARK SMILES IDX 36 67 32 68 33 69 34 70 35 71 61 72 62 73 70 74 63 75 69 76
REMARK SMILES IDX 71 77 68 78 64 79 65 80 66 81 67 82 46 83 47 84 55 85 48 86
REMARK SMILES IDX 54 87 56 88 53 89 49 90 50 91 51 92 52 93
REMARK H PARENT 13 5 17 27 76 46 44 57
REMARK Flexibility Score: inf
ROOT
ATOM      1  C   UNL A   1      35.319  22.941  23.612  1.00  0.00     0.118 C 
ENDROOT
BRANCH   1   2
ATOM      2  N   UNL A   1      35.144  23.983  24.611  1.00  0.00    -0.352 N 
ATOM      3  C   UNL A   1      34.363  25.101  24.737  1.00  0.00     0.252 C 
ATOM      4  O   UNL A   1      34.599  25.776  25.747  1.00  0.00    -0.269 OA
ATOM      5  H   UNL A   1      35.732  23.853  25.389  1.00  0.00     0.163 HD
BRANCH   3   6
ATOM      6  C   UNL A   1      33.224  25.543  23.867  1.00  0.00     0.053 A 
ATOM      7  C   UNL A   1      31.836  25.439  24.066  1.00  0.00     0.020 A 
ATOM      8  C   UNL A   1      30.954  25.888  23.052  1.00  0.00     0.016 A 
ATOM      9  C   UNL A   1      31.418  26.369  21.831  1.00  0.00     0.001 A 
ATOM     10  C   UNL A   1      33.663  26.036  22.610  1.00  0.00     0.015 A 
ATOM     11  C   UNL A   1      32.780  26.431  21.602  1.00  0.00     0.001 A 
BRANCH   7  12
ATOM     12  S   UNL A   1      30.970  24.738  25.452  1.00  0.00    -0.117 SA
BRANCH  12  13
ATOM     13  C   UNL A   1      30.973  22.978  24.995  1.00  0.00     0.156 C 
BRANCH  13  14
ATOM     14  C   UNL A   1      32.164  22.262  25.580  1.00  0.00     0.173 C 
ATOM     15  O   UNL A   1      32.797  22.669  26.548  1.00  0.00    -0.293 OA
BRANCH  14  16
ATOM     16  C   UNL A   1      32.539  20.981  24.952  1.00  0.00     0.018 A 
ATOM     17  C   UNL A   1      32.150  20.712  23.635  1.00  0.00     0.013 A 
ATOM     18  C   UNL A   1      33.254  20.040  25.695  1.00  0.00     0.013 A 
ATOM     19  C   UNL A   1      32.456  19.477  23.067  1.00  0.00     0.021 A 
ATOM     20  C   UNL A   1      33.564  18.807  25.117  1.00  0.00     0.021 A 
ATOM     21  C   UNL A   1      33.161  18.530  23.809  1.00  0.00     0.041 A 
ATOM     22  Cl  UNL A   1      33.539  17.012  23.097  1.00  0.00    -0.084 Cl
ENDBRANCH  14  16
ENDBRANCH  13  14
ENDBRANCH  12  13
ENDBRANCH   7  12
ENDBRANCH   3   6
ENDBRANCH   1   2
BRANCH   1  23
ATOM     23  C   UNL A   1      36.477  22.022  24.019  1.00  0.00     0.042 C 
BRANCH  23  24
ATOM     24  C   UNL A   1      36.670  21.848  25.521  1.00  0.00     0.118 C 
BRANCH  24  25
ATOM     25  N   UNL A   1      37.729  20.900  25.817  1.00  0.00    -0.352 N 
ATOM     26  C   UNL A   1      39.051  21.086  26.151  1.00  0.00     0.251 C 
ATOM     27  H   UNL A   1      37.453  19.956  25.770  1.00  0.00     0.163 HD
ATOM     28  O   UNL A   1      39.797  20.109  26.073  1.00  0.00    -0.269 OA
BRANCH  26  29
ATOM     29  C   UNL A   1      39.608  22.398  26.584  1.00  0.00     0.039 A 
ATOM     30  C   UNL A   1      39.112  23.559  25.975  1.00  0.00     0.014 A 
ATOM     31  C   UNL A   1      40.670  22.520  27.483  1.00  0.00     0.014 A 
ATOM     32  C   UNL A   1      39.656  24.816  26.278  1.00  0.00     0.010 A 
ATOM     33  C   UNL A   1      41.147  23.781  27.858  1.00  0.00     0.010 A 
ATOM     34  C   UNL A   1      40.669  24.946  27.240  1.00  0.00    -0.014 A 
BRANCH  34  35
ATOM     35  C   UNL A   1      41.273  26.274  27.558  1.00  0.00     0.031 A 
ATOM     36  C   UNL A   1      42.657  26.618  27.057  1.00  0.00     0.074 A 
ATOM     37  C   UNL A   1      40.605  27.160  28.325  1.00  0.00     0.049 A 
ATOM     38  N   UNL A   1      43.383  27.684  27.285  1.00  0.00    -0.248 NA
ATOM     39  C   UNL A   1      43.323  25.614  26.215  1.00  0.00     0.031 C 
ATOM     40  C   UNL A   1      39.276  26.944  28.901  1.00  0.00     0.029 A 
ATOM     41  N   UNL A   1      40.952  28.417  28.759  1.00  0.00    -0.354 N 
ATOM     42  C   UNL A   1      44.599  27.465  26.640  1.00  0.00     0.074 A 
ATOM     43  C   UNL A   1      44.529  26.141  26.062  1.00  0.00     0.031 C 
ATOM     44  C   UNL A   1      38.911  28.038  29.589  1.00  0.00     0.029 A 
ATOM     45  C   UNL A   1      39.994  29.016  29.547  1.00  0.00     0.049 A 
ATOM     46  H   UNL A   1      41.805  28.849  28.529  1.00  0.00     0.167 HD
ATOM     47  C   UNL A   1      45.665  28.297  26.519  1.00  0.00     0.034 A 
ATOM     48  C   UNL A   1      39.989  30.212  30.172  1.00  0.00     0.034 A 
ATOM     49  C   UNL A   1      45.710  29.631  27.068  1.00  0.00     0.049 A 
ATOM     50  C   UNL A   1      41.184  31.121  30.022  1.00  0.00     0.074 A 
ATOM     51  C   UNL A   1      46.709  30.582  26.944  1.00  0.00     0.029 A 
ATOM     52  N   UNL A   1      44.715  30.206  27.847  1.00  0.00    -0.354 N 
ATOM     53  N   UNL A   1      42.302  30.916  29.365  1.00  0.00    -0.248 NA
ATOM     54  C   UNL A   1      41.109  32.429  30.686  1.00  0.00     0.031 C 
ATOM     55  C   UNL A   1      46.349  31.702  27.703  1.00  0.00     0.029 A 
ATOM     56  C   UNL A   1      45.089  31.483  28.236  1.00  0.00     0.049 A 
ATOM     57  H   UNL A   1      43.865  29.769  28.089  1.00  0.00     0.167 HD
ATOM     58  C   UNL A   1      43.048  32.082  29.512  1.00  0.00     0.074 A 
ATOM     59  C   UNL A   1      42.246  32.992  30.303  1.00  0.00     0.031 C 
ATOM     60  C   UNL A   1      44.284  32.378  29.033  1.00  0.00     0.034 A 
BRANCH  47  61
ATOM     61  C   UNL A   1      46.881  27.776  25.786  1.00  0.00     0.023 A 
ATOM     62  C   UNL A   1      47.130  28.093  24.439  1.00  0.00     0.031 A 
ATOM     63  C   UNL A   1      47.797  26.930  26.439  1.00  0.00     0.131 A 
ATOM     64  C   UNL A   1      48.216  27.509  23.768  1.00  0.00     0.055 A 
ATOM     65  C   UNL A   1      48.923  26.420  25.790  1.00  0.00     0.041 A 
ATOM     66  F   UNL A   1      47.605  26.575  27.719  1.00  0.00    -0.206 F 
ATOM     67  C   UNL A   1      49.129  26.695  24.441  1.00  0.00     0.022 A 
BRANCH  64  68
ATOM     68  S   UNL A   1      48.333  27.712  21.970  1.00  0.00     0.124 S 
ATOM     69  O   UNL A   1      49.461  28.633  21.850  1.00  0.00    -0.237 OA
ATOM     70  O   UNL A   1      48.569  26.350  21.512  1.00  0.00    -0.237 OA
ATOM     71  O   UNL A   1      47.034  28.279  21.604  1.00  0.00    -0.744 OA
ENDBRANCH  64  68
ENDBRANCH  47  61
BRANCH  48  72
ATOM     72  C   UNL A   1      38.824  30.622  31.011  1.00  0.00     0.023 A 
ATOM     73  C   UNL A   1      37.839  31.488  30.509  1.00  0.00     0.031 A 
ATOM     74  C   UNL A   1      38.704  30.193  32.345  1.00  0.00     0.131 A 
ATOM     75  C   UNL A   1      36.807  31.938  31.347  1.00  0.00     0.055 A 
ATOM     76  C   UNL A   1      37.645  30.598  33.159  1.00  0.00     0.041 A 
ATOM     77  F   UNL A   1      39.614  29.359  32.875  1.00  0.00    -0.206 F 
ATOM     78  C   UNL A   1      36.696  31.489  32.665  1.00  0.00     0.022 A 
BRANCH  75  79
ATOM     79  S   UNL A   1      35.661  33.195  30.719  1.00  0.00     0.124 S 
ATOM     80  O   UNL A   1      35.788  34.242  31.726  1.00  0.00    -0.237 OA
ATOM     81  O   UNL A   1      36.231  33.494  29.409  1.00  0.00    -0.237 OA
ATOM     82  O   UNL A   1      34.375  32.503  30.694  1.00  0.00    -0.744 OA
ENDBRANCH  75  79
ENDBRANCH  48  72
BRANCH  60  83
ATOM     83  C   UNL A   1      44.817  33.762  29.316  1.00  0.00     0.023 A 
ATOM     84  C   UNL A   1      44.555  34.847  28.460  1.00  0.00     0.031 A 
ATOM     85  C   UNL A   1      45.614  33.994  30.451  1.00  0.00     0.131 A 
ATOM     86  C   UNL A   1      45.133  36.099  28.721  1.00  0.00     0.055 A 
ATOM     87  C   UNL A   1      46.135  35.256  30.739  1.00  0.00     0.041 A 
ATOM     88  F   UNL A   1      45.899  32.995  31.302  1.00  0.00    -0.206 F 
ATOM     89  C   UNL A   1      45.908  36.314  29.864  1.00  0.00     0.022 A 
BRANCH  86  90
ATOM     90  S   UNL A   1      44.941  37.421  27.494  1.00  0.00     0.124 S 
ATOM     91  O   UNL A   1      43.611  37.147  26.959  1.00  0.00    -0.237 OA
ATOM     92  O   UNL A   1      45.063  38.624  28.311  1.00  0.00    -0.237 OA
ATOM     93  O   UNL A   1      46.043  37.189  26.563  1.00  0.00    -0.744 OA
ENDBRANCH  86  90
ENDBRANCH  60  83
ENDBRANCH  34  35
ENDBRANCH  26  29
ENDBRANCH  24  25
ENDBRANCH  23  24
ENDBRANCH   1  23
TORSDOF 17
ENDMDL
