MODEL 1
REMARK VINA RESULT:     -11.1      0.000      0.000
REMARK SMILES CC(C)(C)[C@H](CCC(=O)NCCCNC(=O)c1ccc(-c2c3nc(c(-c4cc(S(=O)(=O)[O-])ccc4F)c4ccc([nH]4)c(-c4cc(S(=O)(=O)[O-])ccc4F)c4nc(c(-c5cc(S(=O)(=O)[O-])ccc5F)c5ccc2[nH]5)C=C4)C=C3)cc1)CC[NH+]1CCOCC1
REMARK SMILES IDX 11 1 10 2 8 3 9 4 7 6 6 7 5 8 2 9 1 10 3 11 4 12 80 13 81 14
REMARK SMILES IDX 82 15 83 16 87 17 84 19 86 20 85 21 12 22 13 23 14 24 15 25
REMARK SMILES IDX 16 27 17 28 18 29 79 30 19 31 78 32 20 33 21 34 22 35 72 36
REMARK SMILES IDX 23 37 77 38 71 39 73 40 24 41 76 42 70 43 69 44 25 46 57 47
REMARK SMILES IDX 37 48 56 49 38 50 41 51 55 52 74 53 39 54 40 55 54 57 75 58
REMARK SMILES IDX 42 59 26 60 27 61 35 62 28 63 34 64 36 65 33 66 29 67 30 68
REMARK SMILES IDX 31 69 32 70 58 71 59 72 67 73 60 74 66 75 68 76 65 77 61 78
REMARK SMILES IDX 62 79 63 80 64 81 43 82 44 83 52 84 45 85 51 86 53 87 50 88
REMARK SMILES IDX 46 89 47 90 48 91 49 92
REMARK H PARENT 10 5 82 18 14 26 73 45 41 56
REMARK Flexibility Score: inf
ROOT
ATOM      1  C   UNL A   1      34.576  24.368  24.016  1.00  0.00     0.117 C 
ENDROOT
BRANCH   1   2
ATOM      2  N   UNL A   1      33.874  24.315  22.734  1.00  0.00    -0.356 N 
ATOM      3  C   UNL A   1      33.184  25.198  21.953  1.00  0.00     0.220 C 
ATOM      4  O   UNL A   1      33.002  24.836  20.782  1.00  0.00    -0.275 OA
ATOM      5  H   UNL A   1      33.909  23.417  22.333  1.00  0.00     0.163 HD
BRANCH   3   6
ATOM      6  C   UNL A   1      32.616  26.556  22.394  1.00  0.00     0.100 C 
BRANCH   6   7
ATOM      7  C   UNL A   1      31.538  26.539  23.537  1.00  0.00     0.014 C 
BRANCH   7   8
ATOM      8  C   UNL A   1      31.432  27.621  24.708  1.00  0.00     0.000 C 
BRANCH   8   9
ATOM      9  C   UNL A   1      32.179  27.254  26.028  1.00  0.00    -0.035 C 
ATOM     10  C   UNL A   1      33.657  27.670  25.884  1.00  0.00     0.011 C 
ATOM     11  C   UNL A   1      31.780  25.785  26.309  1.00  0.00     0.011 C 
ATOM     12  C   UNL A   1      31.762  27.973  27.329  1.00  0.00     0.011 C 
ENDBRANCH   8   9
BRANCH   8  13
ATOM     13  C   UNL A   1      31.733  29.071  24.215  1.00  0.00     0.065 C 
BRANCH  13  14
ATOM     14  C   UNL A   1      30.529  30.045  24.244  1.00  0.00     0.262 C 
BRANCH  14  15
ATOM     15  N   UNL A   1      29.873  30.298  22.953  1.00  0.00    -0.331 N 
ATOM     16  C   UNL A   1      28.974  31.470  22.997  1.00  0.00     0.291 C 
ATOM     17  C   UNL A   1      29.106  29.167  22.398  1.00  0.00     0.291 C 
ATOM     18  H   UNL A   1      30.667  30.467  22.335  1.00  0.00     0.348 HD
ATOM     19  C   UNL A   1      27.616  31.184  23.662  1.00  0.00     0.221 C 
ATOM     20  C   UNL A   1      27.724  28.927  23.017  1.00  0.00     0.221 C 
ATOM     21  O   UNL A   1      26.927  30.112  23.013  1.00  0.00    -0.370 OA
ENDBRANCH  14  15
ENDBRANCH  13  14
ENDBRANCH   8  13
ENDBRANCH   7   8
ENDBRANCH   6   7
ENDBRANCH   3   6
ENDBRANCH   1   2
BRANCH   1  22
ATOM     22  C   UNL A   1      35.248  23.070  24.531  1.00  0.00     0.042 C 
BRANCH  22  23
ATOM     23  C   UNL A   1      36.498  22.541  23.803  1.00  0.00     0.118 C 
BRANCH  23  24
ATOM     24  N   UNL A   1      37.058  21.431  24.581  1.00  0.00    -0.352 N 
ATOM     25  C   UNL A   1      38.147  21.283  25.403  1.00  0.00     0.251 C 
ATOM     26  H   UNL A   1      36.532  20.603  24.494  1.00  0.00     0.163 HD
ATOM     27  O   UNL A   1      38.553  20.130  25.568  1.00  0.00    -0.269 OA
BRANCH  25  28
ATOM     28  C   UNL A   1      38.814  22.391  26.142  1.00  0.00     0.039 A 
ATOM     29  C   UNL A   1      38.299  23.691  25.974  1.00  0.00     0.014 A 
ATOM     30  C   UNL A   1      40.018  22.237  26.830  1.00  0.00     0.014 A 
ATOM     31  C   UNL A   1      38.989  24.813  26.453  1.00  0.00     0.010 A 
ATOM     32  C   UNL A   1      40.681  23.358  27.357  1.00  0.00     0.010 A 
ATOM     33  C   UNL A   1      40.198  24.661  27.143  1.00  0.00    -0.014 A 
BRANCH  33  34
ATOM     34  C   UNL A   1      41.008  25.847  27.559  1.00  0.00     0.031 A 
ATOM     35  C   UNL A   1      40.353  26.972  28.325  1.00  0.00     0.074 A 
ATOM     36  C   UNL A   1      42.314  25.938  27.234  1.00  0.00     0.049 A 
ATOM     37  N   UNL A   1      40.838  28.136  28.680  1.00  0.00    -0.248 NA
ATOM     38  C   UNL A   1      38.952  26.765  28.716  1.00  0.00     0.031 C 
ATOM     39  C   UNL A   1      43.072  24.927  26.495  1.00  0.00     0.029 A 
ATOM     40  N   UNL A   1      43.234  26.932  27.472  1.00  0.00    -0.354 N 
ATOM     41  C   UNL A   1      39.791  28.814  29.302  1.00  0.00     0.074 A 
ATOM     42  C   UNL A   1      38.635  27.945  29.230  1.00  0.00     0.031 C 
ATOM     43  C   UNL A   1      44.339  25.348  26.349  1.00  0.00     0.029 A 
ATOM     44  C   UNL A   1      44.479  26.674  26.943  1.00  0.00     0.049 A 
ATOM     45  H   UNL A   1      43.022  27.752  27.975  1.00  0.00     0.167 HD
ATOM     46  C   UNL A   1      39.794  30.038  29.891  1.00  0.00     0.034 A 
ATOM     47  C   UNL A   1      45.599  27.425  26.923  1.00  0.00     0.034 A 
ATOM     48  C   UNL A   1      40.964  30.880  29.987  1.00  0.00     0.049 A 
ATOM     49  C   UNL A   1      45.582  28.783  27.581  1.00  0.00     0.074 A 
ATOM     50  C   UNL A   1      41.095  32.112  30.606  1.00  0.00     0.029 A 
ATOM     51  N   UNL A   1      42.210  30.574  29.451  1.00  0.00    -0.354 N 
ATOM     52  N   UNL A   1      44.589  29.400  28.180  1.00  0.00    -0.248 NA
ATOM     53  C   UNL A   1      46.841  29.541  27.571  1.00  0.00     0.031 C 
ATOM     54  C   UNL A   1      42.399  32.576  30.395  1.00  0.00     0.029 A 
ATOM     55  C   UNL A   1      43.105  31.602  29.706  1.00  0.00     0.049 A 
ATOM     56  H   UNL A   1      42.424  29.747  28.962  1.00  0.00     0.167 HD
ATOM     57  C   UNL A   1      45.114  30.604  28.642  1.00  0.00     0.074 A 
ATOM     58  C   UNL A   1      46.513  30.620  28.267  1.00  0.00     0.031 C 
ATOM     59  C   UNL A   1      44.496  31.606  29.319  1.00  0.00     0.034 A 
BRANCH  46  60
ATOM     60  C   UNL A   1      38.483  30.549  30.448  1.00  0.00     0.023 A 
ATOM     61  C   UNL A   1      37.550  31.229  29.644  1.00  0.00     0.031 A 
ATOM     62  C   UNL A   1      38.175  30.386  31.812  1.00  0.00     0.131 A 
ATOM     63  C   UNL A   1      36.404  31.797  30.225  1.00  0.00     0.055 A 
ATOM     64  C   UNL A   1      36.989  30.877  32.365  1.00  0.00     0.041 A 
ATOM     65  F   UNL A   1      39.029  29.760  32.636  1.00  0.00    -0.206 F 
ATOM     66  C   UNL A   1      36.104  31.604  31.575  1.00  0.00     0.022 A 
BRANCH  63  67
ATOM     67  S   UNL A   1      35.396  32.923  29.222  1.00  0.00     0.124 S 
ATOM     68  O   UNL A   1      35.672  32.440  27.871  1.00  0.00    -0.237 OA
ATOM     69  O   UNL A   1      34.051  32.679  29.727  1.00  0.00    -0.237 OA
ATOM     70  O   UNL A   1      35.948  34.243  29.528  1.00  0.00    -0.744 OA
ENDBRANCH  63  67
ENDBRANCH  46  60
BRANCH  47  71
ATOM     71  C   UNL A   1      46.833  26.924  26.249  1.00  0.00     0.023 A 
ATOM     72  C   UNL A   1      47.847  26.283  26.979  1.00  0.00     0.031 A 
ATOM     73  C   UNL A   1      47.032  27.111  24.869  1.00  0.00     0.131 A 
ATOM     74  C   UNL A   1      49.031  25.886  26.336  1.00  0.00     0.055 A 
ATOM     75  C   UNL A   1      48.190  26.670  24.224  1.00  0.00     0.041 A 
ATOM     76  F   UNL A   1      46.094  27.717  24.125  1.00  0.00    -0.206 F 
ATOM     77  C   UNL A   1      49.203  26.064  24.960  1.00  0.00     0.022 A 
BRANCH  74  78
ATOM     78  S   UNL A   1      50.378  25.201  27.338  1.00  0.00     0.124 S 
ATOM     79  O   UNL A   1      49.719  24.079  27.996  1.00  0.00    -0.237 OA
ATOM     80  O   UNL A   1      51.368  24.860  26.322  1.00  0.00    -0.237 OA
ATOM     81  O   UNL A   1      50.747  26.310  28.216  1.00  0.00    -0.744 OA
ENDBRANCH  74  78
ENDBRANCH  47  71
BRANCH  59  82
ATOM     82  C   UNL A   1      45.350  32.780  29.735  1.00  0.00     0.023 A 
ATOM     83  C   UNL A   1      45.560  33.880  28.887  1.00  0.00     0.031 A 
ATOM     84  C   UNL A   1      45.970  32.788  30.996  1.00  0.00     0.131 A 
ATOM     85  C   UNL A   1      46.415  34.919  29.288  1.00  0.00     0.055 A 
ATOM     86  C   UNL A   1      46.773  33.850  31.413  1.00  0.00     0.041 A 
ATOM     87  F   UNL A   1      45.804  31.762  31.846  1.00  0.00    -0.206 F 
ATOM     88  C   UNL A   1      47.010  34.918  30.552  1.00  0.00     0.022 A 
BRANCH  85  89
ATOM     89  S   UNL A   1      46.810  36.232  28.101  1.00  0.00     0.124 S 
ATOM     90  O   UNL A   1      46.179  37.396  28.716  1.00  0.00    -0.237 OA
ATOM     91  O   UNL A   1      48.269  36.223  28.100  1.00  0.00    -0.237 OA
ATOM     92  O   UNL A   1      46.188  35.773  26.861  1.00  0.00    -0.744 OA
ENDBRANCH  85  89
ENDBRANCH  59  82
ENDBRANCH  33  34
ENDBRANCH  25  28
ENDBRANCH  23  24
ENDBRANCH  22  23
ENDBRANCH   1  22
TORSDOF 19
ENDMDL
MODEL 2
REMARK VINA RESULT:     -10.7      1.655      8.193
REMARK SMILES CC(C)(C)[C@H](CCC(=O)NCCCNC(=O)c1ccc(-c2c3nc(c(-c4cc(S(=O)(=O)[O-])ccc4F)c4ccc([nH]4)c(-c4cc(S(=O)(=O)[O-])ccc4F)c4nc(c(-c5cc(S(=O)(=O)[O-])ccc5F)c5ccc2[nH]5)C=C4)C=C3)cc1)CC[NH+]1CCOCC1
REMARK SMILES IDX 11 1 10 2 8 3 9 4 7 6 6 7 5 8 2 9 1 10 3 11 4 12 80 13 81 14
REMARK SMILES IDX 82 15 83 16 87 17 84 19 86 20 85 21 12 22 13 23 14 24 15 25
REMARK SMILES IDX 16 27 17 28 18 29 79 30 19 31 78 32 20 33 21 34 22 35 72 36
REMARK SMILES IDX 23 37 77 38 71 39 73 40 24 41 76 42 70 43 69 44 25 46 57 47
REMARK SMILES IDX 37 48 56 49 38 50 41 51 55 52 74 53 39 54 40 55 54 57 75 58
REMARK SMILES IDX 42 59 26 60 27 61 35 62 28 63 34 64 36 65 33 66 29 67 30 68
REMARK SMILES IDX 31 69 32 70 58 71 59 72 67 73 60 74 66 75 68 76 65 77 61 78
REMARK SMILES IDX 62 79 63 80 64 81 43 82 44 83 52 84 45 85 51 86 53 87 50 88
REMARK SMILES IDX 46 89 47 90 48 91 49 92
REMARK H PARENT 10 5 82 18 14 26 73 45 41 56
REMARK Flexibility Score: inf
ROOT
ATOM      1  C   UNL A   1      36.145  20.938  25.366  1.00  0.00     0.117 C 
ENDROOT
BRANCH   1   2
ATOM      2  N   UNL A   1      36.760  22.235  25.643  1.00  0.00    -0.356 N 
ATOM      3  C   UNL A   1      36.367  23.542  25.590  1.00  0.00     0.220 C 
ATOM      4  O   UNL A   1      37.092  24.337  26.204  1.00  0.00    -0.275 OA
ATOM      5  H   UNL A   1      37.692  22.143  25.945  1.00  0.00     0.163 HD
BRANCH   3   6
ATOM      6  C   UNL A   1      35.144  24.098  24.843  1.00  0.00     0.100 C 
BRANCH   6   7
ATOM      7  C   UNL A   1      34.109  24.925  25.689  1.00  0.00     0.014 C 
BRANCH   7   8
ATOM      8  C   UNL A   1      32.532  24.676  25.701  1.00  0.00     0.000 C 
BRANCH   8   9
ATOM      9  C   UNL A   1      32.083  23.254  26.165  1.00  0.00    -0.035 C 
ATOM     10  C   UNL A   1      32.326  22.264  25.007  1.00  0.00     0.011 C 
ATOM     11  C   UNL A   1      30.670  23.465  26.761  1.00  0.00     0.011 C 
ATOM     12  C   UNL A   1      32.847  22.589  27.330  1.00  0.00     0.011 C 
ENDBRANCH   8   9
BRANCH   8  13
ATOM     13  C   UNL A   1      31.746  25.826  26.403  1.00  0.00     0.065 C 
BRANCH  13  14
ATOM     14  C   UNL A   1      31.038  26.823  25.451  1.00  0.00     0.262 C 
BRANCH  14  15
ATOM     15  N   UNL A   1      30.765  26.335  24.092  1.00  0.00    -0.331 N 
ATOM     16  C   UNL A   1      31.662  26.938  23.085  1.00  0.00     0.291 C 
ATOM     17  C   UNL A   1      29.379  26.512  23.620  1.00  0.00     0.291 C 
ATOM     18  H   UNL A   1      30.936  25.333  24.183  1.00  0.00     0.348 HD
ATOM     19  C   UNL A   1      31.265  28.369  22.681  1.00  0.00     0.221 C 
ATOM     20  C   UNL A   1      29.006  27.924  23.153  1.00  0.00     0.221 C 
ATOM     21  O   UNL A   1      29.926  28.422  22.180  1.00  0.00    -0.370 OA
ENDBRANCH  14  15
ENDBRANCH  13  14
ENDBRANCH   8  13
ENDBRANCH   7   8
ENDBRANCH   6   7
ENDBRANCH   3   6
ENDBRANCH   1   2
BRANCH   1  22
ATOM     22  C   UNL A   1      37.080  19.740  25.061  1.00  0.00     0.042 C 
BRANCH  22  23
ATOM     23  C   UNL A   1      38.546  20.020  24.681  1.00  0.00     0.118 C 
BRANCH  23  24
ATOM     24  N   UNL A   1      39.417  19.386  25.676  1.00  0.00    -0.352 N 
ATOM     25  C   UNL A   1      40.437  19.823  26.483  1.00  0.00     0.251 C 
ATOM     26  H   UNL A   1      39.226  18.426  25.790  1.00  0.00     0.163 HD
ATOM     27  O   UNL A   1      41.216  18.960  26.894  1.00  0.00    -0.269 OA
BRANCH  25  28
ATOM     28  C   UNL A   1      40.621  21.230  26.937  1.00  0.00     0.039 A 
ATOM     29  C   UNL A   1      40.154  22.254  26.091  1.00  0.00     0.014 A 
ATOM     30  C   UNL A   1      41.388  21.582  28.047  1.00  0.00     0.014 A 
ATOM     31  C   UNL A   1      40.477  23.598  26.332  1.00  0.00     0.010 A 
ATOM     32  C   UNL A   1      41.665  22.932  28.318  1.00  0.00     0.010 A 
ATOM     33  C   UNL A   1      41.248  23.953  27.446  1.00  0.00    -0.014 A 
BRANCH  33  34
ATOM     34  C   UNL A   1      41.701  25.362  27.657  1.00  0.00     0.031 A 
ATOM     35  C   UNL A   1      43.062  25.795  27.165  1.00  0.00     0.074 A 
ATOM     36  C   UNL A   1      40.919  26.248  28.309  1.00  0.00     0.049 A 
ATOM     37  N   UNL A   1      43.695  26.928  27.344  1.00  0.00    -0.248 NA
ATOM     38  C   UNL A   1      43.821  24.803  26.391  1.00  0.00     0.031 C 
ATOM     39  C   UNL A   1      39.585  25.963  28.839  1.00  0.00     0.029 A 
ATOM     40  N   UNL A   1      41.136  27.563  28.647  1.00  0.00    -0.354 N 
ATOM     41  C   UNL A   1      44.941  26.771  26.739  1.00  0.00     0.074 A 
ATOM     42  C   UNL A   1      44.985  25.416  26.231  1.00  0.00     0.031 C 
ATOM     43  C   UNL A   1      39.101  27.071  29.427  1.00  0.00     0.029 A 
ATOM     44  C   UNL A   1      40.101  28.132  29.355  1.00  0.00     0.049 A 
ATOM     45  H   UNL A   1      41.955  28.052  28.405  1.00  0.00     0.167 HD
ATOM     46  C   UNL A   1      45.947  27.674  26.604  1.00  0.00     0.034 A 
ATOM     47  C   UNL A   1      39.977  29.359  29.899  1.00  0.00     0.034 A 
ATOM     48  C   UNL A   1      45.875  29.034  27.084  1.00  0.00     0.049 A 
ATOM     49  C   UNL A   1      41.107  30.348  29.740  1.00  0.00     0.074 A 
ATOM     50  C   UNL A   1      46.810  30.047  26.957  1.00  0.00     0.029 A 
ATOM     51  N   UNL A   1      44.801  29.574  27.783  1.00  0.00    -0.354 N 
ATOM     52  N   UNL A   1      42.269  30.188  29.149  1.00  0.00    -0.248 NA
ATOM     53  C   UNL A   1      40.903  31.686  30.312  1.00  0.00     0.031 C 
ATOM     54  C   UNL A   1      46.329  31.179  27.627  1.00  0.00     0.029 A 
ATOM     55  C   UNL A   1      45.063  30.896  28.111  1.00  0.00     0.049 A 
ATOM     56  H   UNL A   1      43.977  29.088  28.011  1.00  0.00     0.167 HD
ATOM     57  C   UNL A   1      42.920  31.415  29.254  1.00  0.00     0.074 A 
ATOM     58  C   UNL A   1      42.016  32.307  29.949  1.00  0.00     0.031 C 
ATOM     59  C   UNL A   1      44.153  31.772  28.812  1.00  0.00     0.034 A 
BRANCH  46  60
ATOM     60  C   UNL A   1      47.222  27.204  25.937  1.00  0.00     0.023 A 
ATOM     61  C   UNL A   1      48.213  26.499  26.644  1.00  0.00     0.031 A 
ATOM     62  C   UNL A   1      47.469  27.496  24.582  1.00  0.00     0.131 A 
ATOM     63  C   UNL A   1      49.435  26.192  26.024  1.00  0.00     0.055 A 
ATOM     64  C   UNL A   1      48.650  27.109  23.946  1.00  0.00     0.041 A 
ATOM     65  F   UNL A   1      46.570  28.179  23.856  1.00  0.00    -0.206 F 
ATOM     66  C   UNL A   1      49.651  26.469  24.672  1.00  0.00     0.022 A 
BRANCH  63  67
ATOM     67  S   UNL A   1      50.793  25.569  27.051  1.00  0.00     0.124 S 
ATOM     68  O   UNL A   1      50.965  26.662  28.005  1.00  0.00    -0.237 OA
ATOM     69  O   UNL A   1      50.242  24.332  27.588  1.00  0.00    -0.237 OA
ATOM     70  O   UNL A   1      51.894  25.402  26.102  1.00  0.00    -0.744 OA
ENDBRANCH  63  67
ENDBRANCH  46  60
BRANCH  47  71
ATOM     71  C   UNL A   1      38.746  29.730  30.656  1.00  0.00     0.023 A 
ATOM     72  C   UNL A   1      37.766  30.559  30.085  1.00  0.00     0.031 A 
ATOM     73  C   UNL A   1      38.547  29.290  31.977  1.00  0.00     0.131 A 
ATOM     74  C   UNL A   1      36.652  30.954  30.843  1.00  0.00     0.055 A 
ATOM     75  C   UNL A   1      37.413  29.645  32.710  1.00  0.00     0.041 A 
ATOM     76  F   UNL A   1      39.452  28.496  32.570  1.00  0.00    -0.206 F 
ATOM     77  C   UNL A   1      36.463  30.492  32.148  1.00  0.00     0.022 A 
BRANCH  74  78
ATOM     78  S   UNL A   1      35.489  32.145  30.124  1.00  0.00     0.124 S 
ATOM     79  O   UNL A   1      34.490  32.260  31.179  1.00  0.00    -0.237 OA
ATOM     80  O   UNL A   1      36.341  33.311  29.914  1.00  0.00    -0.237 OA
ATOM     81  O   UNL A   1      35.034  31.483  28.902  1.00  0.00    -0.744 OA
ENDBRANCH  74  78
ENDBRANCH  47  71
BRANCH  59  82
ATOM     82  C   UNL A   1      44.569  33.207  29.030  1.00  0.00     0.023 A 
ATOM     83  C   UNL A   1      44.047  34.256  28.253  1.00  0.00     0.031 A 
ATOM     84  C   UNL A   1      45.510  33.525  30.024  1.00  0.00     0.131 A 
ATOM     85  C   UNL A   1      44.512  35.566  28.445  1.00  0.00     0.055 A 
ATOM     86  C   UNL A   1      45.927  34.837  30.249  1.00  0.00     0.041 A 
ATOM     87  F   UNL A   1      46.042  32.562  30.795  1.00  0.00    -0.206 F 
ATOM     88  C   UNL A   1      45.437  35.866  29.449  1.00  0.00     0.022 A 
BRANCH  85  89
ATOM     89  S   UNL A   1      43.957  36.865  27.307  1.00  0.00     0.124 S 
ATOM     90  O   UNL A   1      45.223  37.442  26.865  1.00  0.00    -0.237 OA
ATOM     91  O   UNL A   1      43.218  36.105  26.304  1.00  0.00    -0.237 OA
ATOM     92  O   UNL A   1      43.140  37.734  28.150  1.00  0.00    -0.744 OA
ENDBRANCH  85  89
ENDBRANCH  59  82
ENDBRANCH  33  34
ENDBRANCH  25  28
ENDBRANCH  23  24
ENDBRANCH  22  23
ENDBRANCH   1  22
TORSDOF 19
ENDMDL
MODEL 3
REMARK VINA RESULT:     -10.7      5.158      9.981
REMARK SMILES CC(C)(C)[C@H](CCC(=O)NCCCNC(=O)c1ccc(-c2c3nc(c(-c4cc(S(=O)(=O)[O-])ccc4F)c4ccc([nH]4)c(-c4cc(S(=O)(=O)[O-])ccc4F)c4nc(c(-c5cc(S(=O)(=O)[O-])ccc5F)c5ccc2[nH]5)C=C4)C=C3)cc1)CC[NH+]1CCOCC1
REMARK SMILES IDX 11 1 10 2 8 3 9 4 7 6 6 7 5 8 2 9 1 10 3 11 4 12 80 13 81 14
REMARK SMILES IDX 82 15 83 16 87 17 84 19 86 20 85 21 12 22 13 23 14 24 15 25
REMARK SMILES IDX 16 27 17 28 18 29 79 30 19 31 78 32 20 33 21 34 22 35 72 36
REMARK SMILES IDX 23 37 77 38 71 39 73 40 24 41 76 42 70 43 69 44 25 46 57 47
REMARK SMILES IDX 37 48 56 49 38 50 41 51 55 52 74 53 39 54 40 55 54 57 75 58
REMARK SMILES IDX 42 59 26 60 27 61 35 62 28 63 34 64 36 65 33 66 29 67 30 68
REMARK SMILES IDX 31 69 32 70 58 71 59 72 67 73 60 74 66 75 68 76 65 77 61 78
REMARK SMILES IDX 62 79 63 80 64 81 43 82 44 83 52 84 45 85 51 86 53 87 50 88
REMARK SMILES IDX 46 89 47 90 48 91 49 92
REMARK H PARENT 10 5 82 18 14 26 73 45 41 56
REMARK Flexibility Score: inf
ROOT
ATOM      1  C   UNL A   1      33.445  30.497  27.470  1.00  0.00     0.117 C 
ENDROOT
BRANCH   1   2
ATOM      2  N   UNL A   1      32.313  29.578  27.566  1.00  0.00    -0.356 N 
ATOM      3  C   UNL A   1      32.064  28.282  27.213  1.00  0.00     0.220 C 
ATOM      4  O   UNL A   1      31.070  27.770  27.747  1.00  0.00    -0.275 OA
ATOM      5  H   UNL A   1      31.533  29.999  27.995  1.00  0.00     0.163 HD
BRANCH   3   6
ATOM      6  C   UNL A   1      32.880  27.432  26.225  1.00  0.00     0.100 C 
BRANCH   6   7
ATOM      7  C   UNL A   1      32.988  27.964  24.750  1.00  0.00     0.014 C 
BRANCH   7   8
ATOM      8  C   UNL A   1      32.001  27.562  23.560  1.00  0.00     0.000 C 
BRANCH   8   9
ATOM      9  C   UNL A   1      32.106  26.082  23.075  1.00  0.00    -0.035 C 
ATOM     10  C   UNL A   1      33.435  25.493  23.590  1.00  0.00     0.011 C 
ATOM     11  C   UNL A   1      31.784  26.142  21.562  1.00  0.00     0.011 C 
ATOM     12  C   UNL A   1      31.071  25.064  23.602  1.00  0.00     0.011 C 
ENDBRANCH   8   9
BRANCH   8  13
ATOM     13  C   UNL A   1      30.532  28.020  23.818  1.00  0.00     0.065 C 
BRANCH  13  14
ATOM     14  C   UNL A   1      30.184  29.445  23.317  1.00  0.00     0.262 C 
BRANCH  14  15
ATOM     15  N   UNL A   1      28.992  29.556  22.463  1.00  0.00    -0.331 N 
ATOM     16  C   UNL A   1      29.118  30.630  21.456  1.00  0.00     0.291 C 
ATOM     17  C   UNL A   1      27.717  29.757  23.176  1.00  0.00     0.291 C 
ATOM     18  H   UNL A   1      28.958  28.638  22.019  1.00  0.00     0.348 HD
ATOM     19  C   UNL A   1      28.877  32.040  22.024  1.00  0.00     0.221 C 
ATOM     20  C   UNL A   1      27.448  31.180  23.680  1.00  0.00     0.221 C 
ATOM     21  O   UNL A   1      27.590  32.148  22.639  1.00  0.00    -0.370 OA
ENDBRANCH  14  15
ENDBRANCH  13  14
ENDBRANCH   8  13
ENDBRANCH   7   8
ENDBRANCH   6   7
ENDBRANCH   3   6
ENDBRANCH   1   2
BRANCH   1  22
ATOM     22  C   UNL A   1      33.200  31.888  26.833  1.00  0.00     0.042 C 
BRANCH  22  23
ATOM     23  C   UNL A   1      31.991  32.719  27.304  1.00  0.00     0.118 C 
BRANCH  23  24
ATOM     24  N   UNL A   1      32.463  34.051  27.696  1.00  0.00    -0.352 N 
ATOM     25  C   UNL A   1      33.406  34.519  28.575  1.00  0.00     0.251 C 
ATOM     26  H   UNL A   1      31.995  34.774  27.220  1.00  0.00     0.163 HD
ATOM     27  O   UNL A   1      33.267  35.684  28.956  1.00  0.00    -0.269 OA
BRANCH  25  28
ATOM     28  C   UNL A   1      34.596  33.752  29.038  1.00  0.00     0.039 A 
ATOM     29  C   UNL A   1      34.390  32.749  30.005  1.00  0.00     0.014 A 
ATOM     30  C   UNL A   1      35.906  34.098  28.709  1.00  0.00     0.014 A 
ATOM     31  C   UNL A   1      35.470  32.131  30.653  1.00  0.00     0.010 A 
ATOM     32  C   UNL A   1      36.988  33.440  29.318  1.00  0.00     0.010 A 
ATOM     33  C   UNL A   1      36.786  32.479  30.324  1.00  0.00    -0.014 A 
BRANCH  33  34
ATOM     34  C   UNL A   1      37.948  31.920  31.082  1.00  0.00     0.031 A 
ATOM     35  C   UNL A   1      38.779  30.814  30.473  1.00  0.00     0.074 A 
ATOM     36  C   UNL A   1      38.247  32.371  32.317  1.00  0.00     0.049 A 
ATOM     37  N   UNL A   1      39.750  30.111  31.000  1.00  0.00    -0.248 NA
ATOM     38  C   UNL A   1      38.446  30.432  29.094  1.00  0.00     0.031 C 
ATOM     39  C   UNL A   1      37.527  33.431  33.024  1.00  0.00     0.029 A 
ATOM     40  N   UNL A   1      39.228  31.990  33.202  1.00  0.00    -0.354 N 
ATOM     41  C   UNL A   1      40.119  29.179  30.031  1.00  0.00     0.074 A 
ATOM     42  C   UNL A   1      39.231  29.382  28.905  1.00  0.00     0.031 C 
ATOM     43  C   UNL A   1      38.095  33.620  34.227  1.00  0.00     0.029 A 
ATOM     44  C   UNL A   1      39.190  32.670  34.399  1.00  0.00     0.049 A 
ATOM     45  H   UNL A   1      39.895  31.294  32.999  1.00  0.00     0.167 HD
ATOM     46  C   UNL A   1      41.113  28.254  30.068  1.00  0.00     0.034 A 
ATOM     47  C   UNL A   1      39.939  32.534  35.512  1.00  0.00     0.034 A 
ATOM     48  C   UNL A   1      42.014  28.088  31.184  1.00  0.00     0.049 A 
ATOM     49  C   UNL A   1      41.037  31.499  35.534  1.00  0.00     0.074 A 
ATOM     50  C   UNL A   1      43.087  27.221  31.308  1.00  0.00     0.029 A 
ATOM     51  N   UNL A   1      41.951  28.808  32.371  1.00  0.00    -0.354 N 
ATOM     52  N   UNL A   1      41.383  30.640  34.602  1.00  0.00    -0.248 NA
ATOM     53  C   UNL A   1      41.853  31.423  36.754  1.00  0.00     0.031 C 
ATOM     54  C   UNL A   1      43.634  27.375  32.588  1.00  0.00     0.029 A 
ATOM     55  C   UNL A   1      42.950  28.389  33.238  1.00  0.00     0.049 A 
ATOM     56  H   UNL A   1      41.293  29.513  32.567  1.00  0.00     0.167 HD
ATOM     57  C   UNL A   1      42.475  29.944  35.115  1.00  0.00     0.074 A 
ATOM     58  C   UNL A   1      42.739  30.493  36.429  1.00  0.00     0.031 C 
ATOM     59  C   UNL A   1      43.196  28.942  34.549  1.00  0.00     0.034 A 
BRANCH  46  60
ATOM     60  C   UNL A   1      41.252  27.331  28.877  1.00  0.00     0.023 A 
ATOM     61  C   UNL A   1      42.264  27.506  27.915  1.00  0.00     0.031 A 
ATOM     62  C   UNL A   1      40.337  26.279  28.678  1.00  0.00     0.131 A 
ATOM     63  C   UNL A   1      42.283  26.708  26.761  1.00  0.00     0.055 A 
ATOM     64  C   UNL A   1      40.416  25.431  27.571  1.00  0.00     0.041 A 
ATOM     65  F   UNL A   1      39.340  26.068  29.550  1.00  0.00    -0.206 F 
ATOM     66  C   UNL A   1      41.381  25.654  26.593  1.00  0.00     0.022 A 
BRANCH  63  67
ATOM     67  S   UNL A   1      43.402  27.168  25.410  1.00  0.00     0.124 S 
ATOM     68  O   UNL A   1      44.417  27.943  26.121  1.00  0.00    -0.237 OA
ATOM     69  O   UNL A   1      43.829  25.873  24.897  1.00  0.00    -0.237 OA
ATOM     70  O   UNL A   1      42.553  27.948  24.510  1.00  0.00    -0.744 OA
ENDBRANCH  63  67
ENDBRANCH  46  60
BRANCH  47  71
ATOM     71  C   UNL A   1      39.677  33.388  36.708  1.00  0.00     0.023 A 
ATOM     72  C   UNL A   1      38.969  32.888  37.813  1.00  0.00     0.031 A 
ATOM     73  C   UNL A   1      40.101  34.728  36.750  1.00  0.00     0.131 A 
ATOM     74  C   UNL A   1      38.671  33.731  38.895  1.00  0.00     0.055 A 
ATOM     75  C   UNL A   1      39.846  35.549  37.850  1.00  0.00     0.041 A 
ATOM     76  F   UNL A   1      40.783  35.255  35.721  1.00  0.00    -0.206 F 
ATOM     77  C   UNL A   1      39.116  35.055  38.926  1.00  0.00     0.022 A 
BRANCH  74  78
ATOM     78  S   UNL A   1      37.624  33.094  40.232  1.00  0.00     0.124 S 
ATOM     79  O   UNL A   1      38.379  31.927  40.672  1.00  0.00    -0.237 OA
ATOM     80  O   UNL A   1      37.591  34.223  41.155  1.00  0.00    -0.237 OA
ATOM     81  O   UNL A   1      36.357  32.802  39.564  1.00  0.00    -0.744 OA
ENDBRANCH  74  78
ENDBRANCH  47  71
BRANCH  59  82
ATOM     82  C   UNL A   1      44.370  28.414  35.337  1.00  0.00     0.023 A 
ATOM     83  C   UNL A   1      45.685  28.843  35.084  1.00  0.00     0.031 A 
ATOM     84  C   UNL A   1      44.168  27.459  36.348  1.00  0.00     0.131 A 
ATOM     85  C   UNL A   1      46.754  28.276  35.796  1.00  0.00     0.055 A 
ATOM     86  C   UNL A   1      45.229  26.940  37.092  1.00  0.00     0.041 A 
ATOM     87  F   UNL A   1      42.933  27.014  36.631  1.00  0.00    -0.206 F 
ATOM     88  C   UNL A   1      46.532  27.339  36.809  1.00  0.00     0.022 A 
BRANCH  85  89
ATOM     89  S   UNL A   1      48.449  28.715  35.322  1.00  0.00     0.124 S 
ATOM     90  O   UNL A   1      48.490  28.295  33.924  1.00  0.00    -0.237 OA
ATOM     91  O   UNL A   1      48.475  30.155  35.556  1.00  0.00    -0.237 OA
ATOM     92  O   UNL A   1      49.275  27.925  36.231  1.00  0.00    -0.744 OA
ENDBRANCH  85  89
ENDBRANCH  59  82
ENDBRANCH  33  34
ENDBRANCH  25  28
ENDBRANCH  23  24
ENDBRANCH  22  23
ENDBRANCH   1  22
TORSDOF 19
ENDMDL
