MODEL 1
REMARK VINA RESULT:     -11.6      0.000      0.000
REMARK SMILES C[C@@H](C(=O)NCCCNC(=O)c1ccc(-c2c3nc(c(-c4cc(S(=O)(=O)[O-])ccc4F)c4ccc([nH]4)c(-c4cc(S(=O)(=O)[O-])ccc4F)c4nc(c(-c5cc(S(=O)(=O)[O-])ccc5F)c5ccc2[nH]5)C=C4)C=C3)cc1)c1ccc(Cc2ccoc2)cc1F
REMARK SMILES IDX 7 1 6 2 5 3 3 4 4 5 2 7 1 8 75 9 76 10 86 11 77 12 85 13
REMARK SMILES IDX 87 14 78 15 79 16 80 17 81 18 84 19 82 20 83 21 8 22 9 23
REMARK SMILES IDX 10 24 11 26 12 27 13 28 74 29 14 30 73 31 15 32 16 33 17 34
REMARK SMILES IDX 67 35 18 36 72 37 66 38 68 39 19 40 71 41 65 42 64 43 20 45
REMARK SMILES IDX 52 46 32 47 51 48 33 49 36 50 50 51 69 52 34 53 35 54 49 56
REMARK SMILES IDX 70 57 37 58 21 59 22 60 30 61 23 62 29 63 31 64 28 65 24 66
REMARK SMILES IDX 25 67 26 68 27 69 53 70 54 71 62 72 55 73 61 74 63 75 60 76
REMARK SMILES IDX 56 77 57 78 58 79 59 80 38 81 39 82 47 83 40 84 46 85 48 86
REMARK SMILES IDX 45 87 41 88 42 89 43 90 44 91
REMARK H PARENT 5 6 9 25 68 44 36 55
REMARK Flexibility Score: inf
ROOT
ATOM      1  C   UNL A   1      31.780  28.691  25.961  1.00  0.00     0.042 C 
ENDROOT
BRANCH   1   2
ATOM      2  C   UNL A   1      31.177  28.841  24.563  1.00  0.00     0.117 C 
BRANCH   2   3
ATOM      3  N   UNL A   1      30.778  27.556  24.020  1.00  0.00    -0.356 N 
ATOM      4  C   UNL A   1      31.524  26.573  23.431  1.00  0.00     0.227 C 
ATOM      5  O   UNL A   1      30.907  25.675  22.857  1.00  0.00    -0.274 OA
ATOM      6  H   UNL A   1      29.816  27.360  24.085  1.00  0.00     0.163 HD
BRANCH   4   7
ATOM      7  C   UNL A   1      33.063  26.617  23.510  1.00  0.00     0.108 C 
ATOM      8  C   UNL A   1      33.629  27.158  22.190  1.00  0.00     0.023 C 
BRANCH   7   9
ATOM      9  C   UNL A   1      33.655  25.262  23.909  1.00  0.00    -0.000 A 
ATOM     10  C   UNL A   1      33.948  24.255  22.978  1.00  0.00     0.008 A 
ATOM     11  C   UNL A   1      33.943  24.994  25.254  1.00  0.00     0.127 A 
ATOM     12  C   UNL A   1      34.484  23.031  23.385  1.00  0.00     0.004 A 
ATOM     13  C   UNL A   1      34.434  23.753  25.673  1.00  0.00     0.043 A 
ATOM     14  F   UNL A   1      33.763  25.950  26.178  1.00  0.00    -0.207 F 
ATOM     15  C   UNL A   1      34.700  22.744  24.738  1.00  0.00    -0.041 A 
BRANCH  15  16
ATOM     16  C   UNL A   1      35.261  21.408  25.166  1.00  0.00     0.074 C 
BRANCH  16  17
ATOM     17  C   UNL A   1      34.186  20.379  25.024  1.00  0.00    -0.005 A 
ATOM     18  C   UNL A   1      34.301  19.017  24.604  1.00  0.00     0.046 A 
ATOM     19  C   UNL A   1      32.853  20.529  25.356  1.00  0.00     0.198 A 
ATOM     20  C   UNL A   1      33.045  18.466  24.684  1.00  0.00     0.195 A 
ATOM     21  O   UNL A   1      32.161  19.378  25.155  1.00  0.00    -0.472 OA
ENDBRANCH  16  17
ENDBRANCH  15  16
ENDBRANCH   7   9
ENDBRANCH   4   7
ENDBRANCH   2   3
ENDBRANCH   1   2
BRANCH   1  22
ATOM     22  C   UNL A   1      33.120  29.397  26.145  1.00  0.00     0.118 C 
BRANCH  22  23
ATOM     23  N   UNL A   1      32.960  30.798  26.489  1.00  0.00    -0.352 N 
ATOM     24  C   UNL A   1      33.689  31.581  27.344  1.00  0.00     0.251 C 
ATOM     25  H   UNL A   1      32.214  31.257  26.037  1.00  0.00     0.163 HD
ATOM     26  O   UNL A   1      33.244  32.692  27.649  1.00  0.00    -0.269 OA
BRANCH  24  27
ATOM     27  C   UNL A   1      34.977  31.119  27.914  1.00  0.00     0.039 A 
ATOM     28  C   UNL A   1      35.056  29.817  28.414  1.00  0.00     0.014 A 
ATOM     29  C   UNL A   1      36.083  31.969  28.025  1.00  0.00     0.014 A 
ATOM     30  C   UNL A   1      36.240  29.362  29.003  1.00  0.00     0.010 A 
ATOM     31  C   UNL A   1      37.287  31.490  28.542  1.00  0.00     0.010 A 
ATOM     32  C   UNL A   1      37.371  30.190  29.063  1.00  0.00    -0.014 A 
BRANCH  32  33
ATOM     33  C   UNL A   1      38.618  29.732  29.731  1.00  0.00     0.031 A 
ATOM     34  C   UNL A   1      38.992  30.284  31.083  1.00  0.00     0.074 A 
ATOM     35  C   UNL A   1      39.426  28.846  29.117  1.00  0.00     0.049 A 
ATOM     36  N   UNL A   1      40.052  30.046  31.814  1.00  0.00    -0.248 NA
ATOM     37  C   UNL A   1      38.065  31.260  31.672  1.00  0.00     0.031 C 
ATOM     38  C   UNL A   1      39.196  28.272  27.790  1.00  0.00     0.029 A 
ATOM     39  N   UNL A   1      40.605  28.275  29.527  1.00  0.00    -0.354 N 
ATOM     40  C   UNL A   1      39.923  30.849  32.943  1.00  0.00     0.074 A 
ATOM     41  C   UNL A   1      38.721  31.635  32.758  1.00  0.00     0.031 C 
ATOM     42  C   UNL A   1      40.191  27.417  27.504  1.00  0.00     0.029 A 
ATOM     43  C   UNL A   1      41.145  27.404  28.609  1.00  0.00     0.049 A 
ATOM     44  H   UNL A   1      41.025  28.469  30.396  1.00  0.00     0.167 HD
ATOM     45  C   UNL A   1      40.712  30.906  34.045  1.00  0.00     0.034 A 
ATOM     46  C   UNL A   1      42.281  26.680  28.651  1.00  0.00     0.034 A 
ATOM     47  C   UNL A   1      41.904  30.109  34.218  1.00  0.00     0.049 A 
ATOM     48  C   UNL A   1      43.141  26.747  29.888  1.00  0.00     0.074 A 
ATOM     49  C   UNL A   1      42.769  30.067  35.297  1.00  0.00     0.029 A 
ATOM     50  N   UNL A   1      42.400  29.210  33.280  1.00  0.00    -0.354 N 
ATOM     51  N   UNL A   1      42.985  27.483  30.965  1.00  0.00    -0.248 NA
ATOM     52  C   UNL A   1      44.312  25.864  29.926  1.00  0.00     0.031 C 
ATOM     53  C   UNL A   1      43.813  29.185  34.991  1.00  0.00     0.029 A 
ATOM     54  C   UNL A   1      43.563  28.620  33.752  1.00  0.00     0.049 A 
ATOM     55  H   UNL A   1      41.985  29.021  32.408  1.00  0.00     0.167 HD
ATOM     56  C   UNL A   1      44.024  27.127  31.821  1.00  0.00     0.074 A 
ATOM     57  C   UNL A   1      44.786  26.099  31.140  1.00  0.00     0.031 C 
ATOM     58  C   UNL A   1      44.317  27.600  33.059  1.00  0.00     0.034 A 
BRANCH  45  59
ATOM     59  C   UNL A   1      40.311  31.880  35.131  1.00  0.00     0.023 A 
ATOM     60  C   UNL A   1      39.450  31.501  36.177  1.00  0.00     0.031 A 
ATOM     61  C   UNL A   1      40.742  33.218  35.092  1.00  0.00     0.131 A 
ATOM     62  C   UNL A   1      38.973  32.464  37.078  1.00  0.00     0.055 A 
ATOM     63  C   UNL A   1      40.337  34.151  36.048  1.00  0.00     0.041 A 
ATOM     64  F   UNL A   1      41.550  33.648  34.109  1.00  0.00    -0.206 F 
ATOM     65  C   UNL A   1      39.430  33.782  37.037  1.00  0.00     0.022 A 
BRANCH  62  66
ATOM     66  S   UNL A   1      37.615  32.007  38.191  1.00  0.00     0.124 S 
ATOM     67  O   UNL A   1      38.229  32.208  39.502  1.00  0.00    -0.237 OA
ATOM     68  O   UNL A   1      36.571  32.956  37.823  1.00  0.00    -0.237 OA
ATOM     69  O   UNL A   1      37.343  30.613  37.848  1.00  0.00    -0.744 OA
ENDBRANCH  62  66
ENDBRANCH  45  59
BRANCH  46  70
ATOM     70  C   UNL A   1      42.671  25.827  27.493  1.00  0.00     0.023 A 
ATOM     71  C   UNL A   1      42.196  24.512  27.366  1.00  0.00     0.031 A 
ATOM     72  C   UNL A   1      43.546  26.312  26.506  1.00  0.00     0.131 A 
ATOM     73  C   UNL A   1      42.635  23.711  26.300  1.00  0.00     0.055 A 
ATOM     74  C   UNL A   1      43.941  25.528  25.421  1.00  0.00     0.041 A 
ATOM     75  F   UNL A   1      44.019  27.567  26.575  1.00  0.00    -0.206 F 
ATOM     76  C   UNL A   1      43.494  24.214  25.320  1.00  0.00     0.022 A 
BRANCH  73  77
ATOM     77  S   UNL A   1      42.117  21.973  26.248  1.00  0.00     0.124 S 
ATOM     78  O   UNL A   1      42.501  21.508  27.575  1.00  0.00    -0.237 OA
ATOM     79  O   UNL A   1      40.684  22.091  25.998  1.00  0.00    -0.237 OA
ATOM     80  O   UNL A   1      42.896  21.420  25.142  1.00  0.00    -0.744 OA
ENDBRANCH  73  77
ENDBRANCH  46  70
BRANCH  58  81
ATOM     81  C   UNL A   1      45.485  26.965  33.776  1.00  0.00     0.023 A 
ATOM     82  C   UNL A   1      45.351  25.768  34.501  1.00  0.00     0.031 A 
ATOM     83  C   UNL A   1      46.748  27.585  33.751  1.00  0.00     0.131 A 
ATOM     84  C   UNL A   1      46.442  25.264  35.226  1.00  0.00     0.055 A 
ATOM     85  C   UNL A   1      47.845  27.045  34.423  1.00  0.00     0.041 A 
ATOM     86  F   UNL A   1      46.933  28.730  33.076  1.00  0.00    -0.206 F 
ATOM     87  C   UNL A   1      47.692  25.887  35.179  1.00  0.00     0.022 A 
BRANCH  84  88
ATOM     88  S   UNL A   1      46.178  23.844  36.322  1.00  0.00     0.124 S 
ATOM     89  O   UNL A   1      44.927  23.292  35.811  1.00  0.00    -0.237 OA
ATOM     90  O   UNL A   1      47.372  23.040  36.084  1.00  0.00    -0.237 OA
ATOM     91  O   UNL A   1      46.092  24.447  37.651  1.00  0.00    -0.744 OA
ENDBRANCH  84  88
ENDBRANCH  58  81
ENDBRANCH  32  33
ENDBRANCH  24  27
ENDBRANCH  22  23
ENDBRANCH   1  22
TORSDOF 16
ENDMDL
MODEL 2
REMARK VINA RESULT:     -11.6      2.155      2.494
REMARK SMILES C[C@@H](C(=O)NCCCNC(=O)c1ccc(-c2c3nc(c(-c4cc(S(=O)(=O)[O-])ccc4F)c4ccc([nH]4)c(-c4cc(S(=O)(=O)[O-])ccc4F)c4nc(c(-c5cc(S(=O)(=O)[O-])ccc5F)c5ccc2[nH]5)C=C4)C=C3)cc1)c1ccc(Cc2ccoc2)cc1F
REMARK SMILES IDX 7 1 6 2 5 3 3 4 4 5 2 7 1 8 75 9 76 10 86 11 77 12 85 13
REMARK SMILES IDX 87 14 78 15 79 16 80 17 81 18 84 19 82 20 83 21 8 22 9 23
REMARK SMILES IDX 10 24 11 26 12 27 13 28 74 29 14 30 73 31 15 32 16 33 17 34
REMARK SMILES IDX 67 35 18 36 72 37 66 38 68 39 19 40 71 41 65 42 64 43 20 45
REMARK SMILES IDX 52 46 32 47 51 48 33 49 36 50 50 51 69 52 34 53 35 54 49 56
REMARK SMILES IDX 70 57 37 58 21 59 22 60 30 61 23 62 29 63 31 64 28 65 24 66
REMARK SMILES IDX 25 67 26 68 27 69 53 70 54 71 62 72 55 73 61 74 63 75 60 76
REMARK SMILES IDX 56 77 57 78 58 79 59 80 38 81 39 82 47 83 40 84 46 85 48 86
REMARK SMILES IDX 45 87 41 88 42 89 43 90 44 91
REMARK H PARENT 5 6 9 25 68 44 36 55
REMARK Flexibility Score: inf
ROOT
ATOM      1  C   UNL A   1      32.450  28.587  27.265  1.00  0.00     0.042 C 
ENDROOT
BRANCH   1   2
ATOM      2  C   UNL A   1      31.465  27.994  26.258  1.00  0.00     0.117 C 
BRANCH   2   3
ATOM      3  N   UNL A   1      30.965  26.706  26.704  1.00  0.00    -0.356 N 
ATOM      4  C   UNL A   1      30.900  25.507  26.051  1.00  0.00     0.227 C 
ATOM      5  O   UNL A   1      30.227  24.621  26.581  1.00  0.00    -0.274 OA
ATOM      6  H   UNL A   1      30.615  26.695  27.624  1.00  0.00     0.163 HD
BRANCH   4   7
ATOM      7  C   UNL A   1      31.654  25.306  24.723  1.00  0.00     0.108 C 
ATOM      8  C   UNL A   1      30.673  25.438  23.550  1.00  0.00     0.023 C 
BRANCH   7   9
ATOM      9  C   UNL A   1      32.443  23.994  24.703  1.00  0.00    -0.000 A 
ATOM     10  C   UNL A   1      32.187  22.965  23.786  1.00  0.00     0.008 A 
ATOM     11  C   UNL A   1      33.484  23.790  25.619  1.00  0.00     0.127 A 
ATOM     12  C   UNL A   1      32.927  21.781  23.804  1.00  0.00     0.004 A 
ATOM     13  C   UNL A   1      34.196  22.588  25.674  1.00  0.00     0.043 A 
ATOM     14  F   UNL A   1      33.831  24.773  26.464  1.00  0.00    -0.207 F 
ATOM     15  C   UNL A   1      33.916  21.555  24.770  1.00  0.00    -0.041 A 
BRANCH  15  16
ATOM     16  C   UNL A   1      34.696  20.262  24.791  1.00  0.00     0.074 C 
BRANCH  16  17
ATOM     17  C   UNL A   1      33.725  19.126  24.741  1.00  0.00    -0.005 A 
ATOM     18  C   UNL A   1      33.550  18.143  23.718  1.00  0.00     0.046 A 
ATOM     19  C   UNL A   1      32.841  18.753  25.737  1.00  0.00     0.198 A 
ATOM     20  C   UNL A   1      32.571  17.282  24.153  1.00  0.00     0.195 A 
ATOM     21  O   UNL A   1      32.144  17.641  25.388  1.00  0.00    -0.472 OA
ENDBRANCH  16  17
ENDBRANCH  15  16
ENDBRANCH   7   9
ENDBRANCH   4   7
ENDBRANCH   2   3
ENDBRANCH   1   2
BRANCH   1  22
ATOM     22  C   UNL A   1      33.520  29.481  26.645  1.00  0.00     0.118 C 
BRANCH  22  23
ATOM     23  N   UNL A   1      33.487  30.830  27.181  1.00  0.00    -0.352 N 
ATOM     24  C   UNL A   1      34.333  31.443  28.067  1.00  0.00     0.251 C 
ATOM     25  H   UNL A   1      32.744  31.390  26.858  1.00  0.00     0.163 HD
ATOM     26  O   UNL A   1      33.992  32.527  28.551  1.00  0.00    -0.269 OA
BRANCH  24  27
ATOM     27  C   UNL A   1      35.623  30.831  28.461  1.00  0.00     0.039 A 
ATOM     28  C   UNL A   1      35.625  29.876  29.482  1.00  0.00     0.014 A 
ATOM     29  C   UNL A   1      36.836  31.232  27.890  1.00  0.00     0.014 A 
ATOM     30  C   UNL A   1      36.829  29.313  29.913  1.00  0.00     0.010 A 
ATOM     31  C   UNL A   1      38.028  30.612  28.266  1.00  0.00     0.010 A 
ATOM     32  C   UNL A   1      38.042  29.666  29.302  1.00  0.00    -0.014 A 
BRANCH  32  33
ATOM     33  C   UNL A   1      39.332  29.108  29.787  1.00  0.00     0.031 A 
ATOM     34  C   UNL A   1      40.024  29.735  30.970  1.00  0.00     0.074 A 
ATOM     35  C   UNL A   1      39.895  28.061  29.154  1.00  0.00     0.049 A 
ATOM     36  N   UNL A   1      41.170  29.426  31.524  1.00  0.00    -0.248 NA
ATOM     37  C   UNL A   1      39.350  30.885  31.591  1.00  0.00     0.031 C 
ATOM     38  C   UNL A   1      39.346  27.395  27.971  1.00  0.00     0.029 A 
ATOM     39  N   UNL A   1      41.056  27.375  29.413  1.00  0.00    -0.354 N 
ATOM     40  C   UNL A   1      41.358  30.349  32.548  1.00  0.00     0.074 A 
ATOM     41  C   UNL A   1      40.245  31.272  32.485  1.00  0.00     0.031 C 
ATOM     42  C   UNL A   1      40.159  26.385  27.620  1.00  0.00     0.029 A 
ATOM     43  C   UNL A   1      41.301  26.351  28.529  1.00  0.00     0.049 A 
ATOM     44  H   UNL A   1      41.656  27.595  30.161  1.00  0.00     0.167 HD
ATOM     45  C   UNL A   1      42.348  30.405  33.475  1.00  0.00     0.034 A 
ATOM     46  C   UNL A   1      42.330  25.483  28.457  1.00  0.00     0.034 A 
ATOM     47  C   UNL A   1      43.448  29.471  33.529  1.00  0.00     0.049 A 
ATOM     48  C   UNL A   1      43.416  25.553  29.501  1.00  0.00     0.074 A 
ATOM     49  C   UNL A   1      44.495  29.418  34.432  1.00  0.00     0.029 A 
ATOM     50  N   UNL A   1      43.643  28.423  32.637  1.00  0.00    -0.354 N 
ATOM     51  N   UNL A   1      43.560  26.408  30.488  1.00  0.00    -0.248 NA
ATOM     52  C   UNL A   1      44.460  24.524  29.437  1.00  0.00     0.031 C 
ATOM     53  C   UNL A   1      45.349  28.373  34.056  1.00  0.00     0.029 A 
ATOM     54  C   UNL A   1      44.797  27.727  32.962  1.00  0.00     0.049 A 
ATOM     55  H   UNL A   1      43.047  28.207  31.883  1.00  0.00     0.167 HD
ATOM     56  C   UNL A   1      44.695  25.998  31.181  1.00  0.00     0.074 A 
ATOM     57  C   UNL A   1      45.185  24.811  30.508  1.00  0.00     0.031 C 
ATOM     58  C   UNL A   1      45.278  26.548  32.277  1.00  0.00     0.034 A 
BRANCH  45  59
ATOM     59  C   UNL A   1      42.283  31.530  34.485  1.00  0.00     0.023 A 
ATOM     60  C   UNL A   1      41.379  31.498  35.563  1.00  0.00     0.031 A 
ATOM     61  C   UNL A   1      43.087  32.673  34.341  1.00  0.00     0.131 A 
ATOM     62  C   UNL A   1      41.232  32.621  36.391  1.00  0.00     0.055 A 
ATOM     63  C   UNL A   1      43.003  33.751  35.225  1.00  0.00     0.041 A 
ATOM     64  F   UNL A   1      43.957  32.774  33.323  1.00  0.00    -0.206 F 
ATOM     65  C   UNL A   1      42.056  33.738  36.245  1.00  0.00     0.022 A 
BRANCH  62  66
ATOM     66  S   UNL A   1      39.832  32.667  37.544  1.00  0.00     0.124 S 
ATOM     67  O   UNL A   1      39.288  34.000  37.293  1.00  0.00    -0.237 OA
ATOM     68  O   UNL A   1      39.014  31.548  37.093  1.00  0.00    -0.237 OA
ATOM     69  O   UNL A   1      40.460  32.496  38.853  1.00  0.00    -0.744 OA
ENDBRANCH  62  66
ENDBRANCH  45  59
BRANCH  46  70
ATOM     70  C   UNL A   1      42.384  24.473  27.363  1.00  0.00     0.023 A 
ATOM     71  C   UNL A   1      41.614  23.300  27.417  1.00  0.00     0.031 A 
ATOM     72  C   UNL A   1      43.229  24.657  26.254  1.00  0.00     0.131 A 
ATOM     73  C   UNL A   1      41.738  22.335  26.405  1.00  0.00     0.055 A 
ATOM     74  C   UNL A   1      43.312  23.719  25.226  1.00  0.00     0.041 A 
ATOM     75  F   UNL A   1      43.977  25.768  26.149  1.00  0.00    -0.206 F 
ATOM     76  C   UNL A   1      42.572  22.542  25.303  1.00  0.00     0.022 A 
BRANCH  73  77
ATOM     77  S   UNL A   1      40.840  20.769  26.581  1.00  0.00     0.124 S 
ATOM     78  O   UNL A   1      39.523  21.122  26.065  1.00  0.00    -0.237 OA
ATOM     79  O   UNL A   1      41.634  19.869  25.753  1.00  0.00    -0.237 OA
ATOM     80  O   UNL A   1      40.897  20.505  28.017  1.00  0.00    -0.744 OA
ENDBRANCH  73  77
ENDBRANCH  46  70
BRANCH  58  81
ATOM     81  C   UNL A   1      46.479  25.831  32.846  1.00  0.00     0.023 A 
ATOM     82  C   UNL A   1      47.762  25.969  32.287  1.00  0.00     0.031 A 
ATOM     83  C   UNL A   1      46.330  24.975  33.953  1.00  0.00     0.131 A 
ATOM     84  C   UNL A   1      48.830  25.213  32.793  1.00  0.00     0.055 A 
ATOM     85  C   UNL A   1      47.409  24.274  34.491  1.00  0.00     0.041 A 
ATOM     86  F   UNL A   1      45.128  24.804  34.526  1.00  0.00    -0.206 F 
ATOM     87  C   UNL A   1      48.665  24.378  33.901  1.00  0.00     0.022 A 
BRANCH  84  88
ATOM     88  S   UNL A   1      50.416  25.251  31.914  1.00  0.00     0.124 S 
ATOM     89  O   UNL A   1      50.051  25.883  30.651  1.00  0.00    -0.237 OA
ATOM     90  O   UNL A   1      51.249  26.049  32.808  1.00  0.00    -0.237 OA
ATOM     91  O   UNL A   1      50.788  23.840  31.817  1.00  0.00    -0.744 OA
ENDBRANCH  84  88
ENDBRANCH  58  81
ENDBRANCH  32  33
ENDBRANCH  24  27
ENDBRANCH  22  23
ENDBRANCH   1  22
TORSDOF 16
ENDMDL
MODEL 3
REMARK VINA RESULT:     -11.6      5.243     10.059
REMARK SMILES C[C@@H](C(=O)NCCCNC(=O)c1ccc(-c2c3nc(c(-c4cc(S(=O)(=O)[O-])ccc4F)c4ccc([nH]4)c(-c4cc(S(=O)(=O)[O-])ccc4F)c4nc(c(-c5cc(S(=O)(=O)[O-])ccc5F)c5ccc2[nH]5)C=C4)C=C3)cc1)c1ccc(Cc2ccoc2)cc1F
REMARK SMILES IDX 7 1 6 2 5 3 3 4 4 5 2 7 1 8 75 9 76 10 86 11 77 12 85 13
REMARK SMILES IDX 87 14 78 15 79 16 80 17 81 18 84 19 82 20 83 21 8 22 9 23
REMARK SMILES IDX 10 24 11 26 12 27 13 28 74 29 14 30 73 31 15 32 16 33 17 34
REMARK SMILES IDX 67 35 18 36 72 37 66 38 68 39 19 40 71 41 65 42 64 43 20 45
REMARK SMILES IDX 52 46 32 47 51 48 33 49 36 50 50 51 69 52 34 53 35 54 49 56
REMARK SMILES IDX 70 57 37 58 21 59 22 60 30 61 23 62 29 63 31 64 28 65 24 66
REMARK SMILES IDX 25 67 26 68 27 69 53 70 54 71 62 72 55 73 61 74 63 75 60 76
REMARK SMILES IDX 56 77 57 78 58 79 59 80 38 81 39 82 47 83 40 84 46 85 48 86
REMARK SMILES IDX 45 87 41 88 42 89 43 90 44 91
REMARK H PARENT 5 6 9 25 68 44 36 55
REMARK Flexibility Score: inf
ROOT
ATOM      1  C   UNL A   1      35.620  21.901  26.100  1.00  0.00     0.042 C 
ENDROOT
BRANCH   1   2
ATOM      2  C   UNL A   1      35.092  23.335  26.168  1.00  0.00     0.117 C 
BRANCH   2   3
ATOM      3  N   UNL A   1      33.859  23.408  26.930  1.00  0.00    -0.356 N 
ATOM      4  C   UNL A   1      32.571  23.605  26.515  1.00  0.00     0.227 C 
ATOM      5  O   UNL A   1      31.735  23.844  27.387  1.00  0.00    -0.274 OA
ATOM      6  H   UNL A   1      33.966  23.298  27.902  1.00  0.00     0.163 HD
BRANCH   4   7
ATOM      7  C   UNL A   1      32.218  23.515  25.017  1.00  0.00     0.108 C 
ATOM      8  C   UNL A   1      30.877  24.216  24.763  1.00  0.00     0.023 C 
BRANCH   7   9
ATOM      9  C   UNL A   1      32.251  22.073  24.505  1.00  0.00    -0.000 A 
ATOM     10  C   UNL A   1      32.117  20.961  25.349  1.00  0.00     0.008 A 
ATOM     11  C   UNL A   1      32.404  21.820  23.135  1.00  0.00     0.127 A 
ATOM     12  C   UNL A   1      32.157  19.661  24.842  1.00  0.00     0.004 A 
ATOM     13  C   UNL A   1      32.494  20.520  22.627  1.00  0.00     0.043 A 
ATOM     14  F   UNL A   1      32.452  22.845  22.269  1.00  0.00    -0.207 F 
ATOM     15  C   UNL A   1      32.385  19.416  23.482  1.00  0.00    -0.041 A 
BRANCH  15  16
ATOM     16  C   UNL A   1      32.446  18.004  22.949  1.00  0.00     0.074 C 
BRANCH  16  17
ATOM     17  C   UNL A   1      33.433  17.235  23.768  1.00  0.00    -0.005 A 
ATOM     18  C   UNL A   1      34.712  17.652  24.252  1.00  0.00     0.046 A 
ATOM     19  C   UNL A   1      33.258  15.968  24.294  1.00  0.00     0.198 A 
ATOM     20  C   UNL A   1      35.217  16.612  24.995  1.00  0.00     0.195 A 
ATOM     21  O   UNL A   1      34.330  15.589  25.036  1.00  0.00    -0.472 OA
ENDBRANCH  16  17
ENDBRANCH  15  16
ENDBRANCH   7   9
ENDBRANCH   4   7
ENDBRANCH   2   3
ENDBRANCH   1   2
BRANCH   1  22
ATOM     22  C   UNL A   1      36.680  21.673  25.027  1.00  0.00     0.118 C 
BRANCH  22  23
ATOM     23  N   UNL A   1      37.635  20.648  25.407  1.00  0.00    -0.352 N 
ATOM     24  C   UNL A   1      38.946  20.767  25.789  1.00  0.00     0.251 C 
ATOM     25  H   UNL A   1      37.288  19.727  25.389  1.00  0.00     0.163 HD
ATOM     26  O   UNL A   1      39.633  19.743  25.859  1.00  0.00    -0.269 OA
BRANCH  24  27
ATOM     27  C   UNL A   1      39.549  22.085  26.099  1.00  0.00     0.039 A 
ATOM     28  C   UNL A   1      40.809  22.116  26.703  1.00  0.00     0.014 A 
ATOM     29  C   UNL A   1      38.865  23.283  25.867  1.00  0.00     0.014 A 
ATOM     30  C   UNL A   1      41.388  23.339  27.054  1.00  0.00     0.010 A 
ATOM     31  C   UNL A   1      39.476  24.506  26.146  1.00  0.00     0.010 A 
ATOM     32  C   UNL A   1      40.733  24.547  26.769  1.00  0.00    -0.014 A 
BRANCH  32  33
ATOM     33  C   UNL A   1      41.320  25.849  27.182  1.00  0.00     0.031 A 
ATOM     34  C   UNL A   1      42.703  26.230  26.721  1.00  0.00     0.074 A 
ATOM     35  C   UNL A   1      40.627  26.675  27.990  1.00  0.00     0.049 A 
ATOM     36  N   UNL A   1      43.409  27.297  27.000  1.00  0.00    -0.248 NA
ATOM     37  C   UNL A   1      43.396  25.263  25.857  1.00  0.00     0.031 C 
ATOM     38  C   UNL A   1      39.298  26.401  28.539  1.00  0.00     0.029 A 
ATOM     39  N   UNL A   1      40.946  27.912  28.493  1.00  0.00    -0.354 N 
ATOM     40  C   UNL A   1      44.630  27.124  26.356  1.00  0.00     0.074 A 
ATOM     41  C   UNL A   1      44.593  25.815  25.739  1.00  0.00     0.031 C 
ATOM     42  C   UNL A   1      38.908  27.446  29.285  1.00  0.00     0.029 A 
ATOM     43  C   UNL A   1      39.968  28.450  29.296  1.00  0.00     0.049 A 
ATOM     44  H   UNL A   1      41.794  28.372  28.296  1.00  0.00     0.167 HD
ATOM     45  C   UNL A   1      45.674  27.986  26.259  1.00  0.00     0.034 A 
ATOM     46  C   UNL A   1      39.930  29.619  29.967  1.00  0.00     0.034 A 
ATOM     47  C   UNL A   1      45.693  29.292  26.874  1.00  0.00     0.049 A 
ATOM     48  C   UNL A   1      41.093  30.569  29.840  1.00  0.00     0.074 A 
ATOM     49  C   UNL A   1      46.684  30.257  26.828  1.00  0.00     0.029 A 
ATOM     50  N   UNL A   1      44.667  29.818  27.652  1.00  0.00    -0.354 N 
ATOM     51  N   UNL A   1      42.227  30.408  29.195  1.00  0.00    -0.248 NA
ATOM     52  C   UNL A   1      40.960  31.869  30.508  1.00  0.00     0.031 C 
ATOM     53  C   UNL A   1      46.281  31.341  27.619  1.00  0.00     0.029 A 
ATOM     54  C   UNL A   1      45.007  31.086  28.099  1.00  0.00     0.049 A 
ATOM     55  H   UNL A   1      43.821  29.356  27.855  1.00  0.00     0.167 HD
ATOM     56  C   UNL A   1      42.926  31.600  29.355  1.00  0.00     0.074 A 
ATOM     57  C   UNL A   1      42.079  32.475  30.142  1.00  0.00     0.031 C 
ATOM     58  C   UNL A   1      44.154  31.945  28.889  1.00  0.00     0.034 A 
BRANCH  45  59
ATOM     59  C   UNL A   1      46.881  27.521  25.475  1.00  0.00     0.023 A 
ATOM     60  C   UNL A   1      47.128  27.977  24.167  1.00  0.00     0.031 A 
ATOM     61  C   UNL A   1      47.765  26.569  26.012  1.00  0.00     0.131 A 
ATOM     62  C   UNL A   1      48.165  27.412  23.409  1.00  0.00     0.055 A 
ATOM     63  C   UNL A   1      48.852  26.079  25.285  1.00  0.00     0.041 A 
ATOM     64  F   UNL A   1      47.575  26.079  27.248  1.00  0.00    -0.206 F 
ATOM     65  C   UNL A   1      49.045  26.484  23.968  1.00  0.00     0.022 A 
BRANCH  62  66
ATOM     66  S   UNL A   1      48.236  27.779  21.634  1.00  0.00     0.124 S 
ATOM     67  O   UNL A   1      46.900  28.321  21.392  1.00  0.00    -0.237 OA
ATOM     68  O   UNL A   1      49.336  28.732  21.551  1.00  0.00    -0.237 OA
ATOM     69  O   UNL A   1      48.490  26.476  21.024  1.00  0.00    -0.744 OA
ENDBRANCH  62  66
ENDBRANCH  45  59
BRANCH  46  70
ATOM     70  C   UNL A   1      38.752  29.960  30.813  1.00  0.00     0.023 A 
ATOM     71  C   UNL A   1      37.714  30.769  30.325  1.00  0.00     0.031 A 
ATOM     72  C   UNL A   1      38.660  29.496  32.138  1.00  0.00     0.131 A 
ATOM     73  C   UNL A   1      36.652  31.129  31.169  1.00  0.00     0.055 A 
ATOM     74  C   UNL A   1      37.577  29.815  32.957  1.00  0.00     0.041 A 
ATOM     75  F   UNL A   1      39.620  28.708  32.649  1.00  0.00    -0.206 F 
ATOM     76  C   UNL A   1      36.570  30.647  32.478  1.00  0.00     0.022 A 
BRANCH  73  77
ATOM     77  S   UNL A   1      35.406  32.293  30.551  1.00  0.00     0.124 S 
ATOM     78  O   UNL A   1      36.183  33.520  30.421  1.00  0.00    -0.237 OA
ATOM     79  O   UNL A   1      34.991  31.660  29.303  1.00  0.00    -0.237 OA
ATOM     80  O   UNL A   1      34.396  32.303  31.607  1.00  0.00    -0.744 OA
ENDBRANCH  73  77
ENDBRANCH  46  70
BRANCH  58  81
ATOM     81  C   UNL A   1      44.626  33.351  29.176  1.00  0.00     0.023 A 
ATOM     82  C   UNL A   1      44.273  34.436  28.355  1.00  0.00     0.031 A 
ATOM     83  C   UNL A   1      45.464  33.601  30.278  1.00  0.00     0.131 A 
ATOM     84  C   UNL A   1      44.809  35.708  28.608  1.00  0.00     0.055 A 
ATOM     85  C   UNL A   1      45.943  34.880  30.561  1.00  0.00     0.041 A 
ATOM     86  F   UNL A   1      45.834  32.603  31.095  1.00  0.00    -0.206 F 
ATOM     87  C   UNL A   1      45.629  35.940  29.715  1.00  0.00     0.022 A 
BRANCH  84  88
ATOM     88  S   UNL A   1      44.509  37.034  27.408  1.00  0.00     0.124 S 
ATOM     89  O   UNL A   1      45.776  37.085  26.686  1.00  0.00    -0.237 OA
ATOM     90  O   UNL A   1      43.368  36.522  26.656  1.00  0.00    -0.237 OA
ATOM     91  O   UNL A   1      44.226  38.198  28.246  1.00  0.00    -0.744 OA
ENDBRANCH  84  88
ENDBRANCH  58  81
ENDBRANCH  32  33
ENDBRANCH  24  27
ENDBRANCH  22  23
ENDBRANCH   1  22
TORSDOF 16
ENDMDL
