MODEL 1
REMARK VINA RESULT:     -11.8      0.000      0.000
REMARK SMILES CC(C)(C)OC(=O)N1CCC[C@H]1C(=O)N1CCC[C@H]1C(=O)N1CCC[C@@H]1C(=O)NCCCNC(=O)c1ccc(-c2c3nc(c(-c4cc(S(=O)(=O)[O-])ccc4F)c4ccc([nH]4)c(-c4cc(S(=O)(=O)[O-])ccc4F)c4nc(c(-c5cc(S(=O)(=O)[O-])ccc5F)c5ccc2[nH]5)C=C4)C=C3)cc1
REMARK SMILES IDX 27 1 28 2 29 3 26 5 22 6 23 7 24 8 25 9 20 10 21 11 19 12
REMARK SMILES IDX 15 13 16 14 17 15 18 16 13 17 14 18 12 19 8 20 9 21 10 22
REMARK SMILES IDX 11 23 6 24 7 25 5 26 2 27 1 28 3 29 4 30 30 31 31 32 32 33
REMARK SMILES IDX 33 34 34 35 35 37 36 38 37 39 98 40 38 41 97 42 39 43 40 44
REMARK SMILES IDX 41 45 91 46 42 47 96 48 90 49 92 50 43 51 95 52 89 53 88 54
REMARK SMILES IDX 44 56 76 57 56 58 75 59 57 60 60 61 74 62 93 63 58 64 59 65
REMARK SMILES IDX 73 67 94 68 61 69 45 70 46 71 54 72 47 73 53 74 55 75 52 76
REMARK SMILES IDX 48 77 49 78 50 79 51 80 77 81 78 82 86 83 79 84 85 85 87 86
REMARK SMILES IDX 84 87 80 88 81 89 82 90 83 91 62 92 63 93 71 94 64 95 70 96
REMARK SMILES IDX 72 97 69 98 65 99 66 100 67 101 68 102
REMARK H PARENT 29 4 33 36 92 55 60 66
REMARK Flexibility Score: inf
ROOT
ATOM      1  C   UNL A   1      32.574  29.160  24.785  1.00  0.00     0.242 C 
ATOM      2  O   UNL A   1      33.340  28.760  23.900  1.00  0.00    -0.273 OA
ATOM      3  N   UNL A   1      33.136  29.671  25.919  1.00  0.00    -0.354 N 
ATOM      4  H   UNL A   1      34.120  29.722  25.902  1.00  0.00     0.163 HD
ENDROOT
BRANCH   1   5
ATOM      5  C   UNL A   1      31.059  28.863  24.681  1.00  0.00     0.174 C 
ATOM      6  N   UNL A   1      30.715  27.446  24.682  1.00  0.00    -0.329 N 
ATOM      7  C   UNL A   1      29.851  27.098  23.569  1.00  0.00     0.120 C 
ATOM      8  C   UNL A   1      30.085  28.190  22.539  1.00  0.00     0.024 C 
ATOM      9  C   UNL A   1      30.502  29.411  23.359  1.00  0.00     0.037 C 
BRANCH   6  10
ATOM     10  C   UNL A   1      30.966  26.665  25.798  1.00  0.00     0.246 C 
ATOM     11  O   UNL A   1      31.056  27.137  26.930  1.00  0.00    -0.272 OA
BRANCH  10  12
ATOM     12  C   UNL A   1      31.175  25.160  25.501  1.00  0.00     0.174 C 
ATOM     13  N   UNL A   1      32.514  24.624  25.820  1.00  0.00    -0.329 N 
ATOM     14  C   UNL A   1      32.425  23.660  26.894  1.00  0.00     0.120 C 
ATOM     15  C   UNL A   1      31.009  23.128  26.807  1.00  0.00     0.024 C 
ATOM     16  C   UNL A   1      30.196  24.326  26.340  1.00  0.00     0.037 C 
BRANCH  13  17
ATOM     17  C   UNL A   1      33.664  25.129  25.219  1.00  0.00     0.246 C 
ATOM     18  O   UNL A   1      34.290  26.038  25.766  1.00  0.00    -0.272 OA
BRANCH  17  19
ATOM     19  C   UNL A   1      34.022  24.693  23.759  1.00  0.00     0.178 C 
ATOM     20  N   UNL A   1      33.666  23.299  23.406  1.00  0.00    -0.296 N 
ATOM     21  C   UNL A   1      32.753  23.245  22.285  1.00  0.00     0.124 C 
ATOM     22  C   UNL A   1      33.088  24.509  21.528  1.00  0.00     0.024 C 
ATOM     23  C   UNL A   1      33.347  25.507  22.650  1.00  0.00     0.037 C 
BRANCH  20  24
ATOM     24  C   UNL A   1      34.390  22.215  23.854  1.00  0.00     0.410 C 
ATOM     25  O   UNL A   1      33.872  21.172  24.231  1.00  0.00    -0.224 OA
BRANCH  24  26
ATOM     26  O   UNL A   1      35.726  22.484  23.919  1.00  0.00    -0.444 OA
BRANCH  26  27
ATOM     27  C   UNL A   1      36.462  22.403  25.171  1.00  0.00     0.106 C 
ATOM     28  C   UNL A   1      37.517  21.303  24.982  1.00  0.00     0.056 C 
ATOM     29  C   UNL A   1      35.526  22.014  26.317  1.00  0.00     0.056 C 
ATOM     30  C   UNL A   1      37.220  23.695  25.464  1.00  0.00     0.056 C 
ENDBRANCH  26  27
ENDBRANCH  24  26
ENDBRANCH  20  24
ENDBRANCH  17  19
ENDBRANCH  13  17
ENDBRANCH  10  12
ENDBRANCH   6  10
ENDBRANCH   1   5
BRANCH   3  31
ATOM     31  C   UNL A   1      32.534  30.152  27.143  1.00  0.00     0.117 C 
BRANCH  31  32
ATOM     32  C   UNL A   1      33.339  31.254  27.811  1.00  0.00     0.042 C 
BRANCH  32  33
ATOM     33  C   UNL A   1      33.457  32.480  26.929  1.00  0.00     0.118 C 
BRANCH  33  34
ATOM     34  N   UNL A   1      32.879  33.663  27.551  1.00  0.00    -0.352 N 
ATOM     35  C   UNL A   1      33.251  34.372  28.662  1.00  0.00     0.251 C 
ATOM     36  H   UNL A   1      32.083  34.015  27.093  1.00  0.00     0.163 HD
ATOM     37  O   UNL A   1      32.560  35.335  28.995  1.00  0.00    -0.269 OA
BRANCH  35  38
ATOM     38  C   UNL A   1      34.453  34.012  29.455  1.00  0.00     0.039 A 
ATOM     39  C   UNL A   1      34.255  33.424  30.709  1.00  0.00     0.014 A 
ATOM     40  C   UNL A   1      35.758  34.291  29.028  1.00  0.00     0.014 A 
ATOM     41  C   UNL A   1      35.350  33.031  31.478  1.00  0.00     0.010 A 
ATOM     42  C   UNL A   1      36.849  33.864  29.763  1.00  0.00     0.010 A 
ATOM     43  C   UNL A   1      36.645  33.204  30.974  1.00  0.00    -0.014 A 
BRANCH  43  44
ATOM     44  C   UNL A   1      37.806  32.548  31.594  1.00  0.00     0.031 A 
ATOM     45  C   UNL A   1      38.457  31.371  30.945  1.00  0.00     0.074 A 
ATOM     46  C   UNL A   1      38.123  32.950  32.839  1.00  0.00     0.049 A 
ATOM     47  N   UNL A   1      39.448  30.642  31.379  1.00  0.00    -0.248 NA
ATOM     48  C   UNL A   1      37.900  30.937  29.655  1.00  0.00     0.031 C 
ATOM     49  C   UNL A   1      37.441  34.023  33.573  1.00  0.00     0.029 A 
ATOM     50  N   UNL A   1      39.058  32.488  33.720  1.00  0.00    -0.354 N 
ATOM     51  C   UNL A   1      39.653  29.670  30.408  1.00  0.00     0.074 A 
ATOM     52  C   UNL A   1      38.638  29.867  29.394  1.00  0.00     0.031 C 
ATOM     53  C   UNL A   1      37.979  34.131  34.796  1.00  0.00     0.029 A 
ATOM     54  C   UNL A   1      39.025  33.128  34.936  1.00  0.00     0.049 A 
ATOM     55  H   UNL A   1      39.695  31.768  33.505  1.00  0.00     0.167 HD
ATOM     56  C   UNL A   1      40.620  28.721  30.373  1.00  0.00     0.034 A 
ATOM     57  C   UNL A   1      39.759  32.919  36.041  1.00  0.00     0.034 A 
ATOM     58  C   UNL A   1      41.582  28.546  31.437  1.00  0.00     0.049 A 
ATOM     59  C   UNL A   1      40.831  31.870  35.976  1.00  0.00     0.074 A 
ATOM     60  C   UNL A   1      42.656  27.676  31.502  1.00  0.00     0.029 A 
ATOM     61  N   UNL A   1      41.567  29.246  32.640  1.00  0.00    -0.354 N 
ATOM     62  N   UNL A   1      41.106  31.035  34.998  1.00  0.00    -0.248 NA
ATOM     63  C   UNL A   1      41.712  31.758  37.140  1.00  0.00     0.031 C 
ATOM     64  C   UNL A   1      43.248  27.804  32.765  1.00  0.00     0.029 A 
ATOM     65  C   UNL A   1      42.591  28.806  33.465  1.00  0.00     0.049 A 
ATOM     66  H   UNL A   1      40.922  29.953  32.873  1.00  0.00     0.167 HD
ATOM     67  C   UNL A   1      42.216  30.315  35.418  1.00  0.00     0.074 A 
ATOM     68  C   UNL A   1      42.565  30.829  36.730  1.00  0.00     0.031 C 
ATOM     69  C   UNL A   1      42.893  29.325  34.780  1.00  0.00     0.034 A 
BRANCH  56  70
ATOM     70  C   UNL A   1      40.664  27.810  29.169  1.00  0.00     0.023 A 
ATOM     71  C   UNL A   1      41.584  28.016  28.123  1.00  0.00     0.031 A 
ATOM     72  C   UNL A   1      39.771  26.730  29.049  1.00  0.00     0.131 A 
ATOM     73  C   UNL A   1      41.546  27.203  26.980  1.00  0.00     0.055 A 
ATOM     74  C   UNL A   1      39.789  25.877  27.943  1.00  0.00     0.041 A 
ATOM     75  F   UNL A   1      38.855  26.492  30.001  1.00  0.00    -0.206 F 
ATOM     76  C   UNL A   1      40.671  26.120  26.892  1.00  0.00     0.022 A 
BRANCH  73  77
ATOM     77  S   UNL A   1      42.573  27.659  25.556  1.00  0.00     0.124 S 
ATOM     78  O   UNL A   1      41.866  28.831  25.043  1.00  0.00    -0.237 OA
ATOM     79  O   UNL A   1      43.871  27.916  26.171  1.00  0.00    -0.237 OA
ATOM     80  O   UNL A   1      42.512  26.480  24.695  1.00  0.00    -0.744 OA
ENDBRANCH  73  77
ENDBRANCH  56  70
BRANCH  57  81
ATOM     81  C   UNL A   1      39.530  33.746  37.254  1.00  0.00     0.023 A 
ATOM     82  C   UNL A   1      38.773  33.253  38.326  1.00  0.00     0.031 A 
ATOM     83  C   UNL A   1      40.089  35.031  37.374  1.00  0.00     0.131 A 
ATOM     84  C   UNL A   1      38.561  34.053  39.459  1.00  0.00     0.055 A 
ATOM     85  C   UNL A   1      39.912  35.807  38.521  1.00  0.00     0.041 A 
ATOM     86  F   UNL A   1      40.844  35.538  36.386  1.00  0.00    -0.206 F 
ATOM     87  C   UNL A   1      39.134  35.321  39.569  1.00  0.00     0.022 A 
BRANCH  84  88
ATOM     88  S   UNL A   1      37.475  33.426  40.768  1.00  0.00     0.124 S 
ATOM     89  O   UNL A   1      37.138  34.648  41.488  1.00  0.00    -0.237 OA
ATOM     90  O   UNL A   1      36.397  32.814  39.998  1.00  0.00    -0.237 OA
ATOM     91  O   UNL A   1      38.328  32.488  41.496  1.00  0.00    -0.744 OA
ENDBRANCH  84  88
ENDBRANCH  57  81
BRANCH  69  92
ATOM     92  C   UNL A   1      44.092  28.770  35.503  1.00  0.00     0.023 A 
ATOM     93  C   UNL A   1      43.974  27.697  36.402  1.00  0.00     0.031 A 
ATOM     94  C   UNL A   1      45.360  29.349  35.318  1.00  0.00     0.131 A 
ATOM     95  C   UNL A   1      45.092  27.280  37.137  1.00  0.00     0.055 A 
ATOM     96  C   UNL A   1      46.482  28.885  36.003  1.00  0.00     0.041 A 
ATOM     97  F   UNL A   1      45.524  30.379  34.474  1.00  0.00    -0.206 F 
ATOM     98  C   UNL A   1      46.349  27.855  36.931  1.00  0.00     0.022 A 
BRANCH  95  99
ATOM     99  S   UNL A   1      44.857  26.047  38.445  1.00  0.00     0.124 S 
ATOM    100  O   UNL A   1      44.376  24.894  37.690  1.00  0.00    -0.237 OA
ATOM    101  O   UNL A   1      46.198  25.927  39.007  1.00  0.00    -0.237 OA
ATOM    102  O   UNL A   1      43.868  26.667  39.326  1.00  0.00    -0.744 OA
ENDBRANCH  95  99
ENDBRANCH  69  92
ENDBRANCH  43  44
ENDBRANCH  35  38
ENDBRANCH  33  34
ENDBRANCH  32  33
ENDBRANCH  31  32
ENDBRANCH   3  31
TORSDOF 20
ENDMDL
MODEL 2
REMARK VINA RESULT:     -11.5      2.328      7.637
REMARK SMILES CC(C)(C)OC(=O)N1CCC[C@H]1C(=O)N1CCC[C@H]1C(=O)N1CCC[C@@H]1C(=O)NCCCNC(=O)c1ccc(-c2c3nc(c(-c4cc(S(=O)(=O)[O-])ccc4F)c4ccc([nH]4)c(-c4cc(S(=O)(=O)[O-])ccc4F)c4nc(c(-c5cc(S(=O)(=O)[O-])ccc5F)c5ccc2[nH]5)C=C4)C=C3)cc1
REMARK SMILES IDX 27 1 28 2 29 3 26 5 22 6 23 7 24 8 25 9 20 10 21 11 19 12
REMARK SMILES IDX 15 13 16 14 17 15 18 16 13 17 14 18 12 19 8 20 9 21 10 22
REMARK SMILES IDX 11 23 6 24 7 25 5 26 2 27 1 28 3 29 4 30 30 31 31 32 32 33
REMARK SMILES IDX 33 34 34 35 35 37 36 38 37 39 98 40 38 41 97 42 39 43 40 44
REMARK SMILES IDX 41 45 91 46 42 47 96 48 90 49 92 50 43 51 95 52 89 53 88 54
REMARK SMILES IDX 44 56 76 57 56 58 75 59 57 60 60 61 74 62 93 63 58 64 59 65
REMARK SMILES IDX 73 67 94 68 61 69 45 70 46 71 54 72 47 73 53 74 55 75 52 76
REMARK SMILES IDX 48 77 49 78 50 79 51 80 77 81 78 82 86 83 79 84 85 85 87 86
REMARK SMILES IDX 84 87 80 88 81 89 82 90 83 91 62 92 63 93 71 94 64 95 70 96
REMARK SMILES IDX 72 97 69 98 65 99 66 100 67 101 68 102
REMARK H PARENT 29 4 33 36 92 55 60 66
REMARK Flexibility Score: inf
ROOT
ATOM      1  C   UNL A   1      33.119  28.905  23.469  1.00  0.00     0.242 C 
ATOM      2  O   UNL A   1      33.588  29.163  22.353  1.00  0.00    -0.273 OA
ATOM      3  N   UNL A   1      32.045  29.637  23.884  1.00  0.00    -0.354 N 
ATOM      4  H   UNL A   1      31.705  30.280  23.219  1.00  0.00     0.163 HD
ENDROOT
BRANCH   1   5
ATOM      5  C   UNL A   1      33.885  27.955  24.422  1.00  0.00     0.174 C 
ATOM      6  N   UNL A   1      33.195  26.707  24.720  1.00  0.00    -0.329 N 
ATOM      7  C   UNL A   1      33.111  26.463  26.148  1.00  0.00     0.120 C 
ATOM      8  C   UNL A   1      33.269  27.832  26.786  1.00  0.00     0.024 C 
ATOM      9  C   UNL A   1      34.100  28.632  25.783  1.00  0.00     0.037 C 
BRANCH   6  10
ATOM     10  C   UNL A   1      32.952  25.783  23.717  1.00  0.00     0.246 C 
ATOM     11  O   UNL A   1      33.838  25.362  22.976  1.00  0.00    -0.272 OA
BRANCH  10  12
ATOM     12  C   UNL A   1      31.470  25.361  23.570  1.00  0.00     0.174 C 
ATOM     13  N   UNL A   1      30.843  24.792  24.781  1.00  0.00    -0.329 N 
ATOM     14  C   UNL A   1      29.797  25.666  25.262  1.00  0.00     0.120 C 
ATOM     15  C   UNL A   1      29.344  26.425  24.031  1.00  0.00     0.024 C 
ATOM     16  C   UNL A   1      30.616  26.586  23.212  1.00  0.00     0.037 C 
BRANCH  13  17
ATOM     17  C   UNL A   1      31.340  23.642  25.389  1.00  0.00     0.246 C 
ATOM     18  O   UNL A   1      31.140  23.449  26.588  1.00  0.00    -0.272 OA
BRANCH  17  19
ATOM     19  C   UNL A   1      32.332  22.725  24.597  1.00  0.00     0.178 C 
ATOM     20  N   UNL A   1      33.071  21.734  25.414  1.00  0.00    -0.296 N 
ATOM     21  C   UNL A   1      32.814  20.379  24.976  1.00  0.00     0.124 C 
ATOM     22  C   UNL A   1      32.495  20.562  23.511  1.00  0.00     0.024 C 
ATOM     23  C   UNL A   1      31.693  21.858  23.507  1.00  0.00     0.037 C 
BRANCH  20  24
ATOM     24  C   UNL A   1      34.125  22.086  26.229  1.00  0.00     0.410 C 
ATOM     25  O   UNL A   1      34.233  21.707  27.387  1.00  0.00    -0.224 OA
BRANCH  24  26
ATOM     26  O   UNL A   1      34.963  22.977  25.625  1.00  0.00    -0.444 OA
BRANCH  26  27
ATOM     27  C   UNL A   1      36.222  22.559  25.028  1.00  0.00     0.106 C 
ATOM     28  C   UNL A   1      36.102  22.837  23.523  1.00  0.00     0.056 C 
ATOM     29  C   UNL A   1      36.446  21.061  25.250  1.00  0.00     0.056 C 
ATOM     30  C   UNL A   1      37.394  23.394  25.539  1.00  0.00     0.056 C 
ENDBRANCH  26  27
ENDBRANCH  24  26
ENDBRANCH  20  24
ENDBRANCH  17  19
ENDBRANCH  13  17
ENDBRANCH  10  12
ENDBRANCH   6  10
ENDBRANCH   1   5
BRANCH   3  31
ATOM     31  C   UNL A   1      31.318  29.632  25.135  1.00  0.00     0.117 C 
BRANCH  31  32
ATOM     32  C   UNL A   1      31.168  31.015  25.744  1.00  0.00     0.042 C 
BRANCH  32  33
ATOM     33  C   UNL A   1      32.138  31.236  26.887  1.00  0.00     0.118 C 
BRANCH  33  34
ATOM     34  N   UNL A   1      32.395  32.650  27.123  1.00  0.00    -0.352 N 
ATOM     35  C   UNL A   1      33.457  33.291  27.702  1.00  0.00     0.251 C 
ATOM     36  H   UNL A   1      31.680  33.251  26.810  1.00  0.00     0.163 HD
ATOM     37  O   UNL A   1      33.411  34.517  27.806  1.00  0.00    -0.269 OA
BRANCH  35  38
ATOM     38  C   UNL A   1      34.646  32.550  28.194  1.00  0.00     0.039 A 
ATOM     39  C   UNL A   1      35.877  33.216  28.193  1.00  0.00     0.014 A 
ATOM     40  C   UNL A   1      34.594  31.209  28.595  1.00  0.00     0.014 A 
ATOM     41  C   UNL A   1      37.017  32.579  28.680  1.00  0.00     0.010 A 
ATOM     42  C   UNL A   1      35.710  30.585  29.123  1.00  0.00     0.010 A 
ATOM     43  C   UNL A   1      36.916  31.281  29.195  1.00  0.00    -0.014 A 
BRANCH  43  44
ATOM     44  C   UNL A   1      38.001  30.680  29.985  1.00  0.00     0.031 A 
ATOM     45  C   UNL A   1      38.273  31.134  31.382  1.00  0.00     0.074 A 
ATOM     46  C   UNL A   1      38.827  29.847  29.326  1.00  0.00     0.049 A 
ATOM     47  N   UNL A   1      39.219  30.754  32.196  1.00  0.00    -0.248 NA
ATOM     48  C   UNL A   1      37.384  32.173  31.923  1.00  0.00     0.031 C 
ATOM     49  C   UNL A   1      38.676  29.457  27.918  1.00  0.00     0.029 A 
ATOM     50  N   UNL A   1      39.969  29.213  29.725  1.00  0.00    -0.354 N 
ATOM     51  C   UNL A   1      39.034  31.491  33.358  1.00  0.00     0.074 A 
ATOM     52  C   UNL A   1      37.922  32.387  33.116  1.00  0.00     0.031 C 
ATOM     53  C   UNL A   1      39.693  28.656  27.572  1.00  0.00     0.029 A 
ATOM     54  C   UNL A   1      40.571  28.492  28.722  1.00  0.00     0.049 A 
ATOM     55  H   UNL A   1      40.324  29.267  30.641  1.00  0.00     0.167 HD
ATOM     56  C   UNL A   1      39.726  31.399  34.520  1.00  0.00     0.034 A 
ATOM     57  C   UNL A   1      41.710  27.782  28.735  1.00  0.00     0.034 A 
ATOM     58  C   UNL A   1      40.856  30.514  34.689  1.00  0.00     0.049 A 
ATOM     59  C   UNL A   1      42.455  27.685  30.036  1.00  0.00     0.074 A 
ATOM     60  C   UNL A   1      41.602  30.267  35.827  1.00  0.00     0.029 A 
ATOM     61  N   UNL A   1      41.417  29.745  33.673  1.00  0.00    -0.354 N 
ATOM     62  N   UNL A   1      42.199  28.287  31.176  1.00  0.00    -0.248 NA
ATOM     63  C   UNL A   1      43.614  26.791  30.065  1.00  0.00     0.031 C 
ATOM     64  C   UNL A   1      42.649  29.403  35.485  1.00  0.00     0.029 A 
ATOM     65  C   UNL A   1      42.517  29.049  34.150  1.00  0.00     0.049 A 
ATOM     66  H   UNL A   1      41.080  29.701  32.749  1.00  0.00     0.167 HD
ATOM     67  C   UNL A   1      43.151  27.820  32.072  1.00  0.00     0.074 A 
ATOM     68  C   UNL A   1      43.973  26.874  31.338  1.00  0.00     0.031 C 
ATOM     69  C   UNL A   1      43.330  28.133  33.381  1.00  0.00     0.034 A 
BRANCH  56  70
ATOM     70  C   UNL A   1      39.290  32.281  35.667  1.00  0.00     0.023 A 
ATOM     71  C   UNL A   1      39.788  33.589  35.818  1.00  0.00     0.031 A 
ATOM     72  C   UNL A   1      38.380  31.813  36.631  1.00  0.00     0.131 A 
ATOM     73  C   UNL A   1      39.428  34.356  36.938  1.00  0.00     0.055 A 
ATOM     74  C   UNL A   1      37.967  32.608  37.703  1.00  0.00     0.041 A 
ATOM     75  F   UNL A   1      37.886  30.567  36.557  1.00  0.00    -0.206 F 
ATOM     76  C   UNL A   1      38.502  33.883  37.869  1.00  0.00     0.022 A 
BRANCH  73  77
ATOM     77  S   UNL A   1      40.284  35.929  37.224  1.00  0.00     0.124 S 
ATOM     78  O   UNL A   1      39.753  36.757  36.143  1.00  0.00    -0.237 OA
ATOM     79  O   UNL A   1      39.851  36.284  38.571  1.00  0.00    -0.237 OA
ATOM     80  O   UNL A   1      41.697  35.581  37.094  1.00  0.00    -0.744 OA
ENDBRANCH  73  77
ENDBRANCH  56  70
BRANCH  57  81
ATOM     81  C   UNL A   1      42.168  27.085  27.505  1.00  0.00     0.023 A 
ATOM     82  C   UNL A   1      42.024  25.697  27.372  1.00  0.00     0.031 A 
ATOM     83  C   UNL A   1      42.727  27.798  26.430  1.00  0.00     0.131 A 
ATOM     84  C   UNL A   1      42.470  25.056  26.206  1.00  0.00     0.055 A 
ATOM     85  C   UNL A   1      43.131  27.163  25.255  1.00  0.00     0.041 A 
ATOM     86  F   UNL A   1      42.862  29.133  26.497  1.00  0.00    -0.206 F 
ATOM     87  C   UNL A   1      43.012  25.780  25.143  1.00  0.00     0.022 A 
BRANCH  84  88
ATOM     88  S   UNL A   1      42.380  23.247  26.127  1.00  0.00     0.124 S 
ATOM     89  O   UNL A   1      43.287  22.854  27.198  1.00  0.00    -0.237 OA
ATOM     90  O   UNL A   1      40.961  23.005  26.365  1.00  0.00    -0.237 OA
ATOM     91  O   UNL A   1      42.843  22.944  24.774  1.00  0.00    -0.744 OA
ENDBRANCH  84  88
ENDBRANCH  57  81
BRANCH  69  92
ATOM     92  C   UNL A   1      44.447  27.412  34.088  1.00  0.00     0.023 A 
ATOM     93  C   UNL A   1      44.225  26.203  34.770  1.00  0.00     0.031 A 
ATOM     94  C   UNL A   1      45.740  27.962  34.111  1.00  0.00     0.131 A 
ATOM     95  C   UNL A   1      45.264  25.620  35.506  1.00  0.00     0.055 A 
ATOM     96  C   UNL A   1      46.787  27.341  34.790  1.00  0.00     0.041 A 
ATOM     97  F   UNL A   1      46.003  29.117  33.479  1.00  0.00    -0.206 F 
ATOM     98  C   UNL A   1      46.549  26.171  35.507  1.00  0.00     0.022 A 
BRANCH  95  99
ATOM     99  S   UNL A   1      44.886  24.188  36.551  1.00  0.00     0.124 S 
ATOM    100  O   UNL A   1      44.114  23.346  35.642  1.00  0.00    -0.237 OA
ATOM    101  O   UNL A   1      46.214  23.697  36.902  1.00  0.00    -0.237 OA
ATOM    102  O   UNL A   1      44.126  24.764  37.659  1.00  0.00    -0.744 OA
ENDBRANCH  95  99
ENDBRANCH  69  92
ENDBRANCH  43  44
ENDBRANCH  35  38
ENDBRANCH  33  34
ENDBRANCH  32  33
ENDBRANCH  31  32
ENDBRANCH   3  31
TORSDOF 20
ENDMDL
MODEL 3
REMARK VINA RESULT:     -11.4      2.281      7.599
REMARK SMILES CC(C)(C)OC(=O)N1CCC[C@H]1C(=O)N1CCC[C@H]1C(=O)N1CCC[C@@H]1C(=O)NCCCNC(=O)c1ccc(-c2c3nc(c(-c4cc(S(=O)(=O)[O-])ccc4F)c4ccc([nH]4)c(-c4cc(S(=O)(=O)[O-])ccc4F)c4nc(c(-c5cc(S(=O)(=O)[O-])ccc5F)c5ccc2[nH]5)C=C4)C=C3)cc1
REMARK SMILES IDX 27 1 28 2 29 3 26 5 22 6 23 7 24 8 25 9 20 10 21 11 19 12
REMARK SMILES IDX 15 13 16 14 17 15 18 16 13 17 14 18 12 19 8 20 9 21 10 22
REMARK SMILES IDX 11 23 6 24 7 25 5 26 2 27 1 28 3 29 4 30 30 31 31 32 32 33
REMARK SMILES IDX 33 34 34 35 35 37 36 38 37 39 98 40 38 41 97 42 39 43 40 44
REMARK SMILES IDX 41 45 91 46 42 47 96 48 90 49 92 50 43 51 95 52 89 53 88 54
REMARK SMILES IDX 44 56 76 57 56 58 75 59 57 60 60 61 74 62 93 63 58 64 59 65
REMARK SMILES IDX 73 67 94 68 61 69 45 70 46 71 54 72 47 73 53 74 55 75 52 76
REMARK SMILES IDX 48 77 49 78 50 79 51 80 77 81 78 82 86 83 79 84 85 85 87 86
REMARK SMILES IDX 84 87 80 88 81 89 82 90 83 91 62 92 63 93 71 94 64 95 70 96
REMARK SMILES IDX 72 97 69 98 65 99 66 100 67 101 68 102
REMARK H PARENT 29 4 33 36 92 55 60 66
REMARK Flexibility Score: inf
ROOT
ATOM      1  C   UNL A   1      32.373  29.412  24.800  1.00  0.00     0.242 C 
ATOM      2  O   UNL A   1      33.248  29.188  23.953  1.00  0.00    -0.273 OA
ATOM      3  N   UNL A   1      32.724  30.172  25.879  1.00  0.00    -0.354 N 
ATOM      4  H   UNL A   1      33.645  30.520  25.853  1.00  0.00     0.163 HD
ENDROOT
BRANCH   1   5
ATOM      5  C   UNL A   1      31.025  28.655  24.730  1.00  0.00     0.174 C 
ATOM      6  N   UNL A   1      31.145  27.206  24.630  1.00  0.00    -0.329 N 
ATOM      7  C   UNL A   1      30.367  26.674  23.526  1.00  0.00     0.120 C 
ATOM      8  C   UNL A   1      30.181  27.849  22.580  1.00  0.00     0.024 C 
ATOM      9  C   UNL A   1      30.242  29.083  23.481  1.00  0.00     0.037 C 
BRANCH   6  10
ATOM     10  C   UNL A   1      31.699  26.474  25.668  1.00  0.00     0.246 C 
ATOM     11  O   UNL A   1      31.376  26.643  26.842  1.00  0.00    -0.272 OA
BRANCH  10  12
ATOM     12  C   UNL A   1      32.790  25.465  25.238  1.00  0.00     0.174 C 
ATOM     13  N   UNL A   1      32.301  24.225  24.601  1.00  0.00    -0.329 N 
ATOM     14  C   UNL A   1      32.725  24.170  23.220  1.00  0.00     0.120 C 
ATOM     15  C   UNL A   1      33.980  25.019  23.176  1.00  0.00     0.024 C 
ATOM     16  C   UNL A   1      33.715  26.114  24.198  1.00  0.00     0.037 C 
BRANCH  13  17
ATOM     17  C   UNL A   1      31.443  23.353  25.265  1.00  0.00     0.246 C 
ATOM     18  O   UNL A   1      30.235  23.591  25.299  1.00  0.00    -0.272 OA
BRANCH  17  19
ATOM     19  C   UNL A   1      32.046  22.207  26.146  1.00  0.00     0.178 C 
ATOM     20  N   UNL A   1      32.978  21.292  25.447  1.00  0.00    -0.296 N 
ATOM     21  C   UNL A   1      34.288  21.288  26.062  1.00  0.00     0.124 C 
ATOM     22  C   UNL A   1      33.977  21.639  27.498  1.00  0.00     0.024 C 
ATOM     23  C   UNL A   1      32.866  22.672  27.353  1.00  0.00     0.037 C 
BRANCH  20  24
ATOM     24  C   UNL A   1      32.544  20.322  24.569  1.00  0.00     0.410 C 
ATOM     25  O   UNL A   1      32.225  20.559  23.412  1.00  0.00    -0.224 OA
BRANCH  24  26
ATOM     26  O   UNL A   1      32.421  19.105  25.172  1.00  0.00    -0.444 OA
BRANCH  26  27
ATOM     27  C   UNL A   1      33.107  17.927  24.664  1.00  0.00     0.106 C 
ATOM     28  C   UNL A   1      32.492  17.626  23.290  1.00  0.00     0.056 C 
ATOM     29  C   UNL A   1      32.878  16.733  25.594  1.00  0.00     0.056 C 
ATOM     30  C   UNL A   1      34.592  18.195  24.433  1.00  0.00     0.056 C 
ENDBRANCH  26  27
ENDBRANCH  24  26
ENDBRANCH  20  24
ENDBRANCH  17  19
ENDBRANCH  13  17
ENDBRANCH  10  12
ENDBRANCH   6  10
ENDBRANCH   1   5
BRANCH   3  31
ATOM     31  C   UNL A   1      31.973  30.554  27.055  1.00  0.00     0.117 C 
BRANCH  31  32
ATOM     32  C   UNL A   1      31.474  31.988  27.004  1.00  0.00     0.042 C 
BRANCH  32  33
ATOM     33  C   UNL A   1      32.592  32.964  26.702  1.00  0.00     0.118 C 
BRANCH  33  34
ATOM     34  N   UNL A   1      32.568  34.119  27.589  1.00  0.00    -0.352 N 
ATOM     35  C   UNL A   1      33.356  34.455  28.657  1.00  0.00     0.251 C 
ATOM     36  H   UNL A   1      31.862  34.773  27.384  1.00  0.00     0.163 HD
ATOM     37  O   UNL A   1      33.100  35.494  29.265  1.00  0.00    -0.269 OA
BRANCH  35  38
ATOM     38  C   UNL A   1      34.498  33.608  29.085  1.00  0.00     0.039 A 
ATOM     39  C   UNL A   1      35.791  34.107  28.888  1.00  0.00     0.014 A 
ATOM     40  C   UNL A   1      34.335  32.321  29.615  1.00  0.00     0.014 A 
ATOM     41  C   UNL A   1      36.896  33.370  29.307  1.00  0.00     0.010 A 
ATOM     42  C   UNL A   1      35.423  31.603  30.075  1.00  0.00     0.010 A 
ATOM     43  C   UNL A   1      36.703  32.141  29.950  1.00  0.00    -0.014 A 
BRANCH  43  44
ATOM     44  C   UNL A   1      37.795  31.470  30.671  1.00  0.00     0.031 A 
ATOM     45  C   UNL A   1      38.178  31.898  32.050  1.00  0.00     0.074 A 
ATOM     46  C   UNL A   1      38.527  30.592  29.962  1.00  0.00     0.049 A 
ATOM     47  N   UNL A   1      39.147  31.456  32.804  1.00  0.00    -0.248 NA
ATOM     48  C   UNL A   1      37.389  32.986  32.647  1.00  0.00     0.031 C 
ATOM     49  C   UNL A   1      38.268  30.221  28.565  1.00  0.00     0.029 A 
ATOM     50  N   UNL A   1      39.650  29.887  30.289  1.00  0.00    -0.354 N 
ATOM     51  C   UNL A   1      39.078  32.197  33.977  1.00  0.00     0.074 A 
ATOM     52  C   UNL A   1      38.011  33.160  33.805  1.00  0.00     0.031 C 
ATOM     53  C   UNL A   1      39.211  29.361  28.156  1.00  0.00     0.029 A 
ATOM     54  C   UNL A   1      40.145  29.137  29.249  1.00  0.00     0.049 A 
ATOM     55  H   UNL A   1      40.063  29.914  31.182  1.00  0.00     0.167 HD
ATOM     56  C   UNL A   1      39.832  32.055  35.095  1.00  0.00     0.034 A 
ATOM     57  C   UNL A   1      41.238  28.358  29.192  1.00  0.00     0.034 A 
ATOM     58  C   UNL A   1      40.914  31.102  35.193  1.00  0.00     0.049 A 
ATOM     59  C   UNL A   1      42.052  28.208  30.445  1.00  0.00     0.074 A 
ATOM     60  C   UNL A   1      41.711  30.803  36.283  1.00  0.00     0.029 A 
ATOM     61  N   UNL A   1      41.364  30.306  34.143  1.00  0.00    -0.354 N 
ATOM     62  N   UNL A   1      41.903  28.818  31.600  1.00  0.00    -0.248 NA
ATOM     63  C   UNL A   1      43.153  27.245  30.401  1.00  0.00     0.031 C 
ATOM     64  C   UNL A   1      42.681  29.878  35.875  1.00  0.00     0.029 A 
ATOM     65  C   UNL A   1      42.447  29.542  34.550  1.00  0.00     0.049 A 
ATOM     66  H   UNL A   1      40.970  30.288  33.241  1.00  0.00     0.167 HD
ATOM     67  C   UNL A   1      42.877  28.288  32.435  1.00  0.00     0.074 A 
ATOM     68  C   UNL A   1      43.593  27.298  31.651  1.00  0.00     0.031 C 
ATOM     69  C   UNL A   1      43.154  28.582  33.732  1.00  0.00     0.034 A 
BRANCH  56  70
ATOM     70  C   UNL A   1      39.522  32.956  36.268  1.00  0.00     0.023 A 
ATOM     71  C   UNL A   1      40.174  34.191  36.439  1.00  0.00     0.031 A 
ATOM     72  C   UNL A   1      38.577  32.577  37.237  1.00  0.00     0.131 A 
ATOM     73  C   UNL A   1      39.925  34.968  37.581  1.00  0.00     0.055 A 
ATOM     74  C   UNL A   1      38.277  33.390  38.333  1.00  0.00     0.041 A 
ATOM     75  F   UNL A   1      37.936  31.400  37.144  1.00  0.00    -0.206 F 
ATOM     76  C   UNL A   1      38.963  34.588  38.518  1.00  0.00     0.022 A 
BRANCH  73  77
ATOM     77  S   UNL A   1      40.967  36.421  37.887  1.00  0.00     0.124 S 
ATOM     78  O   UNL A   1      40.034  37.316  38.570  1.00  0.00    -0.237 OA
ATOM     79  O   UNL A   1      42.041  35.873  38.708  1.00  0.00    -0.237 OA
ATOM     80  O   UNL A   1      41.361  36.850  36.548  1.00  0.00    -0.744 OA
ENDBRANCH  73  77
ENDBRANCH  56  70
BRANCH  57  81
ATOM     81  C   UNL A   1      41.576  27.641  27.935  1.00  0.00     0.023 A 
ATOM     82  C   UNL A   1      41.409  26.253  27.834  1.00  0.00     0.031 A 
ATOM     83  C   UNL A   1      42.042  28.337  26.805  1.00  0.00     0.131 A 
ATOM     84  C   UNL A   1      41.743  25.594  26.641  1.00  0.00     0.055 A 
ATOM     85  C   UNL A   1      42.332  27.683  25.606  1.00  0.00     0.041 A 
ATOM     86  F   UNL A   1      42.193  29.671  26.842  1.00  0.00    -0.206 F 
ATOM     87  C   UNL A   1      42.192  26.300  25.523  1.00  0.00     0.022 A 
BRANCH  84  88
ATOM     88  S   UNL A   1      41.630  23.786  26.593  1.00  0.00     0.124 S 
ATOM     89  O   UNL A   1      42.459  23.464  25.437  1.00  0.00    -0.237 OA
ATOM     90  O   UNL A   1      42.173  23.415  27.896  1.00  0.00    -0.237 OA
ATOM     91  O   UNL A   1      40.200  23.539  26.423  1.00  0.00    -0.744 OA
ENDBRANCH  84  88
ENDBRANCH  57  81
BRANCH  69  92
ATOM     92  C   UNL A   1      44.266  27.790  34.368  1.00  0.00     0.023 A 
ATOM     93  C   UNL A   1      44.019  26.564  35.009  1.00  0.00     0.031 A 
ATOM     94  C   UNL A   1      45.579  28.289  34.366  1.00  0.00     0.131 A 
ATOM     95  C   UNL A   1      45.059  25.911  35.682  1.00  0.00     0.055 A 
ATOM     96  C   UNL A   1      46.624  27.600  34.981  1.00  0.00     0.041 A 
ATOM     97  F   UNL A   1      45.866  29.458  33.771  1.00  0.00    -0.206 F 
ATOM     98  C   UNL A   1      46.364  26.412  35.658  1.00  0.00     0.022 A 
BRANCH  95  99
ATOM     99  S   UNL A   1      44.661  24.452  36.682  1.00  0.00     0.124 S 
ATOM    100  O   UNL A   1      45.917  24.219  37.389  1.00  0.00    -0.237 OA
ATOM    101  O   UNL A   1      43.548  24.927  37.498  1.00  0.00    -0.237 OA
ATOM    102  O   UNL A   1      44.312  23.440  35.687  1.00  0.00    -0.744 OA
ENDBRANCH  95  99
ENDBRANCH  69  92
ENDBRANCH  43  44
ENDBRANCH  35  38
ENDBRANCH  33  34
ENDBRANCH  32  33
ENDBRANCH  31  32
ENDBRANCH   3  31
TORSDOF 20
ENDMDL
