MODEL 1
REMARK VINA RESULT:     -13.0      0.000      0.000
REMARK SMILES O=C(NCCCNC(=O)c1[nH]ncc1C[NH+]1CCC([N@H+]2CCC[C@@H](C(=O)N3CCCC3)C2)CC1)c1ccc(-c2c3nc(c(-c4cc(S(=O)(=O)[O-])ccc4F)c4ccc([nH]4)c(-c4cc(S(=O)(=O)[O-])ccc4F)c4nc(c(-c5cc(S(=O)(=O)[O-])ccc5F)c5ccc2[nH]5)C=C4)C=C3)cc1
REMARK SMILES IDX 5 1 4 2 3 3 1 4 2 5 35 7 36 8 97 9 37 10 96 11 38 12 39 13
REMARK SMILES IDX 40 14 90 15 41 16 95 17 89 18 91 19 42 20 94 21 88 22 87 23
REMARK SMILES IDX 43 25 75 26 55 27 74 28 56 29 59 30 73 31 92 32 57 33 58 34
REMARK SMILES IDX 72 36 93 37 60 38 44 39 45 40 53 41 46 42 52 43 54 44 51 45
REMARK SMILES IDX 47 46 48 47 49 48 50 49 76 50 77 51 85 52 78 53 84 54 86 55
REMARK SMILES IDX 83 56 79 57 80 58 81 59 82 60 61 61 62 62 70 63 63 64 69 65
REMARK SMILES IDX 71 66 68 67 64 68 65 69 66 70 67 71 6 72 7 73 8 74 9 76
REMARK SMILES IDX 10 77 11 78 14 79 12 80 13 82 15 83 16 84 17 85 34 86 18 88
REMARK SMILES IDX 33 89 19 90 20 91 21 92 32 93 22 95 24 96 23 97 25 98 26 99
REMARK SMILES IDX 27 100 28 101 31 102 29 103 30 104
REMARK H PARENT 3 6 91 24 59 35 7 75 11 81 16 87 20 94
REMARK Flexibility Score: inf
ROOT
ATOM      1  C   UNL A   1      33.141  27.502  26.354  1.00  0.00     0.042 C 
ENDROOT
BRANCH   1   2
ATOM      2  C   UNL A   1      34.000  28.650  25.847  1.00  0.00     0.118 C 
BRANCH   2   3
ATOM      3  N   UNL A   1      33.493  29.965  26.223  1.00  0.00    -0.352 N 
ATOM      4  O   UNL A   1      33.238  31.861  27.404  1.00  0.00    -0.269 OA
ATOM      5  C   UNL A   1      33.936  30.882  27.151  1.00  0.00     0.251 C 
ATOM      6  H   UNL A   1      32.691  30.248  25.727  1.00  0.00     0.163 HD
BRANCH   5   7
ATOM      7  C   UNL A   1      35.218  30.686  27.864  1.00  0.00     0.039 A 
ATOM      8  C   UNL A   1      35.533  29.464  28.448  1.00  0.00     0.014 A 
ATOM      9  C   UNL A   1      36.142  31.736  27.931  1.00  0.00     0.014 A 
ATOM     10  C   UNL A   1      36.640  29.357  29.278  1.00  0.00     0.010 A 
ATOM     11  C   UNL A   1      37.333  31.581  28.654  1.00  0.00     0.010 A 
ATOM     12  C   UNL A   1      37.570  30.403  29.377  1.00  0.00    -0.014 A 
BRANCH  12  13
ATOM     13  C   UNL A   1      38.780  30.193  30.218  1.00  0.00     0.031 A 
ATOM     14  C   UNL A   1      38.849  30.691  31.636  1.00  0.00     0.074 A 
ATOM     15  C   UNL A   1      39.786  29.447  29.714  1.00  0.00     0.049 A 
ATOM     16  N   UNL A   1      39.791  30.511  32.527  1.00  0.00    -0.248 NA
ATOM     17  C   UNL A   1      37.726  31.513  32.112  1.00  0.00     0.031 C 
ATOM     18  C   UNL A   1      39.842  28.931  28.342  1.00  0.00     0.029 A 
ATOM     19  N   UNL A   1      40.918  28.941  30.299  1.00  0.00    -0.354 N 
ATOM     20  C   UNL A   1      39.393  31.218  33.657  1.00  0.00     0.074 A 
ATOM     21  C   UNL A   1      38.132  31.850  33.329  1.00  0.00     0.031 C 
ATOM     22  C   UNL A   1      40.890  28.104  28.222  1.00  0.00     0.029 A 
ATOM     23  C   UNL A   1      41.625  28.091  29.481  1.00  0.00     0.049 A 
ATOM     24  H   UNL A   1      41.198  29.165  31.216  1.00  0.00     0.167 HD
ATOM     25  C   UNL A   1      40.020  31.326  34.856  1.00  0.00     0.034 A 
ATOM     26  C   UNL A   1      42.743  27.376  29.712  1.00  0.00     0.034 A 
ATOM     27  C   UNL A   1      41.269  30.675  35.173  1.00  0.00     0.049 A 
ATOM     28  C   UNL A   1      43.387  27.470  31.065  1.00  0.00     0.074 A 
ATOM     29  C   UNL A   1      42.003  30.730  36.347  1.00  0.00     0.029 A 
ATOM     30  N   UNL A   1      41.966  29.835  34.313  1.00  0.00    -0.354 N 
ATOM     31  N   UNL A   1      43.009  28.173  32.108  1.00  0.00    -0.248 NA
ATOM     32  C   UNL A   1      44.607  26.683  31.271  1.00  0.00     0.031 C 
ATOM     33  C   UNL A   1      43.159  29.957  36.182  1.00  0.00     0.029 A 
ATOM     34  C   UNL A   1      43.123  29.374  34.926  1.00  0.00     0.049 A 
ATOM     35  H   UNL A   1      41.681  29.600  33.401  1.00  0.00     0.167 HD
ATOM     36  C   UNL A   1      43.959  27.924  33.090  1.00  0.00     0.074 A 
ATOM     37  C   UNL A   1      44.897  26.970  32.531  1.00  0.00     0.031 C 
ATOM     38  C   UNL A   1      44.060  28.451  34.336  1.00  0.00     0.034 A 
BRANCH  25  39
ATOM     39  C   UNL A   1      39.383  32.222  35.891  1.00  0.00     0.023 A 
ATOM     40  C   UNL A   1      39.796  33.552  36.075  1.00  0.00     0.031 A 
ATOM     41  C   UNL A   1      38.368  31.725  36.729  1.00  0.00     0.131 A 
ATOM     42  C   UNL A   1      39.240  34.321  37.109  1.00  0.00     0.055 A 
ATOM     43  C   UNL A   1      37.770  32.517  37.712  1.00  0.00     0.041 A 
ATOM     44  F   UNL A   1      37.949  30.455  36.614  1.00  0.00    -0.206 F 
ATOM     45  C   UNL A   1      38.214  33.820  37.915  1.00  0.00     0.022 A 
BRANCH  42  46
ATOM     46  S   UNL A   1      39.962  35.947  37.468  1.00  0.00     0.124 S 
ATOM     47  O   UNL A   1      39.660  36.681  36.241  1.00  0.00    -0.237 OA
ATOM     48  O   UNL A   1      39.228  36.362  38.657  1.00  0.00    -0.237 OA
ATOM     49  O   UNL A   1      41.378  35.655  37.679  1.00  0.00    -0.744 OA
ENDBRANCH  42  46
ENDBRANCH  25  39
BRANCH  26  50
ATOM     50  C   UNL A   1      43.335  26.543  28.628  1.00  0.00     0.023 A 
ATOM     51  C   UNL A   1      44.232  27.088  27.697  1.00  0.00     0.031 A 
ATOM     52  C   UNL A   1      43.004  25.180  28.511  1.00  0.00     0.131 A 
ATOM     53  C   UNL A   1      44.748  26.279  26.671  1.00  0.00     0.055 A 
ATOM     54  C   UNL A   1      43.554  24.371  27.519  1.00  0.00     0.041 A 
ATOM     55  F   UNL A   1      42.157  24.611  29.384  1.00  0.00    -0.206 F 
ATOM     56  C   UNL A   1      44.425  24.922  26.584  1.00  0.00     0.022 A 
BRANCH  53  57
ATOM     57  S   UNL A   1      45.804  27.041  25.410  1.00  0.00     0.124 S 
ATOM     58  O   UNL A   1      46.866  27.626  26.219  1.00  0.00    -0.237 OA
ATOM     59  O   UNL A   1      46.179  25.890  24.595  1.00  0.00    -0.237 OA
ATOM     60  O   UNL A   1      44.917  28.001  24.757  1.00  0.00    -0.744 OA
ENDBRANCH  53  57
ENDBRANCH  26  50
BRANCH  38  61
ATOM     61  C   UNL A   1      45.238  27.995  35.156  1.00  0.00     0.023 A 
ATOM     62  C   UNL A   1      45.175  26.819  35.924  1.00  0.00     0.031 A 
ATOM     63  C   UNL A   1      46.409  28.767  35.211  1.00  0.00     0.131 A 
ATOM     64  C   UNL A   1      46.243  26.478  36.765  1.00  0.00     0.055 A 
ATOM     65  C   UNL A   1      47.490  28.397  36.013  1.00  0.00     0.041 A 
ATOM     66  F   UNL A   1      46.515  29.899  34.497  1.00  0.00    -0.206 F 
ATOM     67  C   UNL A   1      47.404  27.255  36.806  1.00  0.00     0.022 A 
BRANCH  64  68
ATOM     68  S   UNL A   1      46.055  25.058  37.877  1.00  0.00     0.124 S 
ATOM     69  O   UNL A   1      46.482  25.614  39.157  1.00  0.00    -0.237 OA
ATOM     70  O   UNL A   1      44.632  24.756  37.756  1.00  0.00    -0.237 OA
ATOM     71  O   UNL A   1      46.953  24.055  37.307  1.00  0.00    -0.744 OA
ENDBRANCH  64  68
ENDBRANCH  38  61
ENDBRANCH  12  13
ENDBRANCH   5   7
ENDBRANCH   2   3
ENDBRANCH   1   2
BRANCH   1  72
ATOM     72  C   UNL A   1      33.216  26.254  25.491  1.00  0.00     0.118 C 
BRANCH  72  73
ATOM     73  N   UNL A   1      32.189  26.213  24.460  1.00  0.00    -0.351 N 
ATOM     74  C   UNL A   1      31.189  25.309  24.242  1.00  0.00     0.269 C 
ATOM     75  H   UNL A   1      32.220  26.959  23.817  1.00  0.00     0.163 HD
ATOM     76  O   UNL A   1      30.594  25.365  23.162  1.00  0.00    -0.268 OA
BRANCH  74  77
ATOM     77  C   UNL A   1      30.873  24.312  25.221  1.00  0.00     0.131 A 
ATOM     78  N   UNL A   1      30.072  24.618  26.290  1.00  0.00    -0.272 N 
ATOM     79  C   UNL A   1      31.294  23.003  25.440  1.00  0.00     0.057 A 
ATOM     80  N   UNL A   1      29.862  23.595  27.131  1.00  0.00    -0.183 NA
ATOM     81  H   UNL A   1      29.682  25.511  26.428  1.00  0.00     0.190 HD
ATOM     82  C   UNL A   1      30.591  22.611  26.605  1.00  0.00     0.145 A 
BRANCH  79  83
ATOM     83  C   UNL A   1      32.255  22.169  24.658  1.00  0.00     0.303 C 
BRANCH  83  84
ATOM     84  N   UNL A   1      33.665  22.444  24.938  1.00  0.00    -0.331 N 
ATOM     85  C   UNL A   1      34.376  21.321  25.543  1.00  0.00     0.268 C 
ATOM     86  C   UNL A   1      34.393  23.045  23.825  1.00  0.00     0.268 C 
ATOM     87  H   UNL A   1      33.635  23.168  25.656  1.00  0.00     0.348 HD
ATOM     88  C   UNL A   1      35.733  21.773  26.072  1.00  0.00     0.126 C 
ATOM     89  C   UNL A   1      35.746  23.573  24.313  1.00  0.00     0.126 C 
ATOM     90  C   UNL A   1      36.566  22.443  24.958  1.00  0.00     0.195 C 
BRANCH  90  91
ATOM     91  N   UNL A   1      37.936  22.877  25.349  1.00  0.00    -0.331 N 
ATOM     92  C   UNL A   1      37.968  23.919  26.382  1.00  0.00     0.262 C 
ATOM     93  C   UNL A   1      38.734  21.709  25.765  1.00  0.00     0.275 C 
ATOM     94  H   UNL A   1      38.346  23.305  24.519  1.00  0.00     0.348 HD
ATOM     95  C   UNL A   1      39.408  24.341  26.672  1.00  0.00     0.062 C 
ATOM     96  C   UNL A   1      40.189  21.991  26.121  1.00  0.00     0.134 C 
ATOM     97  C   UNL A   1      40.258  23.159  27.121  1.00  0.00     0.025 C 
BRANCH  96  98
ATOM     98  C   UNL A   1      40.966  20.819  26.750  1.00  0.00     0.231 C 
ATOM     99  O   UNL A   1      40.405  20.117  27.599  1.00  0.00    -0.274 OA
ATOM    100  N   UNL A   1      42.151  20.401  26.184  1.00  0.00    -0.342 N 
ATOM    101  C   UNL A   1      43.391  21.146  26.033  1.00  0.00     0.119 C 
ATOM    102  C   UNL A   1      42.432  18.983  26.051  1.00  0.00     0.119 C 
ATOM    103  C   UNL A   1      44.124  20.345  24.976  1.00  0.00     0.023 C 
ATOM    104  C   UNL A   1      43.793  18.904  25.358  1.00  0.00     0.023 C 
ENDBRANCH  96  98
ENDBRANCH  90  91
ENDBRANCH  83  84
ENDBRANCH  79  83
ENDBRANCH  74  77
ENDBRANCH  72  73
ENDBRANCH   1  72
TORSDOF 17
ENDMDL
MODEL 2
REMARK VINA RESULT:     -12.6      1.848      2.110
REMARK SMILES O=C(NCCCNC(=O)c1[nH]ncc1C[NH+]1CCC([N@H+]2CCC[C@@H](C(=O)N3CCCC3)C2)CC1)c1ccc(-c2c3nc(c(-c4cc(S(=O)(=O)[O-])ccc4F)c4ccc([nH]4)c(-c4cc(S(=O)(=O)[O-])ccc4F)c4nc(c(-c5cc(S(=O)(=O)[O-])ccc5F)c5ccc2[nH]5)C=C4)C=C3)cc1
REMARK SMILES IDX 5 1 4 2 3 3 1 4 2 5 35 7 36 8 97 9 37 10 96 11 38 12 39 13
REMARK SMILES IDX 40 14 90 15 41 16 95 17 89 18 91 19 42 20 94 21 88 22 87 23
REMARK SMILES IDX 43 25 75 26 55 27 74 28 56 29 59 30 73 31 92 32 57 33 58 34
REMARK SMILES IDX 72 36 93 37 60 38 44 39 45 40 53 41 46 42 52 43 54 44 51 45
REMARK SMILES IDX 47 46 48 47 49 48 50 49 76 50 77 51 85 52 78 53 84 54 86 55
REMARK SMILES IDX 83 56 79 57 80 58 81 59 82 60 61 61 62 62 70 63 63 64 69 65
REMARK SMILES IDX 71 66 68 67 64 68 65 69 66 70 67 71 6 72 7 73 8 74 9 76
REMARK SMILES IDX 10 77 11 78 14 79 12 80 13 82 15 83 16 84 17 85 34 86 18 88
REMARK SMILES IDX 33 89 19 90 20 91 21 92 32 93 22 95 24 96 23 97 25 98 26 99
REMARK SMILES IDX 27 100 28 101 31 102 29 103 30 104
REMARK H PARENT 3 6 91 24 59 35 7 75 11 81 16 87 20 94
REMARK Flexibility Score: inf
ROOT
ATOM      1  C   UNL A   1      33.241  27.556  26.491  1.00  0.00     0.042 C 
ENDROOT
BRANCH   1   2
ATOM      2  C   UNL A   1      34.014  28.718  25.886  1.00  0.00     0.118 C 
BRANCH   2   3
ATOM      3  N   UNL A   1      33.510  30.025  26.293  1.00  0.00    -0.352 N 
ATOM      4  O   UNL A   1      33.254  31.890  27.521  1.00  0.00    -0.269 OA
ATOM      5  C   UNL A   1      33.950  30.915  27.248  1.00  0.00     0.251 C 
ATOM      6  H   UNL A   1      32.712  30.324  25.799  1.00  0.00     0.163 HD
BRANCH   5   7
ATOM      7  C   UNL A   1      35.226  30.695  27.964  1.00  0.00     0.039 A 
ATOM      8  C   UNL A   1      35.504  29.476  28.573  1.00  0.00     0.014 A 
ATOM      9  C   UNL A   1      36.182  31.717  28.009  1.00  0.00     0.014 A 
ATOM     10  C   UNL A   1      36.608  29.352  29.404  1.00  0.00     0.010 A 
ATOM     11  C   UNL A   1      37.368  31.541  28.734  1.00  0.00     0.010 A 
ATOM     12  C   UNL A   1      37.570  30.372  29.482  1.00  0.00    -0.014 A 
BRANCH  12  13
ATOM     13  C   UNL A   1      38.774  30.142  30.327  1.00  0.00     0.031 A 
ATOM     14  C   UNL A   1      38.816  30.569  31.769  1.00  0.00     0.074 A 
ATOM     15  C   UNL A   1      39.800  29.442  29.798  1.00  0.00     0.049 A 
ATOM     16  N   UNL A   1      39.751  30.361  32.662  1.00  0.00    -0.248 NA
ATOM     17  C   UNL A   1      37.671  31.344  32.272  1.00  0.00     0.031 C 
ATOM     18  C   UNL A   1      39.883  28.998  28.403  1.00  0.00     0.029 A 
ATOM     19  N   UNL A   1      40.935  28.929  30.372  1.00  0.00    -0.354 N 
ATOM     20  C   UNL A   1      39.325  31.002  33.821  1.00  0.00     0.074 A 
ATOM     21  C   UNL A   1      38.056  31.626  33.509  1.00  0.00     0.031 C 
ATOM     22  C   UNL A   1      40.948  28.198  28.255  1.00  0.00     0.029 A 
ATOM     23  C   UNL A   1      41.668  28.135  29.521  1.00  0.00     0.049 A 
ATOM     24  H   UNL A   1      41.199  29.112  31.303  1.00  0.00     0.167 HD
ATOM     25  C   UNL A   1      39.935  31.061  35.032  1.00  0.00     0.034 A 
ATOM     26  C   UNL A   1      42.797  27.431  29.729  1.00  0.00     0.034 A 
ATOM     27  C   UNL A   1      41.193  30.418  35.332  1.00  0.00     0.049 A 
ATOM     28  C   UNL A   1      43.424  27.468  31.094  1.00  0.00     0.074 A 
ATOM     29  C   UNL A   1      41.912  30.428  36.516  1.00  0.00     0.029 A 
ATOM     30  N   UNL A   1      41.917  29.637  34.439  1.00  0.00    -0.354 N 
ATOM     31  N   UNL A   1      43.019  28.109  32.166  1.00  0.00    -0.248 NA
ATOM     32  C   UNL A   1      44.656  26.695  31.275  1.00  0.00     0.031 C 
ATOM     33  C   UNL A   1      43.085  29.686  36.327  1.00  0.00     0.029 A 
ATOM     34  C   UNL A   1      43.075  29.168  35.043  1.00  0.00     0.049 A 
ATOM     35  H   UNL A   1      41.648  29.444  33.513  1.00  0.00     0.167 HD
ATOM     36  C   UNL A   1      43.961  27.830  33.147  1.00  0.00     0.074 A 
ATOM     37  C   UNL A   1      44.925  26.923  32.553  1.00  0.00     0.031 C 
ATOM     38  C   UNL A   1      44.037  28.293  34.420  1.00  0.00     0.034 A 
BRANCH  25  39
ATOM     39  C   UNL A   1      39.269  31.890  36.103  1.00  0.00     0.023 A 
ATOM     40  C   UNL A   1      38.497  31.304  37.121  1.00  0.00     0.031 A 
ATOM     41  C   UNL A   1      39.383  33.292  36.087  1.00  0.00     0.131 A 
ATOM     42  C   UNL A   1      37.820  32.118  38.043  1.00  0.00     0.055 A 
ATOM     43  C   UNL A   1      38.763  34.093  37.048  1.00  0.00     0.041 A 
ATOM     44  F   UNL A   1      40.090  33.908  35.126  1.00  0.00    -0.206 F 
ATOM     45  C   UNL A   1      37.966  33.508  38.027  1.00  0.00     0.022 A 
BRANCH  42  46
ATOM     46  S   UNL A   1      36.648  31.343  39.190  1.00  0.00     0.124 S 
ATOM     47  O   UNL A   1      36.366  30.078  38.514  1.00  0.00    -0.237 OA
ATOM     48  O   UNL A   1      37.425  31.250  40.421  1.00  0.00    -0.237 OA
ATOM     49  O   UNL A   1      35.531  32.284  39.227  1.00  0.00    -0.744 OA
ENDBRANCH  42  46
ENDBRANCH  25  39
BRANCH  26  50
ATOM     50  C   UNL A   1      43.419  26.666  28.613  1.00  0.00     0.023 A 
ATOM     51  C   UNL A   1      44.409  27.237  27.799  1.00  0.00     0.031 A 
ATOM     52  C   UNL A   1      43.022  25.343  28.345  1.00  0.00     0.131 A 
ATOM     53  C   UNL A   1      44.952  26.496  26.738  1.00  0.00     0.055 A 
ATOM     54  C   UNL A   1      43.597  24.595  27.318  1.00  0.00     0.041 A 
ATOM     55  F   UNL A   1      42.085  24.749  29.101  1.00  0.00    -0.206 F 
ATOM     56  C   UNL A   1      44.561  25.175  26.500  1.00  0.00     0.022 A 
BRANCH  53  57
ATOM     57  S   UNL A   1      46.136  27.303  25.627  1.00  0.00     0.124 S 
ATOM     58  O   UNL A   1      45.487  28.584  25.375  1.00  0.00    -0.237 OA
ATOM     59  O   UNL A   1      47.340  27.345  26.450  1.00  0.00    -0.237 OA
ATOM     60  O   UNL A   1      46.199  26.400  24.481  1.00  0.00    -0.744 OA
ENDBRANCH  53  57
ENDBRANCH  26  50
BRANCH  38  61
ATOM     61  C   UNL A   1      45.214  27.819  35.231  1.00  0.00     0.023 A 
ATOM     62  C   UNL A   1      46.462  28.458  35.138  1.00  0.00     0.031 A 
ATOM     63  C   UNL A   1      45.101  26.691  36.059  1.00  0.00     0.131 A 
ATOM     64  C   UNL A   1      47.568  27.929  35.817  1.00  0.00     0.055 A 
ATOM     65  C   UNL A   1      46.193  26.195  36.770  1.00  0.00     0.041 A 
ATOM     66  F   UNL A   1      43.929  26.046  36.176  1.00  0.00    -0.206 F 
ATOM     67  C   UNL A   1      47.439  26.806  36.641  1.00  0.00     0.022 A 
BRANCH  64  68
ATOM     68  S   UNL A   1      49.199  28.668  35.532  1.00  0.00     0.124 S 
ATOM     69  O   UNL A   1      49.917  27.579  34.877  1.00  0.00    -0.237 OA
ATOM     70  O   UNL A   1      48.877  29.816  34.692  1.00  0.00    -0.237 OA
ATOM     71  O   UNL A   1      49.667  28.996  36.878  1.00  0.00    -0.744 OA
ENDBRANCH  64  68
ENDBRANCH  38  61
ENDBRANCH  12  13
ENDBRANCH   5   7
ENDBRANCH   2   3
ENDBRANCH   1   2
BRANCH   1  72
ATOM     72  C   UNL A   1      33.131  26.350  25.572  1.00  0.00     0.118 C 
BRANCH  72  73
ATOM     73  N   UNL A   1      31.986  26.422  24.676  1.00  0.00    -0.351 N 
ATOM     74  C   UNL A   1      30.960  25.542  24.477  1.00  0.00     0.269 C 
ATOM     75  H   UNL A   1      31.945  27.236  24.123  1.00  0.00     0.163 HD
ATOM     76  O   UNL A   1      30.239  25.718  23.491  1.00  0.00    -0.268 OA
BRANCH  74  77
ATOM     77  C   UNL A   1      30.757  24.437  25.367  1.00  0.00     0.131 A 
ATOM     78  N   UNL A   1      30.014  24.591  26.508  1.00  0.00    -0.272 N 
ATOM     79  C   UNL A   1      31.254  23.138  25.424  1.00  0.00     0.057 A 
ATOM     80  N   UNL A   1      29.910  23.481  27.251  1.00  0.00    -0.183 NA
ATOM     81  H   UNL A   1      29.593  25.445  26.760  1.00  0.00     0.190 HD
ATOM     82  C   UNL A   1      30.649  22.595  26.583  1.00  0.00     0.145 A 
BRANCH  79  83
ATOM     83  C   UNL A   1      32.200  22.438  24.504  1.00  0.00     0.303 C 
BRANCH  83  84
ATOM     84  N   UNL A   1      33.615  22.688  24.784  1.00  0.00    -0.331 N 
ATOM     85  C   UNL A   1      34.170  21.828  25.825  1.00  0.00     0.268 C 
ATOM     86  C   UNL A   1      34.459  22.760  23.595  1.00  0.00     0.268 C 
ATOM     87  H   UNL A   1      33.625  23.630  25.173  1.00  0.00     0.348 HD
ATOM     88  C   UNL A   1      35.538  22.339  26.264  1.00  0.00     0.126 C 
ATOM     89  C   UNL A   1      35.833  23.326  23.968  1.00  0.00     0.126 C 
ATOM     90  C   UNL A   1      36.494  22.467  25.058  1.00  0.00     0.195 C 
BRANCH  90  91
ATOM     91  N   UNL A   1      37.881  22.907  25.378  1.00  0.00    -0.331 N 
ATOM     92  C   UNL A   1      37.956  23.997  26.358  1.00  0.00     0.262 C 
ATOM     93  C   UNL A   1      38.686  21.754  25.820  1.00  0.00     0.275 C 
ATOM     94  H   UNL A   1      38.262  23.292  24.514  1.00  0.00     0.348 HD
ATOM     95  C   UNL A   1      39.410  24.421  26.574  1.00  0.00     0.062 C 
ATOM     96  C   UNL A   1      40.154  22.041  26.109  1.00  0.00     0.134 C 
ATOM     97  C   UNL A   1      40.267  23.255  27.048  1.00  0.00     0.025 C 
BRANCH  96  98
ATOM     98  C   UNL A   1      40.947  20.894  26.764  1.00  0.00     0.231 C 
ATOM     99  O   UNL A   1      40.404  20.221  27.648  1.00  0.00    -0.274 OA
ATOM    100  N   UNL A   1      42.123  20.460  26.193  1.00  0.00    -0.342 N 
ATOM    101  C   UNL A   1      43.358  21.203  25.993  1.00  0.00     0.119 C 
ATOM    102  C   UNL A   1      42.407  19.039  26.104  1.00  0.00     0.119 C 
ATOM    103  C   UNL A   1      44.075  20.367  24.952  1.00  0.00     0.023 C 
ATOM    104  C   UNL A   1      43.756  18.940  25.390  1.00  0.00     0.023 C 
ENDBRANCH  96  98
ENDBRANCH  90  91
ENDBRANCH  83  84
ENDBRANCH  79  83
ENDBRANCH  74  77
ENDBRANCH  72  73
ENDBRANCH   1  72
TORSDOF 17
ENDMDL
MODEL 3
REMARK VINA RESULT:     -12.2      4.323      8.472
REMARK SMILES O=C(NCCCNC(=O)c1[nH]ncc1C[NH+]1CCC([N@H+]2CCC[C@@H](C(=O)N3CCCC3)C2)CC1)c1ccc(-c2c3nc(c(-c4cc(S(=O)(=O)[O-])ccc4F)c4ccc([nH]4)c(-c4cc(S(=O)(=O)[O-])ccc4F)c4nc(c(-c5cc(S(=O)(=O)[O-])ccc5F)c5ccc2[nH]5)C=C4)C=C3)cc1
REMARK SMILES IDX 5 1 4 2 3 3 1 4 2 5 35 7 36 8 97 9 37 10 96 11 38 12 39 13
REMARK SMILES IDX 40 14 90 15 41 16 95 17 89 18 91 19 42 20 94 21 88 22 87 23
REMARK SMILES IDX 43 25 75 26 55 27 74 28 56 29 59 30 73 31 92 32 57 33 58 34
REMARK SMILES IDX 72 36 93 37 60 38 44 39 45 40 53 41 46 42 52 43 54 44 51 45
REMARK SMILES IDX 47 46 48 47 49 48 50 49 76 50 77 51 85 52 78 53 84 54 86 55
REMARK SMILES IDX 83 56 79 57 80 58 81 59 82 60 61 61 62 62 70 63 63 64 69 65
REMARK SMILES IDX 71 66 68 67 64 68 65 69 66 70 67 71 6 72 7 73 8 74 9 76
REMARK SMILES IDX 10 77 11 78 14 79 12 80 13 82 15 83 16 84 17 85 34 86 18 88
REMARK SMILES IDX 33 89 19 90 20 91 21 92 32 93 22 95 24 96 23 97 25 98 26 99
REMARK SMILES IDX 27 100 28 101 31 102 29 103 30 104
REMARK H PARENT 3 6 91 24 59 35 7 75 11 81 16 87 20 94
REMARK Flexibility Score: inf
ROOT
ATOM      1  C   UNL A   1      35.404  22.881  25.073  1.00  0.00     0.042 C 
ENDROOT
BRANCH   1   2
ATOM      2  C   UNL A   1      36.534  23.191  26.042  1.00  0.00     0.118 C 
BRANCH   2   3
ATOM      3  N   UNL A   1      37.498  22.104  26.176  1.00  0.00    -0.352 N 
ATOM      4  O   UNL A   1      39.484  21.064  26.328  1.00  0.00    -0.269 OA
ATOM      5  C   UNL A   1      38.853  22.114  26.423  1.00  0.00     0.251 C 
ATOM      6  H   UNL A   1      37.113  21.204  26.070  1.00  0.00     0.163 HD
BRANCH   5   7
ATOM      7  C   UNL A   1      39.557  23.369  26.768  1.00  0.00     0.039 A 
ATOM      8  C   UNL A   1      39.287  24.551  26.087  1.00  0.00     0.014 A 
ATOM      9  C   UNL A   1      40.489  23.377  27.813  1.00  0.00     0.014 A 
ATOM     10  C   UNL A   1      40.091  25.664  26.286  1.00  0.00     0.010 A 
ATOM     11  C   UNL A   1      41.204  24.546  28.109  1.00  0.00     0.010 A 
ATOM     12  C   UNL A   1      41.047  25.689  27.313  1.00  0.00    -0.014 A 
BRANCH  12  13
ATOM     13  C   UNL A   1      41.818  26.944  27.528  1.00  0.00     0.031 A 
ATOM     14  C   UNL A   1      41.322  28.022  28.454  1.00  0.00     0.074 A 
ATOM     15  C   UNL A   1      43.033  27.054  26.951  1.00  0.00     0.049 A 
ATOM     16  N   UNL A   1      41.916  29.131  28.819  1.00  0.00    -0.248 NA
ATOM     17  C   UNL A   1      39.982  27.845  29.032  1.00  0.00     0.031 C 
ATOM     18  C   UNL A   1      43.608  26.084  26.013  1.00  0.00     0.029 A 
ATOM     19  N   UNL A   1      44.027  27.985  27.107  1.00  0.00    -0.354 N 
ATOM     20  C   UNL A   1      41.015  29.798  29.643  1.00  0.00     0.074 A 
ATOM     21  C   UNL A   1      39.823  28.977  29.705  1.00  0.00     0.031 C 
ATOM     22  C   UNL A   1      44.881  26.415  25.759  1.00  0.00     0.029 A 
ATOM     23  C   UNL A   1      45.192  27.659  26.451  1.00  0.00     0.049 A 
ATOM     24  H   UNL A   1      43.918  28.808  27.637  1.00  0.00     0.167 HD
ATOM     25  C   UNL A   1      41.170  30.981  30.288  1.00  0.00     0.034 A 
ATOM     26  C   UNL A   1      46.381  28.289  26.405  1.00  0.00     0.034 A 
ATOM     27  C   UNL A   1      42.372  31.779  30.230  1.00  0.00     0.049 A 
ATOM     28  C   UNL A   1      46.544  29.570  27.173  1.00  0.00     0.074 A 
ATOM     29  C   UNL A   1      42.631  33.002  30.827  1.00  0.00     0.029 A 
ATOM     30  N   UNL A   1      43.525  31.426  29.539  1.00  0.00    -0.354 N 
ATOM     31  N   UNL A   1      45.665  30.197  27.920  1.00  0.00    -0.248 NA
ATOM     32  C   UNL A   1      47.852  30.227  27.089  1.00  0.00     0.031 C 
ATOM     33  C   UNL A   1      43.924  33.404  30.467  1.00  0.00     0.029 A 
ATOM     34  C   UNL A   1      44.493  32.409  29.689  1.00  0.00     0.049 A 
ATOM     35  H   UNL A   1      43.640  30.599  29.020  1.00  0.00     0.167 HD
ATOM     36  C   UNL A   1      46.312  31.337  28.380  1.00  0.00     0.074 A 
ATOM     37  C   UNL A   1      47.668  31.282  27.869  1.00  0.00     0.031 C 
ATOM     38  C   UNL A   1      45.826  32.349  29.142  1.00  0.00     0.034 A 
BRANCH  25  39
ATOM     39  C   UNL A   1      39.989  31.502  31.072  1.00  0.00     0.023 A 
ATOM     40  C   UNL A   1      39.871  31.299  32.457  1.00  0.00     0.031 A 
ATOM     41  C   UNL A   1      38.949  32.185  30.415  1.00  0.00     0.131 A 
ATOM     42  C   UNL A   1      38.714  31.720  33.130  1.00  0.00     0.055 A 
ATOM     43  C   UNL A   1      37.831  32.662  31.102  1.00  0.00     0.041 A 
ATOM     44  F   UNL A   1      38.997  32.388  29.089  1.00  0.00    -0.206 F 
ATOM     45  C   UNL A   1      37.703  32.420  32.466  1.00  0.00     0.022 A 
BRANCH  42  46
ATOM     46  S   UNL A   1      38.491  31.233  34.864  1.00  0.00     0.124 S 
ATOM     47  O   UNL A   1      37.269  31.953  35.218  1.00  0.00    -0.237 OA
ATOM     48  O   UNL A   1      38.373  29.782  34.771  1.00  0.00    -0.237 OA
ATOM     49  O   UNL A   1      39.704  31.719  35.516  1.00  0.00    -0.744 OA
ENDBRANCH  42  46
ENDBRANCH  25  39
BRANCH  26  50
ATOM     50  C   UNL A   1      47.490  27.735  25.580  1.00  0.00     0.023 A 
ATOM     51  C   UNL A   1      47.554  27.963  24.197  1.00  0.00     0.031 A 
ATOM     52  C   UNL A   1      48.505  26.961  26.171  1.00  0.00     0.131 A 
ATOM     53  C   UNL A   1      48.598  27.400  23.445  1.00  0.00     0.055 A 
ATOM     54  C   UNL A   1      49.565  26.443  25.428  1.00  0.00     0.041 A 
ATOM     55  F   UNL A   1      48.492  26.723  27.492  1.00  0.00    -0.206 F 
ATOM     56  C   UNL A   1      49.610  26.653  24.054  1.00  0.00     0.022 A 
BRANCH  53  57
ATOM     57  S   UNL A   1      48.585  27.607  21.644  1.00  0.00     0.124 S 
ATOM     58  O   UNL A   1      49.672  28.558  21.442  1.00  0.00    -0.237 OA
ATOM     59  O   UNL A   1      48.830  26.245  21.182  1.00  0.00    -0.237 OA
ATOM     60  O   UNL A   1      47.245  28.124  21.370  1.00  0.00    -0.744 OA
ENDBRANCH  53  57
ENDBRANCH  26  50
BRANCH  38  61
ATOM     61  C   UNL A   1      46.784  33.469  29.448  1.00  0.00     0.023 A 
ATOM     62  C   UNL A   1      46.898  34.579  28.592  1.00  0.00     0.031 A 
ATOM     63  C   UNL A   1      47.624  33.402  30.570  1.00  0.00     0.131 A 
ATOM     64  C   UNL A   1      47.875  35.552  28.840  1.00  0.00     0.055 A 
ATOM     65  C   UNL A   1      48.564  34.398  30.839  1.00  0.00     0.041 A 
ATOM     66  F   UNL A   1      47.554  32.360  31.414  1.00  0.00    -0.206 F 
ATOM     67  C   UNL A   1      48.703  35.473  29.964  1.00  0.00     0.022 A 
BRANCH  64  68
ATOM     68  S   UNL A   1      48.118  36.871  27.620  1.00  0.00     0.124 S 
ATOM     69  O   UNL A   1      47.555  38.029  28.306  1.00  0.00    -0.237 OA
ATOM     70  O   UNL A   1      49.567  36.873  27.449  1.00  0.00    -0.237 OA
ATOM     71  O   UNL A   1      47.358  36.408  26.459  1.00  0.00    -0.744 OA
ENDBRANCH  64  68
ENDBRANCH  38  61
ENDBRANCH  12  13
ENDBRANCH   5   7
ENDBRANCH   2   3
ENDBRANCH   1   2
BRANCH   1  72
ATOM     72  C   UNL A   1      34.301  23.927  25.064  1.00  0.00     0.118 C 
BRANCH  72  73
ATOM     73  N   UNL A   1      32.972  23.350  24.924  1.00  0.00    -0.351 N 
ATOM     74  C   UNL A   1      31.970  23.637  24.041  1.00  0.00     0.269 C 
ATOM     75  H   UNL A   1      32.762  22.637  25.571  1.00  0.00     0.163 HD
ATOM     76  O   UNL A   1      30.851  23.175  24.277  1.00  0.00    -0.268 OA
BRANCH  74  77
ATOM     77  C   UNL A   1      32.211  24.474  22.904  1.00  0.00     0.131 A 
ATOM     78  N   UNL A   1      33.011  24.041  21.879  1.00  0.00    -0.272 N 
ATOM     79  C   UNL A   1      31.885  25.790  22.585  1.00  0.00     0.057 A 
ATOM     80  N   UNL A   1      33.156  24.925  20.882  1.00  0.00    -0.183 NA
ATOM     81  H   UNL A   1      33.442  23.156  21.874  1.00  0.00     0.190 HD
ATOM     82  C   UNL A   1      32.459  25.980  21.304  1.00  0.00     0.145 A 
BRANCH  79  83
ATOM     83  C   UNL A   1      31.116  26.799  23.373  1.00  0.00     0.303 C 
BRANCH  83  84
ATOM     84  N   UNL A   1      31.901  27.503  24.388  1.00  0.00    -0.331 N 
ATOM     85  C   UNL A   1      31.783  28.957  24.320  1.00  0.00     0.268 C 
ATOM     86  C   UNL A   1      31.739  26.982  25.742  1.00  0.00     0.268 C 
ATOM     87  H   UNL A   1      32.867  27.294  24.139  1.00  0.00     0.348 HD
ATOM     88  C   UNL A   1      32.842  29.618  25.196  1.00  0.00     0.126 C 
ATOM     89  C   UNL A   1      32.818  27.569  26.657  1.00  0.00     0.126 C 
ATOM     90  C   UNL A   1      32.756  29.106  26.650  1.00  0.00     0.195 C 
BRANCH  90  91
ATOM     91  N   UNL A   1      33.710  29.726  27.610  1.00  0.00    -0.331 N 
ATOM     92  C   UNL A   1      35.115  29.364  27.384  1.00  0.00     0.262 C 
ATOM     93  C   UNL A   1      33.545  31.191  27.609  1.00  0.00     0.275 C 
ATOM     94  H   UNL A   1      33.476  29.347  28.527  1.00  0.00     0.348 HD
ATOM     95  C   UNL A   1      36.008  29.996  28.452  1.00  0.00     0.062 C 
ATOM     96  C   UNL A   1      34.407  31.957  28.605  1.00  0.00     0.134 C 
ATOM     97  C   UNL A   1      35.874  31.513  28.466  1.00  0.00     0.025 C 
BRANCH  96  98
ATOM     98  C   UNL A   1      34.391  33.492  28.466  1.00  0.00     0.231 C 
ATOM     99  O   UNL A   1      34.453  33.990  27.337  1.00  0.00    -0.274 OA
ATOM    100  N   UNL A   1      34.041  34.273  29.546  1.00  0.00    -0.342 N 
ATOM    101  C   UNL A   1      34.716  34.394  30.829  1.00  0.00     0.119 C 
ATOM    102  C   UNL A   1      33.168  35.419  29.362  1.00  0.00     0.119 C 
ATOM    103  C   UNL A   1      33.643  35.012  31.703  1.00  0.00     0.023 C 
ATOM    104  C   UNL A   1      32.975  36.009  30.759  1.00  0.00     0.023 C 
ENDBRANCH  96  98
ENDBRANCH  90  91
ENDBRANCH  83  84
ENDBRANCH  79  83
ENDBRANCH  74  77
ENDBRANCH  72  73
ENDBRANCH   1  72
TORSDOF 17
ENDMDL
