MODEL 1
REMARK VINA RESULT:     -12.4      0.000      0.000
REMARK SMILES CC(C)c1ccc([C@]2(C(=O)NCCCNC(=O)c3ccc(-c4c5nc(c(-c6cc(S(=O)(=O)[O-])ccc6F)c6ccc([nH]6)c(-c6cc(S(=O)(=O)[O-])ccc6F)c6nc(c(-c7cc(S(=O)(=O)[O-])ccc7F)c7ccc4[nH]7)C=C6)C=C5)cc3)CCC[C@@H]2C)cc1
REMARK SMILES IDX 13 1 12 2 11 3 9 4 10 5 8 7 81 8 84 9 82 10 83 11 85 12 7 13
REMARK SMILES IDX 4 14 5 15 87 16 6 17 86 18 2 19 1 20 3 21 14 22 15 23 16 24
REMARK SMILES IDX 17 26 18 27 19 28 80 29 20 30 79 31 21 32 22 33 23 34 73 35
REMARK SMILES IDX 24 36 78 37 72 38 74 39 25 40 77 41 71 42 70 43 26 45 58 46
REMARK SMILES IDX 38 47 57 48 39 49 42 50 56 51 75 52 40 53 41 54 55 56 76 57
REMARK SMILES IDX 43 58 27 59 28 60 36 61 29 62 35 63 37 64 34 65 30 66 31 67
REMARK SMILES IDX 32 68 33 69 59 70 60 71 68 72 61 73 67 74 69 75 66 76 62 77
REMARK SMILES IDX 63 78 64 79 65 80 44 81 45 82 53 83 46 84 52 85 54 86 51 87
REMARK SMILES IDX 47 88 48 89 49 90 50 91
REMARK H PARENT 11 6 15 25 74 44 42 55
REMARK Flexibility Score: inf
ROOT
ATOM      1  C   UNL A   1      31.679  29.359  27.209  1.00  0.00     0.042 C 
ENDROOT
BRANCH   1   2
ATOM      2  C   UNL A   1      32.295  28.000  27.483  1.00  0.00     0.117 C 
BRANCH   2   3
ATOM      3  N   UNL A   1      31.399  26.902  27.243  1.00  0.00    -0.355 N 
ATOM      4  C   UNL A   1      31.338  25.973  26.262  1.00  0.00     0.230 C 
ATOM      5  O   UNL A   1      30.827  24.915  26.665  1.00  0.00    -0.274 OA
ATOM      6  H   UNL A   1      30.694  26.810  27.924  1.00  0.00     0.163 HD
BRANCH   4   7
ATOM      7  C   UNL A   1      31.786  26.151  24.737  1.00  0.00     0.077 C 
ATOM      8  C   UNL A   1      33.216  26.739  24.620  1.00  0.00     0.022 C 
ATOM      9  C   UNL A   1      31.906  24.819  23.894  1.00  0.00     0.006 C 
ATOM     10  C   UNL A   1      34.192  25.616  24.286  1.00  0.00     0.002 C 
ATOM     11  C   UNL A   1      33.383  24.383  23.936  1.00  0.00     0.005 C 
ATOM     12  C   UNL A   1      31.597  24.880  22.381  1.00  0.00     0.009 C 
BRANCH   7  13
ATOM     13  C   UNL A   1      30.734  27.158  24.173  1.00  0.00    -0.032 A 
ATOM     14  C   UNL A   1      28.845  28.982  23.014  1.00  0.00    -0.045 A 
ATOM     15  C   UNL A   1      30.206  29.295  23.103  1.00  0.00     0.004 A 
ATOM     16  C   UNL A   1      28.456  27.713  23.469  1.00  0.00     0.004 A 
ATOM     17  C   UNL A   1      31.132  28.383  23.620  1.00  0.00     0.005 A 
ATOM     18  C   UNL A   1      29.381  26.817  24.030  1.00  0.00     0.005 A 
BRANCH  14  19
ATOM     19  C   UNL A   1      27.822  29.994  22.501  1.00  0.00     0.013 C 
ATOM     20  C   UNL A   1      27.567  31.171  23.458  1.00  0.00     0.012 C 
ATOM     21  C   UNL A   1      28.158  30.574  21.119  1.00  0.00     0.012 C 
ENDBRANCH  14  19
ENDBRANCH   7  13
ENDBRANCH   4   7
ENDBRANCH   2   3
ENDBRANCH   1   2
BRANCH   1  22
ATOM     22  C   UNL A   1      32.560  30.226  26.324  1.00  0.00     0.118 C 
BRANCH  22  23
ATOM     23  N   UNL A   1      32.309  31.651  26.537  1.00  0.00    -0.352 N 
ATOM     24  C   UNL A   1      32.944  32.551  27.362  1.00  0.00     0.251 C 
ATOM     25  H   UNL A   1      31.569  32.026  26.007  1.00  0.00     0.163 HD
ATOM     26  O   UNL A   1      32.427  33.635  27.589  1.00  0.00    -0.269 OA
BRANCH  24  27
ATOM     27  C   UNL A   1      34.239  32.189  27.974  1.00  0.00     0.039 A 
ATOM     28  C   UNL A   1      35.291  33.109  27.966  1.00  0.00     0.014 A 
ATOM     29  C   UNL A   1      34.410  30.932  28.554  1.00  0.00     0.014 A 
ATOM     30  C   UNL A   1      36.491  32.792  28.607  1.00  0.00     0.010 A 
ATOM     31  C   UNL A   1      35.557  30.662  29.282  1.00  0.00     0.010 A 
ATOM     32  C   UNL A   1      36.619  31.580  29.302  1.00  0.00    -0.014 A 
BRANCH  32  33
ATOM     33  C   UNL A   1      37.860  31.192  30.015  1.00  0.00     0.031 A 
ATOM     34  C   UNL A   1      38.771  30.175  29.382  1.00  0.00     0.074 A 
ATOM     35  C   UNL A   1      38.101  31.645  31.260  1.00  0.00     0.049 A 
ATOM     36  N   UNL A   1      39.764  29.504  29.903  1.00  0.00    -0.248 NA
ATOM     37  C   UNL A   1      38.475  29.824  27.984  1.00  0.00     0.031 C 
ATOM     38  C   UNL A   1      37.272  32.606  31.988  1.00  0.00     0.029 A 
ATOM     39  N   UNL A   1      39.101  31.329  32.146  1.00  0.00    -0.354 N 
ATOM     40  C   UNL A   1      40.182  28.623  28.912  1.00  0.00     0.074 A 
ATOM     41  C   UNL A   1      39.283  28.794  27.792  1.00  0.00     0.031 C 
ATOM     42  C   UNL A   1      37.801  32.808  33.205  1.00  0.00     0.029 A 
ATOM     43  C   UNL A   1      38.971  31.950  33.366  1.00  0.00     0.049 A 
ATOM     44  H   UNL A   1      39.840  30.717  31.928  1.00  0.00     0.167 HD
ATOM     45  C   UNL A   1      41.236  27.768  28.927  1.00  0.00     0.034 A 
ATOM     46  C   UNL A   1      39.695  31.816  34.496  1.00  0.00     0.034 A 
ATOM     47  C   UNL A   1      42.131  27.640  30.049  1.00  0.00     0.049 A 
ATOM     48  C   UNL A   1      40.861  30.861  34.501  1.00  0.00     0.074 A 
ATOM     49  C   UNL A   1      43.261  26.853  30.168  1.00  0.00     0.029 A 
ATOM     50  N   UNL A   1      41.995  28.324  31.253  1.00  0.00    -0.354 N 
ATOM     51  N   UNL A   1      41.266  30.050  33.550  1.00  0.00    -0.248 NA
ATOM     52  C   UNL A   1      41.674  30.811  35.721  1.00  0.00     0.031 C 
ATOM     53  C   UNL A   1      43.771  27.011  31.461  1.00  0.00     0.029 A 
ATOM     54  C   UNL A   1      43.009  27.960  32.125  1.00  0.00     0.049 A 
ATOM     55  H   UNL A   1      41.282  28.972  31.455  1.00  0.00     0.167 HD
ATOM     56  C   UNL A   1      42.404  29.421  34.046  1.00  0.00     0.074 A 
ATOM     57  C   UNL A   1      42.619  29.946  35.380  1.00  0.00     0.031 C 
ATOM     58  C   UNL A   1      43.207  28.502  33.450  1.00  0.00     0.034 A 
BRANCH  45  59
ATOM     59  C   UNL A   1      41.439  26.902  27.704  1.00  0.00     0.023 A 
ATOM     60  C   UNL A   1      40.992  25.568  27.663  1.00  0.00     0.031 A 
ATOM     61  C   UNL A   1      42.153  27.385  26.594  1.00  0.00     0.131 A 
ATOM     62  C   UNL A   1      41.364  24.735  26.598  1.00  0.00     0.055 A 
ATOM     63  C   UNL A   1      42.428  26.579  25.486  1.00  0.00     0.041 A 
ATOM     64  F   UNL A   1      42.625  28.641  26.577  1.00  0.00    -0.206 F 
ATOM     65  C   UNL A   1      42.055  25.238  25.494  1.00  0.00     0.022 A 
BRANCH  62  66
ATOM     66  S   UNL A   1      41.107  22.948  26.774  1.00  0.00     0.124 S 
ATOM     67  O   UNL A   1      41.625  22.708  28.120  1.00  0.00    -0.237 OA
ATOM     68  O   UNL A   1      39.663  22.819  26.614  1.00  0.00    -0.237 OA
ATOM     69  O   UNL A   1      41.910  22.377  25.695  1.00  0.00    -0.744 OA
ENDBRANCH  62  66
ENDBRANCH  45  59
BRANCH  46  70
ATOM     70  C   UNL A   1      39.332  32.599  35.711  1.00  0.00     0.023 A 
ATOM     71  C   UNL A   1      39.782  33.917  35.884  1.00  0.00     0.031 A 
ATOM     72  C   UNL A   1      38.529  32.038  36.721  1.00  0.00     0.131 A 
ATOM     73  C   UNL A   1      39.456  34.621  37.053  1.00  0.00     0.055 A 
ATOM     74  C   UNL A   1      38.167  32.759  37.860  1.00  0.00     0.041 A 
ATOM     75  F   UNL A   1      38.064  30.785  36.599  1.00  0.00    -0.206 F 
ATOM     76  C   UNL A   1      38.639  34.055  38.037  1.00  0.00     0.022 A 
BRANCH  73  77
ATOM     77  S   UNL A   1      40.162  36.272  37.300  1.00  0.00     0.124 S 
ATOM     78  O   UNL A   1      39.296  36.812  38.343  1.00  0.00    -0.237 OA
ATOM     79  O   UNL A   1      41.530  35.961  37.698  1.00  0.00    -0.237 OA
ATOM     80  O   UNL A   1      40.026  36.901  35.988  1.00  0.00    -0.744 OA
ENDBRANCH  73  77
ENDBRANCH  46  70
BRANCH  58  81
ATOM     81  C   UNL A   1      44.434  28.061  34.205  1.00  0.00     0.023 A 
ATOM     82  C   UNL A   1      44.410  26.994  35.118  1.00  0.00     0.031 A 
ATOM     83  C   UNL A   1      45.662  28.711  33.976  1.00  0.00     0.131 A 
ATOM     84  C   UNL A   1      45.583  26.630  35.796  1.00  0.00     0.055 A 
ATOM     85  C   UNL A   1      46.836  28.308  34.610  1.00  0.00     0.041 A 
ATOM     86  F   UNL A   1      45.741  29.737  33.113  1.00  0.00    -0.206 F 
ATOM     87  C   UNL A   1      46.800  27.267  35.533  1.00  0.00     0.022 A 
BRANCH  84  88
ATOM     88  S   UNL A   1      45.492  25.347  37.075  1.00  0.00     0.124 S 
ATOM     89  O   UNL A   1      44.167  24.780  36.840  1.00  0.00    -0.237 OA
ATOM     90  O   UNL A   1      46.622  24.489  36.740  1.00  0.00    -0.237 OA
ATOM     91  O   UNL A   1      45.632  26.097  38.323  1.00  0.00    -0.744 OA
ENDBRANCH  84  88
ENDBRANCH  58  81
ENDBRANCH  32  33
ENDBRANCH  24  27
ENDBRANCH  22  23
ENDBRANCH   1  22
TORSDOF 15
ENDMDL
MODEL 2
REMARK VINA RESULT:     -12.3      1.455      1.625
REMARK SMILES CC(C)c1ccc([C@]2(C(=O)NCCCNC(=O)c3ccc(-c4c5nc(c(-c6cc(S(=O)(=O)[O-])ccc6F)c6ccc([nH]6)c(-c6cc(S(=O)(=O)[O-])ccc6F)c6nc(c(-c7cc(S(=O)(=O)[O-])ccc7F)c7ccc4[nH]7)C=C6)C=C5)cc3)CCC[C@@H]2C)cc1
REMARK SMILES IDX 13 1 12 2 11 3 9 4 10 5 8 7 81 8 84 9 82 10 83 11 85 12 7 13
REMARK SMILES IDX 4 14 5 15 87 16 6 17 86 18 2 19 1 20 3 21 14 22 15 23 16 24
REMARK SMILES IDX 17 26 18 27 19 28 80 29 20 30 79 31 21 32 22 33 23 34 73 35
REMARK SMILES IDX 24 36 78 37 72 38 74 39 25 40 77 41 71 42 70 43 26 45 58 46
REMARK SMILES IDX 38 47 57 48 39 49 42 50 56 51 75 52 40 53 41 54 55 56 76 57
REMARK SMILES IDX 43 58 27 59 28 60 36 61 29 62 35 63 37 64 34 65 30 66 31 67
REMARK SMILES IDX 32 68 33 69 59 70 60 71 68 72 61 73 67 74 69 75 66 76 62 77
REMARK SMILES IDX 63 78 64 79 65 80 44 81 45 82 53 83 46 84 52 85 54 86 51 87
REMARK SMILES IDX 47 88 48 89 49 90 50 91
REMARK H PARENT 11 6 15 25 74 44 42 55
REMARK Flexibility Score: inf
ROOT
ATOM      1  C   UNL A   1      31.692  29.279  26.841  1.00  0.00     0.042 C 
ENDROOT
BRANCH   1   2
ATOM      2  C   UNL A   1      32.298  28.032  27.458  1.00  0.00     0.117 C 
BRANCH   2   3
ATOM      3  N   UNL A   1      31.486  26.858  27.297  1.00  0.00    -0.355 N 
ATOM      4  C   UNL A   1      31.550  25.815  26.438  1.00  0.00     0.230 C 
ATOM      5  O   UNL A   1      31.072  24.782  26.934  1.00  0.00    -0.274 OA
ATOM      6  H   UNL A   1      30.739  26.802  27.936  1.00  0.00     0.163 HD
BRANCH   4   7
ATOM      7  C   UNL A   1      32.098  25.837  24.936  1.00  0.00     0.077 C 
ATOM      8  C   UNL A   1      33.564  26.335  24.863  1.00  0.00     0.022 C 
ATOM      9  C   UNL A   1      32.189  24.433  24.215  1.00  0.00     0.006 C 
ATOM     10  C   UNL A   1      34.491  25.137  24.686  1.00  0.00     0.002 C 
ATOM     11  C   UNL A   1      33.633  23.924  24.388  1.00  0.00     0.005 C 
ATOM     12  C   UNL A   1      31.976  24.381  22.685  1.00  0.00     0.009 C 
BRANCH   7  13
ATOM     13  C   UNL A   1      31.143  26.847  24.224  1.00  0.00    -0.032 A 
ATOM     14  C   UNL A   1      29.421  28.648  22.799  1.00  0.00    -0.045 A 
ATOM     15  C   UNL A   1      30.812  28.800  22.785  1.00  0.00     0.004 A 
ATOM     16  C   UNL A   1      28.911  27.544  23.497  1.00  0.00     0.004 A 
ATOM     17  C   UNL A   1      31.652  27.890  23.437  1.00  0.00     0.005 A 
ATOM     18  C   UNL A   1      29.754  26.658  24.189  1.00  0.00     0.005 A 
BRANCH  14  19
ATOM     19  C   UNL A   1      28.498  29.669  22.135  1.00  0.00     0.013 C 
ATOM     20  C   UNL A   1      27.500  30.333  23.098  1.00  0.00     0.012 C 
ATOM     21  C   UNL A   1      29.240  30.783  21.382  1.00  0.00     0.012 C 
ENDBRANCH  14  19
ENDBRANCH   7  13
ENDBRANCH   4   7
ENDBRANCH   2   3
ENDBRANCH   1   2
BRANCH   1  22
ATOM     22  C   UNL A   1      32.743  30.188  26.223  1.00  0.00     0.118 C 
BRANCH  22  23
ATOM     23  N   UNL A   1      32.469  31.598  26.495  1.00  0.00    -0.352 N 
ATOM     24  C   UNL A   1      33.082  32.471  27.365  1.00  0.00     0.251 C 
ATOM     25  H   UNL A   1      31.729  31.985  25.974  1.00  0.00     0.163 HD
ATOM     26  O   UNL A   1      32.546  33.536  27.632  1.00  0.00    -0.269 OA
BRANCH  24  27
ATOM     27  C   UNL A   1      34.376  32.101  27.975  1.00  0.00     0.039 A 
ATOM     28  C   UNL A   1      35.432  33.016  27.966  1.00  0.00     0.014 A 
ATOM     29  C   UNL A   1      34.542  30.842  28.552  1.00  0.00     0.014 A 
ATOM     30  C   UNL A   1      36.631  32.691  28.605  1.00  0.00     0.010 A 
ATOM     31  C   UNL A   1      35.688  30.565  29.278  1.00  0.00     0.010 A 
ATOM     32  C   UNL A   1      36.754  31.478  29.298  1.00  0.00    -0.014 A 
BRANCH  32  33
ATOM     33  C   UNL A   1      37.995  31.082  30.009  1.00  0.00     0.031 A 
ATOM     34  C   UNL A   1      38.924  30.099  29.350  1.00  0.00     0.074 A 
ATOM     35  C   UNL A   1      38.219  31.496  31.270  1.00  0.00     0.049 A 
ATOM     36  N   UNL A   1      39.922  29.424  29.858  1.00  0.00    -0.248 NA
ATOM     37  C   UNL A   1      38.645  29.791  27.939  1.00  0.00     0.031 C 
ATOM     38  C   UNL A   1      37.371  32.422  32.022  1.00  0.00     0.029 A 
ATOM     39  N   UNL A   1      39.215  31.164  32.153  1.00  0.00    -0.354 N 
ATOM     40  C   UNL A   1      40.359  28.581  28.841  1.00  0.00     0.074 A 
ATOM     41  C   UNL A   1      39.467  28.779  27.719  1.00  0.00     0.031 C 
ATOM     42  C   UNL A   1      37.887  32.590  33.250  1.00  0.00     0.029 A 
ATOM     43  C   UNL A   1      39.067  31.742  33.393  1.00  0.00     0.049 A 
ATOM     44  H   UNL A   1      39.964  30.569  31.922  1.00  0.00     0.167 HD
ATOM     45  C   UNL A   1      41.424  27.741  28.837  1.00  0.00     0.034 A 
ATOM     46  C   UNL A   1      39.783  31.580  34.524  1.00  0.00     0.034 A 
ATOM     47  C   UNL A   1      42.312  27.586  29.962  1.00  0.00     0.049 A 
ATOM     48  C   UNL A   1      40.962  30.640  34.507  1.00  0.00     0.074 A 
ATOM     49  C   UNL A   1      43.451  26.810  30.065  1.00  0.00     0.029 A 
ATOM     50  N   UNL A   1      42.157  28.228  31.186  1.00  0.00    -0.354 N 
ATOM     51  N   UNL A   1      41.385  29.867  33.534  1.00  0.00    -0.248 NA
ATOM     52  C   UNL A   1      41.765  30.560  35.732  1.00  0.00     0.031 C 
ATOM     53  C   UNL A   1      43.948  26.932  31.367  1.00  0.00     0.029 A 
ATOM     54  C   UNL A   1      43.168  27.849  32.055  1.00  0.00     0.049 A 
ATOM     55  H   UNL A   1      41.434  28.860  31.404  1.00  0.00     0.167 HD
ATOM     56  C   UNL A   1      42.528  29.236  34.018  1.00  0.00     0.074 A 
ATOM     57  C   UNL A   1      42.724  29.719  35.371  1.00  0.00     0.031 C 
ATOM     58  C   UNL A   1      43.348  28.348  33.399  1.00  0.00     0.034 A 
BRANCH  45  59
ATOM     59  C   UNL A   1      41.650  26.918  27.588  1.00  0.00     0.023 A 
ATOM     60  C   UNL A   1      41.297  25.558  27.527  1.00  0.00     0.031 A 
ATOM     61  C   UNL A   1      42.291  27.476  26.468  1.00  0.00     0.131 A 
ATOM     62  C   UNL A   1      41.693  24.777  26.432  1.00  0.00     0.055 A 
ATOM     63  C   UNL A   1      42.587  26.717  25.333  1.00  0.00     0.041 A 
ATOM     64  F   UNL A   1      42.672  28.763  26.467  1.00  0.00    -0.206 F 
ATOM     65  C   UNL A   1      42.311  25.353  25.320  1.00  0.00     0.022 A 
BRANCH  62  66
ATOM     66  S   UNL A   1      41.569  22.972  26.572  1.00  0.00     0.124 S 
ATOM     67  O   UNL A   1      42.331  22.720  27.793  1.00  0.00    -0.237 OA
ATOM     68  O   UNL A   1      40.130  22.761  26.663  1.00  0.00    -0.237 OA
ATOM     69  O   UNL A   1      42.197  22.488  25.344  1.00  0.00    -0.744 OA
ENDBRANCH  62  66
ENDBRANCH  45  59
BRANCH  46  70
ATOM     70  C   UNL A   1      39.400  32.317  35.761  1.00  0.00     0.023 A 
ATOM     71  C   UNL A   1      38.588  31.721  36.737  1.00  0.00     0.031 A 
ATOM     72  C   UNL A   1      39.842  33.634  35.985  1.00  0.00     0.131 A 
ATOM     73  C   UNL A   1      38.213  32.448  37.876  1.00  0.00     0.055 A 
ATOM     74  C   UNL A   1      39.506  34.338  37.143  1.00  0.00     0.041 A 
ATOM     75  F   UNL A   1      40.630  34.247  35.088  1.00  0.00    -0.206 F 
ATOM     76  C   UNL A   1      38.678  33.749  38.093  1.00  0.00     0.022 A 
BRANCH  73  77
ATOM     77  S   UNL A   1      37.057  31.691  39.051  1.00  0.00     0.124 S 
ATOM     78  O   UNL A   1      35.889  32.555  38.915  1.00  0.00    -0.237 OA
ATOM     79  O   UNL A   1      36.924  30.340  38.517  1.00  0.00    -0.237 OA
ATOM     80  O   UNL A   1      37.760  31.786  40.328  1.00  0.00    -0.744 OA
ENDBRANCH  73  77
ENDBRANCH  46  70
BRANCH  58  81
ATOM     81  C   UNL A   1      44.575  27.898  34.150  1.00  0.00     0.023 A 
ATOM     82  C   UNL A   1      44.577  26.753  34.963  1.00  0.00     0.031 A 
ATOM     83  C   UNL A   1      45.774  28.622  34.018  1.00  0.00     0.131 A 
ATOM     84  C   UNL A   1      45.749  26.384  35.641  1.00  0.00     0.055 A 
ATOM     85  C   UNL A   1      46.949  28.219  34.650  1.00  0.00     0.041 A 
ATOM     86  F   UNL A   1      45.826  29.725  33.253  1.00  0.00    -0.206 F 
ATOM     87  C   UNL A   1      46.939  27.098  35.474  1.00  0.00     0.022 A 
BRANCH  84  88
ATOM     88  S   UNL A   1      45.686  24.988  36.798  1.00  0.00     0.124 S 
ATOM     89  O   UNL A   1      45.379  23.872  35.908  1.00  0.00    -0.237 OA
ATOM     90  O   UNL A   1      47.027  24.996  37.372  1.00  0.00    -0.237 OA
ATOM     91  O   UNL A   1      44.614  25.356  37.722  1.00  0.00    -0.744 OA
ENDBRANCH  84  88
ENDBRANCH  58  81
ENDBRANCH  32  33
ENDBRANCH  24  27
ENDBRANCH  22  23
ENDBRANCH   1  22
TORSDOF 15
ENDMDL
MODEL 3
REMARK VINA RESULT:     -12.0      1.942      2.314
REMARK SMILES CC(C)c1ccc([C@]2(C(=O)NCCCNC(=O)c3ccc(-c4c5nc(c(-c6cc(S(=O)(=O)[O-])ccc6F)c6ccc([nH]6)c(-c6cc(S(=O)(=O)[O-])ccc6F)c6nc(c(-c7cc(S(=O)(=O)[O-])ccc7F)c7ccc4[nH]7)C=C6)C=C5)cc3)CCC[C@@H]2C)cc1
REMARK SMILES IDX 13 1 12 2 11 3 9 4 10 5 8 7 81 8 84 9 82 10 83 11 85 12 7 13
REMARK SMILES IDX 4 14 5 15 87 16 6 17 86 18 2 19 1 20 3 21 14 22 15 23 16 24
REMARK SMILES IDX 17 26 18 27 19 28 80 29 20 30 79 31 21 32 22 33 23 34 73 35
REMARK SMILES IDX 24 36 78 37 72 38 74 39 25 40 77 41 71 42 70 43 26 45 58 46
REMARK SMILES IDX 38 47 57 48 39 49 42 50 56 51 75 52 40 53 41 54 55 56 76 57
REMARK SMILES IDX 43 58 27 59 28 60 36 61 29 62 35 63 37 64 34 65 30 66 31 67
REMARK SMILES IDX 32 68 33 69 59 70 60 71 68 72 61 73 67 74 69 75 66 76 62 77
REMARK SMILES IDX 63 78 64 79 65 80 44 81 45 82 53 83 46 84 52 85 54 86 51 87
REMARK SMILES IDX 47 88 48 89 49 90 50 91
REMARK H PARENT 11 6 15 25 74 44 42 55
REMARK Flexibility Score: inf
ROOT
ATOM      1  C   UNL A   1      31.770  29.288  27.198  1.00  0.00     0.042 C 
ENDROOT
BRANCH   1   2
ATOM      2  C   UNL A   1      32.176  27.876  27.577  1.00  0.00     0.117 C 
BRANCH   2   3
ATOM      3  N   UNL A   1      31.216  26.878  27.194  1.00  0.00    -0.355 N 
ATOM      4  C   UNL A   1      31.148  26.037  26.137  1.00  0.00     0.230 C 
ATOM      5  O   UNL A   1      30.531  24.996  26.419  1.00  0.00    -0.274 OA
ATOM      6  H   UNL A   1      30.462  26.792  27.821  1.00  0.00     0.163 HD
BRANCH   4   7
ATOM      7  C   UNL A   1      31.707  26.295  24.662  1.00  0.00     0.077 C 
ATOM      8  C   UNL A   1      33.140  26.887  24.683  1.00  0.00     0.022 C 
ATOM      9  C   UNL A   1      31.894  25.010  23.760  1.00  0.00     0.006 C 
ATOM     10  C   UNL A   1      34.142  25.783  24.363  1.00  0.00     0.002 C 
ATOM     11  C   UNL A   1      33.366  24.571  23.889  1.00  0.00     0.005 C 
ATOM     12  C   UNL A   1      31.699  25.152  22.233  1.00  0.00     0.009 C 
BRANCH   7  13
ATOM     13  C   UNL A   1      30.697  27.331  24.075  1.00  0.00    -0.032 A 
ATOM     14  C   UNL A   1      28.780  29.241  23.116  1.00  0.00    -0.045 A 
ATOM     15  C   UNL A   1      28.434  27.904  23.339  1.00  0.00     0.004 A 
ATOM     16  C   UNL A   1      30.094  29.616  23.434  1.00  0.00     0.004 A 
ATOM     17  C   UNL A   1      29.355  26.988  23.857  1.00  0.00     0.005 A 
ATOM     18  C   UNL A   1      31.031  28.684  23.910  1.00  0.00     0.005 A 
BRANCH  14  19
ATOM     19  C   UNL A   1      27.794  30.232  22.501  1.00  0.00     0.013 C 
ATOM     20  C   UNL A   1      27.572  31.502  23.340  1.00  0.00     0.012 C 
ATOM     21  C   UNL A   1      28.156  30.667  21.073  1.00  0.00     0.012 C 
ENDBRANCH  14  19
ENDBRANCH   7  13
ENDBRANCH   4   7
ENDBRANCH   2   3
ENDBRANCH   1   2
BRANCH   1  22
ATOM     22  C   UNL A   1      32.912  30.070  26.568  1.00  0.00     0.118 C 
BRANCH  22  23
ATOM     23  N   UNL A   1      32.730  31.513  26.717  1.00  0.00    -0.352 N 
ATOM     24  C   UNL A   1      33.426  32.423  27.478  1.00  0.00     0.251 C 
ATOM     25  H   UNL A   1      31.992  31.894  26.189  1.00  0.00     0.163 HD
ATOM     26  O   UNL A   1      32.963  33.538  27.664  1.00  0.00    -0.269 OA
BRANCH  24  27
ATOM     27  C   UNL A   1      34.722  32.033  28.073  1.00  0.00     0.039 A 
ATOM     28  C   UNL A   1      35.808  32.909  28.002  1.00  0.00     0.014 A 
ATOM     29  C   UNL A   1      34.858  30.794  28.699  1.00  0.00     0.014 A 
ATOM     30  C   UNL A   1      37.011  32.569  28.625  1.00  0.00     0.010 A 
ATOM     31  C   UNL A   1      36.012  30.508  29.410  1.00  0.00     0.010 A 
ATOM     32  C   UNL A   1      37.109  31.382  29.367  1.00  0.00    -0.014 A 
BRANCH  32  33
ATOM     33  C   UNL A   1      38.352  30.973  30.064  1.00  0.00     0.031 A 
ATOM     34  C   UNL A   1      39.261  29.976  29.398  1.00  0.00     0.074 A 
ATOM     35  C   UNL A   1      38.596  31.387  31.321  1.00  0.00     0.049 A 
ATOM     36  N   UNL A   1      40.256  29.289  29.897  1.00  0.00    -0.248 NA
ATOM     37  C   UNL A   1      38.962  29.666  27.991  1.00  0.00     0.031 C 
ATOM     38  C   UNL A   1      37.769  32.327  32.080  1.00  0.00     0.029 A 
ATOM     39  N   UNL A   1      39.598  31.045  32.195  1.00  0.00    -0.354 N 
ATOM     40  C   UNL A   1      40.671  28.438  28.878  1.00  0.00     0.074 A 
ATOM     41  C   UNL A   1      39.769  28.643  27.766  1.00  0.00     0.031 C 
ATOM     42  C   UNL A   1      38.301  32.492  33.302  1.00  0.00     0.029 A 
ATOM     43  C   UNL A   1      39.471  31.629  33.434  1.00  0.00     0.049 A 
ATOM     44  H   UNL A   1      40.337  30.440  31.957  1.00  0.00     0.167 HD
ATOM     45  C   UNL A   1      41.725  27.584  28.865  1.00  0.00     0.034 A 
ATOM     46  C   UNL A   1      40.198  31.462  34.557  1.00  0.00     0.034 A 
ATOM     47  C   UNL A   1      42.623  27.421  29.980  1.00  0.00     0.049 A 
ATOM     48  C   UNL A   1      41.364  30.507  34.530  1.00  0.00     0.074 A 
ATOM     49  C   UNL A   1      43.754  26.631  30.073  1.00  0.00     0.029 A 
ATOM     50  N   UNL A   1      42.490  28.069  31.204  1.00  0.00    -0.354 N 
ATOM     51  N   UNL A   1      41.767  29.725  33.555  1.00  0.00    -0.248 NA
ATOM     52  C   UNL A   1      42.180  30.420  35.747  1.00  0.00     0.031 C 
ATOM     53  C   UNL A   1      44.267  26.750  31.369  1.00  0.00     0.029 A 
ATOM     54  C   UNL A   1      43.506  27.679  32.062  1.00  0.00     0.049 A 
ATOM     55  H   UNL A   1      41.778  28.710  31.428  1.00  0.00     0.167 HD
ATOM     56  C   UNL A   1      42.907  29.081  34.029  1.00  0.00     0.074 A 
ATOM     57  C   UNL A   1      43.124  29.566  35.377  1.00  0.00     0.031 C 
ATOM     58  C   UNL A   1      43.708  28.181  33.402  1.00  0.00     0.034 A 
BRANCH  45  59
ATOM     59  C   UNL A   1      41.926  26.754  27.616  1.00  0.00     0.023 A 
ATOM     60  C   UNL A   1      41.623  25.381  27.586  1.00  0.00     0.031 A 
ATOM     61  C   UNL A   1      42.495  27.322  26.462  1.00  0.00     0.131 A 
ATOM     62  C   UNL A   1      41.999  24.602  26.483  1.00  0.00     0.055 A 
ATOM     63  C   UNL A   1      42.768  26.559  25.324  1.00  0.00     0.041 A 
ATOM     64  F   UNL A   1      42.825  28.622  26.430  1.00  0.00    -0.206 F 
ATOM     65  C   UNL A   1      42.544  25.186  25.338  1.00  0.00     0.022 A 
BRANCH  62  66
ATOM     66  S   UNL A   1      41.951  22.796  26.649  1.00  0.00     0.124 S 
ATOM     67  O   UNL A   1      42.169  22.368  25.268  1.00  0.00    -0.237 OA
ATOM     68  O   UNL A   1      43.045  22.535  27.577  1.00  0.00    -0.237 OA
ATOM     69  O   UNL A   1      40.612  22.533  27.170  1.00  0.00    -0.744 OA
ENDBRANCH  62  66
ENDBRANCH  45  59
BRANCH  46  70
ATOM     70  C   UNL A   1      39.839  32.208  35.796  1.00  0.00     0.023 A 
ATOM     71  C   UNL A   1      38.905  31.692  36.706  1.00  0.00     0.031 A 
ATOM     72  C   UNL A   1      40.425  33.453  36.087  1.00  0.00     0.131 A 
ATOM     73  C   UNL A   1      38.558  32.430  37.848  1.00  0.00     0.055 A 
ATOM     74  C   UNL A   1      40.113  34.162  37.248  1.00  0.00     0.041 A 
ATOM     75  F   UNL A   1      41.333  33.987  35.254  1.00  0.00    -0.206 F 
ATOM     76  C   UNL A   1      39.166  33.656  38.133  1.00  0.00     0.022 A 
BRANCH  73  77
ATOM     77  S   UNL A   1      37.253  31.792  38.933  1.00  0.00     0.124 S 
ATOM     78  O   UNL A   1      36.190  32.769  38.725  1.00  0.00    -0.237 OA
ATOM     79  O   UNL A   1      37.021  30.462  38.380  1.00  0.00    -0.237 OA
ATOM     80  O   UNL A   1      37.871  31.813  40.257  1.00  0.00    -0.744 OA
ENDBRANCH  73  77
ENDBRANCH  46  70
BRANCH  58  81
ATOM     81  C   UNL A   1      44.937  27.718  34.141  1.00  0.00     0.023 A 
ATOM     82  C   UNL A   1      46.167  28.389  34.044  1.00  0.00     0.031 A 
ATOM     83  C   UNL A   1      44.858  26.595  34.987  1.00  0.00     0.131 A 
ATOM     84  C   UNL A   1      47.279  27.910  34.752  1.00  0.00     0.055 A 
ATOM     85  C   UNL A   1      45.953  26.157  35.731  1.00  0.00     0.041 A 
ATOM     86  F   UNL A   1      43.707  25.916  35.115  1.00  0.00    -0.206 F 
ATOM     87  C   UNL A   1      47.175  26.811  35.610  1.00  0.00     0.022 A 
BRANCH  84  88
ATOM     88  S   UNL A   1      48.889  28.707  34.495  1.00  0.00     0.124 S 
ATOM     89  O   UNL A   1      48.623  30.073  34.935  1.00  0.00    -0.237 OA
ATOM     90  O   UNL A   1      49.769  27.920  35.352  1.00  0.00    -0.237 OA
ATOM     91  O   UNL A   1      49.122  28.553  33.060  1.00  0.00    -0.744 OA
ENDBRANCH  84  88
ENDBRANCH  58  81
ENDBRANCH  32  33
ENDBRANCH  24  27
ENDBRANCH  22  23
ENDBRANCH   1  22
TORSDOF 15
ENDMDL
