MODEL 1
REMARK VINA RESULT:     -12.6      0.000      0.000
REMARK SMILES O=C1C[C@H](C(=O)NCCCNC(=O)c2ccc(-c3c4nc(c(-c5cc(S(=O)(=O)[O-])ccc5F)c5ccc([nH]5)c(-c5cc(S(=O)(=O)[O-])ccc5F)c5nc(c(-c6cc(S(=O)(=O)[O-])ccc6F)c6ccc3[nH]6)C=C5)C=C4)cc2)c2c(nc(N3CCSCC3)[nH]c2=O)N1
REMARK SMILES IDX 10 1 9 2 8 3 7 4 5 5 6 6 4 8 1 9 2 10 3 11 90 12 78 13 77 15
REMARK SMILES IDX 79 16 88 17 80 18 87 19 89 20 81 22 82 23 86 24 83 25 85 26
REMARK SMILES IDX 84 27 11 28 12 29 13 31 14 32 15 33 76 34 16 35 75 36 17 37
REMARK SMILES IDX 18 38 19 39 69 40 20 41 74 42 68 43 70 44 21 45 73 46 67 47
REMARK SMILES IDX 66 48 22 50 54 51 34 52 53 53 35 54 38 55 52 56 71 57 36 58
REMARK SMILES IDX 37 59 51 61 72 62 39 63 23 64 24 65 32 66 25 67 31 68 33 69
REMARK SMILES IDX 30 70 26 71 27 72 28 73 29 74 55 75 56 76 64 77 57 78 63 79
REMARK SMILES IDX 65 80 62 81 58 82 59 83 60 84 61 85 40 86 41 87 49 88 42 89
REMARK SMILES IDX 48 90 50 91 47 92 43 93 44 94 45 95 46 96
REMARK H PARENT 7 7 90 14 87 21 11 30 70 49 38 60
REMARK Flexibility Score: inf
ROOT
ATOM      1  C   UNL A   1      32.776  32.923  27.246  1.00  0.00     0.118 C 
ENDROOT
BRANCH   1   2
ATOM      2  C   UNL A   1      31.423  32.431  26.751  1.00  0.00     0.042 C 
BRANCH   2   3
ATOM      3  C   UNL A   1      31.387  30.933  26.491  1.00  0.00     0.117 C 
BRANCH   3   4
ATOM      4  N   UNL A   1      32.664  30.302  26.788  1.00  0.00    -0.355 N 
ATOM      5  C   UNL A   1      33.295  29.234  26.228  1.00  0.00     0.228 C 
ATOM      6  O   UNL A   1      34.325  28.832  26.778  1.00  0.00    -0.274 OA
ATOM      7  H   UNL A   1      33.160  30.725  27.526  1.00  0.00     0.163 HD
BRANCH   5   8
ATOM      8  C   UNL A   1      32.746  28.518  24.992  1.00  0.00     0.127 C 
ATOM      9  O   UNL A   1      34.141  27.896  21.640  1.00  0.00    -0.275 OA
ATOM     10  C   UNL A   1      33.775  27.704  22.797  1.00  0.00     0.226 C 
ATOM     11  C   UNL A   1      33.633  28.835  23.787  1.00  0.00     0.119 C 
ATOM     12  N   UNL A   1      33.558  26.438  23.258  1.00  0.00    -0.310 N 
ATOM     13  C   UNL A   1      32.996  26.097  24.447  1.00  0.00     0.146 A 
ATOM     14  H   UNL A   1      33.836  25.698  22.670  1.00  0.00     0.171 HD
ATOM     15  C   UNL A   1      32.547  27.059  25.262  1.00  0.00     0.073 A 
ATOM     16  N   UNL A   1      32.940  24.756  24.694  1.00  0.00    -0.196 NA
ATOM     17  C   UNL A   1      31.845  26.612  26.475  1.00  0.00     0.258 A 
ATOM     18  C   UNL A   1      32.352  24.371  25.782  1.00  0.00     0.207 A 
ATOM     19  N   UNL A   1      31.802  25.265  26.653  1.00  0.00    -0.292 N 
ATOM     20  O   UNL A   1      31.328  27.382  27.274  1.00  0.00    -0.269 OA
ATOM     21  H   UNL A   1      31.350  24.915  27.454  1.00  0.00     0.173 HD
BRANCH  18  22
ATOM     22  N   UNL A   1      32.258  23.059  26.159  1.00  0.00    -0.341 N 
ATOM     23  C   UNL A   1      31.343  22.128  25.495  1.00  0.00     0.130 C 
ATOM     24  C   UNL A   1      33.176  22.491  27.152  1.00  0.00     0.130 C 
ATOM     25  C   UNL A   1      32.105  21.052  24.718  1.00  0.00     0.091 C 
ATOM     26  C   UNL A   1      34.093  21.416  26.569  1.00  0.00     0.091 C 
ATOM     27  S   UNL A   1      33.153  20.041  25.816  1.00  0.00    -0.158 SA
ENDBRANCH  18  22
ENDBRANCH   5   8
ENDBRANCH   3   4
ENDBRANCH   2   3
ENDBRANCH   1   2
BRANCH   1  28
ATOM     28  N   UNL A   1      32.718  34.296  27.731  1.00  0.00    -0.352 N 
ATOM     29  C   UNL A   1      33.404  34.870  28.776  1.00  0.00     0.251 C 
ATOM     30  H   UNL A   1      32.105  34.894  27.246  1.00  0.00     0.163 HD
ATOM     31  O   UNL A   1      33.084  35.979  29.192  1.00  0.00    -0.269 OA
BRANCH  29  32
ATOM     32  C   UNL A   1      34.514  34.123  29.399  1.00  0.00     0.039 A 
ATOM     33  C   UNL A   1      35.824  34.378  28.992  1.00  0.00     0.014 A 
ATOM     34  C   UNL A   1      34.249  33.193  30.409  1.00  0.00     0.014 A 
ATOM     35  C   UNL A   1      36.880  33.742  29.647  1.00  0.00     0.010 A 
ATOM     36  C   UNL A   1      35.303  32.622  31.112  1.00  0.00     0.010 A 
ATOM     37  C   UNL A   1      36.627  32.880  30.727  1.00  0.00    -0.014 A 
BRANCH  37  38
ATOM     38  C   UNL A   1      37.736  32.205  31.441  1.00  0.00     0.031 A 
ATOM     39  C   UNL A   1      38.433  31.040  30.799  1.00  0.00     0.074 A 
ATOM     40  C   UNL A   1      38.084  32.608  32.679  1.00  0.00     0.049 A 
ATOM     41  N   UNL A   1      39.424  30.323  31.257  1.00  0.00    -0.248 NA
ATOM     42  C   UNL A   1      37.942  30.611  29.478  1.00  0.00     0.031 C 
ATOM     43  C   UNL A   1      37.440  33.690  33.424  1.00  0.00     0.029 A 
ATOM     44  N   UNL A   1      39.059  32.151  33.530  1.00  0.00    -0.354 N 
ATOM     45  C   UNL A   1      39.674  29.363  30.285  1.00  0.00     0.074 A 
ATOM     46  C   UNL A   1      38.692  29.545  29.242  1.00  0.00     0.031 C 
ATOM     47  C   UNL A   1      38.050  33.826  34.611  1.00  0.00     0.029 A 
ATOM     48  C   UNL A   1      39.109  32.826  34.726  1.00  0.00     0.049 A 
ATOM     49  H   UNL A   1      39.666  31.408  33.304  1.00  0.00     0.167 HD
ATOM     50  C   UNL A   1      40.657  28.436  30.251  1.00  0.00     0.034 A 
ATOM     51  C   UNL A   1      39.920  32.663  35.793  1.00  0.00     0.034 A 
ATOM     52  C   UNL A   1      41.644  28.277  31.285  1.00  0.00     0.049 A 
ATOM     53  C   UNL A   1      41.011  31.624  35.732  1.00  0.00     0.074 A 
ATOM     54  C   UNL A   1      42.717  27.405  31.310  1.00  0.00     0.029 A 
ATOM     55  N   UNL A   1      41.680  28.996  32.469  1.00  0.00    -0.354 N 
ATOM     56  N   UNL A   1      41.302  30.794  34.758  1.00  0.00    -0.248 NA
ATOM     57  C   UNL A   1      41.894  31.507  36.900  1.00  0.00     0.031 C 
ATOM     58  C   UNL A   1      43.369  27.557  32.534  1.00  0.00     0.029 A 
ATOM     59  C   UNL A   1      42.746  28.571  33.244  1.00  0.00     0.049 A 
ATOM     60  H   UNL A   1      41.044  29.704  32.722  1.00  0.00     0.167 HD
ATOM     61  C   UNL A   1      42.420  30.080  35.183  1.00  0.00     0.074 A 
ATOM     62  C   UNL A   1      42.760  30.587  36.496  1.00  0.00     0.031 C 
ATOM     63  C   UNL A   1      43.098  29.098  34.540  1.00  0.00     0.034 A 
BRANCH  50  64
ATOM     64  C   UNL A   1      40.753  27.535  29.049  1.00  0.00     0.023 A 
ATOM     65  C   UNL A   1      41.680  27.819  28.031  1.00  0.00     0.031 A 
ATOM     66  C   UNL A   1      39.841  26.483  28.852  1.00  0.00     0.131 A 
ATOM     67  C   UNL A   1      41.648  27.083  26.842  1.00  0.00     0.055 A 
ATOM     68  C   UNL A   1      39.841  25.726  27.681  1.00  0.00     0.041 A 
ATOM     69  F   UNL A   1      38.942  26.173  29.799  1.00  0.00    -0.206 F 
ATOM     70  C   UNL A   1      40.740  26.033  26.663  1.00  0.00     0.022 A 
BRANCH  67  71
ATOM     71  S   UNL A   1      42.752  27.491  25.463  1.00  0.00     0.124 S 
ATOM     72  O   UNL A   1      42.050  28.609  24.835  1.00  0.00    -0.237 OA
ATOM     73  O   UNL A   1      43.987  27.840  26.157  1.00  0.00    -0.237 OA
ATOM     74  O   UNL A   1      42.792  26.266  24.672  1.00  0.00    -0.744 OA
ENDBRANCH  67  71
ENDBRANCH  50  64
BRANCH  51  75
ATOM     75  C   UNL A   1      39.761  33.563  36.969  1.00  0.00     0.023 A 
ATOM     76  C   UNL A   1      39.110  33.122  38.134  1.00  0.00     0.031 A 
ATOM     77  C   UNL A   1      40.170  34.906  36.906  1.00  0.00     0.131 A 
ATOM     78  C   UNL A   1      38.837  34.030  39.164  1.00  0.00     0.055 A 
ATOM     79  C   UNL A   1      39.951  35.793  37.962  1.00  0.00     0.041 A 
ATOM     80  F   UNL A   1      40.786  35.374  35.809  1.00  0.00    -0.206 F 
ATOM     81  C   UNL A   1      39.268  35.359  39.093  1.00  0.00     0.022 A 
BRANCH  78  82
ATOM     82  S   UNL A   1      37.827  33.541  40.589  1.00  0.00     0.124 S 
ATOM     83  O   UNL A   1      38.677  32.553  41.245  1.00  0.00    -0.237 OA
ATOM     84  O   UNL A   1      37.679  34.814  41.293  1.00  0.00    -0.237 OA
ATOM     85  O   UNL A   1      36.607  33.018  39.983  1.00  0.00    -0.744 OA
ENDBRANCH  78  82
ENDBRANCH  51  75
BRANCH  63  86
ATOM     86  C   UNL A   1      44.307  28.492  35.207  1.00  0.00     0.023 A 
ATOM     87  C   UNL A   1      44.135  27.501  36.194  1.00  0.00     0.031 A 
ATOM     88  C   UNL A   1      45.596  29.008  34.998  1.00  0.00     0.131 A 
ATOM     89  C   UNL A   1      45.226  27.093  36.969  1.00  0.00     0.055 A 
ATOM     90  C   UNL A   1      46.691  28.563  35.741  1.00  0.00     0.041 A 
ATOM     91  F   UNL A   1      45.807  29.961  34.077  1.00  0.00    -0.206 F 
ATOM     92  C   UNL A   1      46.506  27.612  36.742  1.00  0.00     0.022 A 
BRANCH  89  93
ATOM     93  S   UNL A   1      45.012  25.936  38.348  1.00  0.00     0.124 S 
ATOM     94  O   UNL A   1      44.228  24.868  37.730  1.00  0.00    -0.237 OA
ATOM     95  O   UNL A   1      46.392  25.588  38.674  1.00  0.00    -0.237 OA
ATOM     96  O   UNL A   1      44.306  26.716  39.359  1.00  0.00    -0.744 OA
ENDBRANCH  89  93
ENDBRANCH  63  86
ENDBRANCH  37  38
ENDBRANCH  29  32
ENDBRANCH   1  28
TORSDOF 14
ENDMDL
MODEL 2
REMARK VINA RESULT:     -12.6      3.455      8.861
REMARK SMILES O=C1C[C@H](C(=O)NCCCNC(=O)c2ccc(-c3c4nc(c(-c5cc(S(=O)(=O)[O-])ccc5F)c5ccc([nH]5)c(-c5cc(S(=O)(=O)[O-])ccc5F)c5nc(c(-c6cc(S(=O)(=O)[O-])ccc6F)c6ccc3[nH]6)C=C5)C=C4)cc2)c2c(nc(N3CCSCC3)[nH]c2=O)N1
REMARK SMILES IDX 10 1 9 2 8 3 7 4 5 5 6 6 4 8 1 9 2 10 3 11 90 12 78 13 77 15
REMARK SMILES IDX 79 16 88 17 80 18 87 19 89 20 81 22 82 23 86 24 83 25 85 26
REMARK SMILES IDX 84 27 11 28 12 29 13 31 14 32 15 33 76 34 16 35 75 36 17 37
REMARK SMILES IDX 18 38 19 39 69 40 20 41 74 42 68 43 70 44 21 45 73 46 67 47
REMARK SMILES IDX 66 48 22 50 54 51 34 52 53 53 35 54 38 55 52 56 71 57 36 58
REMARK SMILES IDX 37 59 51 61 72 62 39 63 23 64 24 65 32 66 25 67 31 68 33 69
REMARK SMILES IDX 30 70 26 71 27 72 28 73 29 74 55 75 56 76 64 77 57 78 63 79
REMARK SMILES IDX 65 80 62 81 58 82 59 83 60 84 61 85 40 86 41 87 49 88 42 89
REMARK SMILES IDX 48 90 50 91 47 92 43 93 44 94 45 95 46 96
REMARK H PARENT 7 7 90 14 87 21 11 30 70 49 38 60
REMARK Flexibility Score: inf
ROOT
ATOM      1  C   UNL A   1      34.036  28.378  26.012  1.00  0.00     0.118 C 
ENDROOT
BRANCH   1   2
ATOM      2  C   UNL A   1      33.283  27.902  24.778  1.00  0.00     0.042 C 
BRANCH   2   3
ATOM      3  C   UNL A   1      33.521  26.434  24.458  1.00  0.00     0.117 C 
BRANCH   3   4
ATOM      4  N   UNL A   1      33.285  25.584  25.614  1.00  0.00    -0.355 N 
ATOM      5  C   UNL A   1      33.832  24.394  25.987  1.00  0.00     0.228 C 
ATOM      6  O   UNL A   1      33.338  23.825  26.965  1.00  0.00    -0.274 OA
ATOM      7  H   UNL A   1      32.608  25.932  26.239  1.00  0.00     0.163 HD
BRANCH   5   8
ATOM      8  C   UNL A   1      34.986  23.750  25.215  1.00  0.00     0.127 C 
ATOM      9  O   UNL A   1      38.476  22.992  26.114  1.00  0.00    -0.275 OA
ATOM     10  C   UNL A   1      37.282  22.836  25.873  1.00  0.00     0.226 C 
ATOM     11  C   UNL A   1      36.292  23.971  25.979  1.00  0.00     0.119 C 
ATOM     12  N   UNL A   1      36.787  21.600  25.574  1.00  0.00    -0.310 N 
ATOM     13  C   UNL A   1      35.535  21.319  25.127  1.00  0.00     0.146 A 
ATOM     14  H   UNL A   1      37.398  20.837  25.694  1.00  0.00     0.171 HD
ATOM     15  C   UNL A   1      34.680  22.321  24.890  1.00  0.00     0.073 A 
ATOM     16  N   UNL A   1      35.272  19.991  24.952  1.00  0.00    -0.196 NA
ATOM     17  C   UNL A   1      33.388  21.949  24.296  1.00  0.00     0.258 A 
ATOM     18  C   UNL A   1      34.116  19.669  24.462  1.00  0.00     0.207 A 
ATOM     19  N   UNL A   1      33.194  20.615  24.125  1.00  0.00    -0.292 N 
ATOM     20  O   UNL A   1      32.538  22.768  23.968  1.00  0.00    -0.269 OA
ATOM     21  H   UNL A   1      32.340  20.314  23.737  1.00  0.00     0.173 HD
BRANCH  18  22
ATOM     22  N   UNL A   1      33.720  18.374  24.269  1.00  0.00    -0.341 N 
ATOM     23  C   UNL A   1      34.666  17.324  23.887  1.00  0.00     0.130 C 
ATOM     24  C   UNL A   1      32.350  17.951  24.577  1.00  0.00     0.130 C 
ATOM     25  C   UNL A   1      34.843  16.294  25.006  1.00  0.00     0.091 C 
ATOM     26  C   UNL A   1      32.281  16.947  25.727  1.00  0.00     0.091 C 
ATOM     27  S   UNL A   1      33.275  15.450  25.398  1.00  0.00    -0.158 SA
ENDBRANCH  18  22
ENDBRANCH   5   8
ENDBRANCH   3   4
ENDBRANCH   2   3
ENDBRANCH   1   2
BRANCH   1  28
ATOM     28  N   UNL A   1      33.762  29.776  26.319  1.00  0.00    -0.352 N 
ATOM     29  C   UNL A   1      34.384  30.596  27.230  1.00  0.00     0.251 C 
ATOM     30  H   UNL A   1      33.032  30.190  25.804  1.00  0.00     0.163 HD
ATOM     31  O   UNL A   1      33.896  31.683  27.521  1.00  0.00    -0.269 OA
BRANCH  29  32
ATOM     32  C   UNL A   1      35.634  30.138  27.867  1.00  0.00     0.039 A 
ATOM     33  C   UNL A   1      35.576  29.471  29.091  1.00  0.00     0.014 A 
ATOM     34  C   UNL A   1      36.861  30.347  27.227  1.00  0.00     0.014 A 
ATOM     35  C   UNL A   1      36.747  28.955  29.647  1.00  0.00     0.010 A 
ATOM     36  C   UNL A   1      38.013  29.764  27.742  1.00  0.00     0.010 A 
ATOM     37  C   UNL A   1      37.968  29.077  28.963  1.00  0.00    -0.014 A 
BRANCH  37  38
ATOM     38  C   UNL A   1      39.220  28.525  29.532  1.00  0.00     0.031 A 
ATOM     39  C   UNL A   1      39.790  29.119  30.789  1.00  0.00     0.074 A 
ATOM     40  C   UNL A   1      39.866  27.526  28.899  1.00  0.00     0.049 A 
ATOM     41  N   UNL A   1      40.867  28.776  31.443  1.00  0.00    -0.248 NA
ATOM     42  C   UNL A   1      39.067  30.260  31.378  1.00  0.00     0.031 C 
ATOM     43  C   UNL A   1      39.436  26.911  27.643  1.00  0.00     0.029 A 
ATOM     44  N   UNL A   1      41.021  26.859  29.220  1.00  0.00    -0.354 N 
ATOM     45  C   UNL A   1      40.950  29.653  32.517  1.00  0.00     0.074 A 
ATOM     46  C   UNL A   1      39.854  30.586  32.392  1.00  0.00     0.031 C 
ATOM     47  C   UNL A   1      40.305  25.943  27.311  1.00  0.00     0.029 A 
ATOM     48  C   UNL A   1      41.367  25.886  28.313  1.00  0.00     0.049 A 
ATOM     49  H   UNL A   1      41.552  27.059  30.025  1.00  0.00     0.167 HD
ATOM     50  C   UNL A   1      41.841  29.658  33.533  1.00  0.00     0.034 A 
ATOM     51  C   UNL A   1      42.419  25.040  28.292  1.00  0.00     0.034 A 
ATOM     52  C   UNL A   1      42.916  28.712  33.659  1.00  0.00     0.049 A 
ATOM     53  C   UNL A   1      43.399  25.061  29.437  1.00  0.00     0.074 A 
ATOM     54  C   UNL A   1      43.835  28.598  34.687  1.00  0.00     0.029 A 
ATOM     55  N   UNL A   1      43.221  27.724  32.736  1.00  0.00    -0.354 N 
ATOM     56  N   UNL A   1      43.403  25.828  30.502  1.00  0.00    -0.248 NA
ATOM     57  C   UNL A   1      44.506  24.096  29.393  1.00  0.00     0.031 C 
ATOM     58  C   UNL A   1      44.729  27.579  34.359  1.00  0.00     0.029 A 
ATOM     59  C   UNL A   1      44.329  27.009  33.160  1.00  0.00     0.049 A 
ATOM     60  H   UNL A   1      42.724  27.554  31.903  1.00  0.00     0.167 HD
ATOM     61  C   UNL A   1      44.491  25.417  31.268  1.00  0.00     0.074 A 
ATOM     62  C   UNL A   1      45.113  24.324  30.551  1.00  0.00     0.031 C 
ATOM     63  C   UNL A   1      44.929  25.903  32.456  1.00  0.00     0.034 A 
BRANCH  50  64
ATOM     64  C   UNL A   1      41.687  30.689  34.618  1.00  0.00     0.023 A 
ATOM     65  C   UNL A   1      40.502  30.744  35.371  1.00  0.00     0.031 A 
ATOM     66  C   UNL A   1      42.652  31.693  34.812  1.00  0.00     0.131 A 
ATOM     67  C   UNL A   1      40.294  31.807  36.257  1.00  0.00     0.055 A 
ATOM     68  C   UNL A   1      42.457  32.728  35.726  1.00  0.00     0.041 A 
ATOM     69  F   UNL A   1      43.802  31.679  34.118  1.00  0.00    -0.206 F 
ATOM     70  C   UNL A   1      41.267  32.794  36.445  1.00  0.00     0.022 A 
BRANCH  67  71
ATOM     71  S   UNL A   1      38.733  31.973  37.163  1.00  0.00     0.124 S 
ATOM     72  O   UNL A   1      38.066  33.043  36.421  1.00  0.00    -0.237 OA
ATOM     73  O   UNL A   1      38.147  30.646  37.005  1.00  0.00    -0.237 OA
ATOM     74  O   UNL A   1      39.148  32.327  38.516  1.00  0.00    -0.744 OA
ENDBRANCH  67  71
ENDBRANCH  50  64
BRANCH  51  75
ATOM     75  C   UNL A   1      42.538  24.059  27.178  1.00  0.00     0.023 A 
ATOM     76  C   UNL A   1      41.945  22.787  27.268  1.00  0.00     0.031 A 
ATOM     77  C   UNL A   1      43.329  24.343  26.052  1.00  0.00     0.131 A 
ATOM     78  C   UNL A   1      42.199  21.830  26.278  1.00  0.00     0.055 A 
ATOM     79  C   UNL A   1      43.529  23.406  25.036  1.00  0.00     0.041 A 
ATOM     80  F   UNL A   1      43.924  25.540  25.929  1.00  0.00    -0.206 F 
ATOM     81  C   UNL A   1      42.973  22.136  25.154  1.00  0.00     0.022 A 
BRANCH  78  82
ATOM     82  S   UNL A   1      41.613  20.124  26.464  1.00  0.00     0.124 S 
ATOM     83  O   UNL A   1      42.074  19.785  27.807  1.00  0.00    -0.237 OA
ATOM     84  O   UNL A   1      40.169  20.293  26.317  1.00  0.00    -0.237 OA
ATOM     85  O   UNL A   1      42.272  19.413  25.374  1.00  0.00    -0.744 OA
ENDBRANCH  78  82
ENDBRANCH  51  75
BRANCH  63  86
ATOM     86  C   UNL A   1      46.129  25.263  33.106  1.00  0.00     0.023 A 
ATOM     87  C   UNL A   1      45.945  24.223  34.038  1.00  0.00     0.031 A 
ATOM     88  C   UNL A   1      47.421  25.789  32.941  1.00  0.00     0.131 A 
ATOM     89  C   UNL A   1      47.026  23.775  34.806  1.00  0.00     0.055 A 
ATOM     90  C   UNL A   1      48.506  25.306  33.675  1.00  0.00     0.041 A 
ATOM     91  F   UNL A   1      47.644  26.788  32.074  1.00  0.00    -0.206 F 
ATOM     92  C   UNL A   1      48.308  24.305  34.623  1.00  0.00     0.022 A 
BRANCH  89  93
ATOM     93  S   UNL A   1      46.794  22.549  36.121  1.00  0.00     0.124 S 
ATOM     94  O   UNL A   1      47.547  21.405  35.606  1.00  0.00    -0.237 OA
ATOM     95  O   UNL A   1      47.388  23.218  37.274  1.00  0.00    -0.237 OA
ATOM     96  O   UNL A   1      45.348  22.362  36.179  1.00  0.00    -0.744 OA
ENDBRANCH  89  93
ENDBRANCH  63  86
ENDBRANCH  37  38
ENDBRANCH  29  32
ENDBRANCH   1  28
TORSDOF 14
ENDMDL
MODEL 3
REMARK VINA RESULT:     -12.5      2.495      8.156
REMARK SMILES O=C1C[C@H](C(=O)NCCCNC(=O)c2ccc(-c3c4nc(c(-c5cc(S(=O)(=O)[O-])ccc5F)c5ccc([nH]5)c(-c5cc(S(=O)(=O)[O-])ccc5F)c5nc(c(-c6cc(S(=O)(=O)[O-])ccc6F)c6ccc3[nH]6)C=C5)C=C4)cc2)c2c(nc(N3CCSCC3)[nH]c2=O)N1
REMARK SMILES IDX 10 1 9 2 8 3 7 4 5 5 6 6 4 8 1 9 2 10 3 11 90 12 78 13 77 15
REMARK SMILES IDX 79 16 88 17 80 18 87 19 89 20 81 22 82 23 86 24 83 25 85 26
REMARK SMILES IDX 84 27 11 28 12 29 13 31 14 32 15 33 76 34 16 35 75 36 17 37
REMARK SMILES IDX 18 38 19 39 69 40 20 41 74 42 68 43 70 44 21 45 73 46 67 47
REMARK SMILES IDX 66 48 22 50 54 51 34 52 53 53 35 54 38 55 52 56 71 57 36 58
REMARK SMILES IDX 37 59 51 61 72 62 39 63 23 64 24 65 32 66 25 67 31 68 33 69
REMARK SMILES IDX 30 70 26 71 27 72 28 73 29 74 55 75 56 76 64 77 57 78 63 79
REMARK SMILES IDX 65 80 62 81 58 82 59 83 60 84 61 85 40 86 41 87 49 88 42 89
REMARK SMILES IDX 48 90 50 91 47 92 43 93 44 94 45 95 46 96
REMARK H PARENT 7 7 90 14 87 21 11 30 70 49 38 60
REMARK Flexibility Score: inf
ROOT
ATOM      1  C   UNL A   1      32.965  29.337  26.421  1.00  0.00     0.118 C 
ENDROOT
BRANCH   1   2
ATOM      2  C   UNL A   1      31.790  28.546  26.976  1.00  0.00     0.042 C 
BRANCH   2   3
ATOM      3  C   UNL A   1      31.768  27.097  26.513  1.00  0.00     0.117 C 
BRANCH   3   4
ATOM      4  N   UNL A   1      33.105  26.604  26.219  1.00  0.00    -0.355 N 
ATOM      5  C   UNL A   1      33.573  25.803  25.223  1.00  0.00     0.228 C 
ATOM      6  O   UNL A   1      34.750  25.434  25.298  1.00  0.00    -0.274 OA
ATOM      7  H   UNL A   1      33.794  26.905  26.856  1.00  0.00     0.163 HD
BRANCH   5   8
ATOM      8  C   UNL A   1      32.685  25.333  24.070  1.00  0.00     0.127 C 
ATOM      9  O   UNL A   1      33.044  25.509  20.408  1.00  0.00    -0.275 OA
ATOM     10  C   UNL A   1      33.028  25.057  21.551  1.00  0.00     0.226 C 
ATOM     11  C   UNL A   1      33.186  25.945  22.761  1.00  0.00     0.119 C 
ATOM     12  N   UNL A   1      32.945  23.713  21.767  1.00  0.00    -0.310 N 
ATOM     13  C   UNL A   1      32.751  23.098  22.963  1.00  0.00     0.146 A 
ATOM     14  H   UNL A   1      33.036  23.130  20.979  1.00  0.00     0.171 HD
ATOM     15  C   UNL A   1      32.563  23.840  24.061  1.00  0.00     0.073 A 
ATOM     16  N   UNL A   1      32.759  21.734  22.918  1.00  0.00    -0.196 NA
ATOM     17  C   UNL A   1      32.240  23.110  25.296  1.00  0.00     0.258 A 
ATOM     18  C   UNL A   1      32.510  21.097  24.018  1.00  0.00     0.207 A 
ATOM     19  N   UNL A   1      32.242  21.755  25.182  1.00  0.00    -0.292 N 
ATOM     20  O   UNL A   1      31.981  23.664  26.357  1.00  0.00    -0.269 OA
ATOM     21  H   UNL A   1      32.038  21.220  25.983  1.00  0.00     0.173 HD
BRANCH  18  22
ATOM     22  N   UNL A   1      32.520  19.732  24.111  1.00  0.00    -0.341 N 
ATOM     23  C   UNL A   1      31.859  18.884  23.116  1.00  0.00     0.130 C 
ATOM     24  C   UNL A   1      33.317  19.051  25.137  1.00  0.00     0.130 C 
ATOM     25  C   UNL A   1      32.875  18.069  22.311  1.00  0.00     0.091 C 
ATOM     26  C   UNL A   1      34.450  18.211  24.550  1.00  0.00     0.091 C 
ATOM     27  S   UNL A   1      33.838  16.948  23.380  1.00  0.00    -0.158 SA
ENDBRANCH  18  22
ENDBRANCH   5   8
ENDBRANCH   3   4
ENDBRANCH   2   3
ENDBRANCH   1   2
BRANCH   1  28
ATOM     28  N   UNL A   1      32.804  30.772  26.618  1.00  0.00    -0.352 N 
ATOM     29  C   UNL A   1      33.574  31.631  27.366  1.00  0.00     0.251 C 
ATOM     30  H   UNL A   1      32.040  31.183  26.152  1.00  0.00     0.163 HD
ATOM     31  O   UNL A   1      33.182  32.769  27.603  1.00  0.00    -0.269 OA
BRANCH  29  32
ATOM     32  C   UNL A   1      34.866  31.155  27.896  1.00  0.00     0.039 A 
ATOM     33  C   UNL A   1      35.957  32.025  27.927  1.00  0.00     0.014 A 
ATOM     34  C   UNL A   1      34.980  29.851  28.391  1.00  0.00     0.014 A 
ATOM     35  C   UNL A   1      37.150  31.606  28.515  1.00  0.00     0.010 A 
ATOM     36  C   UNL A   1      36.143  29.464  29.047  1.00  0.00     0.010 A 
ATOM     37  C   UNL A   1      37.242  30.332  29.101  1.00  0.00    -0.014 A 
BRANCH  37  38
ATOM     38  C   UNL A   1      38.499  29.874  29.740  1.00  0.00     0.031 A 
ATOM     39  C   UNL A   1      38.893  30.424  31.081  1.00  0.00     0.074 A 
ATOM     40  C   UNL A   1      39.303  29.005  29.098  1.00  0.00     0.049 A 
ATOM     41  N   UNL A   1      39.946  30.148  31.803  1.00  0.00    -0.248 NA
ATOM     42  C   UNL A   1      38.000  31.430  31.681  1.00  0.00     0.031 C 
ATOM     43  C   UNL A   1      39.050  28.449  27.768  1.00  0.00     0.029 A 
ATOM     44  N   UNL A   1      40.498  28.443  29.473  1.00  0.00    -0.354 N 
ATOM     45  C   UNL A   1      39.841  30.941  32.938  1.00  0.00     0.074 A 
ATOM     46  C   UNL A   1      38.659  31.757  32.782  1.00  0.00     0.031 C 
ATOM     47  C   UNL A   1      40.048  27.611  27.448  1.00  0.00     0.029 A 
ATOM     48  C   UNL A   1      41.025  27.589  28.535  1.00  0.00     0.049 A 
ATOM     49  H   UNL A   1      40.936  28.634  30.334  1.00  0.00     0.167 HD
ATOM     50  C   UNL A   1      40.641  30.961  34.028  1.00  0.00     0.034 A 
ATOM     51  C   UNL A   1      42.165  26.865  28.548  1.00  0.00     0.034 A 
ATOM     52  C   UNL A   1      41.804  30.129  34.183  1.00  0.00     0.049 A 
ATOM     53  C   UNL A   1      43.040  26.901  29.775  1.00  0.00     0.074 A 
ATOM     54  C   UNL A   1      42.642  30.034  35.278  1.00  0.00     0.029 A 
ATOM     55  N   UNL A   1      42.293  29.257  33.224  1.00  0.00    -0.354 N 
ATOM     56  N   UNL A   1      42.870  27.576  30.887  1.00  0.00    -0.248 NA
ATOM     57  C   UNL A   1      44.250  26.067  29.761  1.00  0.00     0.031 C 
ATOM     58  C   UNL A   1      43.671  29.147  34.960  1.00  0.00     0.029 A 
ATOM     59  C   UNL A   1      43.437  28.634  33.694  1.00  0.00     0.049 A 
ATOM     60  H   UNL A   1      41.887  29.101  32.340  1.00  0.00     0.167 HD
ATOM     61  C   UNL A   1      43.933  27.225  31.716  1.00  0.00     0.074 A 
ATOM     62  C   UNL A   1      44.731  26.266  30.982  1.00  0.00     0.031 C 
ATOM     63  C   UNL A   1      44.215  27.659  32.970  1.00  0.00     0.034 A 
BRANCH  50  64
ATOM     64  C   UNL A   1      40.282  31.880  35.164  1.00  0.00     0.023 A 
ATOM     65  C   UNL A   1      39.342  31.473  36.126  1.00  0.00     0.031 A 
ATOM     66  C   UNL A   1      40.769  33.198  35.218  1.00  0.00     0.131 A 
ATOM     67  C   UNL A   1      38.885  32.390  37.079  1.00  0.00     0.055 A 
ATOM     68  C   UNL A   1      40.341  34.096  36.195  1.00  0.00     0.041 A 
ATOM     69  F   UNL A   1      41.673  33.629  34.323  1.00  0.00    -0.206 F 
ATOM     70  C   UNL A   1      39.385  33.697  37.124  1.00  0.00     0.022 A 
BRANCH  67  71
ATOM     71  S   UNL A   1      37.592  31.937  38.264  1.00  0.00     0.124 S 
ATOM     72  O   UNL A   1      36.554  32.926  37.972  1.00  0.00    -0.237 OA
ATOM     73  O   UNL A   1      37.280  30.569  37.865  1.00  0.00    -0.237 OA
ATOM     74  O   UNL A   1      38.238  32.088  39.563  1.00  0.00    -0.744 OA
ENDBRANCH  67  71
ENDBRANCH  50  64
BRANCH  51  75
ATOM     75  C   UNL A   1      42.485  25.995  27.382  1.00  0.00     0.023 A 
ATOM     76  C   UNL A   1      42.031  24.665  27.327  1.00  0.00     0.031 A 
ATOM     77  C   UNL A   1      43.332  26.449  26.357  1.00  0.00     0.131 A 
ATOM     78  C   UNL A   1      42.472  23.822  26.300  1.00  0.00     0.055 A 
ATOM     79  C   UNL A   1      43.719  25.623  25.301  1.00  0.00     0.041 A 
ATOM     80  F   UNL A   1      43.798  27.708  26.375  1.00  0.00    -0.206 F 
ATOM     81  C   UNL A   1      43.299  24.297  25.277  1.00  0.00     0.022 A 
BRANCH  78  82
ATOM     82  S   UNL A   1      42.065  22.055  26.310  1.00  0.00     0.124 S 
ATOM     83  O   UNL A   1      40.623  22.070  26.087  1.00  0.00    -0.237 OA
ATOM     84  O   UNL A   1      42.871  21.563  25.195  1.00  0.00    -0.237 OA
ATOM     85  O   UNL A   1      42.493  21.611  27.632  1.00  0.00    -0.744 OA
ENDBRANCH  78  82
ENDBRANCH  51  75
BRANCH  63  86
ATOM     86  C   UNL A   1      45.424  27.103  33.678  1.00  0.00     0.023 A 
ATOM     87  C   UNL A   1      45.294  25.950  34.478  1.00  0.00     0.031 A 
ATOM     88  C   UNL A   1      46.644  27.798  33.704  1.00  0.00     0.131 A 
ATOM     89  C   UNL A   1      46.348  25.556  35.309  1.00  0.00     0.055 A 
ATOM     90  C   UNL A   1      47.710  27.373  34.498  1.00  0.00     0.041 A 
ATOM     91  F   UNL A   1      46.811  28.907  32.968  1.00  0.00    -0.206 F 
ATOM     92  C   UNL A   1      47.560  26.256  35.317  1.00  0.00     0.022 A 
BRANCH  89  93
ATOM     93  S   UNL A   1      46.161  24.172  36.464  1.00  0.00     0.124 S 
ATOM     94  O   UNL A   1      46.431  24.811  37.751  1.00  0.00    -0.237 OA
ATOM     95  O   UNL A   1      44.773  23.774  36.244  1.00  0.00    -0.237 OA
ATOM     96  O   UNL A   1      47.167  23.208  36.029  1.00  0.00    -0.744 OA
ENDBRANCH  89  93
ENDBRANCH  63  86
ENDBRANCH  37  38
ENDBRANCH  29  32
ENDBRANCH   1  28
TORSDOF 14
ENDMDL
