MODEL 1
REMARK VINA RESULT:     -12.2      0.000      0.000
REMARK SMILES C[C@@H](Sc1nc(-c2ccc3c(c2)OCO3)ccc1C#N)C(=O)NCCCNC(=O)c1ccc(-c2c3nc(c(-c4cc(S(=O)(=O)[O-])ccc4F)c4ccc([nH]4)c(-c4cc(S(=O)(=O)[O-])ccc4F)c4nc(c(-c5cc(S(=O)(=O)[O-])ccc5F)c5ccc2[nH]5)C=C4)C=C3)cc1
REMARK SMILES IDX 25 1 24 2 23 3 21 4 22 5 2 7 1 8 3 9 4 10 5 11 18 12 6 13
REMARK SMILES IDX 17 14 16 15 19 16 20 17 7 18 8 19 12 20 9 21 11 22 10 23
REMARK SMILES IDX 13 24 15 25 14 26 26 27 27 28 28 29 29 31 30 32 31 33 92 34
REMARK SMILES IDX 32 35 91 36 33 37 34 38 35 39 85 40 36 41 90 42 84 43 86 44
REMARK SMILES IDX 37 45 89 46 83 47 82 48 38 50 70 51 50 52 69 53 51 54 54 55
REMARK SMILES IDX 68 56 87 57 52 58 53 59 67 61 88 62 55 63 39 64 40 65 48 66
REMARK SMILES IDX 41 67 47 68 49 69 46 70 42 71 43 72 44 73 45 74 71 75 72 76
REMARK SMILES IDX 80 77 73 78 79 79 81 80 78 81 74 82 75 83 76 84 77 85 56 86
REMARK SMILES IDX 57 87 65 88 58 89 64 90 66 91 63 92 59 93 60 94 61 95 62 96
REMARK H PARENT 23 6 27 30 86 49 54 60
REMARK Flexibility Score: inf
ROOT
ATOM      1  C   UNL A   1      32.716  28.003  25.712  1.00  0.00     0.042 C 
ENDROOT
BRANCH   1   2
ATOM      2  C   UNL A   1      33.291  26.764  25.054  1.00  0.00     0.117 C 
BRANCH   2   3
ATOM      3  N   UNL A   1      33.482  26.892  23.616  1.00  0.00    -0.355 N 
ATOM      4  C   UNL A   1      33.686  25.938  22.655  1.00  0.00     0.233 C 
ATOM      5  O   UNL A   1      33.692  26.307  21.477  1.00  0.00    -0.274 OA
ATOM      6  H   UNL A   1      33.462  27.817  23.278  1.00  0.00     0.163 HD
BRANCH   4   7
ATOM      7  C   UNL A   1      34.021  24.479  23.016  1.00  0.00     0.139 C 
ATOM      8  C   UNL A   1      34.812  24.534  24.314  1.00  0.00     0.030 C 
BRANCH   7   9
ATOM      9  S   UNL A   1      32.457  23.489  22.968  1.00  0.00    -0.092 SA
BRANCH   9  10
ATOM     10  C   UNL A   1      31.279  24.099  24.141  1.00  0.00     0.115 A 
ATOM     11  N   UNL A   1      30.547  25.109  23.577  1.00  0.00    -0.240 NA
ATOM     12  C   UNL A   1      31.204  23.850  25.510  1.00  0.00     0.084 A 
ATOM     13  C   UNL A   1      29.760  25.883  24.358  1.00  0.00     0.072 A 
ATOM     14  C   UNL A   1      30.274  24.566  26.273  1.00  0.00     0.024 A 
ATOM     15  C   UNL A   1      29.553  25.599  25.699  1.00  0.00     0.030 A 
BRANCH  12  16
ATOM     16  C   UNL A   1      32.102  23.035  26.260  1.00  0.00     0.102 C 
ATOM     17  N   UNL A   1      32.856  22.314  26.765  1.00  0.00    -0.192 NA
ENDBRANCH  12  16
BRANCH  13  18
ATOM     18  C   UNL A   1      29.220  27.114  23.767  1.00  0.00     0.004 A 
ATOM     19  C   UNL A   1      27.819  27.362  23.818  1.00  0.00     0.014 A 
ATOM     20  C   UNL A   1      30.043  28.032  23.098  1.00  0.00     0.061 A 
ATOM     21  C   UNL A   1      27.240  28.453  23.166  1.00  0.00     0.051 A 
ATOM     22  C   UNL A   1      29.441  29.092  22.446  1.00  0.00     0.166 A 
ATOM     23  C   UNL A   1      28.079  29.287  22.470  1.00  0.00     0.165 A 
ATOM     24  O   UNL A   1      30.080  30.026  21.691  1.00  0.00    -0.454 OA
ATOM     25  O   UNL A   1      27.691  30.359  21.730  1.00  0.00    -0.454 OA
ATOM     26  C   UNL A   1      28.959  30.788  21.195  1.00  0.00     0.468 C 
ENDBRANCH  13  18
ENDBRANCH   9  10
ENDBRANCH   7   9
ENDBRANCH   4   7
ENDBRANCH   2   3
ENDBRANCH   1   2
BRANCH   1  27
ATOM     27  C   UNL A   1      33.288  29.300  25.175  1.00  0.00     0.118 C 
BRANCH  27  28
ATOM     28  N   UNL A   1      32.680  30.477  25.785  1.00  0.00    -0.352 N 
ATOM     29  C   UNL A   1      33.071  31.192  26.892  1.00  0.00     0.251 C 
ATOM     30  H   UNL A   1      31.868  30.808  25.338  1.00  0.00     0.163 HD
ATOM     31  O   UNL A   1      32.313  32.028  27.376  1.00  0.00    -0.269 OA
BRANCH  29  32
ATOM     32  C   UNL A   1      34.392  30.931  27.501  1.00  0.00     0.039 A 
ATOM     33  C   UNL A   1      35.313  31.975  27.619  1.00  0.00     0.014 A 
ATOM     34  C   UNL A   1      34.707  29.658  27.979  1.00  0.00     0.014 A 
ATOM     35  C   UNL A   1      36.517  31.757  28.293  1.00  0.00     0.010 A 
ATOM     36  C   UNL A   1      35.854  29.472  28.737  1.00  0.00     0.010 A 
ATOM     37  C   UNL A   1      36.776  30.516  28.898  1.00  0.00    -0.014 A 
BRANCH  37  38
ATOM     38  C   UNL A   1      38.010  30.264  29.686  1.00  0.00     0.031 A 
ATOM     39  C   UNL A   1      39.034  29.292  29.166  1.00  0.00     0.074 A 
ATOM     40  C   UNL A   1      38.166  30.831  30.899  1.00  0.00     0.049 A 
ATOM     41  N   UNL A   1      40.096  28.811  29.758  1.00  0.00    -0.248 NA
ATOM     42  C   UNL A   1      38.810  28.765  27.809  1.00  0.00     0.031 C 
ATOM     43  C   UNL A   1      37.234  31.775  31.518  1.00  0.00     0.029 A 
ATOM     44  N   UNL A   1      39.159  30.686  31.836  1.00  0.00    -0.354 N 
ATOM     45  C   UNL A   1      40.656  27.913  28.855  1.00  0.00     0.074 A 
ATOM     46  C   UNL A   1      39.778  27.868  27.706  1.00  0.00     0.031 C 
ATOM     47  C   UNL A   1      37.710  32.140  32.719  1.00  0.00     0.029 A 
ATOM     48  C   UNL A   1      38.943  31.407  32.989  1.00  0.00     0.049 A 
ATOM     49  H   UNL A   1      39.951  30.118  31.697  1.00  0.00     0.167 HD
ATOM     50  C   UNL A   1      41.808  27.207  28.968  1.00  0.00     0.034 A 
ATOM     51  C   UNL A   1      39.643  31.452  34.141  1.00  0.00     0.034 A 
ATOM     52  C   UNL A   1      42.671  27.268  30.121  1.00  0.00     0.049 A 
ATOM     53  C   UNL A   1      40.888  30.608  34.269  1.00  0.00     0.074 A 
ATOM     54  C   UNL A   1      43.880  26.628  30.324  1.00  0.00     0.029 A 
ATOM     55  N   UNL A   1      42.412  28.002  31.273  1.00  0.00    -0.354 N 
ATOM     56  N   UNL A   1      41.421  29.783  33.396  1.00  0.00    -0.248 NA
ATOM     57  C   UNL A   1      41.631  30.706  35.532  1.00  0.00     0.031 C 
ATOM     58  C   UNL A   1      44.306  26.899  31.627  1.00  0.00     0.029 A 
ATOM     59  C   UNL A   1      43.422  27.799  32.201  1.00  0.00     0.049 A 
ATOM     60  H   UNL A   1      41.628  28.582  31.408  1.00  0.00     0.167 HD
ATOM     61  C   UNL A   1      42.587  29.303  33.990  1.00  0.00     0.074 A 
ATOM     62  C   UNL A   1      42.678  29.931  35.292  1.00  0.00     0.031 C 
ATOM     63  C   UNL A   1      43.505  28.434  33.496  1.00  0.00     0.034 A 
BRANCH  50  64
ATOM     64  C   UNL A   1      42.176  26.286  27.830  1.00  0.00     0.023 A 
ATOM     65  C   UNL A   1      41.718  24.957  27.774  1.00  0.00     0.031 A 
ATOM     66  C   UNL A   1      43.017  26.733  26.794  1.00  0.00     0.131 A 
ATOM     67  C   UNL A   1      42.165  24.104  26.755  1.00  0.00     0.055 A 
ATOM     68  C   UNL A   1      43.381  25.905  25.731  1.00  0.00     0.041 A 
ATOM     69  F   UNL A   1      43.509  27.982  26.805  1.00  0.00    -0.206 F 
ATOM     70  C   UNL A   1      42.969  24.577  25.715  1.00  0.00     0.022 A 
BRANCH  67  71
ATOM     71  S   UNL A   1      41.814  22.330  26.898  1.00  0.00     0.124 S 
ATOM     72  O   UNL A   1      40.500  22.341  27.536  1.00  0.00    -0.237 OA
ATOM     73  O   UNL A   1      41.848  21.888  25.510  1.00  0.00    -0.237 OA
ATOM     74  O   UNL A   1      42.902  21.834  27.739  1.00  0.00    -0.744 OA
ENDBRANCH  67  71
ENDBRANCH  50  64
BRANCH  51  75
ATOM     75  C   UNL A   1      39.179  32.302  35.276  1.00  0.00     0.023 A 
ATOM     76  C   UNL A   1      39.623  33.627  35.417  1.00  0.00     0.031 A 
ATOM     77  C   UNL A   1      38.327  31.786  36.270  1.00  0.00     0.131 A 
ATOM     78  C   UNL A   1      39.262  34.371  36.551  1.00  0.00     0.055 A 
ATOM     79  C   UNL A   1      37.915  32.554  37.362  1.00  0.00     0.041 A 
ATOM     80  F   UNL A   1      37.873  30.525  36.190  1.00  0.00    -0.206 F 
ATOM     81  C   UNL A   1      38.396  33.849  37.515  1.00  0.00     0.022 A 
BRANCH  78  82
ATOM     82  S   UNL A   1      40.035  35.992  36.807  1.00  0.00     0.124 S 
ATOM     83  O   UNL A   1      39.728  36.665  35.551  1.00  0.00    -0.237 OA
ATOM     84  O   UNL A   1      39.332  36.480  37.988  1.00  0.00    -0.237 OA
ATOM     85  O   UNL A   1      41.445  35.666  37.014  1.00  0.00    -0.744 OA
ENDBRANCH  78  82
ENDBRANCH  51  75
BRANCH  63  86
ATOM     86  C   UNL A   1      44.737  28.170  34.329  1.00  0.00     0.023 A 
ATOM     87  C   UNL A   1      44.815  27.105  35.243  1.00  0.00     0.031 A 
ATOM     88  C   UNL A   1      45.866  28.999  34.184  1.00  0.00     0.131 A 
ATOM     89  C   UNL A   1      45.977  26.926  36.009  1.00  0.00     0.055 A 
ATOM     90  C   UNL A   1      47.044  28.772  34.896  1.00  0.00     0.041 A 
ATOM     91  F   UNL A   1      45.846  30.037  33.331  1.00  0.00    -0.206 F 
ATOM     92  C   UNL A   1      47.100  27.738  35.823  1.00  0.00     0.022 A 
BRANCH  89  93
ATOM     93  S   UNL A   1      45.974  25.676  37.323  1.00  0.00     0.124 S 
ATOM     94  O   UNL A   1      45.021  26.238  38.274  1.00  0.00    -0.237 OA
ATOM     95  O   UNL A   1      45.537  24.479  36.615  1.00  0.00    -0.237 OA
ATOM     96  O   UNL A   1      47.364  25.653  37.778  1.00  0.00    -0.744 OA
ENDBRANCH  89  93
ENDBRANCH  63  86
ENDBRANCH  37  38
ENDBRANCH  29  32
ENDBRANCH  27  28
ENDBRANCH   1  27
TORSDOF 17
ENDMDL
MODEL 2
REMARK VINA RESULT:     -12.2      5.702      9.247
REMARK SMILES C[C@@H](Sc1nc(-c2ccc3c(c2)OCO3)ccc1C#N)C(=O)NCCCNC(=O)c1ccc(-c2c3nc(c(-c4cc(S(=O)(=O)[O-])ccc4F)c4ccc([nH]4)c(-c4cc(S(=O)(=O)[O-])ccc4F)c4nc(c(-c5cc(S(=O)(=O)[O-])ccc5F)c5ccc2[nH]5)C=C4)C=C3)cc1
REMARK SMILES IDX 25 1 24 2 23 3 21 4 22 5 2 7 1 8 3 9 4 10 5 11 18 12 6 13
REMARK SMILES IDX 17 14 16 15 19 16 20 17 7 18 8 19 12 20 9 21 11 22 10 23
REMARK SMILES IDX 13 24 15 25 14 26 26 27 27 28 28 29 29 31 30 32 31 33 92 34
REMARK SMILES IDX 32 35 91 36 33 37 34 38 35 39 85 40 36 41 90 42 84 43 86 44
REMARK SMILES IDX 37 45 89 46 83 47 82 48 38 50 70 51 50 52 69 53 51 54 54 55
REMARK SMILES IDX 68 56 87 57 52 58 53 59 67 61 88 62 55 63 39 64 40 65 48 66
REMARK SMILES IDX 41 67 47 68 49 69 46 70 42 71 43 72 44 73 45 74 71 75 72 76
REMARK SMILES IDX 80 77 73 78 79 79 81 80 78 81 74 82 75 83 76 84 77 85 56 86
REMARK SMILES IDX 57 87 65 88 58 89 64 90 66 91 63 92 59 93 60 94 61 95 62 96
REMARK H PARENT 23 6 27 30 86 49 54 60
REMARK Flexibility Score: inf
ROOT
ATOM      1  C   UNL A   1      38.392  19.475  24.969  1.00  0.00     0.042 C 
ENDROOT
BRANCH   1   2
ATOM      2  C   UNL A   1      37.034  20.145  25.056  1.00  0.00     0.117 C 
BRANCH   2   3
ATOM      3  N   UNL A   1      36.893  21.310  24.193  1.00  0.00    -0.355 N 
ATOM      4  C   UNL A   1      36.708  22.631  24.502  1.00  0.00     0.233 C 
ATOM      5  O   UNL A   1      36.747  23.445  23.574  1.00  0.00    -0.274 OA
ATOM      6  H   UNL A   1      36.939  21.116  23.228  1.00  0.00     0.163 HD
BRANCH   4   7
ATOM      7  C   UNL A   1      36.339  23.090  25.925  1.00  0.00     0.139 C 
ATOM      8  C   UNL A   1      37.372  24.136  26.315  1.00  0.00     0.030 C 
BRANCH   7   9
ATOM      9  S   UNL A   1      34.547  23.555  25.944  1.00  0.00    -0.092 SA
BRANCH   9  10
ATOM     10  C   UNL A   1      33.626  22.596  24.775  1.00  0.00     0.115 A 
ATOM     11  N   UNL A   1      33.605  21.286  25.168  1.00  0.00    -0.240 NA
ATOM     12  C   UNL A   1      33.183  22.961  23.505  1.00  0.00     0.084 A 
ATOM     13  C   UNL A   1      33.169  20.335  24.311  1.00  0.00     0.072 A 
ATOM     14  C   UNL A   1      32.601  21.983  22.689  1.00  0.00     0.024 A 
ATOM     15  C   UNL A   1      32.603  20.657  23.087  1.00  0.00     0.030 A 
BRANCH  12  16
ATOM     16  C   UNL A   1      33.407  24.220  22.874  1.00  0.00     0.102 C 
ATOM     17  N   UNL A   1      33.623  25.284  22.469  1.00  0.00    -0.192 NA
ENDBRANCH  12  16
BRANCH  13  18
ATOM     18  C   UNL A   1      33.426  18.934  24.665  1.00  0.00     0.004 A 
ATOM     19  C   UNL A   1      34.677  18.343  24.331  1.00  0.00     0.014 A 
ATOM     20  C   UNL A   1      32.446  18.137  25.276  1.00  0.00     0.061 A 
ATOM     21  C   UNL A   1      34.928  16.984  24.534  1.00  0.00     0.051 A 
ATOM     22  C   UNL A   1      32.714  16.792  25.447  1.00  0.00     0.166 A 
ATOM     23  C   UNL A   1      33.914  16.232  25.074  1.00  0.00     0.165 A 
ATOM     24  O   UNL A   1      31.850  15.867  25.949  1.00  0.00    -0.454 OA
ATOM     25  O   UNL A   1      33.954  14.890  25.288  1.00  0.00    -0.454 OA
ATOM     26  C   UNL A   1      32.623  14.659  25.789  1.00  0.00     0.468 C 
ENDBRANCH  13  18
ENDBRANCH   9  10
ENDBRANCH   7   9
ENDBRANCH   4   7
ENDBRANCH   2   3
ENDBRANCH   1   2
BRANCH   1  27
ATOM     27  C   UNL A   1      39.446  20.114  25.852  1.00  0.00     0.118 C 
BRANCH  27  28
ATOM     28  N   UNL A   1      40.532  19.198  26.183  1.00  0.00    -0.352 N 
ATOM     29  C   UNL A   1      41.852  19.466  26.455  1.00  0.00     0.251 C 
ATOM     30  H   UNL A   1      40.281  18.247  26.216  1.00  0.00     0.163 HD
ATOM     31  O   UNL A   1      42.662  18.544  26.505  1.00  0.00    -0.269 OA
BRANCH  29  32
ATOM     32  C   UNL A   1      42.288  20.862  26.660  1.00  0.00     0.039 A 
ATOM     33  C   UNL A   1      42.531  21.677  25.552  1.00  0.00     0.014 A 
ATOM     34  C   UNL A   1      42.430  21.372  27.952  1.00  0.00     0.014 A 
ATOM     35  C   UNL A   1      42.836  23.027  25.743  1.00  0.00     0.010 A 
ATOM     36  C   UNL A   1      42.628  22.733  28.136  1.00  0.00     0.010 A 
ATOM     37  C   UNL A   1      42.841  23.576  27.035  1.00  0.00    -0.014 A 
BRANCH  37  38
ATOM     38  C   UNL A   1      43.087  25.021  27.280  1.00  0.00     0.031 A 
ATOM     39  C   UNL A   1      44.461  25.587  27.043  1.00  0.00     0.074 A 
ATOM     40  C   UNL A   1      42.112  25.795  27.796  1.00  0.00     0.049 A 
ATOM     41  N   UNL A   1      44.930  26.771  27.336  1.00  0.00    -0.248 NA
ATOM     42  C   UNL A   1      45.446  24.685  26.424  1.00  0.00     0.031 C 
ATOM     43  C   UNL A   1      40.746  25.355  28.086  1.00  0.00     0.029 A 
ATOM     44  N   UNL A   1      42.123  27.113  28.183  1.00  0.00    -0.354 N 
ATOM     45  C   UNL A   1      46.268  26.751  26.955  1.00  0.00     0.074 A 
ATOM     46  C   UNL A   1      46.548  25.416  26.474  1.00  0.00     0.031 C 
ATOM     47  C   UNL A   1      40.048  26.388  28.583  1.00  0.00     0.029 A 
ATOM     48  C   UNL A   1      40.929  27.545  28.713  1.00  0.00     0.049 A 
ATOM     49  H   UNL A   1      42.913  27.693  28.091  1.00  0.00     0.167 HD
ATOM     50  C   UNL A   1      47.173  27.760  26.986  1.00  0.00     0.034 A 
ATOM     51  C   UNL A   1      40.590  28.727  29.266  1.00  0.00     0.034 A 
ATOM     52  C   UNL A   1      46.872  29.085  27.467  1.00  0.00     0.049 A 
ATOM     53  C   UNL A   1      41.632  29.817  29.349  1.00  0.00     0.074 A 
ATOM     54  C   UNL A   1      47.699  30.193  27.506  1.00  0.00     0.029 A 
ATOM     55  N   UNL A   1      45.654  29.481  28.006  1.00  0.00    -0.354 N 
ATOM     56  N   UNL A   1      42.887  29.792  28.960  1.00  0.00    -0.248 NA
ATOM     57  C   UNL A   1      41.212  31.095  29.937  1.00  0.00     0.031 C 
ATOM     58  C   UNL A   1      47.015  31.227  28.149  1.00  0.00     0.029 A 
ATOM     59  C   UNL A   1      45.722  30.804  28.412  1.00  0.00     0.049 A 
ATOM     60  H   UNL A   1      44.858  28.905  28.086  1.00  0.00     0.167 HD
ATOM     61  C   UNL A   1      43.388  31.067  29.214  1.00  0.00     0.074 A 
ATOM     62  C   UNL A   1      42.302  31.834  29.787  1.00  0.00     0.031 C 
ATOM     63  C   UNL A   1      44.630  31.561  28.979  1.00  0.00     0.034 A 
BRANCH  50  64
ATOM     64  C   UNL A   1      48.576  27.455  26.519  1.00  0.00     0.023 A 
ATOM     65  C   UNL A   1      49.007  27.764  25.216  1.00  0.00     0.031 A 
ATOM     66  C   UNL A   1      49.492  26.825  27.380  1.00  0.00     0.131 A 
ATOM     67  C   UNL A   1      50.284  27.372  24.790  1.00  0.00     0.055 A 
ATOM     68  C   UNL A   1      50.794  26.523  26.979  1.00  0.00     0.041 A 
ATOM     69  F   UNL A   1      49.131  26.479  28.627  1.00  0.00    -0.206 F 
ATOM     70  C   UNL A   1      51.192  26.782  25.671  1.00  0.00     0.022 A 
BRANCH  67  71
ATOM     71  S   UNL A   1      50.681  27.498  23.025  1.00  0.00     0.124 S 
ATOM     72  O   UNL A   1      51.958  26.792  22.959  1.00  0.00    -0.237 OA
ATOM     73  O   UNL A   1      49.548  26.829  22.398  1.00  0.00    -0.237 OA
ATOM     74  O   UNL A   1      50.762  28.939  22.794  1.00  0.00    -0.744 OA
ENDBRANCH  67  71
ENDBRANCH  50  64
BRANCH  51  75
ATOM     75  C   UNL A   1      39.217  28.945  29.807  1.00  0.00     0.023 A 
ATOM     76  C   UNL A   1      38.220  29.557  29.029  1.00  0.00     0.031 A 
ATOM     77  C   UNL A   1      38.892  28.594  31.131  1.00  0.00     0.131 A 
ATOM     78  C   UNL A   1      36.970  29.851  29.596  1.00  0.00     0.055 A 
ATOM     79  C   UNL A   1      37.625  28.827  31.668  1.00  0.00     0.041 A 
ATOM     80  F   UNL A   1      39.805  28.009  31.923  1.00  0.00    -0.206 F 
ATOM     81  C   UNL A   1      36.660  29.474  30.904  1.00  0.00     0.022 A 
BRANCH  78  82
ATOM     82  S   UNL A   1      35.794  30.841  28.633  1.00  0.00     0.124 S 
ATOM     83  O   UNL A   1      35.015  29.804  27.966  1.00  0.00    -0.237 OA
ATOM     84  O   UNL A   1      35.104  31.593  29.676  1.00  0.00    -0.237 OA
ATOM     85  O   UNL A   1      36.654  31.636  27.760  1.00  0.00    -0.744 OA
ENDBRANCH  78  82
ENDBRANCH  51  75
BRANCH  63  86
ATOM     86  C   UNL A   1      44.865  33.027  29.264  1.00  0.00     0.023 A 
ATOM     87  C   UNL A   1      44.764  34.013  28.268  1.00  0.00     0.031 A 
ATOM     88  C   UNL A   1      45.176  33.439  30.573  1.00  0.00     0.131 A 
ATOM     89  C   UNL A   1      45.019  35.356  28.588  1.00  0.00     0.055 A 
ATOM     90  C   UNL A   1      45.358  34.783  30.899  1.00  0.00     0.041 A 
ATOM     91  F   UNL A   1      45.294  32.540  31.563  1.00  0.00    -0.206 F 
ATOM     92  C   UNL A   1      45.291  35.750  29.901  1.00  0.00     0.022 A 
BRANCH  89  93
ATOM     93  S   UNL A   1      45.085  36.576  27.248  1.00  0.00     0.124 S 
ATOM     94  O   UNL A   1      45.927  37.618  27.827  1.00  0.00    -0.237 OA
ATOM     95  O   UNL A   1      45.676  35.811  26.156  1.00  0.00    -0.237 OA
ATOM     96  O   UNL A   1      43.684  36.949  27.054  1.00  0.00    -0.744 OA
ENDBRANCH  89  93
ENDBRANCH  63  86
ENDBRANCH  37  38
ENDBRANCH  29  32
ENDBRANCH  27  28
ENDBRANCH   1  27
TORSDOF 17
ENDMDL
MODEL 3
REMARK VINA RESULT:     -12.2      2.801      4.798
REMARK SMILES C[C@@H](Sc1nc(-c2ccc3c(c2)OCO3)ccc1C#N)C(=O)NCCCNC(=O)c1ccc(-c2c3nc(c(-c4cc(S(=O)(=O)[O-])ccc4F)c4ccc([nH]4)c(-c4cc(S(=O)(=O)[O-])ccc4F)c4nc(c(-c5cc(S(=O)(=O)[O-])ccc5F)c5ccc2[nH]5)C=C4)C=C3)cc1
REMARK SMILES IDX 25 1 24 2 23 3 21 4 22 5 2 7 1 8 3 9 4 10 5 11 18 12 6 13
REMARK SMILES IDX 17 14 16 15 19 16 20 17 7 18 8 19 12 20 9 21 11 22 10 23
REMARK SMILES IDX 13 24 15 25 14 26 26 27 27 28 28 29 29 31 30 32 31 33 92 34
REMARK SMILES IDX 32 35 91 36 33 37 34 38 35 39 85 40 36 41 90 42 84 43 86 44
REMARK SMILES IDX 37 45 89 46 83 47 82 48 38 50 70 51 50 52 69 53 51 54 54 55
REMARK SMILES IDX 68 56 87 57 52 58 53 59 67 61 88 62 55 63 39 64 40 65 48 66
REMARK SMILES IDX 41 67 47 68 49 69 46 70 42 71 43 72 44 73 45 74 71 75 72 76
REMARK SMILES IDX 80 77 73 78 79 79 81 80 78 81 74 82 75 83 76 84 77 85 56 86
REMARK SMILES IDX 57 87 65 88 58 89 64 90 66 91 63 92 59 93 60 94 61 95 62 96
REMARK H PARENT 23 6 27 30 86 49 54 60
REMARK Flexibility Score: inf
ROOT
ATOM      1  C   UNL A   1      31.847  31.497  26.759  1.00  0.00     0.042 C 
ENDROOT
BRANCH   1   2
ATOM      2  C   UNL A   1      32.089  30.009  26.595  1.00  0.00     0.117 C 
BRANCH   2   3
ATOM      3  N   UNL A   1      31.577  29.461  25.346  1.00  0.00    -0.355 N 
ATOM      4  C   UNL A   1      31.192  28.187  25.023  1.00  0.00     0.233 C 
ATOM      5  O   UNL A   1      30.670  28.012  23.918  1.00  0.00    -0.274 OA
ATOM      6  H   UNL A   1      31.493  30.114  24.613  1.00  0.00     0.163 HD
BRANCH   4   7
ATOM      7  C   UNL A   1      31.507  26.986  25.935  1.00  0.00     0.139 C 
ATOM      8  C   UNL A   1      30.293  26.073  25.867  1.00  0.00     0.030 C 
BRANCH   7   9
ATOM      9  S   UNL A   1      33.161  26.306  25.458  1.00  0.00    -0.092 SA
BRANCH   9  10
ATOM     10  C   UNL A   1      33.043  25.297  24.008  1.00  0.00     0.115 A 
ATOM     11  N   UNL A   1      32.989  23.978  24.368  1.00  0.00    -0.240 NA
ATOM     12  C   UNL A   1      33.232  25.661  22.677  1.00  0.00     0.084 A 
ATOM     13  C   UNL A   1      33.139  23.019  23.425  1.00  0.00     0.072 A 
ATOM     14  C   UNL A   1      33.240  24.657  21.700  1.00  0.00     0.024 A 
ATOM     15  C   UNL A   1      33.204  23.325  22.075  1.00  0.00     0.030 A 
BRANCH  12  16
ATOM     16  C   UNL A   1      33.584  26.961  22.209  1.00  0.00     0.102 C 
ATOM     17  N   UNL A   1      33.768  28.057  21.882  1.00  0.00    -0.192 NA
ENDBRANCH  12  16
BRANCH  13  18
ATOM     18  C   UNL A   1      33.355  21.642  23.888  1.00  0.00     0.004 A 
ATOM     19  C   UNL A   1      34.539  21.322  24.611  1.00  0.00     0.014 A 
ATOM     20  C   UNL A   1      32.450  20.614  23.585  1.00  0.00     0.061 A 
ATOM     21  C   UNL A   1      34.852  20.008  24.966  1.00  0.00     0.051 A 
ATOM     22  C   UNL A   1      32.795  19.321  23.932  1.00  0.00     0.166 A 
ATOM     23  C   UNL A   1      33.967  19.028  24.591  1.00  0.00     0.165 A 
ATOM     24  O   UNL A   1      32.073  18.203  23.648  1.00  0.00    -0.454 OA
ATOM     25  O   UNL A   1      34.132  17.694  24.797  1.00  0.00    -0.454 OA
ATOM     26  C   UNL A   1      32.955  17.176  24.146  1.00  0.00     0.468 C 
ENDBRANCH  13  18
ENDBRANCH   9  10
ENDBRANCH   7   9
ENDBRANCH   4   7
ENDBRANCH   2   3
ENDBRANCH   1   2
BRANCH   1  27
ATOM     27  C   UNL A   1      33.030  32.246  27.339  1.00  0.00     0.118 C 
BRANCH  27  28
ATOM     28  N   UNL A   1      32.732  33.650  27.601  1.00  0.00    -0.352 N 
ATOM     29  C   UNL A   1      33.235  34.488  28.568  1.00  0.00     0.251 C 
ATOM     30  H   UNL A   1      32.072  34.057  26.996  1.00  0.00     0.163 HD
ATOM     31  O   UNL A   1      32.706  35.579  28.762  1.00  0.00    -0.269 OA
BRANCH  29  32
ATOM     32  C   UNL A   1      34.392  34.057  29.378  1.00  0.00     0.039 A 
ATOM     33  C   UNL A   1      34.181  33.276  30.517  1.00  0.00     0.014 A 
ATOM     34  C   UNL A   1      35.689  34.406  28.995  1.00  0.00     0.014 A 
ATOM     35  C   UNL A   1      35.279  32.776  31.222  1.00  0.00     0.010 A 
ATOM     36  C   UNL A   1      36.775  33.823  29.633  1.00  0.00     0.010 A 
ATOM     37  C   UNL A   1      36.584  33.008  30.758  1.00  0.00    -0.014 A 
BRANCH  37  38
ATOM     38  C   UNL A   1      37.777  32.434  31.434  1.00  0.00     0.031 A 
ATOM     39  C   UNL A   1      38.519  31.298  30.785  1.00  0.00     0.074 A 
ATOM     40  C   UNL A   1      38.133  32.868  32.660  1.00  0.00     0.049 A 
ATOM     41  N   UNL A   1      39.480  30.554  31.267  1.00  0.00    -0.248 NA
ATOM     42  C   UNL A   1      38.097  30.929  29.424  1.00  0.00     0.031 C 
ATOM     43  C   UNL A   1      37.479  33.950  33.398  1.00  0.00     0.029 A 
ATOM     44  N   UNL A   1      39.125  32.442  33.508  1.00  0.00    -0.354 N 
ATOM     45  C   UNL A   1      39.766  29.619  30.277  1.00  0.00     0.074 A 
ATOM     46  C   UNL A   1      38.829  29.849  29.199  1.00  0.00     0.031 C 
ATOM     47  C   UNL A   1      38.100  34.117  34.576  1.00  0.00     0.029 A 
ATOM     48  C   UNL A   1      39.151  33.112  34.711  1.00  0.00     0.049 A 
ATOM     49  H   UNL A   1      39.758  31.724  33.278  1.00  0.00     0.167 HD
ATOM     50  C   UNL A   1      40.733  28.671  30.263  1.00  0.00     0.034 A 
ATOM     51  C   UNL A   1      39.914  32.921  35.806  1.00  0.00     0.034 A 
ATOM     52  C   UNL A   1      41.659  28.460  31.348  1.00  0.00     0.049 A 
ATOM     53  C   UNL A   1      40.943  31.816  35.793  1.00  0.00     0.074 A 
ATOM     54  C   UNL A   1      42.703  27.555  31.422  1.00  0.00     0.029 A 
ATOM     55  N   UNL A   1      41.647  29.151  32.553  1.00  0.00    -0.354 N 
ATOM     56  N   UNL A   1      41.220  30.956  34.838  1.00  0.00    -0.248 NA
ATOM     57  C   UNL A   1      41.767  31.660  36.998  1.00  0.00     0.031 C 
ATOM     58  C   UNL A   1      43.261  27.635  32.701  1.00  0.00     0.029 A 
ATOM     59  C   UNL A   1      42.641  28.666  33.388  1.00  0.00     0.049 A 
ATOM     60  H   UNL A   1      41.023  29.879  32.779  1.00  0.00     0.167 HD
ATOM     61  C   UNL A   1      42.283  30.190  35.314  1.00  0.00     0.074 A 
ATOM     62  C   UNL A   1      42.595  30.691  36.636  1.00  0.00     0.031 C 
ATOM     63  C   UNL A   1      42.948  29.176  34.705  1.00  0.00     0.034 A 
BRANCH  50  64
ATOM     64  C   UNL A   1      40.811  27.771  29.053  1.00  0.00     0.023 A 
ATOM     65  C   UNL A   1      41.744  27.994  28.023  1.00  0.00     0.031 A 
ATOM     66  C   UNL A   1      39.926  26.687  28.912  1.00  0.00     0.131 A 
ATOM     67  C   UNL A   1      41.716  27.197  26.869  1.00  0.00     0.055 A 
ATOM     68  C   UNL A   1      39.968  25.840  27.804  1.00  0.00     0.041 A 
ATOM     69  F   UNL A   1      38.996  26.440  29.848  1.00  0.00    -0.206 F 
ATOM     70  C   UNL A   1      40.855  26.102  26.765  1.00  0.00     0.022 A 
BRANCH  67  71
ATOM     71  S   UNL A   1      42.707  27.713  25.440  1.00  0.00     0.124 S 
ATOM     72  O   UNL A   1      42.799  26.468  24.682  1.00  0.00    -0.237 OA
ATOM     73  O   UNL A   1      41.887  28.763  24.850  1.00  0.00    -0.237 OA
ATOM     74  O   UNL A   1      43.962  28.163  26.039  1.00  0.00    -0.744 OA
ENDBRANCH  67  71
ENDBRANCH  50  64
BRANCH  51  75
ATOM     75  C   UNL A   1      39.728  33.772  37.018  1.00  0.00     0.023 A 
ATOM     76  C   UNL A   1      40.561  34.876  37.262  1.00  0.00     0.031 A 
ATOM     77  C   UNL A   1      38.747  33.465  37.979  1.00  0.00     0.131 A 
ATOM     78  C   UNL A   1      40.439  35.594  38.462  1.00  0.00     0.055 A 
ATOM     79  C   UNL A   1      38.584  34.225  39.138  1.00  0.00     0.041 A 
ATOM     80  F   UNL A   1      37.924  32.419  37.800  1.00  0.00    -0.206 F 
ATOM     81  C   UNL A   1      39.444  35.288  39.392  1.00  0.00     0.022 A 
BRANCH  78  82
ATOM     82  S   UNL A   1      41.676  36.865  38.841  1.00  0.00     0.124 S 
ATOM     83  O   UNL A   1      40.834  37.980  39.260  1.00  0.00    -0.237 OA
ATOM     84  O   UNL A   1      42.461  36.222  39.890  1.00  0.00    -0.237 OA
ATOM     85  O   UNL A   1      42.373  37.051  37.570  1.00  0.00    -0.744 OA
ENDBRANCH  78  82
ENDBRANCH  51  75
BRANCH  63  86
ATOM     86  C   UNL A   1      44.139  28.589  35.425  1.00  0.00     0.023 A 
ATOM     87  C   UNL A   1      44.014  27.552  36.365  1.00  0.00     0.031 A 
ATOM     88  C   UNL A   1      45.430  29.073  35.142  1.00  0.00     0.131 A 
ATOM     89  C   UNL A   1      45.156  27.065  37.022  1.00  0.00     0.055 A 
ATOM     90  C   UNL A   1      46.567  28.536  35.746  1.00  0.00     0.041 A 
ATOM     91  F   UNL A   1      45.608  30.069  34.259  1.00  0.00    -0.206 F 
ATOM     92  C   UNL A   1      46.433  27.533  36.701  1.00  0.00     0.022 A 
BRANCH  89  93
ATOM     93  S   UNL A   1      44.945  25.875  38.374  1.00  0.00     0.124 S 
ATOM     94  O   UNL A   1      44.219  24.793  37.716  1.00  0.00    -0.237 OA
ATOM     95  O   UNL A   1      46.322  25.581  38.751  1.00  0.00    -0.237 OA
ATOM     96  O   UNL A   1      44.176  26.620  39.370  1.00  0.00    -0.744 OA
ENDBRANCH  89  93
ENDBRANCH  63  86
ENDBRANCH  37  38
ENDBRANCH  29  32
ENDBRANCH  27  28
ENDBRANCH   1  27
TORSDOF 17
ENDMDL
