MODEL 1
REMARK VINA RESULT:     -12.0      0.000      0.000
REMARK SMILES O=C(NCCCNC(=O)c1cccc2c(C(F)(F)F)cc(Br)nc12)c1ccc(-c2c3nc(c(-c4cc(S(=O)(=O)[O-])ccc4F)c4ccc([nH]4)c(-c4cc(S(=O)(=O)[O-])ccc4F)c4nc(c(-c5cc(S(=O)(=O)[O-])ccc5F)c5ccc2[nH]5)C=C4)C=C3)cc1
REMARK SMILES IDX 4 1 3 2 1 3 2 4 25 6 26 7 87 8 27 9 86 10 28 11 29 12 30 13
REMARK SMILES IDX 80 14 31 15 85 16 79 17 81 18 32 19 84 20 78 21 77 22 33 24
REMARK SMILES IDX 65 25 45 26 64 27 46 28 49 29 63 30 82 31 47 32 48 33 62 35
REMARK SMILES IDX 83 36 50 37 34 38 35 39 43 40 36 41 42 42 44 43 41 44 37 45
REMARK SMILES IDX 38 46 39 47 40 48 66 49 67 50 75 51 68 52 74 53 76 54 73 55
REMARK SMILES IDX 69 56 70 57 71 58 72 59 51 60 52 61 60 62 53 63 59 64 61 65
REMARK SMILES IDX 58 66 54 67 55 68 56 69 57 70 5 71 6 72 7 73 8 74 9 76 10 77
REMARK SMILES IDX 11 78 24 79 12 80 14 81 23 82 13 83 15 84 21 85 20 86 22 87
REMARK SMILES IDX 16 88 17 89 18 90 19 91
REMARK H PARENT 3 5 81 23 49 34 7 75
REMARK Flexibility Score: inf
ROOT
ATOM      1  C   UNL A   1      32.956  29.088  25.469  1.00  0.00     0.118 C 
ENDROOT
BRANCH   1   2
ATOM      2  N   UNL A   1      32.547  30.408  25.924  1.00  0.00    -0.352 N 
ATOM      3  O   UNL A   1      32.427  32.219  27.235  1.00  0.00    -0.269 OA
ATOM      4  C   UNL A   1      33.062  31.219  26.904  1.00  0.00     0.251 C 
ATOM      5  H   UNL A   1      31.769  30.782  25.451  1.00  0.00     0.163 HD
BRANCH   4   6
ATOM      6  C   UNL A   1      34.356  30.922  27.567  1.00  0.00     0.039 A 
ATOM      7  C   UNL A   1      34.568  29.633  28.070  1.00  0.00     0.014 A 
ATOM      8  C   UNL A   1      35.318  31.912  27.784  1.00  0.00     0.014 A 
ATOM      9  C   UNL A   1      35.744  29.331  28.765  1.00  0.00     0.010 A 
ATOM     10  C   UNL A   1      36.521  31.593  28.415  1.00  0.00     0.010 A 
ATOM     11  C   UNL A   1      36.735  30.309  28.938  1.00  0.00    -0.014 A 
BRANCH  11  12
ATOM     12  C   UNL A   1      37.966  30.043  29.728  1.00  0.00     0.031 A 
ATOM     13  C   UNL A   1      39.002  29.095  29.188  1.00  0.00     0.074 A 
ATOM     14  C   UNL A   1      38.129  30.598  30.945  1.00  0.00     0.049 A 
ATOM     15  N   UNL A   1      40.078  28.630  29.766  1.00  0.00    -0.248 NA
ATOM     16  C   UNL A   1      38.788  28.584  27.823  1.00  0.00     0.031 C 
ATOM     17  C   UNL A   1      37.187  31.516  31.583  1.00  0.00     0.029 A 
ATOM     18  N   UNL A   1      39.134  30.453  31.872  1.00  0.00    -0.354 N 
ATOM     19  C   UNL A   1      40.652  27.753  28.850  1.00  0.00     0.074 A 
ATOM     20  C   UNL A   1      39.785  27.719  27.695  1.00  0.00     0.031 C 
ATOM     21  C   UNL A   1      37.658  31.855  32.793  1.00  0.00     0.029 A 
ATOM     22  C   UNL A   1      38.911  31.144  33.041  1.00  0.00     0.049 A 
ATOM     23  H   UNL A   1      39.937  29.907  31.714  1.00  0.00     0.167 HD
ATOM     24  C   UNL A   1      41.808  27.059  28.956  1.00  0.00     0.034 A 
ATOM     25  C   UNL A   1      39.621  31.185  34.189  1.00  0.00     0.034 A 
ATOM     26  C   UNL A   1      42.688  27.138  30.091  1.00  0.00     0.049 A 
ATOM     27  C   UNL A   1      40.914  30.411  34.280  1.00  0.00     0.074 A 
ATOM     28  C   UNL A   1      43.914  26.520  30.264  1.00  0.00     0.029 A 
ATOM     29  N   UNL A   1      42.451  27.884  31.236  1.00  0.00    -0.354 N 
ATOM     30  N   UNL A   1      41.478  29.643  33.378  1.00  0.00    -0.248 NA
ATOM     31  C   UNL A   1      41.676  30.513  35.535  1.00  0.00     0.031 C 
ATOM     32  C   UNL A   1      44.394  26.851  31.530  1.00  0.00     0.029 A 
ATOM     33  C   UNL A   1      43.500  27.726  32.126  1.00  0.00     0.049 A 
ATOM     34  H   UNL A   1      41.656  28.443  31.393  1.00  0.00     0.167 HD
ATOM     35  C   UNL A   1      42.668  29.191  33.944  1.00  0.00     0.074 A 
ATOM     36  C   UNL A   1      42.755  29.788  35.259  1.00  0.00     0.031 C 
ATOM     37  C   UNL A   1      43.597  28.353  33.422  1.00  0.00     0.034 A 
BRANCH  24  38
ATOM     38  C   UNL A   1      42.229  26.171  27.813  1.00  0.00     0.023 A 
ATOM     39  C   UNL A   1      41.756  24.847  27.741  1.00  0.00     0.031 A 
ATOM     40  C   UNL A   1      43.199  26.587  26.884  1.00  0.00     0.131 A 
ATOM     41  C   UNL A   1      42.284  23.974  26.783  1.00  0.00     0.055 A 
ATOM     42  C   UNL A   1      43.690  25.724  25.905  1.00  0.00     0.041 A 
ATOM     43  F   UNL A   1      43.679  27.840  26.914  1.00  0.00    -0.206 F 
ATOM     44  C   UNL A   1      43.242  24.407  25.859  1.00  0.00     0.022 A 
BRANCH  41  45
ATOM     45  S   UNL A   1      41.791  22.230  26.731  1.00  0.00     0.124 S 
ATOM     46  O   UNL A   1      40.352  22.316  26.970  1.00  0.00    -0.237 OA
ATOM     47  O   UNL A   1      42.177  21.844  25.376  1.00  0.00    -0.237 OA
ATOM     48  O   UNL A   1      42.561  21.615  27.807  1.00  0.00    -0.744 OA
ENDBRANCH  41  45
ENDBRANCH  24  38
BRANCH  25  49
ATOM     49  C   UNL A   1      39.129  32.030  35.317  1.00  0.00     0.023 A 
ATOM     50  C   UNL A   1      39.581  33.351  35.485  1.00  0.00     0.031 A 
ATOM     51  C   UNL A   1      38.280  31.495  36.301  1.00  0.00     0.131 A 
ATOM     52  C   UNL A   1      39.234  34.069  36.638  1.00  0.00     0.055 A 
ATOM     53  C   UNL A   1      37.882  32.236  37.414  1.00  0.00     0.041 A 
ATOM     54  F   UNL A   1      37.831  30.234  36.193  1.00  0.00    -0.206 F 
ATOM     55  C   UNL A   1      38.374  33.525  37.596  1.00  0.00     0.022 A 
BRANCH  52  56
ATOM     56  S   UNL A   1      39.998  35.675  36.999  1.00  0.00     0.124 S 
ATOM     57  O   UNL A   1      39.653  36.450  35.810  1.00  0.00    -0.237 OA
ATOM     58  O   UNL A   1      39.308  36.065  38.227  1.00  0.00    -0.237 OA
ATOM     59  O   UNL A   1      41.411  35.358  37.159  1.00  0.00    -0.744 OA
ENDBRANCH  52  56
ENDBRANCH  25  49
BRANCH  37  60
ATOM     60  C   UNL A   1      44.820  28.014  34.238  1.00  0.00     0.023 A 
ATOM     61  C   UNL A   1      44.762  26.977  35.189  1.00  0.00     0.031 A 
ATOM     62  C   UNL A   1      45.961  28.835  34.216  1.00  0.00     0.131 A 
ATOM     63  C   UNL A   1      45.801  26.822  36.115  1.00  0.00     0.055 A 
ATOM     64  C   UNL A   1      47.014  28.647  35.111  1.00  0.00     0.041 A 
ATOM     65  F   UNL A   1      46.055  29.844  33.335  1.00  0.00    -0.206 F 
ATOM     66  C   UNL A   1      46.929  27.648  36.078  1.00  0.00     0.022 A 
BRANCH  63  67
ATOM     67  S   UNL A   1      45.682  25.611  37.462  1.00  0.00     0.124 S 
ATOM     68  O   UNL A   1      45.140  26.422  38.550  1.00  0.00    -0.237 OA
ATOM     69  O   UNL A   1      44.764  24.622  36.905  1.00  0.00    -0.237 OA
ATOM     70  O   UNL A   1      47.056  25.157  37.652  1.00  0.00    -0.744 OA
ENDBRANCH  63  67
ENDBRANCH  37  60
ENDBRANCH  11  12
ENDBRANCH   4   6
ENDBRANCH   1   2
BRANCH   1  71
ATOM     71  C   UNL A   1      31.833  28.058  25.547  1.00  0.00     0.042 C 
BRANCH  71  72
ATOM     72  C   UNL A   1      31.970  27.025  26.658  1.00  0.00     0.118 C 
BRANCH  72  73
ATOM     73  N   UNL A   1      30.950  25.990  26.609  1.00  0.00    -0.352 N 
ATOM     74  C   UNL A   1      31.079  24.627  26.510  1.00  0.00     0.253 C 
ATOM     75  H   UNL A   1      30.023  26.318  26.654  1.00  0.00     0.163 HD
ATOM     76  O   UNL A   1      30.071  23.920  26.529  1.00  0.00    -0.269 OA
BRANCH  74  77
ATOM     77  C   UNL A   1      32.416  24.001  26.484  1.00  0.00     0.066 A 
ATOM     78  C   UNL A   1      32.811  23.268  27.613  1.00  0.00     0.016 A 
ATOM     79  C   UNL A   1      33.190  24.058  25.314  1.00  0.00     0.085 A 
ATOM     80  C   UNL A   1      34.027  22.606  27.610  1.00  0.00     0.002 A 
ATOM     81  C   UNL A   1      34.408  23.334  25.297  1.00  0.00     0.013 A 
ATOM     82  N   UNL A   1      32.793  24.777  24.243  1.00  0.00    -0.240 NA
ATOM     83  C   UNL A   1      34.815  22.636  26.462  1.00  0.00     0.011 A 
ATOM     84  C   UNL A   1      35.166  23.335  24.096  1.00  0.00     0.068 A 
ATOM     85  C   UNL A   1      33.533  24.777  23.121  1.00  0.00     0.107 A 
ATOM     86  C   UNL A   1      34.710  24.073  22.997  1.00  0.00     0.049 A 
ATOM     87  Br  UNL A   1      32.903  25.779  21.642  1.00  0.00    -0.029 Br
BRANCH  84  88
ATOM     88  C   UNL A   1      36.438  22.539  23.956  1.00  0.00     0.417 C 
ATOM     89  F   UNL A   1      36.953  22.580  22.697  1.00  0.00    -0.166 F 
ATOM     90  F   UNL A   1      37.428  22.981  24.782  1.00  0.00    -0.166 F 
ATOM     91  F   UNL A   1      36.289  21.216  24.250  1.00  0.00    -0.166 F 
ENDBRANCH  84  88
ENDBRANCH  74  77
ENDBRANCH  72  73
ENDBRANCH  71  72
ENDBRANCH   1  71
TORSDOF 14
ENDMDL
MODEL 2
REMARK VINA RESULT:     -11.9      5.249      9.943
REMARK SMILES O=C(NCCCNC(=O)c1cccc2c(C(F)(F)F)cc(Br)nc12)c1ccc(-c2c3nc(c(-c4cc(S(=O)(=O)[O-])ccc4F)c4ccc([nH]4)c(-c4cc(S(=O)(=O)[O-])ccc4F)c4nc(c(-c5cc(S(=O)(=O)[O-])ccc5F)c5ccc2[nH]5)C=C4)C=C3)cc1
REMARK SMILES IDX 4 1 3 2 1 3 2 4 25 6 26 7 87 8 27 9 86 10 28 11 29 12 30 13
REMARK SMILES IDX 80 14 31 15 85 16 79 17 81 18 32 19 84 20 78 21 77 22 33 24
REMARK SMILES IDX 65 25 45 26 64 27 46 28 49 29 63 30 82 31 47 32 48 33 62 35
REMARK SMILES IDX 83 36 50 37 34 38 35 39 43 40 36 41 42 42 44 43 41 44 37 45
REMARK SMILES IDX 38 46 39 47 40 48 66 49 67 50 75 51 68 52 74 53 76 54 73 55
REMARK SMILES IDX 69 56 70 57 71 58 72 59 51 60 52 61 60 62 53 63 59 64 61 65
REMARK SMILES IDX 58 66 54 67 55 68 56 69 57 70 5 71 6 72 7 73 8 74 9 76 10 77
REMARK SMILES IDX 11 78 24 79 12 80 14 81 23 82 13 83 15 84 21 85 20 86 22 87
REMARK SMILES IDX 16 88 17 89 18 90 19 91
REMARK H PARENT 3 5 81 23 49 34 7 75
REMARK Flexibility Score: inf
ROOT
ATOM      1  C   UNL A   1      36.981  22.155  24.378  1.00  0.00     0.118 C 
ENDROOT
BRANCH   1   2
ATOM      2  N   UNL A   1      37.680  21.020  24.964  1.00  0.00    -0.352 N 
ATOM      3  O   UNL A   1      39.329  19.861  25.938  1.00  0.00    -0.269 OA
ATOM      4  C   UNL A   1      38.829  20.962  25.712  1.00  0.00     0.251 C 
ATOM      5  H   UNL A   1      37.258  20.148  24.795  1.00  0.00     0.163 HD
BRANCH   4   6
ATOM      6  C   UNL A   1      39.477  22.184  26.248  1.00  0.00     0.039 A 
ATOM      7  C   UNL A   1      38.846  23.418  26.048  1.00  0.00     0.014 A 
ATOM      8  C   UNL A   1      40.735  22.147  26.856  1.00  0.00     0.014 A 
ATOM      9  C   UNL A   1      39.458  24.602  26.473  1.00  0.00     0.010 A 
ATOM     10  C   UNL A   1      41.313  23.319  27.344  1.00  0.00     0.010 A 
ATOM     11  C   UNL A   1      40.696  24.561  27.132  1.00  0.00    -0.014 A 
BRANCH  11  12
ATOM     12  C   UNL A   1      41.406  25.803  27.538  1.00  0.00     0.031 A 
ATOM     13  C   UNL A   1      40.683  26.833  28.363  1.00  0.00     0.074 A 
ATOM     14  C   UNL A   1      42.667  26.035  27.123  1.00  0.00     0.049 A 
ATOM     15  N   UNL A   1      41.071  28.031  28.715  1.00  0.00    -0.248 NA
ATOM     16  C   UNL A   1      39.334  26.478  28.837  1.00  0.00     0.031 C 
ATOM     17  C   UNL A   1      43.463  25.122  26.305  1.00  0.00     0.029 A 
ATOM     18  N   UNL A   1      43.491  27.119  27.313  1.00  0.00    -0.354 N 
ATOM     19  C   UNL A   1      40.008  28.581  29.424  1.00  0.00     0.074 A 
ATOM     20  C   UNL A   1      38.944  27.603  29.418  1.00  0.00     0.031 C 
ATOM     21  C   UNL A   1      44.660  25.680  26.066  1.00  0.00     0.029 A 
ATOM     22  C   UNL A   1      44.703  27.010  26.671  1.00  0.00     0.049 A 
ATOM     23  H   UNL A   1      43.237  27.898  27.858  1.00  0.00     0.167 HD
ATOM     24  C   UNL A   1      39.936  29.782  30.043  1.00  0.00     0.034 A 
ATOM     25  C   UNL A   1      45.724  27.887  26.564  1.00  0.00     0.034 A 
ATOM     26  C   UNL A   1      41.020  30.727  30.083  1.00  0.00     0.049 A 
ATOM     27  C   UNL A   1      45.627  29.217  27.271  1.00  0.00     0.074 A 
ATOM     28  C   UNL A   1      41.064  31.945  30.738  1.00  0.00     0.029 A 
ATOM     29  N   UNL A   1      42.248  30.562  29.460  1.00  0.00    -0.354 N 
ATOM     30  N   UNL A   1      44.642  29.693  27.997  1.00  0.00    -0.248 NA
ATOM     31  C   UNL A   1      46.777  30.129  27.160  1.00  0.00     0.031 C 
ATOM     32  C   UNL A   1      42.298  32.538  30.472  1.00  0.00     0.029 A 
ATOM     33  C   UNL A   1      43.049  31.665  29.702  1.00  0.00     0.049 A 
ATOM     34  H   UNL A   1      42.511  29.777  28.927  1.00  0.00     0.167 HD
ATOM     35  C   UNL A   1      45.061  30.943  28.447  1.00  0.00     0.074 A 
ATOM     36  C   UNL A   1      46.398  31.142  27.930  1.00  0.00     0.031 C 
ATOM     37  C   UNL A   1      44.395  31.842  29.212  1.00  0.00     0.034 A 
BRANCH  24  38
ATOM     38  C   UNL A   1      38.665  30.153  30.763  1.00  0.00     0.023 A 
ATOM     39  C   UNL A   1      37.678  30.908  30.102  1.00  0.00     0.031 A 
ATOM     40  C   UNL A   1      38.497  29.883  32.132  1.00  0.00     0.131 A 
ATOM     41  C   UNL A   1      36.583  31.400  30.823  1.00  0.00     0.055 A 
ATOM     42  C   UNL A   1      37.382  30.341  32.836  1.00  0.00     0.041 A 
ATOM     43  F   UNL A   1      39.412  29.168  32.804  1.00  0.00    -0.206 F 
ATOM     44  C   UNL A   1      36.426  31.114  32.184  1.00  0.00     0.022 A 
BRANCH  41  45
ATOM     45  S   UNL A   1      35.352  32.474  30.039  1.00  0.00     0.124 S 
ATOM     46  O   UNL A   1      34.885  31.642  28.932  1.00  0.00    -0.237 OA
ATOM     47  O   UNL A   1      34.389  32.673  31.119  1.00  0.00    -0.237 OA
ATOM     48  O   UNL A   1      36.113  33.655  29.647  1.00  0.00    -0.744 OA
ENDBRANCH  41  45
ENDBRANCH  24  38
BRANCH  25  49
ATOM     49  C   UNL A   1      46.937  27.498  25.785  1.00  0.00     0.023 A 
ATOM     50  C   UNL A   1      47.106  27.911  24.451  1.00  0.00     0.031 A 
ATOM     51  C   UNL A   1      47.892  26.623  26.329  1.00  0.00     0.131 A 
ATOM     52  C   UNL A   1      48.167  27.401  23.689  1.00  0.00     0.055 A 
ATOM     53  C   UNL A   1      48.985  26.170  25.588  1.00  0.00     0.041 A 
ATOM     54  F   UNL A   1      47.769  26.189  27.594  1.00  0.00    -0.206 F 
ATOM     55  C   UNL A   1      49.116  26.545  24.255  1.00  0.00     0.022 A 
BRANCH  52  56
ATOM     56  S   UNL A   1      48.268  27.720  21.905  1.00  0.00     0.124 S 
ATOM     57  O   UNL A   1      48.495  26.381  21.369  1.00  0.00    -0.237 OA
ATOM     58  O   UNL A   1      46.953  28.295  21.629  1.00  0.00    -0.237 OA
ATOM     59  O   UNL A   1      49.385  28.648  21.783  1.00  0.00    -0.744 OA
ENDBRANCH  52  56
ENDBRANCH  25  49
BRANCH  37  60
ATOM     60  C   UNL A   1      45.073  33.140  29.576  1.00  0.00     0.023 A 
ATOM     61  C   UNL A   1      44.993  34.241  28.700  1.00  0.00     0.031 A 
ATOM     62  C   UNL A   1      45.948  33.222  30.672  1.00  0.00     0.131 A 
ATOM     63  C   UNL A   1      45.815  35.356  28.907  1.00  0.00     0.055 A 
ATOM     64  C   UNL A   1      46.732  34.354  30.898  1.00  0.00     0.041 A 
ATOM     65  F   UNL A   1      46.067  32.193  31.526  1.00  0.00    -0.206 F 
ATOM     66  C   UNL A   1      46.681  35.420  30.003  1.00  0.00     0.022 A 
BRANCH  63  67
ATOM     67  S   UNL A   1      45.866  36.716  27.706  1.00  0.00     0.124 S 
ATOM     68  O   UNL A   1      45.450  36.048  26.475  1.00  0.00    -0.237 OA
ATOM     69  O   UNL A   1      44.897  37.654  28.264  1.00  0.00    -0.237 OA
ATOM     70  O   UNL A   1      47.256  37.159  27.732  1.00  0.00    -0.744 OA
ENDBRANCH  63  67
ENDBRANCH  37  60
ENDBRANCH  11  12
ENDBRANCH   4   6
ENDBRANCH   1   2
BRANCH   1  71
ATOM     71  C   UNL A   1      35.500  22.190  24.740  1.00  0.00     0.042 C 
BRANCH  71  72
ATOM     72  C   UNL A   1      35.033  23.449  25.460  1.00  0.00     0.118 C 
BRANCH  72  73
ATOM     73  N   UNL A   1      34.104  23.178  26.546  1.00  0.00    -0.352 N 
ATOM     74  C   UNL A   1      32.753  23.410  26.631  1.00  0.00     0.253 C 
ATOM     75  H   UNL A   1      34.506  22.765  27.343  1.00  0.00     0.163 HD
ATOM     76  O   UNL A   1      32.140  23.058  27.638  1.00  0.00    -0.269 OA
BRANCH  74  77
ATOM     77  C   UNL A   1      32.018  23.981  25.485  1.00  0.00     0.066 A 
ATOM     78  C   UNL A   1      31.406  23.086  24.594  1.00  0.00     0.016 A 
ATOM     79  C   UNL A   1      31.857  25.372  25.383  1.00  0.00     0.085 A 
ATOM     80  C   UNL A   1      30.649  23.573  23.543  1.00  0.00     0.002 A 
ATOM     81  C   UNL A   1      31.036  25.863  24.337  1.00  0.00     0.013 A 
ATOM     82  N   UNL A   1      32.462  26.215  26.246  1.00  0.00    -0.240 NA
ATOM     83  C   UNL A   1      30.462  24.947  23.419  1.00  0.00     0.011 A 
ATOM     84  C   UNL A   1      30.816  27.264  24.265  1.00  0.00     0.068 A 
ATOM     85  C   UNL A   1      32.253  27.539  26.151  1.00  0.00     0.107 A 
ATOM     86  C   UNL A   1      31.442  28.105  25.193  1.00  0.00     0.049 A 
ATOM     87  Br  UNL A   1      33.106  28.664  27.414  1.00  0.00    -0.029 Br
BRANCH  84  88
ATOM     88  C   UNL A   1      29.904  27.876  23.233  1.00  0.00     0.417 C 
ATOM     89  F   UNL A   1      28.650  27.348  23.255  1.00  0.00    -0.166 F 
ATOM     90  F   UNL A   1      29.748  29.219  23.399  1.00  0.00    -0.166 F 
ATOM     91  F   UNL A   1      30.346  27.720  21.953  1.00  0.00    -0.166 F 
ENDBRANCH  84  88
ENDBRANCH  74  77
ENDBRANCH  72  73
ENDBRANCH  71  72
ENDBRANCH   1  71
TORSDOF 14
ENDMDL
MODEL 3
REMARK VINA RESULT:     -11.8      2.971      8.466
REMARK SMILES O=C(NCCCNC(=O)c1cccc2c(C(F)(F)F)cc(Br)nc12)c1ccc(-c2c3nc(c(-c4cc(S(=O)(=O)[O-])ccc4F)c4ccc([nH]4)c(-c4cc(S(=O)(=O)[O-])ccc4F)c4nc(c(-c5cc(S(=O)(=O)[O-])ccc5F)c5ccc2[nH]5)C=C4)C=C3)cc1
REMARK SMILES IDX 4 1 3 2 1 3 2 4 25 6 26 7 87 8 27 9 86 10 28 11 29 12 30 13
REMARK SMILES IDX 80 14 31 15 85 16 79 17 81 18 32 19 84 20 78 21 77 22 33 24
REMARK SMILES IDX 65 25 45 26 64 27 46 28 49 29 63 30 82 31 47 32 48 33 62 35
REMARK SMILES IDX 83 36 50 37 34 38 35 39 43 40 36 41 42 42 44 43 41 44 37 45
REMARK SMILES IDX 38 46 39 47 40 48 66 49 67 50 75 51 68 52 74 53 76 54 73 55
REMARK SMILES IDX 69 56 70 57 71 58 72 59 51 60 52 61 60 62 53 63 59 64 61 65
REMARK SMILES IDX 58 66 54 67 55 68 56 69 57 70 5 71 6 72 7 73 8 74 9 76 10 77
REMARK SMILES IDX 11 78 24 79 12 80 14 81 23 82 13 83 15 84 21 85 20 86 22 87
REMARK SMILES IDX 16 88 17 89 18 90 19 91
REMARK H PARENT 3 5 81 23 49 34 7 75
REMARK Flexibility Score: inf
ROOT
ATOM      1  C   UNL A   1      34.106  28.962  25.824  1.00  0.00     0.118 C 
ENDROOT
BRANCH   1   2
ATOM      2  N   UNL A   1      33.804  30.251  26.430  1.00  0.00    -0.352 N 
ATOM      3  O   UNL A   1      33.818  31.900  27.945  1.00  0.00    -0.269 OA
ATOM      4  C   UNL A   1      34.371  30.894  27.502  1.00  0.00     0.251 C 
ATOM      5  H   UNL A   1      33.069  30.744  25.999  1.00  0.00     0.163 HD
BRANCH   4   6
ATOM      6  C   UNL A   1      35.623  30.409  28.133  1.00  0.00     0.039 A 
ATOM      7  C   UNL A   1      36.833  30.609  27.457  1.00  0.00     0.014 A 
ATOM      8  C   UNL A   1      35.614  29.680  29.326  1.00  0.00     0.014 A 
ATOM      9  C   UNL A   1      38.027  30.103  27.983  1.00  0.00     0.010 A 
ATOM     10  C   UNL A   1      36.812  29.238  29.885  1.00  0.00     0.010 A 
ATOM     11  C   UNL A   1      38.027  29.418  29.207  1.00  0.00    -0.014 A 
BRANCH  11  12
ATOM     12  C   UNL A   1      39.265  28.810  29.761  1.00  0.00     0.031 A 
ATOM     13  C   UNL A   1      39.925  29.436  30.961  1.00  0.00     0.074 A 
ATOM     14  C   UNL A   1      39.829  27.743  29.162  1.00  0.00     0.049 A 
ATOM     15  N   UNL A   1      41.069  29.144  31.521  1.00  0.00    -0.248 NA
ATOM     16  C   UNL A   1      39.213  30.555  31.602  1.00  0.00     0.031 C 
ATOM     17  C   UNL A   1      39.294  27.062  27.984  1.00  0.00     0.029 A 
ATOM     18  N   UNL A   1      40.986  27.059  29.448  1.00  0.00    -0.354 N 
ATOM     19  C   UNL A   1      41.227  30.057  32.559  1.00  0.00     0.074 A 
ATOM     20  C   UNL A   1      40.083  30.939  32.525  1.00  0.00     0.031 C 
ATOM     21  C   UNL A   1      40.118  26.056  27.649  1.00  0.00     0.029 A 
ATOM     22  C   UNL A   1      41.265  26.048  28.556  1.00  0.00     0.049 A 
ATOM     23  H   UNL A   1      41.561  27.272  30.218  1.00  0.00     0.167 HD
ATOM     24  C   UNL A   1      42.225  30.136  33.469  1.00  0.00     0.034 A 
ATOM     25  C   UNL A   1      42.330  25.222  28.466  1.00  0.00     0.034 A 
ATOM     26  C   UNL A   1      43.334  29.222  33.522  1.00  0.00     0.049 A 
ATOM     27  C   UNL A   1      43.426  25.322  29.499  1.00  0.00     0.074 A 
ATOM     28  C   UNL A   1      44.363  29.185  34.446  1.00  0.00     0.029 A 
ATOM     29  N   UNL A   1      43.557  28.184  32.631  1.00  0.00    -0.354 N 
ATOM     30  N   UNL A   1      43.525  26.145  30.517  1.00  0.00    -0.248 NA
ATOM     31  C   UNL A   1      44.549  24.379  29.386  1.00  0.00     0.031 C 
ATOM     32  C   UNL A   1      45.233  28.156  34.087  1.00  0.00     0.029 A 
ATOM     33  C   UNL A   1      44.718  27.511  32.975  1.00  0.00     0.049 A 
ATOM     34  H   UNL A   1      42.977  27.958  31.868  1.00  0.00     0.167 HD
ATOM     35  C   UNL A   1      44.704  25.805  31.176  1.00  0.00     0.074 A 
ATOM     36  C   UNL A   1      45.274  24.687  30.456  1.00  0.00     0.031 C 
ATOM     37  C   UNL A   1      45.263  26.374  32.273  1.00  0.00     0.034 A 
BRANCH  24  38
ATOM     38  C   UNL A   1      42.168  31.220  34.515  1.00  0.00     0.023 A 
ATOM     39  C   UNL A   1      42.752  32.475  34.258  1.00  0.00     0.031 A 
ATOM     40  C   UNL A   1      41.668  30.966  35.804  1.00  0.00     0.131 A 
ATOM     41  C   UNL A   1      42.854  33.416  35.290  1.00  0.00     0.055 A 
ATOM     42  C   UNL A   1      41.735  31.924  36.816  1.00  0.00     0.041 A 
ATOM     43  F   UNL A   1      41.103  29.784  36.095  1.00  0.00    -0.206 F 
ATOM     44  C   UNL A   1      42.341  33.151  36.564  1.00  0.00     0.022 A 
BRANCH  41  45
ATOM     45  S   UNL A   1      43.703  34.998  35.035  1.00  0.00     0.124 S 
ATOM     46  O   UNL A   1      44.754  34.627  34.089  1.00  0.00    -0.237 OA
ATOM     47  O   UNL A   1      42.637  35.832  34.488  1.00  0.00    -0.237 OA
ATOM     48  O   UNL A   1      44.172  35.364  36.367  1.00  0.00    -0.744 OA
ENDBRANCH  41  45
ENDBRANCH  24  38
BRANCH  25  49
ATOM     49  C   UNL A   1      42.369  24.206  27.372  1.00  0.00     0.023 A 
ATOM     50  C   UNL A   1      41.676  22.988  27.489  1.00  0.00     0.031 A 
ATOM     51  C   UNL A   1      43.183  24.396  26.243  1.00  0.00     0.131 A 
ATOM     52  C   UNL A   1      41.858  21.984  26.527  1.00  0.00     0.055 A 
ATOM     53  C   UNL A   1      43.310  23.420  25.253  1.00  0.00     0.041 A 
ATOM     54  F   UNL A   1      43.876  25.536  26.092  1.00  0.00    -0.206 F 
ATOM     55  C   UNL A   1      42.658  22.200  25.402  1.00  0.00     0.022 A 
BRANCH  52  56
ATOM     56  S   UNL A   1      41.175  20.322  26.777  1.00  0.00     0.124 S 
ATOM     57  O   UNL A   1      42.290  19.471  26.370  1.00  0.00    -0.237 OA
ATOM     58  O   UNL A   1      40.881  20.332  28.209  1.00  0.00    -0.237 OA
ATOM     59  O   UNL A   1      40.007  20.293  25.908  1.00  0.00    -0.744 OA
ENDBRANCH  52  56
ENDBRANCH  25  49
BRANCH  37  60
ATOM     60  C   UNL A   1      46.558  25.815  32.809  1.00  0.00     0.023 A 
ATOM     61  C   UNL A   1      47.762  26.050  32.116  1.00  0.00     0.031 A 
ATOM     62  C   UNL A   1      46.570  24.900  33.875  1.00  0.00     0.131 A 
ATOM     63  C   UNL A   1      48.916  25.337  32.463  1.00  0.00     0.055 A 
ATOM     64  C   UNL A   1      47.733  24.226  34.246  1.00  0.00     0.041 A 
ATOM     65  F   UNL A   1      45.443  24.634  34.556  1.00  0.00    -0.206 F 
ATOM     66  C   UNL A   1      48.909  24.430  33.528  1.00  0.00     0.022 A 
BRANCH  63  67
ATOM     67  S   UNL A   1      50.437  25.484  31.485  1.00  0.00     0.124 S 
ATOM     68  O   UNL A   1      49.938  26.052  30.234  1.00  0.00    -0.237 OA
ATOM     69  O   UNL A   1      51.241  26.389  32.302  1.00  0.00    -0.237 OA
ATOM     70  O   UNL A   1      50.931  24.115  31.391  1.00  0.00    -0.744 OA
ENDBRANCH  63  67
ENDBRANCH  37  60
ENDBRANCH  11  12
ENDBRANCH   4   6
ENDBRANCH   1   2
BRANCH   1  71
ATOM     71  C   UNL A   1      33.444  27.795  26.551  1.00  0.00     0.042 C 
BRANCH  71  72
ATOM     72  C   UNL A   1      33.320  26.510  25.745  1.00  0.00     0.118 C 
BRANCH  72  73
ATOM     73  N   UNL A   1      33.714  26.664  24.353  1.00  0.00    -0.352 N 
ATOM     74  C   UNL A   1      33.691  25.757  23.323  1.00  0.00     0.253 C 
ATOM     75  H   UNL A   1      34.049  27.557  24.113  1.00  0.00     0.163 HD
ATOM     76  O   UNL A   1      34.032  26.112  22.195  1.00  0.00    -0.269 OA
BRANCH  74  77
ATOM     77  C   UNL A   1      33.164  24.394  23.536  1.00  0.00     0.066 A 
ATOM     78  C   UNL A   1      31.877  24.112  23.052  1.00  0.00     0.016 A 
ATOM     79  C   UNL A   1      33.988  23.408  24.102  1.00  0.00     0.085 A 
ATOM     80  C   UNL A   1      31.367  22.831  23.168  1.00  0.00     0.002 A 
ATOM     81  C   UNL A   1      33.481  22.087  24.168  1.00  0.00     0.013 A 
ATOM     82  N   UNL A   1      35.219  23.705  24.569  1.00  0.00    -0.240 NA
ATOM     83  C   UNL A   1      32.162  21.828  23.716  1.00  0.00     0.011 A 
ATOM     84  C   UNL A   1      34.332  21.072  24.680  1.00  0.00     0.068 A 
ATOM     85  C   UNL A   1      36.003  22.731  25.064  1.00  0.00     0.107 A 
ATOM     86  C   UNL A   1      35.612  21.413  25.132  1.00  0.00     0.049 A 
ATOM     87  Br  UNL A   1      37.733  23.209  25.672  1.00  0.00    -0.029 Br
BRANCH  84  88
ATOM     88  C   UNL A   1      33.909  19.626  24.726  1.00  0.00     0.417 C 
ATOM     89  F   UNL A   1      34.964  18.767  24.756  1.00  0.00    -0.166 F 
ATOM     90  F   UNL A   1      33.155  19.333  25.822  1.00  0.00    -0.166 F 
ATOM     91  F   UNL A   1      33.153  19.244  23.657  1.00  0.00    -0.166 F 
ENDBRANCH  84  88
ENDBRANCH  74  77
ENDBRANCH  72  73
ENDBRANCH  71  72
ENDBRANCH   1  71
TORSDOF 14
ENDMDL
