MODEL 1
REMARK VINA RESULT:     -13.0      0.000      0.000
REMARK SMILES Cc1cccc(C(=O)NCCCNC(=O)c2ccc(-c3c4nc(c(-c5cc(S(=O)(=O)[O-])ccc5F)c5ccc([nH]5)c(-c5cc(S(=O)(=O)[O-])ccc5F)c5nc(c(-c6cc(S(=O)(=O)[O-])ccc6F)c6ccc3[nH]6)C=C5)C=C4)cc2)c1NC(=O)Cc1ccccc1
REMARK SMILES IDX 11 1 10 2 9 3 7 4 8 5 6 7 1 8 2 9 3 10 79 11 4 12 5 13 80 14
REMARK SMILES IDX 81 15 82 17 83 18 84 19 85 20 89 21 86 22 88 23 87 24 12 25
REMARK SMILES IDX 13 26 14 27 15 29 16 30 17 31 78 32 18 33 77 34 19 35 20 36
REMARK SMILES IDX 21 37 71 38 22 39 76 40 70 41 72 42 23 43 75 44 69 45 68 46
REMARK SMILES IDX 24 48 56 49 36 50 55 51 37 52 40 53 54 54 73 55 38 56 39 57
REMARK SMILES IDX 53 59 74 60 41 61 25 62 26 63 34 64 27 65 33 66 35 67 32 68
REMARK SMILES IDX 28 69 29 70 30 71 31 72 57 73 58 74 66 75 59 76 65 77 67 78
REMARK SMILES IDX 64 79 60 80 61 81 62 82 63 83 42 84 43 85 51 86 44 87 50 88
REMARK SMILES IDX 52 89 49 90 45 91 46 92 47 93 48 94
REMARK H PARENT 9 6 80 16 13 28 72 47 40 58
REMARK Flexibility Score: inf
ROOT
ATOM      1  C   UNL A   1      38.299  21.455  25.482  1.00  0.00     0.042 C 
ENDROOT
BRANCH   1   2
ATOM      2  C   UNL A   1      36.980  21.502  24.708  1.00  0.00     0.118 C 
BRANCH   2   3
ATOM      3  N   UNL A   1      36.105  20.342  24.851  1.00  0.00    -0.352 N 
ATOM      4  C   UNL A   1      34.748  20.268  25.093  1.00  0.00     0.253 C 
ATOM      5  O   UNL A   1      34.100  19.278  24.761  1.00  0.00    -0.269 OA
ATOM      6  H   UNL A   1      36.557  19.471  24.760  1.00  0.00     0.163 HD
BRANCH   4   7
ATOM      7  C   UNL A   1      33.996  21.395  25.708  1.00  0.00     0.063 A 
ATOM      8  C   UNL A   1      30.735  23.206  25.176  1.00  0.00     0.046 C 
ATOM      9  C   UNL A   1      32.056  22.811  25.771  1.00  0.00    -0.027 A 
ATOM     10  C   UNL A   1      32.307  23.096  27.119  1.00  0.00     0.005 A 
ATOM     11  C   UNL A   1      33.065  22.176  25.026  1.00  0.00     0.056 A 
ATOM     12  C   UNL A   1      33.450  22.600  27.740  1.00  0.00     0.001 A 
ATOM     13  C   UNL A   1      34.244  21.679  27.059  1.00  0.00     0.016 A 
BRANCH  11  14
ATOM     14  N   UNL A   1      33.165  22.544  23.671  1.00  0.00    -0.325 N 
ATOM     15  C   UNL A   1      33.782  23.602  23.067  1.00  0.00     0.228 C 
ATOM     16  H   UNL A   1      32.709  21.930  23.050  1.00  0.00     0.169 HD
ATOM     17  O   UNL A   1      33.620  23.689  21.842  1.00  0.00    -0.274 OA
BRANCH  15  18
ATOM     18  C   UNL A   1      34.514  24.692  23.840  1.00  0.00     0.135 C 
BRANCH  18  19
ATOM     19  C   UNL A   1      33.598  25.683  24.508  1.00  0.00    -0.039 A 
ATOM     20  C   UNL A   1      33.872  26.121  25.812  1.00  0.00     0.004 A 
ATOM     21  C   UNL A   1      32.494  26.212  23.832  1.00  0.00     0.004 A 
ATOM     22  C   UNL A   1      33.016  27.009  26.452  1.00  0.00     0.000 A 
ATOM     23  C   UNL A   1      31.649  27.106  24.465  1.00  0.00     0.000 A 
ATOM     24  C   UNL A   1      31.901  27.485  25.778  1.00  0.00     0.000 A 
ENDBRANCH  18  19
ENDBRANCH  15  18
ENDBRANCH  11  14
ENDBRANCH   4   7
ENDBRANCH   2   3
ENDBRANCH   1   2
BRANCH   1  25
ATOM     25  C   UNL A   1      38.748  22.767  26.122  1.00  0.00     0.118 C 
BRANCH  25  26
ATOM     26  N   UNL A   1      40.183  22.806  26.372  1.00  0.00    -0.352 N 
ATOM     27  C   UNL A   1      40.996  23.874  26.683  1.00  0.00     0.251 C 
ATOM     28  H   UNL A   1      40.642  21.938  26.309  1.00  0.00     0.163 HD
ATOM     29  O   UNL A   1      42.220  23.740  26.730  1.00  0.00    -0.269 OA
BRANCH  27  30
ATOM     30  C   UNL A   1      40.397  25.153  27.125  1.00  0.00     0.039 A 
ATOM     31  C   UNL A   1      40.661  26.277  26.327  1.00  0.00     0.014 A 
ATOM     32  C   UNL A   1      39.731  25.298  28.339  1.00  0.00     0.014 A 
ATOM     33  C   UNL A   1      40.422  27.557  26.823  1.00  0.00     0.010 A 
ATOM     34  C   UNL A   1      39.543  26.571  28.857  1.00  0.00     0.010 A 
ATOM     35  C   UNL A   1      39.938  27.698  28.125  1.00  0.00    -0.014 A 
BRANCH  35  36
ATOM     36  C   UNL A   1      40.011  28.964  28.849  1.00  0.00     0.031 A 
ATOM     37  C   UNL A   1      38.920  29.951  28.846  1.00  0.00     0.074 A 
ATOM     38  C   UNL A   1      41.073  29.185  29.651  1.00  0.00     0.049 A 
ATOM     39  N   UNL A   1      39.087  31.208  29.092  1.00  0.00    -0.248 NA
ATOM     40  C   UNL A   1      37.538  29.597  28.561  1.00  0.00     0.031 C 
ATOM     41  C   UNL A   1      41.219  30.210  30.680  1.00  0.00     0.029 A 
ATOM     42  N   UNL A   1      42.316  28.571  29.620  1.00  0.00    -0.354 N 
ATOM     43  C   UNL A   1      37.848  31.745  29.340  1.00  0.00     0.074 A 
ATOM     44  C   UNL A   1      36.912  30.730  28.900  1.00  0.00     0.031 C 
ATOM     45  C   UNL A   1      42.515  30.316  31.010  1.00  0.00     0.029 A 
ATOM     46  C   UNL A   1      43.256  29.500  30.066  1.00  0.00     0.049 A 
ATOM     47  H   UNL A   1      42.503  27.647  29.334  1.00  0.00     0.167 HD
ATOM     48  C   UNL A   1      37.735  32.912  30.039  1.00  0.00     0.034 A 
ATOM     49  C   UNL A   1      44.306  29.926  29.309  1.00  0.00     0.034 A 
ATOM     50  C   UNL A   1      39.038  33.415  30.489  1.00  0.00     0.049 A 
ATOM     51  C   UNL A   1      44.220  31.433  29.124  1.00  0.00     0.074 A 
ATOM     52  C   UNL A   1      39.661  33.418  31.728  1.00  0.00     0.029 A 
ATOM     53  N   UNL A   1      40.016  33.778  29.563  1.00  0.00    -0.354 N 
ATOM     54  N   UNL A   1      43.107  32.111  29.236  1.00  0.00    -0.248 NA
ATOM     55  C   UNL A   1      45.368  32.297  28.869  1.00  0.00     0.031 C 
ATOM     56  C   UNL A   1      41.033  33.725  31.532  1.00  0.00     0.029 A 
ATOM     57  C   UNL A   1      41.242  33.944  30.180  1.00  0.00     0.049 A 
ATOM     58  H   UNL A   1      39.855  33.899  28.599  1.00  0.00     0.167 HD
ATOM     59  C   UNL A   1      43.373  33.452  29.194  1.00  0.00     0.074 A 
ATOM     60  C   UNL A   1      44.800  33.517  28.913  1.00  0.00     0.031 C 
ATOM     61  C   UNL A   1      42.417  34.399  29.443  1.00  0.00     0.034 A 
BRANCH  48  62
ATOM     62  C   UNL A   1      36.413  33.421  30.582  1.00  0.00     0.023 A 
ATOM     63  C   UNL A   1      35.540  34.171  29.766  1.00  0.00     0.031 A 
ATOM     64  C   UNL A   1      35.966  33.200  31.900  1.00  0.00     0.131 A 
ATOM     65  C   UNL A   1      34.364  34.749  30.284  1.00  0.00     0.055 A 
ATOM     66  C   UNL A   1      34.835  33.831  32.436  1.00  0.00     0.041 A 
ATOM     67  F   UNL A   1      36.580  32.322  32.707  1.00  0.00    -0.206 F 
ATOM     68  C   UNL A   1      34.033  34.625  31.630  1.00  0.00     0.022 A 
BRANCH  65  69
ATOM     69  S   UNL A   1      33.244  35.644  29.169  1.00  0.00     0.124 S 
ATOM     70  O   UNL A   1      34.171  36.414  28.344  1.00  0.00    -0.237 OA
ATOM     71  O   UNL A   1      32.538  34.557  28.502  1.00  0.00    -0.237 OA
ATOM     72  O   UNL A   1      32.422  36.442  30.080  1.00  0.00    -0.744 OA
ENDBRANCH  65  69
ENDBRANCH  48  62
BRANCH  49  73
ATOM     73  C   UNL A   1      44.753  28.907  28.310  1.00  0.00     0.023 A 
ATOM     74  C   UNL A   1      45.572  27.844  28.784  1.00  0.00     0.031 A 
ATOM     75  C   UNL A   1      44.065  28.711  27.106  1.00  0.00     0.131 A 
ATOM     76  C   UNL A   1      45.550  26.589  28.153  1.00  0.00     0.055 A 
ATOM     77  C   UNL A   1      44.095  27.475  26.447  1.00  0.00     0.041 A 
ATOM     78  F   UNL A   1      43.244  29.655  26.627  1.00  0.00    -0.206 F 
ATOM     79  C   UNL A   1      44.804  26.399  26.988  1.00  0.00     0.022 A 
BRANCH  76  80
ATOM     80  S   UNL A   1      46.286  25.141  28.992  1.00  0.00     0.124 S 
ATOM     81  O   UNL A   1      47.368  24.781  28.084  1.00  0.00    -0.237 OA
ATOM     82  O   UNL A   1      46.691  25.661  30.295  1.00  0.00    -0.237 OA
ATOM     83  O   UNL A   1      45.186  24.180  29.061  1.00  0.00    -0.744 OA
ENDBRANCH  76  80
ENDBRANCH  49  73
BRANCH  61  84
ATOM     84  C   UNL A   1      42.556  35.878  29.152  1.00  0.00     0.023 A 
ATOM     85  C   UNL A   1      43.377  36.724  29.909  1.00  0.00     0.031 A 
ATOM     86  C   UNL A   1      41.953  36.467  28.012  1.00  0.00     0.131 A 
ATOM     87  C   UNL A   1      43.510  38.088  29.590  1.00  0.00     0.055 A 
ATOM     88  C   UNL A   1      42.148  37.803  27.652  1.00  0.00     0.041 A 
ATOM     89  F   UNL A   1      41.162  35.767  27.186  1.00  0.00    -0.206 F 
ATOM     90  C   UNL A   1      42.920  38.629  28.450  1.00  0.00     0.022 A 
BRANCH  87  91
ATOM     91  S   UNL A   1      44.444  39.143  30.724  1.00  0.00     0.124 S 
ATOM     92  O   UNL A   1      43.487  39.331  31.812  1.00  0.00    -0.237 OA
ATOM     93  O   UNL A   1      45.607  38.319  31.040  1.00  0.00    -0.237 OA
ATOM     94  O   UNL A   1      44.727  40.338  29.931  1.00  0.00    -0.744 OA
ENDBRANCH  87  91
ENDBRANCH  61  84
ENDBRANCH  35  36
ENDBRANCH  27  30
ENDBRANCH  25  26
ENDBRANCH   1  25
TORSDOF 16
ENDMDL
MODEL 2
REMARK VINA RESULT:     -12.9      4.157     10.549
REMARK SMILES Cc1cccc(C(=O)NCCCNC(=O)c2ccc(-c3c4nc(c(-c5cc(S(=O)(=O)[O-])ccc5F)c5ccc([nH]5)c(-c5cc(S(=O)(=O)[O-])ccc5F)c5nc(c(-c6cc(S(=O)(=O)[O-])ccc6F)c6ccc3[nH]6)C=C5)C=C4)cc2)c1NC(=O)Cc1ccccc1
REMARK SMILES IDX 11 1 10 2 9 3 7 4 8 5 6 7 1 8 2 9 3 10 79 11 4 12 5 13 80 14
REMARK SMILES IDX 81 15 82 17 83 18 84 19 85 20 89 21 86 22 88 23 87 24 12 25
REMARK SMILES IDX 13 26 14 27 15 29 16 30 17 31 78 32 18 33 77 34 19 35 20 36
REMARK SMILES IDX 21 37 71 38 22 39 76 40 70 41 72 42 23 43 75 44 69 45 68 46
REMARK SMILES IDX 24 48 56 49 36 50 55 51 37 52 40 53 54 54 73 55 38 56 39 57
REMARK SMILES IDX 53 59 74 60 41 61 25 62 26 63 34 64 27 65 33 66 35 67 32 68
REMARK SMILES IDX 28 69 29 70 30 71 31 72 57 73 58 74 66 75 59 76 65 77 67 78
REMARK SMILES IDX 64 79 60 80 61 81 62 82 63 83 42 84 43 85 51 86 44 87 50 88
REMARK SMILES IDX 52 89 49 90 45 91 46 92 47 93 48 94
REMARK H PARENT 9 6 80 16 13 28 72 47 40 58
REMARK Flexibility Score: inf
ROOT
ATOM      1  C   UNL A   1      33.134  30.972  26.738  1.00  0.00     0.042 C 
ENDROOT
BRANCH   1   2
ATOM      2  C   UNL A   1      31.900  30.108  26.476  1.00  0.00     0.118 C 
BRANCH   2   3
ATOM      3  N   UNL A   1      31.118  30.443  25.289  1.00  0.00    -0.352 N 
ATOM      4  C   UNL A   1      30.887  29.721  24.136  1.00  0.00     0.253 C 
ATOM      5  O   UNL A   1      29.893  29.933  23.444  1.00  0.00    -0.269 OA
ATOM      6  H   UNL A   1      30.685  31.327  25.316  1.00  0.00     0.163 HD
BRANCH   4   7
ATOM      7  C   UNL A   1      31.790  28.619  23.705  1.00  0.00     0.063 A 
ATOM      8  C   UNL A   1      31.483  25.130  22.314  1.00  0.00     0.046 C 
ATOM      9  C   UNL A   1      32.093  26.409  22.811  1.00  0.00    -0.027 A 
ATOM     10  C   UNL A   1      33.381  26.758  22.384  1.00  0.00     0.005 A 
ATOM     11  C   UNL A   1      31.431  27.272  23.700  1.00  0.00     0.056 A 
ATOM     12  C   UNL A   1      33.907  28.008  22.692  1.00  0.00     0.001 A 
ATOM     13  C   UNL A   1      33.079  28.967  23.273  1.00  0.00     0.016 A 
BRANCH  11  14
ATOM     14  N   UNL A   1      30.594  26.662  24.653  1.00  0.00    -0.325 N 
ATOM     15  C   UNL A   1      30.851  26.190  25.909  1.00  0.00     0.228 C 
ATOM     16  H   UNL A   1      29.658  26.557  24.363  1.00  0.00     0.169 HD
ATOM     17  O   UNL A   1      29.904  25.629  26.476  1.00  0.00    -0.274 OA
BRANCH  15  18
ATOM     18  C   UNL A   1      32.236  26.218  26.542  1.00  0.00     0.135 C 
BRANCH  18  19
ATOM     19  C   UNL A   1      33.150  25.126  26.052  1.00  0.00    -0.039 A 
ATOM     20  C   UNL A   1      32.740  23.787  26.121  1.00  0.00     0.004 A 
ATOM     21  C   UNL A   1      34.392  25.428  25.485  1.00  0.00     0.004 A 
ATOM     22  C   UNL A   1      33.588  22.768  25.703  1.00  0.00     0.000 A 
ATOM     23  C   UNL A   1      35.230  24.414  25.057  1.00  0.00     0.000 A 
ATOM     24  C   UNL A   1      34.835  23.089  25.187  1.00  0.00     0.000 A 
ENDBRANCH  18  19
ENDBRANCH  15  18
ENDBRANCH  11  14
ENDBRANCH   4   7
ENDBRANCH   2   3
ENDBRANCH   1   2
BRANCH   1  25
ATOM     25  C   UNL A   1      34.193  30.366  27.658  1.00  0.00     0.118 C 
BRANCH  25  26
ATOM     26  N   UNL A   1      34.896  31.373  28.444  1.00  0.00    -0.352 N 
ATOM     27  C   UNL A   1      36.067  31.273  29.162  1.00  0.00     0.251 C 
ATOM     28  H   UNL A   1      34.468  32.259  28.465  1.00  0.00     0.163 HD
ATOM     29  O   UNL A   1      36.446  32.200  29.880  1.00  0.00    -0.269 OA
BRANCH  27  30
ATOM     30  C   UNL A   1      36.966  30.117  28.948  1.00  0.00     0.039 A 
ATOM     31  C   UNL A   1      37.082  29.209  30.013  1.00  0.00     0.014 A 
ATOM     32  C   UNL A   1      37.781  29.987  27.828  1.00  0.00     0.014 A 
ATOM     33  C   UNL A   1      38.128  28.289  30.035  1.00  0.00     0.010 A 
ATOM     34  C   UNL A   1      38.855  29.110  27.872  1.00  0.00     0.010 A 
ATOM     35  C   UNL A   1      39.061  28.301  28.997  1.00  0.00    -0.014 A 
BRANCH  35  36
ATOM     36  C   UNL A   1      40.365  27.654  29.115  1.00  0.00     0.031 A 
ATOM     37  C   UNL A   1      40.626  26.289  28.630  1.00  0.00     0.074 A 
ATOM     38  C   UNL A   1      41.403  28.379  29.579  1.00  0.00     0.049 A 
ATOM     39  N   UNL A   1      41.582  25.540  29.072  1.00  0.00    -0.248 NA
ATOM     40  C   UNL A   1      39.825  25.654  27.596  1.00  0.00     0.031 C 
ATOM     41  C   UNL A   1      42.824  28.056  29.505  1.00  0.00     0.029 A 
ATOM     42  N   UNL A   1      41.370  29.544  30.332  1.00  0.00    -0.354 N 
ATOM     43  C   UNL A   1      41.739  24.509  28.179  1.00  0.00     0.074 A 
ATOM     44  C   UNL A   1      40.562  24.568  27.337  1.00  0.00     0.031 C 
ATOM     45  C   UNL A   1      43.497  28.841  30.361  1.00  0.00     0.029 A 
ATOM     46  C   UNL A   1      42.504  29.553  31.145  1.00  0.00     0.049 A 
ATOM     47  H   UNL A   1      40.671  30.238  30.301  1.00  0.00     0.167 HD
ATOM     48  C   UNL A   1      42.916  23.818  28.133  1.00  0.00     0.034 A 
ATOM     49  C   UNL A   1      42.449  29.587  32.506  1.00  0.00     0.034 A 
ATOM     50  C   UNL A   1      43.909  24.354  29.070  1.00  0.00     0.049 A 
ATOM     51  C   UNL A   1      43.144  28.360  33.073  1.00  0.00     0.074 A 
ATOM     52  C   UNL A   1      45.040  25.136  28.888  1.00  0.00     0.029 A 
ATOM     53  N   UNL A   1      43.669  24.337  30.444  1.00  0.00    -0.354 N 
ATOM     54  N   UNL A   1      43.312  27.250  32.400  1.00  0.00    -0.248 NA
ATOM     55  C   UNL A   1      43.755  28.298  34.397  1.00  0.00     0.031 C 
ATOM     56  C   UNL A   1      45.441  25.637  30.154  1.00  0.00     0.029 A 
ATOM     57  C   UNL A   1      44.577  25.135  31.114  1.00  0.00     0.049 A 
ATOM     58  H   UNL A   1      42.948  23.825  30.879  1.00  0.00     0.167 HD
ATOM     59  C   UNL A   1      44.119  26.398  33.102  1.00  0.00     0.074 A 
ATOM     60  C   UNL A   1      44.331  27.081  34.369  1.00  0.00     0.031 C 
ATOM     61  C   UNL A   1      44.591  25.228  32.571  1.00  0.00     0.034 A 
BRANCH  48  62
ATOM     62  C   UNL A   1      43.264  22.861  27.009  1.00  0.00     0.023 A 
ATOM     63  C   UNL A   1      42.809  21.525  27.034  1.00  0.00     0.031 A 
ATOM     64  C   UNL A   1      44.046  23.210  25.890  1.00  0.00     0.131 A 
ATOM     65  C   UNL A   1      43.216  20.592  26.060  1.00  0.00     0.055 A 
ATOM     66  C   UNL A   1      44.510  22.269  24.961  1.00  0.00     0.041 A 
ATOM     67  F   UNL A   1      44.351  24.489  25.625  1.00  0.00    -0.206 F 
ATOM     68  C   UNL A   1      44.107  20.945  25.051  1.00  0.00     0.022 A 
BRANCH  65  69
ATOM     69  S   UNL A   1      42.541  18.905  26.104  1.00  0.00     0.124 S 
ATOM     70  O   UNL A   1      41.154  19.112  25.701  1.00  0.00    -0.237 OA
ATOM     71  O   UNL A   1      43.394  18.206  25.150  1.00  0.00    -0.237 OA
ATOM     72  O   UNL A   1      42.723  18.503  27.500  1.00  0.00    -0.744 OA
ENDBRANCH  65  69
ENDBRANCH  48  62
BRANCH  49  73
ATOM     73  C   UNL A   1      41.217  30.260  33.021  1.00  0.00     0.023 A 
ATOM     74  C   UNL A   1      41.179  31.682  32.969  1.00  0.00     0.031 A 
ATOM     75  C   UNL A   1      39.997  29.580  33.115  1.00  0.00     0.131 A 
ATOM     76  C   UNL A   1      39.956  32.360  32.843  1.00  0.00     0.055 A 
ATOM     77  C   UNL A   1      38.777  30.268  33.051  1.00  0.00     0.041 A 
ATOM     78  F   UNL A   1      39.960  28.241  33.125  1.00  0.00    -0.206 F 
ATOM     79  C   UNL A   1      38.752  31.653  32.875  1.00  0.00     0.022 A 
BRANCH  76  80
ATOM     80  S   UNL A   1      39.945  34.129  32.383  1.00  0.00     0.124 S 
ATOM     81  O   UNL A   1      40.981  34.183  31.359  1.00  0.00    -0.237 OA
ATOM     82  O   UNL A   1      38.579  34.362  31.922  1.00  0.00    -0.237 OA
ATOM     83  O   UNL A   1      40.268  34.818  33.631  1.00  0.00    -0.744 OA
ENDBRANCH  76  80
ENDBRANCH  49  73
BRANCH  61  84
ATOM     84  C   UNL A   1      45.249  24.115  33.358  1.00  0.00     0.023 A 
ATOM     85  C   UNL A   1      46.563  24.201  33.836  1.00  0.00     0.031 A 
ATOM     86  C   UNL A   1      44.522  22.966  33.762  1.00  0.00     0.131 A 
ATOM     87  C   UNL A   1      47.132  23.161  34.594  1.00  0.00     0.055 A 
ATOM     88  C   UNL A   1      45.065  21.970  34.579  1.00  0.00     0.041 A 
ATOM     89  F   UNL A   1      43.247  22.767  33.397  1.00  0.00    -0.206 F 
ATOM     90  C   UNL A   1      46.384  22.056  34.991  1.00  0.00     0.022 A 
BRANCH  87  91
ATOM     91  S   UNL A   1      48.888  23.274  35.015  1.00  0.00     0.124 S 
ATOM     92  O   UNL A   1      49.435  22.108  34.325  1.00  0.00    -0.237 OA
ATOM     93  O   UNL A   1      49.264  24.571  34.460  1.00  0.00    -0.237 OA
ATOM     94  O   UNL A   1      48.900  23.196  36.474  1.00  0.00    -0.744 OA
ENDBRANCH  87  91
ENDBRANCH  61  84
ENDBRANCH  35  36
ENDBRANCH  27  30
ENDBRANCH  25  26
ENDBRANCH   1  25
TORSDOF 16
ENDMDL
MODEL 3
REMARK VINA RESULT:     -12.9      4.021     10.399
REMARK SMILES Cc1cccc(C(=O)NCCCNC(=O)c2ccc(-c3c4nc(c(-c5cc(S(=O)(=O)[O-])ccc5F)c5ccc([nH]5)c(-c5cc(S(=O)(=O)[O-])ccc5F)c5nc(c(-c6cc(S(=O)(=O)[O-])ccc6F)c6ccc3[nH]6)C=C5)C=C4)cc2)c1NC(=O)Cc1ccccc1
REMARK SMILES IDX 11 1 10 2 9 3 7 4 8 5 6 7 1 8 2 9 3 10 79 11 4 12 5 13 80 14
REMARK SMILES IDX 81 15 82 17 83 18 84 19 85 20 89 21 86 22 88 23 87 24 12 25
REMARK SMILES IDX 13 26 14 27 15 29 16 30 17 31 78 32 18 33 77 34 19 35 20 36
REMARK SMILES IDX 21 37 71 38 22 39 76 40 70 41 72 42 23 43 75 44 69 45 68 46
REMARK SMILES IDX 24 48 56 49 36 50 55 51 37 52 40 53 54 54 73 55 38 56 39 57
REMARK SMILES IDX 53 59 74 60 41 61 25 62 26 63 34 64 27 65 33 66 35 67 32 68
REMARK SMILES IDX 28 69 29 70 30 71 31 72 57 73 58 74 66 75 59 76 65 77 67 78
REMARK SMILES IDX 64 79 60 80 61 81 62 82 63 83 42 84 43 85 51 86 44 87 50 88
REMARK SMILES IDX 52 89 49 90 45 91 46 92 47 93 48 94
REMARK H PARENT 9 6 80 16 13 28 72 47 40 58
REMARK Flexibility Score: inf
ROOT
ATOM      1  C   UNL A   1      32.922  30.816  26.880  1.00  0.00     0.042 C 
ENDROOT
BRANCH   1   2
ATOM      2  C   UNL A   1      32.273  29.916  25.828  1.00  0.00     0.118 C 
BRANCH   2   3
ATOM      3  N   UNL A   1      33.012  29.745  24.580  1.00  0.00    -0.352 N 
ATOM      4  C   UNL A   1      33.325  28.601  23.874  1.00  0.00     0.253 C 
ATOM      5  O   UNL A   1      33.557  28.646  22.667  1.00  0.00    -0.269 OA
ATOM      6  H   UNL A   1      33.340  30.582  24.177  1.00  0.00     0.163 HD
BRANCH   4   7
ATOM      7  C   UNL A   1      33.341  27.259  24.517  1.00  0.00     0.063 A 
ATOM      8  C   UNL A   1      35.395  24.104  24.364  1.00  0.00     0.046 C 
ATOM      9  C   UNL A   1      34.339  25.089  24.776  1.00  0.00    -0.027 A 
ATOM     10  C   UNL A   1      33.764  24.976  26.048  1.00  0.00     0.005 A 
ATOM     11  C   UNL A   1      33.890  26.120  23.933  1.00  0.00     0.056 A 
ATOM     12  C   UNL A   1      32.906  25.965  26.521  1.00  0.00     0.001 A 
ATOM     13  C   UNL A   1      32.768  27.145  25.793  1.00  0.00     0.016 A 
BRANCH  11  14
ATOM     14  N   UNL A   1      33.855  25.828  22.557  1.00  0.00    -0.325 N 
ATOM     15  C   UNL A   1      32.880  25.273  21.777  1.00  0.00     0.228 C 
ATOM     16  H   UNL A   1      34.679  26.065  22.070  1.00  0.00     0.169 HD
ATOM     17  O   UNL A   1      33.189  25.072  20.594  1.00  0.00    -0.274 OA
BRANCH  15  18
ATOM     18  C   UNL A   1      31.542  24.798  22.328  1.00  0.00     0.135 C 
BRANCH  18  19
ATOM     19  C   UNL A   1      31.649  23.606  23.240  1.00  0.00    -0.039 A 
ATOM     20  C   UNL A   1      32.437  22.507  22.867  1.00  0.00     0.004 A 
ATOM     21  C   UNL A   1      31.008  23.590  24.483  1.00  0.00     0.004 A 
ATOM     22  C   UNL A   1      32.517  21.387  23.686  1.00  0.00     0.000 A 
ATOM     23  C   UNL A   1      31.099  22.480  25.303  1.00  0.00     0.000 A 
ATOM     24  C   UNL A   1      31.834  21.376  24.893  1.00  0.00     0.000 A 
ENDBRANCH  18  19
ENDBRANCH  15  18
ENDBRANCH  11  14
ENDBRANCH   4   7
ENDBRANCH   2   3
ENDBRANCH   1   2
BRANCH   1  25
ATOM     25  C   UNL A   1      34.240  30.316  27.469  1.00  0.00     0.118 C 
BRANCH  25  26
ATOM     26  N   UNL A   1      34.962  31.357  28.192  1.00  0.00    -0.352 N 
ATOM     27  C   UNL A   1      36.153  31.290  28.879  1.00  0.00     0.251 C 
ATOM     28  H   UNL A   1      34.532  32.242  28.187  1.00  0.00     0.163 HD
ATOM     29  O   UNL A   1      36.550  32.247  29.547  1.00  0.00    -0.269 OA
BRANCH  27  30
ATOM     30  C   UNL A   1      37.049  30.127  28.690  1.00  0.00     0.039 A 
ATOM     31  C   UNL A   1      37.125  29.215  29.754  1.00  0.00     0.014 A 
ATOM     32  C   UNL A   1      37.898  29.994  27.594  1.00  0.00     0.014 A 
ATOM     33  C   UNL A   1      38.163  28.286  29.805  1.00  0.00     0.010 A 
ATOM     34  C   UNL A   1      38.963  29.109  27.669  1.00  0.00     0.010 A 
ATOM     35  C   UNL A   1      39.127  28.295  28.796  1.00  0.00    -0.014 A 
BRANCH  35  36
ATOM     36  C   UNL A   1      40.422  27.636  28.952  1.00  0.00     0.031 A 
ATOM     37  C   UNL A   1      40.680  26.263  28.492  1.00  0.00     0.074 A 
ATOM     38  C   UNL A   1      41.457  28.358  29.429  1.00  0.00     0.049 A 
ATOM     39  N   UNL A   1      41.618  25.511  28.966  1.00  0.00    -0.248 NA
ATOM     40  C   UNL A   1      39.895  25.620  27.450  1.00  0.00     0.031 C 
ATOM     41  C   UNL A   1      42.876  28.020  29.391  1.00  0.00     0.029 A 
ATOM     42  N   UNL A   1      41.419  29.534  30.164  1.00  0.00    -0.354 N 
ATOM     43  C   UNL A   1      41.785  24.465  28.092  1.00  0.00     0.074 A 
ATOM     44  C   UNL A   1      40.628  24.523  27.223  1.00  0.00     0.031 C 
ATOM     45  C   UNL A   1      43.537  28.812  30.250  1.00  0.00     0.029 A 
ATOM     46  C   UNL A   1      42.535  29.544  31.002  1.00  0.00     0.049 A 
ATOM     47  H   UNL A   1      40.728  30.234  30.108  1.00  0.00     0.167 HD
ATOM     48  C   UNL A   1      42.956  23.763  28.082  1.00  0.00     0.034 A 
ATOM     49  C   UNL A   1      42.451  29.598  32.360  1.00  0.00     0.034 A 
ATOM     50  C   UNL A   1      43.933  24.302  29.033  1.00  0.00     0.049 A 
ATOM     51  C   UNL A   1      43.121  28.373  32.961  1.00  0.00     0.074 A 
ATOM     52  C   UNL A   1      45.076  25.071  28.864  1.00  0.00     0.029 A 
ATOM     53  N   UNL A   1      43.663  24.308  30.401  1.00  0.00    -0.354 N 
ATOM     54  N   UNL A   1      43.292  27.252  32.307  1.00  0.00    -0.248 NA
ATOM     55  C   UNL A   1      43.702  28.324  34.298  1.00  0.00     0.031 C 
ATOM     56  C   UNL A   1      45.453  25.586  30.132  1.00  0.00     0.029 A 
ATOM     57  C   UNL A   1      44.564  25.107  31.080  1.00  0.00     0.049 A 
ATOM     58  H   UNL A   1      42.928  23.809  30.827  1.00  0.00     0.167 HD
ATOM     59  C   UNL A   1      44.075  26.402  33.038  1.00  0.00     0.074 A 
ATOM     60  C   UNL A   1      44.266  27.102  34.301  1.00  0.00     0.031 C 
ATOM     61  C   UNL A   1      44.546  25.220  32.535  1.00  0.00     0.034 A 
BRANCH  48  62
ATOM     62  C   UNL A   1      43.319  22.786  26.979  1.00  0.00     0.023 A 
ATOM     63  C   UNL A   1      42.835  21.460  27.004  1.00  0.00     0.031 A 
ATOM     64  C   UNL A   1      44.142  23.106  25.883  1.00  0.00     0.131 A 
ATOM     65  C   UNL A   1      43.253  20.508  26.054  1.00  0.00     0.055 A 
ATOM     66  C   UNL A   1      44.615  22.146  24.979  1.00  0.00     0.041 A 
ATOM     67  F   UNL A   1      44.483  24.376  25.614  1.00  0.00    -0.206 F 
ATOM     68  C   UNL A   1      44.182  20.832  25.069  1.00  0.00     0.022 A 
BRANCH  65  69
ATOM     69  S   UNL A   1      42.542  18.836  26.094  1.00  0.00     0.124 S 
ATOM     70  O   UNL A   1      41.161  19.073  25.683  1.00  0.00    -0.237 OA
ATOM     71  O   UNL A   1      43.384  18.119  25.144  1.00  0.00    -0.237 OA
ATOM     72  O   UNL A   1      42.707  18.430  27.490  1.00  0.00    -0.744 OA
ENDBRANCH  65  69
ENDBRANCH  48  62
BRANCH  49  73
ATOM     73  C   UNL A   1      41.214  30.291  32.839  1.00  0.00     0.023 A 
ATOM     74  C   UNL A   1      41.216  31.714  32.827  1.00  0.00     0.031 A 
ATOM     75  C   UNL A   1      39.974  29.642  32.858  1.00  0.00     0.131 A 
ATOM     76  C   UNL A   1      40.018  32.429  32.665  1.00  0.00     0.055 A 
ATOM     77  C   UNL A   1      38.776  30.365  32.759  1.00  0.00     0.041 A 
ATOM     78  F   UNL A   1      39.901  28.305  32.827  1.00  0.00    -0.206 F 
ATOM     79  C   UNL A   1      38.796  31.755  32.622  1.00  0.00     0.022 A 
BRANCH  76  80
ATOM     80  S   UNL A   1      40.075  34.210  32.256  1.00  0.00     0.124 S 
ATOM     81  O   UNL A   1      40.318  34.813  33.561  1.00  0.00    -0.237 OA
ATOM     82  O   UNL A   1      41.166  34.312  31.291  1.00  0.00    -0.237 OA
ATOM     83  O   UNL A   1      38.757  34.479  31.682  1.00  0.00    -0.744 OA
ENDBRANCH  76  80
ENDBRANCH  49  73
BRANCH  61  84
ATOM     84  C   UNL A   1      45.176  24.113  33.352  1.00  0.00     0.023 A 
ATOM     85  C   UNL A   1      46.478  24.195  33.863  1.00  0.00     0.031 A 
ATOM     86  C   UNL A   1      44.431  22.973  33.750  1.00  0.00     0.131 A 
ATOM     87  C   UNL A   1      47.020  23.161  34.648  1.00  0.00     0.055 A 
ATOM     88  C   UNL A   1      44.945  21.984  34.594  1.00  0.00     0.041 A 
ATOM     89  F   UNL A   1      43.165  22.778  33.355  1.00  0.00    -0.206 F 
ATOM     90  C   UNL A   1      46.254  22.066  35.038  1.00  0.00     0.022 A 
BRANCH  87  91
ATOM     91  S   UNL A   1      48.765  23.268  35.114  1.00  0.00     0.124 S 
ATOM     92  O   UNL A   1      48.751  24.371  36.071  1.00  0.00    -0.237 OA
ATOM     93  O   UNL A   1      49.023  21.946  35.677  1.00  0.00    -0.237 OA
ATOM     94  O   UNL A   1      49.444  23.548  33.851  1.00  0.00    -0.744 OA
ENDBRANCH  87  91
ENDBRANCH  61  84
ENDBRANCH  35  36
ENDBRANCH  27  30
ENDBRANCH  25  26
ENDBRANCH   1  25
TORSDOF 16
ENDMDL
