MODEL 1
REMARK VINA RESULT:     -12.6      0.000      0.000
REMARK SMILES Cn1ncc(C(=O)NCCCNC(=O)c2ccc(-c3c4nc(c(-c5cc(S(=O)(=O)[O-])ccc5F)c5ccc([nH]5)c(-c5cc(S(=O)(=O)[O-])ccc5F)c5nc(c(-c6cc(S(=O)(=O)[O-])ccc6F)c6ccc3[nH]6)C=C5)C=C4)cc2)c1C(=O)NCC1CC[NH+](Cc2ccccc2)CC1
REMARK SMILES IDX 9 1 8 2 6 3 7 4 5 6 1 7 2 8 3 9 78 10 4 11 79 12 80 13 81 14
REMARK SMILES IDX 82 16 83 17 84 18 95 19 85 20 94 21 86 22 87 24 88 25 89 26
REMARK SMILES IDX 93 27 90 28 92 29 91 30 10 31 11 32 12 33 13 34 14 36 15 37
REMARK SMILES IDX 16 38 77 39 17 40 76 41 18 42 19 43 20 44 70 45 21 46 75 47
REMARK SMILES IDX 69 48 71 49 22 50 74 51 68 52 67 53 23 55 55 56 35 57 54 58
REMARK SMILES IDX 36 59 39 60 53 61 72 62 37 63 38 64 52 66 73 67 40 68 24 69
REMARK SMILES IDX 25 70 33 71 26 72 32 73 34 74 31 75 27 76 28 77 29 78 30 79
REMARK SMILES IDX 56 80 57 81 65 82 58 83 64 84 66 85 63 86 59 87 60 88 61 89
REMARK SMILES IDX 62 90 41 91 42 92 50 93 43 94 49 95 51 96 48 97 44 98 45 99
REMARK SMILES IDX 46 100 47 101
REMARK H PARENT 8 5 81 15 86 23 12 35 71 54 39 65
REMARK Flexibility Score: inf
ROOT
ATOM      1  C   UNL A   1      31.944  30.440  26.827  1.00  0.00     0.118 C 
ENDROOT
BRANCH   1   2
ATOM      2  N   UNL A   1      32.678  30.056  25.638  1.00  0.00    -0.352 N 
ATOM      3  C   UNL A   1      32.500  29.216  24.580  1.00  0.00     0.255 C 
ATOM      4  O   UNL A   1      33.529  29.032  23.919  1.00  0.00    -0.269 OA
ATOM      5  H   UNL A   1      33.538  30.531  25.578  1.00  0.00     0.163 HD
BRANCH   3   6
ATOM      6  C   UNL A   1      31.270  28.563  24.161  1.00  0.00     0.090 A 
ATOM      7  C   UNL A   1      28.414  26.366  23.791  1.00  0.00     0.174 C 
ATOM      8  N   UNL A   1      29.421  27.405  23.807  1.00  0.00    -0.262 N 
ATOM      9  N   UNL A   1      29.060  28.646  23.466  1.00  0.00    -0.180 NA
ATOM     10  C   UNL A   1      30.760  27.271  24.125  1.00  0.00     0.138 A 
ATOM     11  C   UNL A   1      30.162  29.348  23.713  1.00  0.00     0.149 A 
BRANCH  10  12
ATOM     12  C   UNL A   1      31.270  25.954  24.362  1.00  0.00     0.270 C 
ATOM     13  O   UNL A   1      32.050  25.377  23.618  1.00  0.00    -0.268 OA
ATOM     14  N   UNL A   1      31.003  25.562  25.652  1.00  0.00    -0.350 N 
ATOM     15  H   UNL A   1      30.115  25.743  26.036  1.00  0.00     0.163 HD
BRANCH  14  16
ATOM     16  C   UNL A   1      31.995  24.890  26.460  1.00  0.00     0.120 C 
BRANCH  16  17
ATOM     17  C   UNL A   1      31.649  23.435  26.839  1.00  0.00     0.019 C 
ATOM     18  C   UNL A   1      32.824  22.666  27.458  1.00  0.00     0.067 C 
ATOM     19  C   UNL A   1      30.997  22.612  25.714  1.00  0.00     0.067 C 
ATOM     20  C   UNL A   1      33.748  21.980  26.446  1.00  0.00     0.262 C 
ATOM     21  C   UNL A   1      31.992  21.974  24.742  1.00  0.00     0.262 C 
ATOM     22  N   UNL A   1      32.993  21.202  25.469  1.00  0.00    -0.331 N 
ATOM     23  H   UNL A   1      32.446  20.548  26.029  1.00  0.00     0.348 HD
BRANCH  22  24
ATOM     24  C   UNL A   1      33.831  20.346  24.615  1.00  0.00     0.299 C 
BRANCH  24  25
ATOM     25  C   UNL A   1      33.575  18.854  24.682  1.00  0.00     0.006 A 
ATOM     26  C   UNL A   1      32.668  18.332  25.618  1.00  0.00     0.009 A 
ATOM     27  C   UNL A   1      34.257  17.964  23.843  1.00  0.00     0.009 A 
ATOM     28  C   UNL A   1      32.442  16.958  25.704  1.00  0.00     0.001 A 
ATOM     29  C   UNL A   1      34.025  16.588  23.927  1.00  0.00     0.001 A 
ATOM     30  C   UNL A   1      33.116  16.086  24.855  1.00  0.00     0.000 A 
ENDBRANCH  24  25
ENDBRANCH  22  24
ENDBRANCH  16  17
ENDBRANCH  14  16
ENDBRANCH  10  12
ENDBRANCH   3   6
ENDBRANCH   1   2
BRANCH   1  31
ATOM     31  C   UNL A   1      31.664  31.943  26.885  1.00  0.00     0.042 C 
BRANCH  31  32
ATOM     32  C   UNL A   1      32.899  32.834  27.064  1.00  0.00     0.118 C 
BRANCH  32  33
ATOM     33  N   UNL A   1      32.591  34.143  27.618  1.00  0.00    -0.352 N 
ATOM     34  C   UNL A   1      33.087  34.796  28.722  1.00  0.00     0.251 C 
ATOM     35  H   UNL A   1      31.911  34.647  27.116  1.00  0.00     0.163 HD
ATOM     36  O   UNL A   1      32.541  35.840  29.074  1.00  0.00    -0.269 OA
BRANCH  34  37
ATOM     37  C   UNL A   1      34.230  34.270  29.512  1.00  0.00     0.039 A 
ATOM     38  C   UNL A   1      35.524  34.468  29.014  1.00  0.00     0.014 A 
ATOM     39  C   UNL A   1      34.057  33.501  30.667  1.00  0.00     0.014 A 
ATOM     40  C   UNL A   1      36.634  33.943  29.687  1.00  0.00     0.010 A 
ATOM     41  C   UNL A   1      35.169  33.020  31.368  1.00  0.00     0.010 A 
ATOM     42  C   UNL A   1      36.469  33.224  30.879  1.00  0.00    -0.014 A 
BRANCH  42  43
ATOM     43  C   UNL A   1      37.637  32.628  31.586  1.00  0.00     0.031 A 
ATOM     44  C   UNL A   1      38.395  31.486  30.961  1.00  0.00     0.074 A 
ATOM     45  C   UNL A   1      38.002  33.080  32.803  1.00  0.00     0.049 A 
ATOM     46  N   UNL A   1      39.373  30.770  31.453  1.00  0.00    -0.248 NA
ATOM     47  C   UNL A   1      37.979  31.090  29.608  1.00  0.00     0.031 C 
ATOM     48  C   UNL A   1      37.353  34.170  33.531  1.00  0.00     0.029 A 
ATOM     49  N   UNL A   1      39.002  32.664  33.647  1.00  0.00    -0.354 N 
ATOM     50  C   UNL A   1      39.674  29.819  30.483  1.00  0.00     0.074 A 
ATOM     51  C   UNL A   1      38.751  30.036  29.387  1.00  0.00     0.031 C 
ATOM     52  C   UNL A   1      37.972  34.336  34.713  1.00  0.00     0.029 A 
ATOM     53  C   UNL A   1      39.039  33.346  34.841  1.00  0.00     0.049 A 
ATOM     54  H   UNL A   1      39.635  31.945  33.418  1.00  0.00     0.167 HD
ATOM     55  C   UNL A   1      40.635  28.861  30.496  1.00  0.00     0.034 A 
ATOM     56  C   UNL A   1      39.826  33.183  35.922  1.00  0.00     0.034 A 
ATOM     57  C   UNL A   1      41.572  28.662  31.574  1.00  0.00     0.049 A 
ATOM     58  C   UNL A   1      40.885  32.112  35.917  1.00  0.00     0.074 A 
ATOM     59  C   UNL A   1      42.614  27.754  31.657  1.00  0.00     0.029 A 
ATOM     60  N   UNL A   1      41.582  29.384  32.759  1.00  0.00    -0.354 N 
ATOM     61  N   UNL A   1      41.162  31.231  34.986  1.00  0.00    -0.248 NA
ATOM     62  C   UNL A   1      41.740  32.020  37.109  1.00  0.00     0.031 C 
ATOM     63  C   UNL A   1      43.228  27.897  32.908  1.00  0.00     0.029 A 
ATOM     64  C   UNL A   1      42.597  28.927  33.586  1.00  0.00     0.049 A 
ATOM     65  H   UNL A   1      40.959  30.113  32.981  1.00  0.00     0.167 HD
ATOM     66  C   UNL A   1      42.236  30.491  35.474  1.00  0.00     0.074 A 
ATOM     67  C   UNL A   1      42.559  31.032  36.779  1.00  0.00     0.031 C 
ATOM     68  C   UNL A   1      42.901  29.464  34.889  1.00  0.00     0.034 A 
BRANCH  55  69
ATOM     69  C   UNL A   1      40.688  27.929  29.313  1.00  0.00     0.023 A 
ATOM     70  C   UNL A   1      41.604  28.118  28.265  1.00  0.00     0.031 A 
ATOM     71  C   UNL A   1      39.781  26.859  29.215  1.00  0.00     0.131 A 
ATOM     72  C   UNL A   1      41.546  27.297  27.129  1.00  0.00     0.055 A 
ATOM     73  C   UNL A   1      39.774  26.001  28.113  1.00  0.00     0.041 A 
ATOM     74  F   UNL A   1      38.872  26.644  30.179  1.00  0.00    -0.206 F 
ATOM     75  C   UNL A   1      40.651  26.227  27.055  1.00  0.00     0.022 A 
BRANCH  72  76
ATOM     76  S   UNL A   1      42.567  27.729  25.695  1.00  0.00     0.124 S 
ATOM     77  O   UNL A   1      42.082  29.071  25.383  1.00  0.00    -0.237 OA
ATOM     78  O   UNL A   1      43.919  27.647  26.233  1.00  0.00    -0.237 OA
ATOM     79  O   UNL A   1      42.224  26.705  24.709  1.00  0.00    -0.744 OA
ENDBRANCH  72  76
ENDBRANCH  55  69
BRANCH  56  80
ATOM     80  C   UNL A   1      39.626  34.033  37.125  1.00  0.00     0.023 A 
ATOM     81  C   UNL A   1      38.959  33.540  38.256  1.00  0.00     0.031 A 
ATOM     82  C   UNL A   1      40.075  35.365  37.142  1.00  0.00     0.131 A 
ATOM     83  C   UNL A   1      38.730  34.387  39.351  1.00  0.00     0.055 A 
ATOM     84  C   UNL A   1      39.874  36.193  38.246  1.00  0.00     0.041 A 
ATOM     85  F   UNL A   1      40.727  35.874  36.085  1.00  0.00    -0.206 F 
ATOM     86  C   UNL A   1      39.189  35.707  39.357  1.00  0.00     0.022 A 
BRANCH  83  87
ATOM     87  S   UNL A   1      37.781  33.750  40.759  1.00  0.00     0.124 S 
ATOM     88  O   UNL A   1      38.751  32.866  41.398  1.00  0.00    -0.237 OA
ATOM     89  O   UNL A   1      37.454  34.974  41.482  1.00  0.00    -0.237 OA
ATOM     90  O   UNL A   1      36.646  33.080  40.129  1.00  0.00    -0.744 OA
ENDBRANCH  83  87
ENDBRANCH  56  80
BRANCH  68  91
ATOM     91  C   UNL A   1      44.071  28.893  35.644  1.00  0.00     0.023 A 
ATOM     92  C   UNL A   1      43.918  27.816  36.535  1.00  0.00     0.031 A 
ATOM     93  C   UNL A   1      45.352  29.443  35.476  1.00  0.00     0.131 A 
ATOM     94  C   UNL A   1      45.026  27.346  37.255  1.00  0.00     0.055 A 
ATOM     95  C   UNL A   1      46.459  28.948  36.167  1.00  0.00     0.041 A 
ATOM     96  F   UNL A   1      45.548  30.473  34.637  1.00  0.00    -0.206 F 
ATOM     97  C   UNL A   1      46.298  27.898  37.068  1.00  0.00     0.022 A 
BRANCH  94  98
ATOM     98  S   UNL A   1      44.782  26.029  38.477  1.00  0.00     0.124 S 
ATOM     99  O   UNL A   1      44.352  26.780  39.652  1.00  0.00    -0.237 OA
ATOM    100  O   UNL A   1      43.763  25.197  37.844  1.00  0.00    -0.237 OA
ATOM    101  O   UNL A   1      46.102  25.410  38.585  1.00  0.00    -0.744 OA
ENDBRANCH  94  98
ENDBRANCH  68  91
ENDBRANCH  42  43
ENDBRANCH  34  37
ENDBRANCH  32  33
ENDBRANCH  31  32
ENDBRANCH   1  31
TORSDOF 18
ENDMDL
MODEL 2
REMARK VINA RESULT:     -12.4      2.131      3.552
REMARK SMILES Cn1ncc(C(=O)NCCCNC(=O)c2ccc(-c3c4nc(c(-c5cc(S(=O)(=O)[O-])ccc5F)c5ccc([nH]5)c(-c5cc(S(=O)(=O)[O-])ccc5F)c5nc(c(-c6cc(S(=O)(=O)[O-])ccc6F)c6ccc3[nH]6)C=C5)C=C4)cc2)c1C(=O)NCC1CC[NH+](Cc2ccccc2)CC1
REMARK SMILES IDX 9 1 8 2 6 3 7 4 5 6 1 7 2 8 3 9 78 10 4 11 79 12 80 13 81 14
REMARK SMILES IDX 82 16 83 17 84 18 95 19 85 20 94 21 86 22 87 24 88 25 89 26
REMARK SMILES IDX 93 27 90 28 92 29 91 30 10 31 11 32 12 33 13 34 14 36 15 37
REMARK SMILES IDX 16 38 77 39 17 40 76 41 18 42 19 43 20 44 70 45 21 46 75 47
REMARK SMILES IDX 69 48 71 49 22 50 74 51 68 52 67 53 23 55 55 56 35 57 54 58
REMARK SMILES IDX 36 59 39 60 53 61 72 62 37 63 38 64 52 66 73 67 40 68 24 69
REMARK SMILES IDX 25 70 33 71 26 72 32 73 34 74 31 75 27 76 28 77 29 78 30 79
REMARK SMILES IDX 56 80 57 81 65 82 58 83 64 84 66 85 63 86 59 87 60 88 61 89
REMARK SMILES IDX 62 90 41 91 42 92 50 93 43 94 49 95 51 96 48 97 44 98 45 99
REMARK SMILES IDX 46 100 47 101
REMARK H PARENT 8 5 81 15 86 23 12 35 71 54 39 65
REMARK Flexibility Score: inf
ROOT
ATOM      1  C   UNL A   1      33.289  30.272  27.431  1.00  0.00     0.118 C 
ENDROOT
BRANCH   1   2
ATOM      2  N   UNL A   1      32.563  29.038  27.650  1.00  0.00    -0.352 N 
ATOM      3  C   UNL A   1      32.246  27.923  26.934  1.00  0.00     0.255 C 
ATOM      4  O   UNL A   1      31.380  27.222  27.471  1.00  0.00    -0.269 OA
ATOM      5  H   UNL A   1      32.200  28.992  28.564  1.00  0.00     0.163 HD
BRANCH   3   6
ATOM      6  C   UNL A   1      32.816  27.487  25.669  1.00  0.00     0.090 A 
ATOM      7  C   UNL A   1      33.701  25.681  22.656  1.00  0.00     0.174 C 
ATOM      8  N   UNL A   1      33.443  26.599  23.745  1.00  0.00    -0.262 N 
ATOM      9  N   UNL A   1      33.508  27.912  23.497  1.00  0.00    -0.180 NA
ATOM     10  C   UNL A   1      33.143  26.283  25.056  1.00  0.00     0.138 A 
ATOM     11  C   UNL A   1      33.097  28.445  24.645  1.00  0.00     0.149 A 
BRANCH  10  12
ATOM     12  C   UNL A   1      33.194  24.907  25.449  1.00  0.00     0.270 C 
ATOM     13  O   UNL A   1      32.287  24.108  25.266  1.00  0.00    -0.268 OA
ATOM     14  N   UNL A   1      34.480  24.551  25.777  1.00  0.00    -0.350 N 
ATOM     15  H   UNL A   1      35.024  25.163  26.324  1.00  0.00     0.163 HD
BRANCH  14  16
ATOM     16  C   UNL A   1      35.053  23.298  25.342  1.00  0.00     0.120 C 
BRANCH  16  17
ATOM     17  C   UNL A   1      36.400  23.422  24.598  1.00  0.00     0.019 C 
ATOM     18  C   UNL A   1      36.899  22.095  24.008  1.00  0.00     0.067 C 
ATOM     19  C   UNL A   1      37.519  24.112  25.398  1.00  0.00     0.067 C 
ATOM     20  C   UNL A   1      37.727  21.236  24.969  1.00  0.00     0.262 C 
ATOM     21  C   UNL A   1      38.284  23.183  26.341  1.00  0.00     0.262 C 
ATOM     22  N   UNL A   1      38.775  22.015  25.621  1.00  0.00    -0.331 N 
ATOM     23  H   UNL A   1      39.320  22.405  24.853  1.00  0.00     0.348 HD
BRANCH  22  24
ATOM     24  C   UNL A   1      39.738  21.199  26.379  1.00  0.00     0.299 C 
BRANCH  24  25
ATOM     25  C   UNL A   1      41.041  21.866  26.769  1.00  0.00     0.006 A 
ATOM     26  C   UNL A   1      41.960  22.256  25.782  1.00  0.00     0.009 A 
ATOM     27  C   UNL A   1      41.373  22.076  28.113  1.00  0.00     0.009 A 
ATOM     28  C   UNL A   1      43.174  22.851  26.131  1.00  0.00     0.001 A 
ATOM     29  C   UNL A   1      42.586  22.676  28.461  1.00  0.00     0.001 A 
ATOM     30  C   UNL A   1      43.484  23.065  27.471  1.00  0.00     0.000 A 
ENDBRANCH  24  25
ENDBRANCH  22  24
ENDBRANCH  16  17
ENDBRANCH  14  16
ENDBRANCH  10  12
ENDBRANCH   3   6
ENDBRANCH   1   2
BRANCH   1  31
ATOM     31  C   UNL A   1      32.363  31.484  27.302  1.00  0.00     0.042 C 
BRANCH  31  32
ATOM     32  C   UNL A   1      33.032  32.771  26.805  1.00  0.00     0.118 C 
BRANCH  32  33
ATOM     33  N   UNL A   1      32.701  33.939  27.603  1.00  0.00    -0.352 N 
ATOM     34  C   UNL A   1      33.235  34.411  28.780  1.00  0.00     0.251 C 
ATOM     35  H   UNL A   1      31.969  34.487  27.240  1.00  0.00     0.163 HD
ATOM     36  O   UNL A   1      32.666  35.342  29.346  1.00  0.00    -0.269 OA
BRANCH  34  37
ATOM     37  C   UNL A   1      34.449  33.816  29.398  1.00  0.00     0.039 A 
ATOM     38  C   UNL A   1      34.277  32.795  30.342  1.00  0.00     0.014 A 
ATOM     39  C   UNL A   1      35.735  34.306  29.155  1.00  0.00     0.014 A 
ATOM     40  C   UNL A   1      35.381  32.239  30.999  1.00  0.00     0.010 A 
ATOM     41  C   UNL A   1      36.844  33.716  29.773  1.00  0.00     0.010 A 
ATOM     42  C   UNL A   1      36.679  32.686  30.712  1.00  0.00    -0.014 A 
BRANCH  42  43
ATOM     43  C   UNL A   1      37.860  32.130  31.430  1.00  0.00     0.031 A 
ATOM     44  C   UNL A   1      38.688  31.045  30.793  1.00  0.00     0.074 A 
ATOM     45  C   UNL A   1      38.174  32.565  32.667  1.00  0.00     0.049 A 
ATOM     46  N   UNL A   1      39.690  30.365  31.288  1.00  0.00    -0.248 NA
ATOM     47  C   UNL A   1      38.323  30.666  29.420  1.00  0.00     0.031 C 
ATOM     48  C   UNL A   1      37.455  33.601  33.408  1.00  0.00     0.029 A 
ATOM     49  N   UNL A   1      39.176  32.177  33.523  1.00  0.00    -0.354 N 
ATOM     50  C   UNL A   1      40.061  29.458  30.301  1.00  0.00     0.074 A 
ATOM     51  C   UNL A   1      39.152  29.659  29.189  1.00  0.00     0.031 C 
ATOM     52  C   UNL A   1      38.039  33.765  34.609  1.00  0.00     0.029 A 
ATOM     53  C   UNL A   1      39.151  32.826  34.735  1.00  0.00     0.049 A 
ATOM     54  H   UNL A   1      39.849  31.497  33.290  1.00  0.00     0.167 HD
ATOM     55  C   UNL A   1      41.068  28.549  30.310  1.00  0.00     0.034 A 
ATOM     56  C   UNL A   1      39.922  32.673  35.829  1.00  0.00     0.034 A 
ATOM     57  C   UNL A   1      41.990  28.368  31.404  1.00  0.00     0.049 A 
ATOM     58  C   UNL A   1      41.033  31.657  35.820  1.00  0.00     0.074 A 
ATOM     59  C   UNL A   1      43.075  27.511  31.487  1.00  0.00     0.029 A 
ATOM     60  N   UNL A   1      41.937  29.056  32.608  1.00  0.00    -0.354 N 
ATOM     61  N   UNL A   1      41.375  30.817  34.873  1.00  0.00    -0.248 NA
ATOM     62  C   UNL A   1      41.865  31.574  37.030  1.00  0.00     0.031 C 
ATOM     63  C   UNL A   1      43.653  27.650  32.756  1.00  0.00     0.029 A 
ATOM     64  C   UNL A   1      42.956  28.628  33.446  1.00  0.00     0.049 A 
ATOM     65  H   UNL A   1      41.273  29.746  32.835  1.00  0.00     0.167 HD
ATOM     66  C   UNL A   1      42.474  30.119  35.366  1.00  0.00     0.074 A 
ATOM     67  C   UNL A   1      42.741  30.638  36.692  1.00  0.00     0.031 C 
ATOM     68  C   UNL A   1      43.203  29.143  34.769  1.00  0.00     0.034 A 
BRANCH  55  69
ATOM     69  C   UNL A   1      41.194  27.654  29.104  1.00  0.00     0.023 A 
ATOM     70  C   UNL A   1      42.188  27.861  28.133  1.00  0.00     0.031 A 
ATOM     71  C   UNL A   1      40.281  26.604  28.905  1.00  0.00     0.131 A 
ATOM     72  C   UNL A   1      42.201  27.077  26.970  1.00  0.00     0.055 A 
ATOM     73  C   UNL A   1      40.343  25.781  27.779  1.00  0.00     0.041 A 
ATOM     74  F   UNL A   1      39.301  26.373  29.793  1.00  0.00    -0.206 F 
ATOM     75  C   UNL A   1      41.298  26.025  26.795  1.00  0.00     0.022 A 
BRANCH  72  76
ATOM     76  S   UNL A   1      43.331  27.538  25.629  1.00  0.00     0.124 S 
ATOM     77  O   UNL A   1      44.126  26.321  25.483  1.00  0.00    -0.237 OA
ATOM     78  O   UNL A   1      42.416  27.839  24.534  1.00  0.00    -0.237 OA
ATOM     79  O   UNL A   1      44.055  28.686  26.170  1.00  0.00    -0.744 OA
ENDBRANCH  72  76
ENDBRANCH  55  69
BRANCH  56  80
ATOM     80  C   UNL A   1      39.653  33.477  37.049  1.00  0.00     0.023 A 
ATOM     81  C   UNL A   1      38.965  32.928  38.142  1.00  0.00     0.031 A 
ATOM     82  C   UNL A   1      40.055  34.822  37.122  1.00  0.00     0.131 A 
ATOM     83  C   UNL A   1      38.671  33.733  39.253  1.00  0.00     0.055 A 
ATOM     84  C   UNL A   1      39.788  35.609  38.242  1.00  0.00     0.041 A 
ATOM     85  F   UNL A   1      40.724  35.386  36.103  1.00  0.00    -0.206 F 
ATOM     86  C   UNL A   1      39.083  35.066  39.314  1.00  0.00     0.022 A 
BRANCH  83  87
ATOM     87  S   UNL A   1      37.697  33.021  40.608  1.00  0.00     0.124 S 
ATOM     88  O   UNL A   1      37.890  34.007  41.665  1.00  0.00    -0.237 OA
ATOM     89  O   UNL A   1      36.362  32.961  40.021  1.00  0.00    -0.237 OA
ATOM     90  O   UNL A   1      38.332  31.726  40.838  1.00  0.00    -0.744 OA
ENDBRANCH  83  87
ENDBRANCH  56  80
BRANCH  68  91
ATOM     91  C   UNL A   1      44.384  28.610  35.536  1.00  0.00     0.023 A 
ATOM     92  C   UNL A   1      44.240  27.597  36.500  1.00  0.00     0.031 A 
ATOM     93  C   UNL A   1      45.667  29.134  35.304  1.00  0.00     0.131 A 
ATOM     94  C   UNL A   1      45.359  27.164  37.226  1.00  0.00     0.055 A 
ATOM     95  C   UNL A   1      46.783  28.674  36.004  1.00  0.00     0.041 A 
ATOM     96  F   UNL A   1      45.853  30.103  34.395  1.00  0.00    -0.206 F 
ATOM     97  C   UNL A   1      46.631  27.688  36.976  1.00  0.00     0.022 A 
BRANCH  94  98
ATOM     98  S   UNL A   1      45.128  25.933  38.538  1.00  0.00     0.124 S 
ATOM     99  O   UNL A   1      46.497  25.491  38.784  1.00  0.00    -0.237 OA
ATOM    100  O   UNL A   1      44.511  26.719  39.602  1.00  0.00    -0.237 OA
ATOM    101  O   UNL A   1      44.255  24.934  37.924  1.00  0.00    -0.744 OA
ENDBRANCH  94  98
ENDBRANCH  68  91
ENDBRANCH  42  43
ENDBRANCH  34  37
ENDBRANCH  32  33
ENDBRANCH  31  32
ENDBRANCH   1  31
TORSDOF 18
ENDMDL
MODEL 3
REMARK VINA RESULT:     -12.1      1.617      1.936
REMARK SMILES Cn1ncc(C(=O)NCCCNC(=O)c2ccc(-c3c4nc(c(-c5cc(S(=O)(=O)[O-])ccc5F)c5ccc([nH]5)c(-c5cc(S(=O)(=O)[O-])ccc5F)c5nc(c(-c6cc(S(=O)(=O)[O-])ccc6F)c6ccc3[nH]6)C=C5)C=C4)cc2)c1C(=O)NCC1CC[NH+](Cc2ccccc2)CC1
REMARK SMILES IDX 9 1 8 2 6 3 7 4 5 6 1 7 2 8 3 9 78 10 4 11 79 12 80 13 81 14
REMARK SMILES IDX 82 16 83 17 84 18 95 19 85 20 94 21 86 22 87 24 88 25 89 26
REMARK SMILES IDX 93 27 90 28 92 29 91 30 10 31 11 32 12 33 13 34 14 36 15 37
REMARK SMILES IDX 16 38 77 39 17 40 76 41 18 42 19 43 20 44 70 45 21 46 75 47
REMARK SMILES IDX 69 48 71 49 22 50 74 51 68 52 67 53 23 55 55 56 35 57 54 58
REMARK SMILES IDX 36 59 39 60 53 61 72 62 37 63 38 64 52 66 73 67 40 68 24 69
REMARK SMILES IDX 25 70 33 71 26 72 32 73 34 74 31 75 27 76 28 77 29 78 30 79
REMARK SMILES IDX 56 80 57 81 65 82 58 83 64 84 66 85 63 86 59 87 60 88 61 89
REMARK SMILES IDX 62 90 41 91 42 92 50 93 43 94 49 95 51 96 48 97 44 98 45 99
REMARK SMILES IDX 46 100 47 101
REMARK H PARENT 8 5 81 15 86 23 12 35 71 54 39 65
REMARK Flexibility Score: inf
ROOT
ATOM      1  C   UNL A   1      33.829  30.446  27.211  1.00  0.00     0.118 C 
ENDROOT
BRANCH   1   2
ATOM      2  N   UNL A   1      32.944  29.366  27.600  1.00  0.00    -0.352 N 
ATOM      3  C   UNL A   1      32.051  28.536  26.992  1.00  0.00     0.255 C 
ATOM      4  O   UNL A   1      31.333  27.918  27.787  1.00  0.00    -0.269 OA
ATOM      5  H   UNL A   1      33.005  29.183  28.565  1.00  0.00     0.163 HD
BRANCH   3   6
ATOM      6  C   UNL A   1      31.885  28.301  25.566  1.00  0.00     0.090 A 
ATOM      7  C   UNL A   1      31.404  26.850  22.282  1.00  0.00     0.174 C 
ATOM      8  N   UNL A   1      31.531  27.642  23.486  1.00  0.00    -0.262 N 
ATOM      9  N   UNL A   1      30.981  28.861  23.506  1.00  0.00    -0.180 NA
ATOM     10  C   UNL A   1      32.184  27.296  24.654  1.00  0.00     0.138 A 
ATOM     11  C   UNL A   1      31.163  29.242  24.767  1.00  0.00     0.149 A 
BRANCH  10  12
ATOM     12  C   UNL A   1      32.925  26.071  24.676  1.00  0.00     0.270 C 
ATOM     13  O   UNL A   1      34.045  25.939  24.205  1.00  0.00    -0.268 OA
ATOM     14  N   UNL A   1      32.342  25.174  25.539  1.00  0.00    -0.350 N 
ATOM     15  H   UNL A   1      31.363  25.072  25.537  1.00  0.00     0.163 HD
BRANCH  14  16
ATOM     16  C   UNL A   1      33.131  24.376  26.449  1.00  0.00     0.120 C 
BRANCH  16  17
ATOM     17  C   UNL A   1      32.473  23.055  26.897  1.00  0.00     0.019 C 
ATOM     18  C   UNL A   1      33.477  21.919  27.138  1.00  0.00     0.067 C 
ATOM     19  C   UNL A   1      31.316  22.574  26.003  1.00  0.00     0.067 C 
ATOM     20  C   UNL A   1      33.829  21.098  25.893  1.00  0.00     0.262 C 
ATOM     21  C   UNL A   1      31.759  21.774  24.776  1.00  0.00     0.262 C 
ATOM     22  N   UNL A   1      32.633  20.676  25.171  1.00  0.00    -0.331 N 
ATOM     23  H   UNL A   1      32.088  20.157  25.859  1.00  0.00     0.348 HD
BRANCH  22  24
ATOM     24  C   UNL A   1      32.898  19.702  24.100  1.00  0.00     0.299 C 
BRANCH  24  25
ATOM     25  C   UNL A   1      33.273  18.298  24.530  1.00  0.00     0.006 A 
ATOM     26  C   UNL A   1      32.359  17.510  25.248  1.00  0.00     0.009 A 
ATOM     27  C   UNL A   1      34.540  17.770  24.253  1.00  0.00     0.009 A 
ATOM     28  C   UNL A   1      32.701  16.224  25.669  1.00  0.00     0.001 A 
ATOM     29  C   UNL A   1      34.879  16.479  24.671  1.00  0.00     0.001 A 
ATOM     30  C   UNL A   1      33.959  15.707  25.376  1.00  0.00     0.000 A 
ENDBRANCH  24  25
ENDBRANCH  22  24
ENDBRANCH  16  17
ENDBRANCH  14  16
ENDBRANCH  10  12
ENDBRANCH   3   6
ENDBRANCH   1   2
BRANCH   1  31
ATOM     31  C   UNL A   1      33.506  31.758  27.929  1.00  0.00     0.042 C 
BRANCH  31  32
ATOM     32  C   UNL A   1      32.668  32.758  27.124  1.00  0.00     0.118 C 
BRANCH  32  33
ATOM     33  N   UNL A   1      32.574  34.067  27.749  1.00  0.00    -0.352 N 
ATOM     34  C   UNL A   1      33.291  34.630  28.778  1.00  0.00     0.251 C 
ATOM     35  H   UNL A   1      31.877  34.650  27.370  1.00  0.00     0.163 HD
ATOM     36  O   UNL A   1      32.907  35.705  29.235  1.00  0.00    -0.269 OA
BRANCH  34  37
ATOM     37  C   UNL A   1      34.485  33.973  29.370  1.00  0.00     0.039 A 
ATOM     38  C   UNL A   1      34.298  33.142  30.483  1.00  0.00     0.014 A 
ATOM     39  C   UNL A   1      35.786  34.236  28.930  1.00  0.00     0.014 A 
ATOM     40  C   UNL A   1      35.394  32.543  31.117  1.00  0.00     0.010 A 
ATOM     41  C   UNL A   1      36.877  33.598  29.531  1.00  0.00     0.010 A 
ATOM     42  C   UNL A   1      36.695  32.755  30.639  1.00  0.00    -0.014 A 
BRANCH  42  43
ATOM     43  C   UNL A   1      37.873  32.155  31.326  1.00  0.00     0.031 A 
ATOM     44  C   UNL A   1      38.637  31.034  30.672  1.00  0.00     0.074 A 
ATOM     45  C   UNL A   1      38.242  32.585  32.549  1.00  0.00     0.049 A 
ATOM     46  N   UNL A   1      39.624  30.316  31.143  1.00  0.00    -0.248 NA
ATOM     47  C   UNL A   1      38.216  30.662  29.314  1.00  0.00     0.031 C 
ATOM     48  C   UNL A   1      37.589  33.654  33.304  1.00  0.00     0.029 A 
ATOM     49  N   UNL A   1      39.252  32.160  33.378  1.00  0.00    -0.354 N 
ATOM     50  C   UNL A   1      39.928  29.388  30.151  1.00  0.00     0.074 A 
ATOM     51  C   UNL A   1      38.996  29.620  29.065  1.00  0.00     0.031 C 
ATOM     52  C   UNL A   1      38.214  33.801  34.486  1.00  0.00     0.029 A 
ATOM     53  C   UNL A   1      39.290  32.817  34.586  1.00  0.00     0.049 A 
ATOM     54  H   UNL A   1      39.889  31.452  33.130  1.00  0.00     0.167 HD
ATOM     55  C   UNL A   1      40.897  28.439  30.137  1.00  0.00     0.034 A 
ATOM     56  C   UNL A   1      40.087  32.639  35.658  1.00  0.00     0.034 A 
ATOM     57  C   UNL A   1      41.843  28.227  31.204  1.00  0.00     0.049 A 
ATOM     58  C   UNL A   1      41.154  31.578  35.624  1.00  0.00     0.074 A 
ATOM     59  C   UNL A   1      42.894  27.326  31.261  1.00  0.00     0.029 A 
ATOM     60  N   UNL A   1      41.855  28.923  32.405  1.00  0.00    -0.354 N 
ATOM     61  N   UNL A   1      41.434  30.719  34.673  1.00  0.00    -0.248 NA
ATOM     62  C   UNL A   1      42.018  31.469  36.808  1.00  0.00     0.031 C 
ATOM     63  C   UNL A   1      43.515  27.449  32.511  1.00  0.00     0.029 A 
ATOM     64  C   UNL A   1      42.879  28.459  33.215  1.00  0.00     0.049 A 
ATOM     65  H   UNL A   1      41.226  29.642  32.646  1.00  0.00     0.167 HD
ATOM     66  C   UNL A   1      42.517  29.979  35.137  1.00  0.00     0.074 A 
ATOM     67  C   UNL A   1      42.844  30.495  36.451  1.00  0.00     0.031 C 
ATOM     68  C   UNL A   1      43.187  28.971  34.527  1.00  0.00     0.034 A 
BRANCH  55  69
ATOM     69  C   UNL A   1      40.951  27.533  28.934  1.00  0.00     0.023 A 
ATOM     70  C   UNL A   1      41.908  27.708  27.921  1.00  0.00     0.031 A 
ATOM     71  C   UNL A   1      40.004  26.504  28.782  1.00  0.00     0.131 A 
ATOM     72  C   UNL A   1      41.853  26.915  26.765  1.00  0.00     0.055 A 
ATOM     73  C   UNL A   1      39.998  25.673  27.661  1.00  0.00     0.041 A 
ATOM     74  F   UNL A   1      39.056  26.305  29.711  1.00  0.00    -0.206 F 
ATOM     75  C   UNL A   1      40.917  25.885  26.636  1.00  0.00     0.022 A 
BRANCH  72  76
ATOM     76  S   UNL A   1      42.936  27.337  25.374  1.00  0.00     0.124 S 
ATOM     77  O   UNL A   1      42.991  26.071  24.648  1.00  0.00    -0.237 OA
ATOM     78  O   UNL A   1      42.207  28.418  24.721  1.00  0.00    -0.237 OA
ATOM     79  O   UNL A   1      44.187  27.730  26.022  1.00  0.00    -0.744 OA
ENDBRANCH  72  76
ENDBRANCH  55  69
BRANCH  56  80
ATOM     80  C   UNL A   1      39.887  33.461  36.880  1.00  0.00     0.023 A 
ATOM     81  C   UNL A   1      39.119  32.988  37.954  1.00  0.00     0.031 A 
ATOM     82  C   UNL A   1      40.440  34.750  36.972  1.00  0.00     0.131 A 
ATOM     83  C   UNL A   1      38.897  33.814  39.067  1.00  0.00     0.055 A 
ATOM     84  C   UNL A   1      40.243  35.555  38.094  1.00  0.00     0.041 A 
ATOM     85  F   UNL A   1      41.190  35.240  35.972  1.00  0.00    -0.206 F 
ATOM     86  C   UNL A   1      39.458  35.090  39.147  1.00  0.00     0.022 A 
BRANCH  83  87
ATOM     87  S   UNL A   1      37.820  33.209  40.395  1.00  0.00     0.124 S 
ATOM     88  O   UNL A   1      38.614  32.118  40.950  1.00  0.00    -0.237 OA
ATOM     89  O   UNL A   1      37.682  34.395  41.235  1.00  0.00    -0.237 OA
ATOM     90  O   UNL A   1      36.606  32.803  39.692  1.00  0.00    -0.744 OA
ENDBRANCH  83  87
ENDBRANCH  56  80
BRANCH  68  91
ATOM     91  C   UNL A   1      44.367  28.394  35.262  1.00  0.00     0.023 A 
ATOM     92  C   UNL A   1      45.663  28.915  35.101  1.00  0.00     0.031 A 
ATOM     93  C   UNL A   1      44.190  27.301  36.126  1.00  0.00     0.131 A 
ATOM     94  C   UNL A   1      46.741  28.316  35.768  1.00  0.00     0.055 A 
ATOM     95  C   UNL A   1      45.261  26.731  36.816  1.00  0.00     0.041 A 
ATOM     96  F   UNL A   1      42.972  26.768  36.311  1.00  0.00    -0.206 F 
ATOM     97  C   UNL A   1      46.547  27.235  36.633  1.00  0.00     0.022 A 
BRANCH  94  98
ATOM     98  S   UNL A   1      48.416  28.939  35.460  1.00  0.00     0.124 S 
ATOM     99  O   UNL A   1      48.207  30.383  35.452  1.00  0.00    -0.237 OA
ATOM    100  O   UNL A   1      49.164  28.409  36.595  1.00  0.00    -0.237 OA
ATOM    101  O   UNL A   1      48.767  28.357  34.165  1.00  0.00    -0.744 OA
ENDBRANCH  94  98
ENDBRANCH  68  91
ENDBRANCH  42  43
ENDBRANCH  34  37
ENDBRANCH  32  33
ENDBRANCH  31  32
ENDBRANCH   1  31
TORSDOF 18
ENDMDL
