MODEL 1
REMARK VINA RESULT:     -14.4      0.000      0.000
REMARK SMILES Cc1coc2cc3c(cc12)[C@@H](C)[C@H](CCC(=O)N[C@@H](Cc1c[nH]c2ccccc12)C(=O)NCCCNC(=O)c1ccc(-c2c4nc(c(-c5cc(S(=O)(=O)[O-])ccc5F)c5ccc([nH]5)c(-c5cc(S(=O)(=O)[O-])ccc5F)c5nc(c(-c6cc(S(=O)(=O)[O-])ccc6F)c6ccc2[nH]6)C=C5)C=C4)cc1)C(=O)O3
REMARK SMILES IDX 33 1 32 2 30 3 31 4 19 6 18 7 16 8 17 9 15 11 14 12 13 13
REMARK SMILES IDX 1 14 2 15 3 16 10 17 4 18 5 19 9 20 6 21 8 22 7 23 11 24
REMARK SMILES IDX 104 25 12 26 102 27 103 28 20 29 21 30 22 31 29 32 23 33
REMARK SMILES IDX 24 34 28 35 25 37 27 38 26 39 34 40 35 41 36 42 37 43 38 45
REMARK SMILES IDX 39 46 40 47 101 48 41 49 100 50 42 51 43 52 44 53 94 54
REMARK SMILES IDX 45 55 99 56 93 57 95 58 46 59 98 60 92 61 91 62 47 64 79 65
REMARK SMILES IDX 59 66 78 67 60 68 63 69 77 70 96 71 61 72 62 73 76 75 97 76
REMARK SMILES IDX 64 77 48 78 49 79 57 80 50 81 56 82 58 83 55 84 51 85 52 86
REMARK SMILES IDX 53 87 54 88 80 89 81 90 89 91 82 92 88 93 90 94 87 95 83 96
REMARK SMILES IDX 84 97 85 98 86 99 65 100 66 101 74 102 67 103 73 104 75 105
REMARK SMILES IDX 72 106 68 107 69 108 70 109 71 110
REMARK H PARENT 32 5 18 10 23 36 36 44 95 63 63 74
REMARK Flexibility Score: inf
ROOT
ATOM      1  C   UNL A   1      31.558  29.821  25.334  1.00  0.00     0.117 C 
ENDROOT
BRANCH   1   2
ATOM      2  N   UNL A   1      32.619  29.409  24.434  1.00  0.00    -0.354 N 
ATOM      3  C   UNL A   1      32.692  28.372  23.556  1.00  0.00     0.242 C 
ATOM      4  O   UNL A   1      33.570  28.443  22.687  1.00  0.00    -0.273 OA
ATOM      5  H   UNL A   1      33.423  29.977  24.463  1.00  0.00     0.163 HD
BRANCH   3   6
ATOM      6  C   UNL A   1      31.661  27.229  23.523  1.00  0.00     0.175 C 
BRANCH   6   7
ATOM      7  N   UNL A   1      31.345  26.708  24.890  1.00  0.00    -0.344 N 
ATOM      8  C   UNL A   1      32.074  26.270  25.971  1.00  0.00     0.220 C 
ATOM      9  O   UNL A   1      31.432  26.070  27.010  1.00  0.00    -0.275 OA
ATOM     10  H   UNL A   1      30.375  26.668  25.056  1.00  0.00     0.164 HD
BRANCH   8  11
ATOM     11  C   UNL A   1      33.601  25.983  25.994  1.00  0.00     0.101 C 
BRANCH  11  12
ATOM     12  C   UNL A   1      34.078  24.459  25.867  1.00  0.00     0.026 C 
BRANCH  12  13
ATOM     13  C   UNL A   1      35.138  24.155  24.743  1.00  0.00     0.107 C 
ATOM     14  C   UNL A   1      35.047  16.956  24.682  1.00  0.00     0.048 C 
ATOM     15  C   UNL A   1      33.959  17.955  24.774  1.00  0.00    -0.005 A 
ATOM     16  C   UNL A   1      32.605  17.695  24.860  1.00  0.00     0.199 A 
ATOM     17  C   UNL A   1      34.085  19.377  24.747  1.00  0.00     0.024 A 
ATOM     18  O   UNL A   1      31.888  18.843  24.777  1.00  0.00    -0.464 OA
ATOM     19  C   UNL A   1      32.781  19.856  24.662  1.00  0.00     0.137 A 
ATOM     20  C   UNL A   1      35.155  20.302  24.734  1.00  0.00     0.020 A 
ATOM     21  C   UNL A   1      32.453  21.175  24.402  1.00  0.00     0.095 A 
ATOM     22  C   UNL A   1      34.861  21.652  24.526  1.00  0.00    -0.001 A 
ATOM     23  C   UNL A   1      33.556  21.999  24.211  1.00  0.00     0.138 A 
ATOM     24  C   UNL A   1      35.865  22.778  24.514  1.00  0.00     0.034 C 
ATOM     25  O   UNL A   1      33.386  23.208  23.502  1.00  0.00    -0.426 OA
ATOM     26  C   UNL A   1      36.562  22.744  23.121  1.00  0.00     0.014 C 
ATOM     27  C   UNL A   1      34.333  24.251  23.522  1.00  0.00     0.314 C 
ATOM     28  O   UNL A   1      34.416  25.176  22.743  1.00  0.00    -0.251 OA
ENDBRANCH  12  13
ENDBRANCH  11  12
ENDBRANCH   8  11
ENDBRANCH   6   7
BRANCH   6  29
ATOM     29  C   UNL A   1      30.548  27.649  22.486  1.00  0.00     0.072 C 
BRANCH  29  30
ATOM     30  C   UNL A   1      29.245  28.272  22.883  1.00  0.00    -0.020 A 
ATOM     31  C   UNL A   1      28.077  27.681  23.329  1.00  0.00     0.087 A 
ATOM     32  C   UNL A   1      28.948  29.660  22.717  1.00  0.00     0.003 A 
ATOM     33  N   UNL A   1      27.140  28.662  23.545  1.00  0.00    -0.361 N 
ATOM     34  C   UNL A   1      27.663  29.887  23.206  1.00  0.00     0.046 A 
ATOM     35  C   UNL A   1      29.707  30.749  22.249  1.00  0.00     0.010 A 
ATOM     36  H   UNL A   1      26.231  28.510  23.889  1.00  0.00     0.166 HD
ATOM     37  C   UNL A   1      27.122  31.169  23.319  1.00  0.00     0.026 A 
ATOM     38  C   UNL A   1      29.187  32.035  22.355  1.00  0.00     0.001 A 
ATOM     39  C   UNL A   1      27.920  32.239  22.898  1.00  0.00     0.002 A 
ENDBRANCH  29  30
ENDBRANCH   6  29
ENDBRANCH   3   6
ENDBRANCH   1   2
BRANCH   1  40
ATOM     40  C   UNL A   1      31.975  29.832  26.791  1.00  0.00     0.042 C 
BRANCH  40  41
ATOM     41  C   UNL A   1      33.427  30.271  27.009  1.00  0.00     0.118 C 
BRANCH  41  42
ATOM     42  N   UNL A   1      33.622  31.386  27.923  1.00  0.00    -0.352 N 
ATOM     43  C   UNL A   1      34.721  31.963  28.502  1.00  0.00     0.251 C 
ATOM     44  H   UNL A   1      32.778  31.821  28.182  1.00  0.00     0.163 HD
ATOM     45  O   UNL A   1      34.589  33.121  28.908  1.00  0.00    -0.269 OA
BRANCH  43  46
ATOM     46  C   UNL A   1      36.014  31.267  28.735  1.00  0.00     0.039 A 
ATOM     47  C   UNL A   1      37.162  31.880  29.225  1.00  0.00     0.014 A 
ATOM     48  C   UNL A   1      36.086  29.913  28.352  1.00  0.00     0.014 A 
ATOM     49  C   UNL A   1      38.366  31.196  29.257  1.00  0.00     0.010 A 
ATOM     50  C   UNL A   1      37.284  29.207  28.420  1.00  0.00     0.010 A 
ATOM     51  C   UNL A   1      38.432  29.862  28.846  1.00  0.00    -0.014 A 
BRANCH  51  52
ATOM     52  C   UNL A   1      39.716  29.195  29.031  1.00  0.00     0.031 A 
ATOM     53  C   UNL A   1      40.039  28.853  30.447  1.00  0.00     0.074 A 
ATOM     54  C   UNL A   1      40.553  28.830  28.044  1.00  0.00     0.049 A 
ATOM     55  N   UNL A   1      40.968  29.347  31.199  1.00  0.00    -0.248 NA
ATOM     56  C   UNL A   1      39.113  27.953  31.146  1.00  0.00     0.031 C 
ATOM     57  C   UNL A   1      40.312  28.786  26.603  1.00  0.00     0.029 A 
ATOM     58  N   UNL A   1      41.811  28.326  28.168  1.00  0.00    -0.354 N 
ATOM     59  C   UNL A   1      40.853  28.705  32.432  1.00  0.00     0.074 A 
ATOM     60  C   UNL A   1      39.616  27.965  32.381  1.00  0.00     0.031 C 
ATOM     61  C   UNL A   1      41.300  28.070  26.014  1.00  0.00     0.029 A 
ATOM     62  C   UNL A   1      42.308  27.751  27.012  1.00  0.00     0.049 A 
ATOM     63  H   UNL A   1      42.323  28.366  29.008  1.00  0.00     0.167 HD
ATOM     64  C   UNL A   1      41.859  28.703  33.355  1.00  0.00     0.034 A 
ATOM     65  C   UNL A   1      43.428  26.995  26.911  1.00  0.00     0.034 A 
ATOM     66  C   UNL A   1      42.842  29.711  33.067  1.00  0.00     0.049 A 
ATOM     67  C   UNL A   1      44.295  27.276  28.082  1.00  0.00     0.074 A 
ATOM     68  C   UNL A   1      42.835  31.090  33.019  1.00  0.00     0.029 A 
ATOM     69  N   UNL A   1      43.998  29.326  32.432  1.00  0.00    -0.354 N 
ATOM     70  N   UNL A   1      44.928  28.399  28.271  1.00  0.00    -0.248 NA
ATOM     71  C   UNL A   1      44.121  26.451  29.268  1.00  0.00     0.031 C 
ATOM     72  C   UNL A   1      43.715  31.429  31.950  1.00  0.00     0.029 A 
ATOM     73  C   UNL A   1      44.237  30.239  31.437  1.00  0.00     0.049 A 
ATOM     74  H   UNL A   1      44.552  28.542  32.651  1.00  0.00     0.167 HD
ATOM     75  C   UNL A   1      44.821  28.634  29.634  1.00  0.00     0.074 A 
ATOM     76  C   UNL A   1      44.418  27.352  30.208  1.00  0.00     0.031 C 
ATOM     77  C   UNL A   1      44.796  29.904  30.142  1.00  0.00     0.034 A 
BRANCH  64  78
ATOM     78  C   UNL A   1      42.095  27.595  34.355  1.00  0.00     0.023 A 
ATOM     79  C   UNL A   1      42.851  26.447  34.055  1.00  0.00     0.031 A 
ATOM     80  C   UNL A   1      41.755  27.764  35.714  1.00  0.00     0.131 A 
ATOM     81  C   UNL A   1      43.230  25.531  35.046  1.00  0.00     0.055 A 
ATOM     82  C   UNL A   1      42.188  26.884  36.715  1.00  0.00     0.041 A 
ATOM     83  F   UNL A   1      41.039  28.824  36.123  1.00  0.00    -0.206 F 
ATOM     84  C   UNL A   1      42.932  25.759  36.384  1.00  0.00     0.022 A 
BRANCH  81  85
ATOM     85  S   UNL A   1      44.139  24.027  34.597  1.00  0.00     0.124 S 
ATOM     86  O   UNL A   1      44.981  23.825  35.770  1.00  0.00    -0.237 OA
ATOM     87  O   UNL A   1      43.053  23.065  34.422  1.00  0.00    -0.237 OA
ATOM     88  O   UNL A   1      44.833  24.403  33.368  1.00  0.00    -0.744 OA
ENDBRANCH  81  85
ENDBRANCH  64  78
BRANCH  65  89
ATOM     89  C   UNL A   1      43.540  25.736  26.141  1.00  0.00     0.023 A 
ATOM     90  C   UNL A   1      42.701  24.652  26.459  1.00  0.00     0.031 A 
ATOM     91  C   UNL A   1      44.649  25.479  25.318  1.00  0.00     0.131 A 
ATOM     92  C   UNL A   1      42.998  23.363  26.004  1.00  0.00     0.055 A 
ATOM     93  C   UNL A   1      44.937  24.192  24.852  1.00  0.00     0.041 A 
ATOM     94  F   UNL A   1      45.508  26.461  25.009  1.00  0.00    -0.206 F 
ATOM     95  C   UNL A   1      44.117  23.123  25.206  1.00  0.00     0.022 A 
BRANCH  92  96
ATOM     96  S   UNL A   1      41.973  21.957  26.515  1.00  0.00     0.124 S 
ATOM     97  O   UNL A   1      42.459  20.889  25.643  1.00  0.00    -0.237 OA
ATOM     98  O   UNL A   1      42.325  21.829  27.924  1.00  0.00    -0.237 OA
ATOM     99  O   UNL A   1      40.613  22.407  26.236  1.00  0.00    -0.744 OA
ENDBRANCH  92  96
ENDBRANCH  65  89
BRANCH  77 100
ATOM    100  C   UNL A   1      45.106  31.068  29.221  1.00  0.00     0.023 A 
ATOM    101  C   UNL A   1      46.378  31.661  29.313  1.00  0.00     0.031 A 
ATOM    102  C   UNL A   1      44.147  31.724  28.423  1.00  0.00     0.131 A 
ATOM    103  C   UNL A   1      46.652  32.864  28.648  1.00  0.00     0.055 A 
ATOM    104  C   UNL A   1      44.444  32.888  27.706  1.00  0.00     0.041 A 
ATOM    105  F   UNL A   1      42.874  31.315  28.376  1.00  0.00    -0.206 F 
ATOM    106  C   UNL A   1      45.699  33.472  27.828  1.00  0.00     0.022 A 
BRANCH 103 107
ATOM    107  S   UNL A   1      48.203  33.751  28.947  1.00  0.00     0.124 S 
ATOM    108  O   UNL A   1      49.041  32.712  29.539  1.00  0.00    -0.237 OA
ATOM    109  O   UNL A   1      48.586  34.171  27.601  1.00  0.00    -0.237 OA
ATOM    110  O   UNL A   1      47.822  34.836  29.847  1.00  0.00    -0.744 OA
ENDBRANCH 103 107
ENDBRANCH  77 100
ENDBRANCH  51  52
ENDBRANCH  43  46
ENDBRANCH  41  42
ENDBRANCH  40  41
ENDBRANCH   1  40
TORSDOF 19
ENDMDL
MODEL 2
REMARK VINA RESULT:     -13.6      1.743      2.088
REMARK SMILES Cc1coc2cc3c(cc12)[C@@H](C)[C@H](CCC(=O)N[C@@H](Cc1c[nH]c2ccccc12)C(=O)NCCCNC(=O)c1ccc(-c2c4nc(c(-c5cc(S(=O)(=O)[O-])ccc5F)c5ccc([nH]5)c(-c5cc(S(=O)(=O)[O-])ccc5F)c5nc(c(-c6cc(S(=O)(=O)[O-])ccc6F)c6ccc2[nH]6)C=C5)C=C4)cc1)C(=O)O3
REMARK SMILES IDX 33 1 32 2 30 3 31 4 19 6 18 7 16 8 17 9 15 11 14 12 13 13
REMARK SMILES IDX 1 14 2 15 3 16 10 17 4 18 5 19 9 20 6 21 8 22 7 23 11 24
REMARK SMILES IDX 104 25 12 26 102 27 103 28 20 29 21 30 22 31 29 32 23 33
REMARK SMILES IDX 24 34 28 35 25 37 27 38 26 39 34 40 35 41 36 42 37 43 38 45
REMARK SMILES IDX 39 46 40 47 101 48 41 49 100 50 42 51 43 52 44 53 94 54
REMARK SMILES IDX 45 55 99 56 93 57 95 58 46 59 98 60 92 61 91 62 47 64 79 65
REMARK SMILES IDX 59 66 78 67 60 68 63 69 77 70 96 71 61 72 62 73 76 75 97 76
REMARK SMILES IDX 64 77 48 78 49 79 57 80 50 81 56 82 58 83 55 84 51 85 52 86
REMARK SMILES IDX 53 87 54 88 80 89 81 90 89 91 82 92 88 93 90 94 87 95 83 96
REMARK SMILES IDX 84 97 85 98 86 99 65 100 66 101 74 102 67 103 73 104 75 105
REMARK SMILES IDX 72 106 68 107 69 108 70 109 71 110
REMARK H PARENT 32 5 18 10 23 36 36 44 95 63 63 74
REMARK Flexibility Score: inf
ROOT
ATOM      1  C   UNL A   1      32.803  29.588  27.303  1.00  0.00     0.117 C 
ENDROOT
BRANCH   1   2
ATOM      2  N   UNL A   1      33.644  28.904  26.337  1.00  0.00    -0.354 N 
ATOM      3  C   UNL A   1      33.323  28.142  25.256  1.00  0.00     0.242 C 
ATOM      4  O   UNL A   1      34.219  27.956  24.425  1.00  0.00    -0.273 OA
ATOM      5  H   UNL A   1      34.610  29.010  26.489  1.00  0.00     0.163 HD
BRANCH   3   6
ATOM      6  C   UNL A   1      31.892  27.649  24.975  1.00  0.00     0.175 C 
BRANCH   6   7
ATOM      7  N   UNL A   1      31.489  26.525  25.878  1.00  0.00    -0.344 N 
ATOM      8  C   UNL A   1      32.140  25.505  26.533  1.00  0.00     0.220 C 
ATOM      9  O   UNL A   1      31.459  24.862  27.341  1.00  0.00    -0.275 OA
ATOM     10  H   UNL A   1      30.519  26.514  26.045  1.00  0.00     0.164 HD
BRANCH   8  11
ATOM     11  C   UNL A   1      33.620  25.079  26.328  1.00  0.00     0.101 C 
BRANCH  11  12
ATOM     12  C   UNL A   1      33.918  23.539  26.004  1.00  0.00     0.026 C 
BRANCH  12  13
ATOM     13  C   UNL A   1      35.146  23.253  25.061  1.00  0.00     0.107 C 
ATOM     14  C   UNL A   1      35.112  16.056  24.905  1.00  0.00     0.048 C 
ATOM     15  C   UNL A   1      34.017  17.048  24.833  1.00  0.00    -0.005 A 
ATOM     16  C   UNL A   1      32.667  16.781  24.699  1.00  0.00     0.199 A 
ATOM     17  C   UNL A   1      34.136  18.471  24.842  1.00  0.00     0.024 A 
ATOM     18  O   UNL A   1      31.966  17.927  24.516  1.00  0.00    -0.464 OA
ATOM     19  C   UNL A   1      32.860  18.945  24.556  1.00  0.00     0.137 A 
ATOM     20  C   UNL A   1      35.189  19.401  25.011  1.00  0.00     0.020 A 
ATOM     21  C   UNL A   1      32.568  20.266  24.261  1.00  0.00     0.095 A 
ATOM     22  C   UNL A   1      34.923  20.752  24.774  1.00  0.00    -0.001 A 
ATOM     23  C   UNL A   1      33.683  21.097  24.258  1.00  0.00     0.138 A 
ATOM     24  C   UNL A   1      35.909  21.883  24.935  1.00  0.00     0.034 C 
ATOM     25  O   UNL A   1      33.620  22.314  23.545  1.00  0.00    -0.426 OA
ATOM     26  C   UNL A   1      36.819  21.869  23.670  1.00  0.00     0.014 C 
ATOM     27  C   UNL A   1      34.545  23.360  23.727  1.00  0.00     0.314 C 
ATOM     28  O   UNL A   1      34.745  24.295  22.982  1.00  0.00    -0.251 OA
ENDBRANCH  12  13
ENDBRANCH  11  12
ENDBRANCH   8  11
ENDBRANCH   6   7
BRANCH   6  29
ATOM     29  C   UNL A   1      31.001  28.933  24.753  1.00  0.00     0.072 C 
BRANCH  29  30
ATOM     30  C   UNL A   1      30.649  29.467  23.399  1.00  0.00    -0.020 A 
ATOM     31  C   UNL A   1      31.304  29.323  22.189  1.00  0.00     0.087 A 
ATOM     32  C   UNL A   1      29.582  30.389  23.164  1.00  0.00     0.003 A 
ATOM     33  N   UNL A   1      30.612  30.018  21.227  1.00  0.00    -0.361 N 
ATOM     34  C   UNL A   1      29.534  30.653  21.797  1.00  0.00     0.046 A 
ATOM     35  C   UNL A   1      28.612  30.960  24.009  1.00  0.00     0.010 A 
ATOM     36  H   UNL A   1      30.852  30.056  20.274  1.00  0.00     0.166 HD
ATOM     37  C   UNL A   1      28.514  31.409  21.218  1.00  0.00     0.026 A 
ATOM     38  C   UNL A   1      27.585  31.715  23.450  1.00  0.00     0.001 A 
ATOM     39  C   UNL A   1      27.531  31.919  22.073  1.00  0.00     0.002 A 
ENDBRANCH  29  30
ENDBRANCH   6  29
ENDBRANCH   3   6
ENDBRANCH   1   2
BRANCH   1  40
ATOM     40  C   UNL A   1      32.848  31.098  27.177  1.00  0.00     0.042 C 
BRANCH  40  41
ATOM     41  C   UNL A   1      34.137  31.720  27.728  1.00  0.00     0.118 C 
BRANCH  41  42
ATOM     42  N   UNL A   1      34.206  31.857  29.174  1.00  0.00    -0.352 N 
ATOM     43  C   UNL A   1      35.223  31.791  30.090  1.00  0.00     0.251 C 
ATOM     44  H   UNL A   1      33.330  32.039  29.585  1.00  0.00     0.163 HD
ATOM     45  O   UNL A   1      35.023  32.336  31.179  1.00  0.00    -0.269 OA
BRANCH  43  46
ATOM     46  C   UNL A   1      36.495  31.051  29.884  1.00  0.00     0.039 A 
ATOM     47  C   UNL A   1      36.592  29.670  29.750  1.00  0.00     0.014 A 
ATOM     48  C   UNL A   1      37.683  31.808  29.910  1.00  0.00     0.014 A 
ATOM     49  C   UNL A   1      37.831  29.050  29.725  1.00  0.00     0.010 A 
ATOM     50  C   UNL A   1      38.932  31.195  29.845  1.00  0.00     0.010 A 
ATOM     51  C   UNL A   1      39.002  29.809  29.783  1.00  0.00    -0.014 A 
BRANCH  51  52
ATOM     52  C   UNL A   1      40.253  29.075  29.629  1.00  0.00     0.031 A 
ATOM     53  C   UNL A   1      40.970  28.797  30.908  1.00  0.00     0.074 A 
ATOM     54  C   UNL A   1      40.740  28.601  28.469  1.00  0.00     0.049 A 
ATOM     55  N   UNL A   1      42.102  29.275  31.312  1.00  0.00    -0.248 NA
ATOM     56  C   UNL A   1      40.259  27.999  31.915  1.00  0.00     0.031 C 
ATOM     57  C   UNL A   1      40.077  28.487  27.171  1.00  0.00     0.029 A 
ATOM     58  N   UNL A   1      41.954  28.027  28.252  1.00  0.00    -0.354 N 
ATOM     59  C   UNL A   1      42.334  28.715  32.568  1.00  0.00     0.074 A 
ATOM     60  C   UNL A   1      41.109  28.053  32.941  1.00  0.00     0.031 C 
ATOM     61  C   UNL A   1      40.811  27.677  26.371  1.00  0.00     0.029 A 
ATOM     62  C   UNL A   1      42.057  27.355  27.048  1.00  0.00     0.049 A 
ATOM     63  H   UNL A   1      42.695  28.083  28.897  1.00  0.00     0.167 HD
ATOM     64  C   UNL A   1      43.570  28.703  33.149  1.00  0.00     0.034 A 
ATOM     65  C   UNL A   1      43.062  26.525  26.676  1.00  0.00     0.034 A 
ATOM     66  C   UNL A   1      44.463  29.629  32.509  1.00  0.00     0.049 A 
ATOM     67  C   UNL A   1      44.251  26.819  27.514  1.00  0.00     0.074 A 
ATOM     68  C   UNL A   1      44.501  31.001  32.362  1.00  0.00     0.029 A 
ATOM     69  N   UNL A   1      45.359  29.135  31.591  1.00  0.00    -0.354 N 
ATOM     70  N   UNL A   1      44.959  27.909  27.423  1.00  0.00    -0.248 NA
ATOM     71  C   UNL A   1      44.406  26.078  28.757  1.00  0.00     0.031 C 
ATOM     72  C   UNL A   1      45.034  31.220  31.059  1.00  0.00     0.029 A 
ATOM     73  C   UNL A   1      45.327  29.972  30.504  1.00  0.00     0.049 A 
ATOM     74  H   UNL A   1      45.919  28.332  31.694  1.00  0.00     0.167 HD
ATOM     75  C   UNL A   1      45.275  28.231  28.735  1.00  0.00     0.074 A 
ATOM     76  C   UNL A   1      45.008  27.012  29.496  1.00  0.00     0.031 C 
ATOM     77  C   UNL A   1      45.458  29.527  29.131  1.00  0.00     0.034 A 
BRANCH  64  78
ATOM     78  C   UNL A   1      44.047  27.643  34.115  1.00  0.00     0.023 A 
ATOM     79  C   UNL A   1      44.240  27.894  35.485  1.00  0.00     0.031 A 
ATOM     80  C   UNL A   1      44.105  26.288  33.728  1.00  0.00     0.131 A 
ATOM     81  C   UNL A   1      44.484  26.860  36.400  1.00  0.00     0.055 A 
ATOM     82  C   UNL A   1      44.283  25.247  34.650  1.00  0.00     0.041 A 
ATOM     83  F   UNL A   1      43.930  25.923  32.447  1.00  0.00    -0.206 F 
ATOM     84  C   UNL A   1      44.473  25.531  35.996  1.00  0.00     0.022 A 
BRANCH  81  85
ATOM     85  S   UNL A   1      44.804  27.242  38.144  1.00  0.00     0.124 S 
ATOM     86  O   UNL A   1      46.172  26.765  38.308  1.00  0.00    -0.237 OA
ATOM     87  O   UNL A   1      44.631  28.693  38.166  1.00  0.00    -0.237 OA
ATOM     88  O   UNL A   1      43.773  26.488  38.852  1.00  0.00    -0.744 OA
ENDBRANCH  81  85
ENDBRANCH  64  78
BRANCH  65  89
ATOM     89  C   UNL A   1      42.885  25.219  26.004  1.00  0.00     0.023 A 
ATOM     90  C   UNL A   1      41.909  24.322  26.478  1.00  0.00     0.031 A 
ATOM     91  C   UNL A   1      43.849  24.718  25.115  1.00  0.00     0.131 A 
ATOM     92  C   UNL A   1      41.939  22.974  26.105  1.00  0.00     0.055 A 
ATOM     93  C   UNL A   1      43.870  23.372  24.731  1.00  0.00     0.041 A 
ATOM     94  F   UNL A   1      44.829  25.512  24.656  1.00  0.00    -0.206 F 
ATOM     95  C   UNL A   1      42.918  22.490  25.238  1.00  0.00     0.022 A 
BRANCH  92  96
ATOM     96  S   UNL A   1      40.744  21.806  26.812  1.00  0.00     0.124 S 
ATOM     97  O   UNL A   1      39.469  22.359  26.359  1.00  0.00    -0.237 OA
ATOM     98  O   UNL A   1      41.146  20.554  26.183  1.00  0.00    -0.237 OA
ATOM     99  O   UNL A   1      40.982  21.903  28.248  1.00  0.00    -0.744 OA
ENDBRANCH  92  96
ENDBRANCH  65  89
BRANCH  77 100
ATOM    100  C   UNL A   1      45.527  30.613  28.075  1.00  0.00     0.023 A 
ATOM    101  C   UNL A   1      46.790  31.144  27.757  1.00  0.00     0.031 A 
ATOM    102  C   UNL A   1      44.401  31.266  27.535  1.00  0.00     0.131 A 
ATOM    103  C   UNL A   1      46.900  32.287  26.953  1.00  0.00     0.055 A 
ATOM    104  C   UNL A   1      44.516  32.366  26.679  1.00  0.00     0.041 A 
ATOM    105  F   UNL A   1      43.155  30.921  27.883  1.00  0.00    -0.206 F 
ATOM    106  C   UNL A   1      45.771  32.891  26.395  1.00  0.00     0.022 A 
BRANCH 103 107
ATOM    107  S   UNL A   1      48.498  33.109  26.732  1.00  0.00     0.124 S 
ATOM    108  O   UNL A   1      49.374  31.992  26.394  1.00  0.00    -0.237 OA
ATOM    109  O   UNL A   1      48.221  34.038  25.639  1.00  0.00    -0.237 OA
ATOM    110  O   UNL A   1      48.754  33.737  28.025  1.00  0.00    -0.744 OA
ENDBRANCH 103 107
ENDBRANCH  77 100
ENDBRANCH  51  52
ENDBRANCH  43  46
ENDBRANCH  41  42
ENDBRANCH  40  41
ENDBRANCH   1  40
TORSDOF 19
ENDMDL
MODEL 3
REMARK VINA RESULT:     -12.9      5.163     10.654
REMARK SMILES Cc1coc2cc3c(cc12)[C@@H](C)[C@H](CCC(=O)N[C@@H](Cc1c[nH]c2ccccc12)C(=O)NCCCNC(=O)c1ccc(-c2c4nc(c(-c5cc(S(=O)(=O)[O-])ccc5F)c5ccc([nH]5)c(-c5cc(S(=O)(=O)[O-])ccc5F)c5nc(c(-c6cc(S(=O)(=O)[O-])ccc6F)c6ccc2[nH]6)C=C5)C=C4)cc1)C(=O)O3
REMARK SMILES IDX 33 1 32 2 30 3 31 4 19 6 18 7 16 8 17 9 15 11 14 12 13 13
REMARK SMILES IDX 1 14 2 15 3 16 10 17 4 18 5 19 9 20 6 21 8 22 7 23 11 24
REMARK SMILES IDX 104 25 12 26 102 27 103 28 20 29 21 30 22 31 29 32 23 33
REMARK SMILES IDX 24 34 28 35 25 37 27 38 26 39 34 40 35 41 36 42 37 43 38 45
REMARK SMILES IDX 39 46 40 47 101 48 41 49 100 50 42 51 43 52 44 53 94 54
REMARK SMILES IDX 45 55 99 56 93 57 95 58 46 59 98 60 92 61 91 62 47 64 79 65
REMARK SMILES IDX 59 66 78 67 60 68 63 69 77 70 96 71 61 72 62 73 76 75 97 76
REMARK SMILES IDX 64 77 48 78 49 79 57 80 50 81 56 82 58 83 55 84 51 85 52 86
REMARK SMILES IDX 53 87 54 88 80 89 81 90 89 91 82 92 88 93 90 94 87 95 83 96
REMARK SMILES IDX 84 97 85 98 86 99 65 100 66 101 74 102 67 103 73 104 75 105
REMARK SMILES IDX 72 106 68 107 69 108 70 109 71 110
REMARK H PARENT 32 5 18 10 23 36 36 44 95 63 63 74
REMARK Flexibility Score: inf
ROOT
ATOM      1  C   UNL A   1      36.039  33.577  33.427  1.00  0.00     0.117 C 
ENDROOT
BRANCH   1   2
ATOM      2  N   UNL A   1      36.543  32.229  33.618  1.00  0.00    -0.354 N 
ATOM      3  C   UNL A   1      37.803  31.774  33.857  1.00  0.00     0.242 C 
ATOM      4  O   UNL A   1      37.899  30.623  34.300  1.00  0.00    -0.273 OA
ATOM      5  H   UNL A   1      35.858  31.525  33.564  1.00  0.00     0.163 HD
BRANCH   3   6
ATOM      6  C   UNL A   1      39.052  32.665  33.739  1.00  0.00     0.175 C 
BRANCH   6   7
ATOM      7  N   UNL A   1      39.928  32.581  34.951  1.00  0.00    -0.344 N 
ATOM      8  C   UNL A   1      40.512  33.483  35.810  1.00  0.00     0.220 C 
ATOM      9  O   UNL A   1      41.042  33.002  36.818  1.00  0.00    -0.275 OA
ATOM     10  H   UNL A   1      40.137  31.650  35.192  1.00  0.00     0.164 HD
BRANCH   8  11
ATOM     11  C   UNL A   1      40.587  35.023  35.613  1.00  0.00     0.101 C 
BRANCH  11  12
ATOM     12  C   UNL A   1      41.348  35.575  34.317  1.00  0.00     0.026 C 
BRANCH  12  13
ATOM     13  C   UNL A   1      42.756  34.937  34.014  1.00  0.00     0.107 C 
ATOM     14  C   UNL A   1      45.166  39.317  28.834  1.00  0.00     0.048 C 
ATOM     15  C   UNL A   1      44.453  39.589  30.101  1.00  0.00    -0.005 A 
ATOM     16  C   UNL A   1      44.088  40.827  30.594  1.00  0.00     0.199 A 
ATOM     17  C   UNL A   1      44.042  38.639  31.084  1.00  0.00     0.024 A 
ATOM     18  O   UNL A   1      43.585  40.716  31.848  1.00  0.00    -0.464 OA
ATOM     19  C   UNL A   1      43.600  39.398  32.164  1.00  0.00     0.137 A 
ATOM     20  C   UNL A   1      44.043  37.228  31.197  1.00  0.00     0.020 A 
ATOM     21  C   UNL A   1      43.309  38.879  33.413  1.00  0.00     0.095 A 
ATOM     22  C   UNL A   1      43.703  36.661  32.428  1.00  0.00    -0.001 A 
ATOM     23  C   UNL A   1      43.513  37.507  33.510  1.00  0.00     0.138 A 
ATOM     24  C   UNL A   1      43.618  35.184  32.722  1.00  0.00     0.034 C 
ATOM     25  O   UNL A   1      43.706  36.938  34.787  1.00  0.00    -0.426 OA
ATOM     26  C   UNL A   1      45.079  34.681  32.925  1.00  0.00     0.014 C 
ATOM     27  C   UNL A   1      43.605  35.556  35.037  1.00  0.00     0.314 C 
ATOM     28  O   UNL A   1      44.025  34.956  36.003  1.00  0.00    -0.251 OA
ENDBRANCH  12  13
ENDBRANCH  11  12
ENDBRANCH   8  11
ENDBRANCH   6   7
BRANCH   6  29
ATOM     29  C   UNL A   1      39.601  32.491  32.270  1.00  0.00     0.072 C 
BRANCH  29  30
ATOM     30  C   UNL A   1      39.571  33.582  31.245  1.00  0.00    -0.020 A 
ATOM     31  C   UNL A   1      38.532  34.410  30.857  1.00  0.00     0.087 A 
ATOM     32  C   UNL A   1      40.652  33.859  30.351  1.00  0.00     0.003 A 
ATOM     33  N   UNL A   1      38.979  35.241  29.859  1.00  0.00    -0.361 N 
ATOM     34  C   UNL A   1      40.285  34.942  29.555  1.00  0.00     0.046 A 
ATOM     35  C   UNL A   1      41.940  33.309  30.212  1.00  0.00     0.010 A 
ATOM     36  H   UNL A   1      38.443  35.944  29.426  1.00  0.00     0.166 HD
ATOM     37  C   UNL A   1      41.175  35.553  28.669  1.00  0.00     0.026 A 
ATOM     38  C   UNL A   1      42.842  33.905  29.337  1.00  0.00     0.001 A 
ATOM     39  C   UNL A   1      42.467  35.021  28.592  1.00  0.00     0.002 A 
ENDBRANCH  29  30
ENDBRANCH   6  29
ENDBRANCH   3   6
ENDBRANCH   1   2
BRANCH   1  40
ATOM     40  C   UNL A   1      35.319  33.769  32.107  1.00  0.00     0.042 C 
BRANCH  40  41
ATOM     41  C   UNL A   1      34.698  32.481  31.555  1.00  0.00     0.118 C 
BRANCH  41  42
ATOM     42  N   UNL A   1      34.504  32.438  30.114  1.00  0.00    -0.352 N 
ATOM     43  C   UNL A   1      34.985  31.637  29.111  1.00  0.00     0.251 C 
ATOM     44  H   UNL A   1      33.893  33.136  29.787  1.00  0.00     0.163 HD
ATOM     45  O   UNL A   1      34.332  31.609  28.065  1.00  0.00    -0.269 OA
BRANCH  43  46
ATOM     46  C   UNL A   1      36.260  30.876  29.179  1.00  0.00     0.039 A 
ATOM     47  C   UNL A   1      36.366  29.550  29.583  1.00  0.00     0.014 A 
ATOM     48  C   UNL A   1      37.441  31.586  28.886  1.00  0.00     0.014 A 
ATOM     49  C   UNL A   1      37.610  28.969  29.773  1.00  0.00     0.010 A 
ATOM     50  C   UNL A   1      38.694  30.996  29.035  1.00  0.00     0.010 A 
ATOM     51  C   UNL A   1      38.776  29.693  29.509  1.00  0.00    -0.014 A 
BRANCH  51  52
ATOM     52  C   UNL A   1      40.029  28.957  29.623  1.00  0.00     0.031 A 
ATOM     53  C   UNL A   1      40.571  28.867  31.010  1.00  0.00     0.074 A 
ATOM     54  C   UNL A   1      40.660  28.332  28.613  1.00  0.00     0.049 A 
ATOM     55  N   UNL A   1      41.646  29.407  31.488  1.00  0.00    -0.248 NA
ATOM     56  C   UNL A   1      39.729  28.209  32.017  1.00  0.00     0.031 C 
ATOM     57  C   UNL A   1      40.171  28.032  27.268  1.00  0.00     0.029 A 
ATOM     58  N   UNL A   1      41.887  27.745  28.638  1.00  0.00    -0.354 N 
ATOM     59  C   UNL A   1      41.707  29.030  32.830  1.00  0.00     0.074 A 
ATOM     60  C   UNL A   1      40.438  28.413  33.128  1.00  0.00     0.031 C 
ATOM     61  C   UNL A   1      40.996  27.127  26.692  1.00  0.00     0.029 A 
ATOM     62  C   UNL A   1      42.141  26.914  27.563  1.00  0.00     0.049 A 
ATOM     63  H   UNL A   1      42.538  27.898  29.361  1.00  0.00     0.167 HD
ATOM     64  C   UNL A   1      42.856  29.111  33.563  1.00  0.00     0.034 A 
ATOM     65  C   UNL A   1      43.179  26.051  27.444  1.00  0.00     0.034 A 
ATOM     66  C   UNL A   1      43.833  29.948  32.921  1.00  0.00     0.049 A 
ATOM     67  C   UNL A   1      44.251  26.470  28.381  1.00  0.00     0.074 A 
ATOM     68  C   UNL A   1      43.901  31.287  32.592  1.00  0.00     0.029 A 
ATOM     69  N   UNL A   1      44.836  29.341  32.206  1.00  0.00    -0.354 N 
ATOM     70  N   UNL A   1      44.973  27.544  28.232  1.00  0.00    -0.248 NA
ATOM     71  C   UNL A   1      44.236  25.910  29.724  1.00  0.00     0.031 C 
ATOM     72  C   UNL A   1      44.601  31.328  31.351  1.00  0.00     0.029 A 
ATOM     73  C   UNL A   1      44.953  30.018  31.019  1.00  0.00     0.049 A 
ATOM     74  H   UNL A   1      45.371  28.565  32.491  1.00  0.00     0.167 HD
ATOM     75  C   UNL A   1      45.119  28.048  29.517  1.00  0.00     0.074 A 
ATOM     76  C   UNL A   1      44.745  26.944  30.398  1.00  0.00     0.031 C 
ATOM     77  C   UNL A   1      45.258  29.388  29.749  1.00  0.00     0.034 A 
BRANCH  64  78
ATOM     78  C   UNL A   1      43.194  28.200  34.720  1.00  0.00     0.023 A 
ATOM     79  C   UNL A   1      43.349  26.810  34.573  1.00  0.00     0.031 A 
ATOM     80  C   UNL A   1      43.594  28.731  35.964  1.00  0.00     0.131 A 
ATOM     81  C   UNL A   1      43.859  26.009  35.604  1.00  0.00     0.055 A 
ATOM     82  C   UNL A   1      44.165  27.943  36.973  1.00  0.00     0.041 A 
ATOM     83  F   UNL A   1      43.499  30.046  36.221  1.00  0.00    -0.206 F 
ATOM     84  C   UNL A   1      44.301  26.572  36.796  1.00  0.00     0.022 A 
BRANCH  81  85
ATOM     85  S   UNL A   1      43.967  24.211  35.394  1.00  0.00     0.124 S 
ATOM     86  O   UNL A   1      44.666  23.809  36.610  1.00  0.00    -0.237 OA
ATOM     87  O   UNL A   1      42.557  23.836  35.320  1.00  0.00    -0.237 OA
ATOM     88  O   UNL A   1      44.711  24.058  34.147  1.00  0.00    -0.744 OA
ENDBRANCH  81  85
ENDBRANCH  64  78
BRANCH  65  89
ATOM     89  C   UNL A   1      43.081  24.662  26.943  1.00  0.00     0.023 A 
ATOM     90  C   UNL A   1      44.034  24.189  26.022  1.00  0.00     0.031 A 
ATOM     91  C   UNL A   1      41.910  23.905  27.112  1.00  0.00     0.131 A 
ATOM     92  C   UNL A   1      43.791  23.030  25.276  1.00  0.00     0.055 A 
ATOM     93  C   UNL A   1      41.675  22.739  26.376  1.00  0.00     0.041 A 
ATOM     94  F   UNL A   1      40.946  24.321  27.947  1.00  0.00    -0.206 F 
ATOM     95  C   UNL A   1      42.612  22.303  25.442  1.00  0.00     0.022 A 
BRANCH  92  96
ATOM     96  S   UNL A   1      44.976  22.495  24.012  1.00  0.00     0.124 S 
ATOM     97  O   UNL A   1      45.540  21.286  24.612  1.00  0.00    -0.237 OA
ATOM     98  O   UNL A   1      44.107  22.280  22.862  1.00  0.00    -0.237 OA
ATOM     99  O   UNL A   1      45.900  23.620  23.912  1.00  0.00    -0.744 OA
ENDBRANCH  92  96
ENDBRANCH  65  89
BRANCH  77 100
ATOM    100  C   UNL A   1      45.473  30.318  28.571  1.00  0.00     0.023 A 
ATOM    101  C   UNL A   1      46.787  30.738  28.294  1.00  0.00     0.031 A 
ATOM    102  C   UNL A   1      44.433  30.948  27.858  1.00  0.00     0.131 A 
ATOM    103  C   UNL A   1      47.026  31.756  27.360  1.00  0.00     0.055 A 
ATOM    104  C   UNL A   1      44.680  31.915  26.879  1.00  0.00     0.041 A 
ATOM    105  F   UNL A   1      43.146  30.715  28.142  1.00  0.00    -0.206 F 
ATOM    106  C   UNL A   1      45.982  32.335  26.635  1.00  0.00     0.022 A 
BRANCH 103 107
ATOM    107  S   UNL A   1      48.684  32.461  27.169  1.00  0.00     0.124 S 
ATOM    108  O   UNL A   1      48.433  33.598  26.287  1.00  0.00    -0.237 OA
ATOM    109  O   UNL A   1      49.037  32.804  28.544  1.00  0.00    -0.237 OA
ATOM    110  O   UNL A   1      49.465  31.375  26.584  1.00  0.00    -0.744 OA
ENDBRANCH 103 107
ENDBRANCH  77 100
ENDBRANCH  51  52
ENDBRANCH  43  46
ENDBRANCH  41  42
ENDBRANCH  40  41
ENDBRANCH   1  40
TORSDOF 19
ENDMDL
