MODEL 1
REMARK VINA RESULT:     -12.0      0.000      0.000
REMARK SMILES O=C(CN(C(=O)[C@H]1CC[C@H]2CCCC[C@H]2[NH2+]1)C1CC1)NCCCNC(=O)c1ccc(-c2c3nc(c(-c4cc(S(=O)(=O)[O-])ccc4F)c4ccc([nH]4)c(-c4cc(S(=O)(=O)[O-])ccc4F)c4nc(c(-c5cc(S(=O)(=O)[O-])ccc5F)c5ccc2[nH]5)C=C4)C=C3)cc1
REMARK SMILES IDX 22 1 21 2 20 3 1 4 2 5 3 7 4 8 5 9 6 10 7 11 8 12 16 13 9 14
REMARK SMILES IDX 15 15 10 18 14 19 11 20 13 21 12 22 17 23 18 24 19 25 23 26
REMARK SMILES IDX 24 27 25 28 26 30 27 31 28 32 89 33 29 34 88 35 30 36 31 37
REMARK SMILES IDX 32 38 82 39 33 40 87 41 81 42 83 43 34 44 86 45 80 46 79 47
REMARK SMILES IDX 35 49 67 50 47 51 66 52 48 53 51 54 65 55 84 56 49 57 50 58
REMARK SMILES IDX 64 60 85 61 52 62 36 63 37 64 45 65 38 66 44 67 46 68 43 69
REMARK SMILES IDX 39 70 40 71 41 72 42 73 68 74 69 75 77 76 70 77 76 78 78 79
REMARK SMILES IDX 75 80 71 81 72 82 73 83 74 84 53 85 54 86 62 87 55 88 61 89
REMARK SMILES IDX 63 90 60 91 56 92 57 93 58 94 59 95
REMARK H PARENT 20 6 16 16 16 17 24 29 83 48 51 59
REMARK Flexibility Score: inf
ROOT
ATOM      1  C   UNL A   1      31.693  31.726  26.638  1.00  0.00     0.042 C 
ENDROOT
BRANCH   1   2
ATOM      2  C   UNL A   1      31.842  30.208  26.556  1.00  0.00     0.117 C 
BRANCH   2   3
ATOM      3  N   UNL A   1      31.878  29.728  25.190  1.00  0.00    -0.354 N 
ATOM      4  O   UNL A   1      33.964  28.781  25.332  1.00  0.00    -0.273 OA
ATOM      5  C   UNL A   1      32.958  29.041  24.677  1.00  0.00     0.239 C 
ATOM      6  H   UNL A   1      31.103  29.896  24.607  1.00  0.00     0.163 HD
BRANCH   5   7
ATOM      7  C   UNL A   1      32.911  28.853  23.162  1.00  0.00     0.219 C 
BRANCH   7   8
ATOM      8  N   UNL A   1      32.376  27.570  22.676  1.00  0.00    -0.325 N 
BRANCH   8   9
ATOM      9  C   UNL A   1      33.050  26.344  22.695  1.00  0.00     0.281 C 
ATOM     10  O   UNL A   1      33.703  25.972  21.708  1.00  0.00    -0.268 OA
BRANCH   9  11
ATOM     11  C   UNL A   1      33.092  25.451  23.966  1.00  0.00     0.273 C 
ATOM     12  C   UNL A   1      32.341  24.147  23.676  1.00  0.00     0.076 C 
ATOM     13  N   UNL A   1      34.467  25.284  24.467  1.00  0.00    -0.333 N 
ATOM     14  C   UNL A   1      32.488  23.138  24.813  1.00  0.00     0.016 C 
ATOM     15  C   UNL A   1      34.611  24.275  25.523  1.00  0.00     0.186 C 
ATOM     16  H   UNL A   1      34.781  26.180  24.838  1.00  0.00     0.347 HD
ATOM     17  H   UNL A   1      35.024  24.958  23.679  1.00  0.00     0.347 HD
ATOM     18  C   UNL A   1      33.964  22.922  25.175  1.00  0.00     0.048 C 
ATOM     19  C   UNL A   1      36.102  24.059  25.811  1.00  0.00     0.065 C 
ATOM     20  C   UNL A   1      34.694  22.138  24.068  1.00  0.00     0.010 C 
ATOM     21  C   UNL A   1      36.841  23.480  24.610  1.00  0.00     0.006 C 
ATOM     22  C   UNL A   1      36.221  22.184  24.098  1.00  0.00     0.001 C 
ENDBRANCH   9  11
ENDBRANCH   8   9
BRANCH   8  23
ATOM     23  C   UNL A   1      30.980  27.558  22.272  1.00  0.00     0.086 C 
ATOM     24  C   UNL A   1      29.907  27.274  23.296  1.00  0.00     0.027 C 
ATOM     25  C   UNL A   1      29.968  28.616  22.635  1.00  0.00     0.027 C 
ENDBRANCH   8  23
ENDBRANCH   7   8
ENDBRANCH   5   7
ENDBRANCH   2   3
ENDBRANCH   1   2
BRANCH   1  26
ATOM     26  C   UNL A   1      32.868  32.448  27.298  1.00  0.00     0.118 C 
BRANCH  26  27
ATOM     27  N   UNL A   1      32.571  33.832  27.642  1.00  0.00    -0.352 N 
ATOM     28  C   UNL A   1      33.128  34.663  28.581  1.00  0.00     0.251 C 
ATOM     29  H   UNL A   1      31.848  34.240  27.110  1.00  0.00     0.163 HD
ATOM     30  O   UNL A   1      32.600  35.754  28.796  1.00  0.00    -0.269 OA
BRANCH  28  31
ATOM     31  C   UNL A   1      34.322  34.255  29.354  1.00  0.00     0.039 A 
ATOM     32  C   UNL A   1      34.134  33.609  30.580  1.00  0.00     0.014 A 
ATOM     33  C   UNL A   1      35.616  34.516  28.899  1.00  0.00     0.014 A 
ATOM     34  C   UNL A   1      35.239  33.146  31.301  1.00  0.00     0.010 A 
ATOM     35  C   UNL A   1      36.714  33.994  29.585  1.00  0.00     0.010 A 
ATOM     36  C   UNL A   1      36.536  33.288  30.785  1.00  0.00    -0.014 A 
BRANCH  36  37
ATOM     37  C   UNL A   1      37.708  32.667  31.462  1.00  0.00     0.031 A 
ATOM     38  C   UNL A   1      38.429  31.505  30.835  1.00  0.00     0.074 A 
ATOM     39  C   UNL A   1      38.081  33.113  32.679  1.00  0.00     0.049 A 
ATOM     40  N   UNL A   1      39.405  30.779  31.319  1.00  0.00    -0.248 NA
ATOM     41  C   UNL A   1      37.974  31.092  29.500  1.00  0.00     0.031 C 
ATOM     42  C   UNL A   1      37.448  34.216  33.404  1.00  0.00     0.029 A 
ATOM     43  N   UNL A   1      39.073  32.688  33.529  1.00  0.00    -0.354 N 
ATOM     44  C   UNL A   1      39.680  29.818  30.351  1.00  0.00     0.074 A 
ATOM     45  C   UNL A   1      38.727  30.023  29.280  1.00  0.00     0.031 C 
ATOM     46  C   UNL A   1      38.077  34.394  34.575  1.00  0.00     0.029 A 
ATOM     47  C   UNL A   1      39.120  33.383  34.717  1.00  0.00     0.049 A 
ATOM     48  H   UNL A   1      39.693  31.955  33.311  1.00  0.00     0.167 HD
ATOM     49  C   UNL A   1      40.647  28.867  30.351  1.00  0.00     0.034 A 
ATOM     50  C   UNL A   1      39.894  33.214  35.807  1.00  0.00     0.034 A 
ATOM     51  C   UNL A   1      41.590  28.675  31.429  1.00  0.00     0.049 A 
ATOM     52  C   UNL A   1      40.921  32.108  35.807  1.00  0.00     0.074 A 
ATOM     53  C   UNL A   1      42.640  27.775  31.505  1.00  0.00     0.029 A 
ATOM     54  N   UNL A   1      41.591  29.382  32.625  1.00  0.00    -0.354 N 
ATOM     55  N   UNL A   1      41.199  31.238  34.864  1.00  0.00    -0.248 NA
ATOM     56  C   UNL A   1      41.741  31.967  37.017  1.00  0.00     0.031 C 
ATOM     57  C   UNL A   1      43.219  27.880  32.774  1.00  0.00     0.029 A 
ATOM     58  C   UNL A   1      42.592  28.907  33.460  1.00  0.00     0.049 A 
ATOM     59  H   UNL A   1      40.970  30.113  32.848  1.00  0.00     0.167 HD
ATOM     60  C   UNL A   1      42.245  30.464  35.359  1.00  0.00     0.074 A 
ATOM     61  C   UNL A   1      42.561  30.985  36.674  1.00  0.00     0.031 C 
ATOM     62  C   UNL A   1      42.889  29.419  34.778  1.00  0.00     0.034 A 
BRANCH  49  63
ATOM     63  C   UNL A   1      40.712  27.938  29.160  1.00  0.00     0.023 A 
ATOM     64  C   UNL A   1      41.655  28.117  28.133  1.00  0.00     0.031 A 
ATOM     65  C   UNL A   1      39.810  26.866  29.042  1.00  0.00     0.131 A 
ATOM     66  C   UNL A   1      41.626  27.287  27.002  1.00  0.00     0.055 A 
ATOM     67  C   UNL A   1      39.842  25.991  27.955  1.00  0.00     0.041 A 
ATOM     68  F   UNL A   1      38.872  26.655  29.980  1.00  0.00    -0.206 F 
ATOM     69  C   UNL A   1      40.744  26.208  26.918  1.00  0.00     0.022 A 
BRANCH  66  70
ATOM     70  S   UNL A   1      42.656  27.731  25.577  1.00  0.00     0.124 S 
ATOM     71  O   UNL A   1      43.931  28.037  26.219  1.00  0.00    -0.237 OA
ATOM     72  O   UNL A   1      42.621  26.516  24.771  1.00  0.00    -0.237 OA
ATOM     73  O   UNL A   1      41.965  28.883  25.000  1.00  0.00    -0.744 OA
ENDBRANCH  66  70
ENDBRANCH  49  63
BRANCH  50  74
ATOM     74  C   UNL A   1      39.717  34.085  37.006  1.00  0.00     0.023 A 
ATOM     75  C   UNL A   1      39.137  33.586  38.183  1.00  0.00     0.031 A 
ATOM     76  C   UNL A   1      40.077  35.444  36.974  1.00  0.00     0.131 A 
ATOM     77  C   UNL A   1      38.888  34.451  39.261  1.00  0.00     0.055 A 
ATOM     78  C   UNL A   1      39.885  36.286  38.071  1.00  0.00     0.041 A 
ATOM     79  F   UNL A   1      40.634  35.974  35.873  1.00  0.00    -0.206 F 
ATOM     80  C   UNL A   1      39.273  35.793  39.219  1.00  0.00     0.022 A 
BRANCH  77  81
ATOM     81  S   UNL A   1      37.962  33.816  40.685  1.00  0.00     0.124 S 
ATOM     82  O   UNL A   1      36.881  33.085  40.033  1.00  0.00    -0.237 OA
ATOM     83  O   UNL A   1      38.967  33.005  41.364  1.00  0.00    -0.237 OA
ATOM     84  O   UNL A   1      37.558  35.028  41.395  1.00  0.00    -0.744 OA
ENDBRANCH  77  81
ENDBRANCH  50  74
BRANCH  62  85
ATOM     85  C   UNL A   1      44.025  28.795  35.554  1.00  0.00     0.023 A 
ATOM     86  C   UNL A   1      43.832  27.668  36.372  1.00  0.00     0.031 A 
ATOM     87  C   UNL A   1      45.319  29.343  35.481  1.00  0.00     0.131 A 
ATOM     88  C   UNL A   1      44.899  27.162  37.130  1.00  0.00     0.055 A 
ATOM     89  C   UNL A   1      46.391  28.793  36.185  1.00  0.00     0.041 A 
ATOM     90  F   UNL A   1      45.562  30.420  34.719  1.00  0.00    -0.206 F 
ATOM     91  C   UNL A   1      46.182  27.705  37.026  1.00  0.00     0.022 A 
BRANCH  88  92
ATOM     92  S   UNL A   1      44.568  25.843  38.331  1.00  0.00     0.124 S 
ATOM     93  O   UNL A   1      45.850  25.147  38.377  1.00  0.00    -0.237 OA
ATOM     94  O   UNL A   1      44.208  26.595  39.529  1.00  0.00    -0.237 OA
ATOM     95  O   UNL A   1      43.475  25.089  37.721  1.00  0.00    -0.744 OA
ENDBRANCH  88  92
ENDBRANCH  62  85
ENDBRANCH  36  37
ENDBRANCH  28  31
ENDBRANCH  26  27
ENDBRANCH   1  26
TORSDOF 17
ENDMDL
MODEL 2
REMARK VINA RESULT:     -11.9      1.379      3.452
REMARK SMILES O=C(CN(C(=O)[C@H]1CC[C@H]2CCCC[C@H]2[NH2+]1)C1CC1)NCCCNC(=O)c1ccc(-c2c3nc(c(-c4cc(S(=O)(=O)[O-])ccc4F)c4ccc([nH]4)c(-c4cc(S(=O)(=O)[O-])ccc4F)c4nc(c(-c5cc(S(=O)(=O)[O-])ccc5F)c5ccc2[nH]5)C=C4)C=C3)cc1
REMARK SMILES IDX 22 1 21 2 20 3 1 4 2 5 3 7 4 8 5 9 6 10 7 11 8 12 16 13 9 14
REMARK SMILES IDX 15 15 10 18 14 19 11 20 13 21 12 22 17 23 18 24 19 25 23 26
REMARK SMILES IDX 24 27 25 28 26 30 27 31 28 32 89 33 29 34 88 35 30 36 31 37
REMARK SMILES IDX 32 38 82 39 33 40 87 41 81 42 83 43 34 44 86 45 80 46 79 47
REMARK SMILES IDX 35 49 67 50 47 51 66 52 48 53 51 54 65 55 84 56 49 57 50 58
REMARK SMILES IDX 64 60 85 61 52 62 36 63 37 64 45 65 38 66 44 67 46 68 43 69
REMARK SMILES IDX 39 70 40 71 41 72 42 73 68 74 69 75 77 76 70 77 76 78 78 79
REMARK SMILES IDX 75 80 71 81 72 82 73 83 74 84 53 85 54 86 62 87 55 88 61 89
REMARK SMILES IDX 63 90 60 91 56 92 57 93 58 94 59 95
REMARK H PARENT 20 6 16 16 16 17 24 29 83 48 51 59
REMARK Flexibility Score: inf
ROOT
ATOM      1  C   UNL A   1      31.783  31.439  26.660  1.00  0.00     0.042 C 
ENDROOT
BRANCH   1   2
ATOM      2  C   UNL A   1      31.717  29.958  27.028  1.00  0.00     0.117 C 
BRANCH   2   3
ATOM      3  N   UNL A   1      32.112  29.096  25.933  1.00  0.00    -0.354 N 
ATOM      4  O   UNL A   1      31.162  27.188  26.786  1.00  0.00    -0.273 OA
ATOM      5  C   UNL A   1      31.798  27.753  25.900  1.00  0.00     0.239 C 
ATOM      6  H   UNL A   1      32.621  29.482  25.185  1.00  0.00     0.163 HD
BRANCH   5   7
ATOM      7  C   UNL A   1      32.522  26.974  24.804  1.00  0.00     0.219 C 
BRANCH   7   8
ATOM      8  N   UNL A   1      32.038  27.174  23.428  1.00  0.00    -0.325 N 
BRANCH   8   9
ATOM      9  C   UNL A   1      31.633  28.393  22.873  1.00  0.00     0.281 C 
ATOM     10  O   UNL A   1      32.435  29.333  22.773  1.00  0.00    -0.268 OA
BRANCH   9  11
ATOM     11  C   UNL A   1      30.210  28.592  22.278  1.00  0.00     0.273 C 
ATOM     12  C   UNL A   1      29.175  28.182  23.331  1.00  0.00     0.076 C 
ATOM     13  N   UNL A   1      30.038  29.945  21.723  1.00  0.00    -0.333 N 
ATOM     14  C   UNL A   1      27.752  28.516  22.892  1.00  0.00     0.016 C 
ATOM     15  C   UNL A   1      28.659  30.279  21.352  1.00  0.00     0.186 C 
ATOM     16  H   UNL A   1      30.620  30.024  20.890  1.00  0.00     0.347 HD
ATOM     17  H   UNL A   1      30.305  30.596  22.461  1.00  0.00     0.347 HD
ATOM     18  C   UNL A   1      27.634  29.984  22.463  1.00  0.00     0.048 C 
ATOM     19  C   UNL A   1      28.584  31.766  20.982  1.00  0.00     0.065 C 
ATOM     20  C   UNL A   1      27.731  30.925  23.679  1.00  0.00     0.010 C 
ATOM     21  C   UNL A   1      28.902  32.670  22.168  1.00  0.00     0.006 C 
ATOM     22  C   UNL A   1      28.019  32.395  23.379  1.00  0.00     0.001 C 
ENDBRANCH   9  11
ENDBRANCH   8   9
BRANCH   8  23
ATOM     23  C   UNL A   1      32.123  26.030  22.535  1.00  0.00     0.086 C 
ATOM     24  C   UNL A   1      33.442  25.316  22.357  1.00  0.00     0.027 C 
ATOM     25  C   UNL A   1      32.285  24.599  22.980  1.00  0.00     0.027 C 
ENDBRANCH   8  23
ENDBRANCH   7   8
ENDBRANCH   5   7
ENDBRANCH   2   3
ENDBRANCH   1   2
BRANCH   1  26
ATOM     26  C   UNL A   1      32.987  32.186  27.232  1.00  0.00     0.118 C 
BRANCH  26  27
ATOM     27  N   UNL A   1      32.690  33.568  27.586  1.00  0.00    -0.352 N 
ATOM     28  C   UNL A   1      33.242  34.390  28.537  1.00  0.00     0.251 C 
ATOM     29  H   UNL A   1      31.972  33.981  27.053  1.00  0.00     0.163 HD
ATOM     30  O   UNL A   1      32.714  35.479  28.757  1.00  0.00    -0.269 OA
BRANCH  28  31
ATOM     31  C   UNL A   1      34.430  33.972  29.314  1.00  0.00     0.039 A 
ATOM     32  C   UNL A   1      34.241  33.160  30.437  1.00  0.00     0.014 A 
ATOM     33  C   UNL A   1      35.717  34.384  28.966  1.00  0.00     0.014 A 
ATOM     34  C   UNL A   1      35.347  32.689  31.151  1.00  0.00     0.010 A 
ATOM     35  C   UNL A   1      36.823  33.859  29.637  1.00  0.00     0.010 A 
ATOM     36  C   UNL A   1      36.650  32.992  30.728  1.00  0.00    -0.014 A 
BRANCH  36  37
ATOM     37  C   UNL A   1      37.836  32.375  31.382  1.00  0.00     0.031 A 
ATOM     38  C   UNL A   1      38.555  31.222  30.737  1.00  0.00     0.074 A 
ATOM     39  C   UNL A   1      38.227  32.817  32.595  1.00  0.00     0.049 A 
ATOM     40  N   UNL A   1      39.544  30.500  31.200  1.00  0.00    -0.248 NA
ATOM     41  C   UNL A   1      38.082  30.812  29.407  1.00  0.00     0.031 C 
ATOM     42  C   UNL A   1      37.598  33.912  33.336  1.00  0.00     0.029 A 
ATOM     43  N   UNL A   1      39.235  32.395  33.426  1.00  0.00    -0.354 N 
ATOM     44  C   UNL A   1      39.810  29.545  30.223  1.00  0.00     0.074 A 
ATOM     45  C   UNL A   1      38.838  29.750  29.169  1.00  0.00     0.031 C 
ATOM     46  C   UNL A   1      38.245  34.088  34.498  1.00  0.00     0.029 A 
ATOM     47  C   UNL A   1      39.297  33.083  34.617  1.00  0.00     0.049 A 
ATOM     48  H   UNL A   1      39.856  31.667  33.194  1.00  0.00     0.167 HD
ATOM     49  C   UNL A   1      40.783  28.602  30.201  1.00  0.00     0.034 A 
ATOM     50  C   UNL A   1      40.090  32.914  35.693  1.00  0.00     0.034 A 
ATOM     51  C   UNL A   1      41.745  28.411  31.263  1.00  0.00     0.049 A 
ATOM     52  C   UNL A   1      41.124  31.815  35.671  1.00  0.00     0.074 A 
ATOM     53  C   UNL A   1      42.802  27.517  31.317  1.00  0.00     0.029 A 
ATOM     54  N   UNL A   1      41.760  29.110  32.463  1.00  0.00    -0.354 N 
ATOM     55  N   UNL A   1      41.393  30.952  34.718  1.00  0.00    -0.248 NA
ATOM     56  C   UNL A   1      41.964  31.673  36.866  1.00  0.00     0.031 C 
ATOM     57  C   UNL A   1      43.401  27.619  32.577  1.00  0.00     0.029 A 
ATOM     58  C   UNL A   1      42.778  28.638  33.279  1.00  0.00     0.049 A 
ATOM     59  H   UNL A   1      41.139  29.836  32.700  1.00  0.00     0.167 HD
ATOM     60  C   UNL A   1      42.452  30.182  35.191  1.00  0.00     0.074 A 
ATOM     61  C   UNL A   1      42.786  30.698  36.504  1.00  0.00     0.031 C 
ATOM     62  C   UNL A   1      43.093  29.145  34.595  1.00  0.00     0.034 A 
BRANCH  49  63
ATOM     63  C   UNL A   1      40.835  27.680  29.005  1.00  0.00     0.023 A 
ATOM     64  C   UNL A   1      41.781  27.851  27.979  1.00  0.00     0.031 A 
ATOM     65  C   UNL A   1      39.917  26.621  28.880  1.00  0.00     0.131 A 
ATOM     66  C   UNL A   1      41.740  27.029  26.843  1.00  0.00     0.055 A 
ATOM     67  C   UNL A   1      39.936  25.753  27.787  1.00  0.00     0.041 A 
ATOM     68  F   UNL A   1      38.975  26.419  29.816  1.00  0.00    -0.206 F 
ATOM     69  C   UNL A   1      40.842  25.964  26.752  1.00  0.00     0.022 A 
BRANCH  66  70
ATOM     70  S   UNL A   1      42.777  27.467  25.421  1.00  0.00     0.124 S 
ATOM     71  O   UNL A   1      42.059  28.615  24.875  1.00  0.00    -0.237 OA
ATOM     72  O   UNL A   1      44.063  27.754  26.045  1.00  0.00    -0.237 OA
ATOM     73  O   UNL A   1      42.742  26.266  24.588  1.00  0.00    -0.744 OA
ENDBRANCH  66  70
ENDBRANCH  49  63
BRANCH  50  74
ATOM     74  C   UNL A   1      39.926  33.777  36.899  1.00  0.00     0.023 A 
ATOM     75  C   UNL A   1      39.425  33.253  38.102  1.00  0.00     0.031 A 
ATOM     76  C   UNL A   1      40.220  35.151  36.852  1.00  0.00     0.131 A 
ATOM     77  C   UNL A   1      39.185  34.107  39.190  1.00  0.00     0.055 A 
ATOM     78  C   UNL A   1      40.038  35.985  37.958  1.00  0.00     0.041 A 
ATOM     79  F   UNL A   1      40.700  35.706  35.727  1.00  0.00    -0.206 F 
ATOM     80  C   UNL A   1      39.503  35.465  39.132  1.00  0.00     0.022 A 
BRANCH  77  81
ATOM     81  S   UNL A   1      38.356  33.430  40.655  1.00  0.00     0.124 S 
ATOM     82  O   UNL A   1      38.868  32.064  40.680  1.00  0.00    -0.237 OA
ATOM     83  O   UNL A   1      38.835  34.314  41.711  1.00  0.00    -0.237 OA
ATOM     84  O   UNL A   1      36.937  33.560  40.332  1.00  0.00    -0.744 OA
ENDBRANCH  77  81
ENDBRANCH  50  74
BRANCH  62  85
ATOM     85  C   UNL A   1      44.246  28.524  35.348  1.00  0.00     0.023 A 
ATOM     86  C   UNL A   1      44.042  27.558  36.349  1.00  0.00     0.031 A 
ATOM     87  C   UNL A   1      45.568  28.914  35.067  1.00  0.00     0.131 A 
ATOM     88  C   UNL A   1      45.136  27.059  37.073  1.00  0.00     0.055 A 
ATOM     89  C   UNL A   1      46.657  28.363  35.744  1.00  0.00     0.041 A 
ATOM     90  F   UNL A   1      45.824  29.835  34.125  1.00  0.00    -0.206 F 
ATOM     91  C   UNL A   1      46.444  27.440  36.763  1.00  0.00     0.022 A 
BRANCH  88  92
ATOM     92  S   UNL A   1      44.820  25.975  38.493  1.00  0.00     0.124 S 
ATOM     93  O   UNL A   1      45.882  26.367  39.415  1.00  0.00    -0.237 OA
ATOM     94  O   UNL A   1      43.466  26.356  38.882  1.00  0.00    -0.237 OA
ATOM     95  O   UNL A   1      44.949  24.631  37.936  1.00  0.00    -0.744 OA
ENDBRANCH  88  92
ENDBRANCH  62  85
ENDBRANCH  36  37
ENDBRANCH  28  31
ENDBRANCH  26  27
ENDBRANCH   1  26
TORSDOF 17
ENDMDL
MODEL 3
REMARK VINA RESULT:     -11.8      5.647      8.955
REMARK SMILES O=C(CN(C(=O)[C@H]1CC[C@H]2CCCC[C@H]2[NH2+]1)C1CC1)NCCCNC(=O)c1ccc(-c2c3nc(c(-c4cc(S(=O)(=O)[O-])ccc4F)c4ccc([nH]4)c(-c4cc(S(=O)(=O)[O-])ccc4F)c4nc(c(-c5cc(S(=O)(=O)[O-])ccc5F)c5ccc2[nH]5)C=C4)C=C3)cc1
REMARK SMILES IDX 22 1 21 2 20 3 1 4 2 5 3 7 4 8 5 9 6 10 7 11 8 12 16 13 9 14
REMARK SMILES IDX 15 15 10 18 14 19 11 20 13 21 12 22 17 23 18 24 19 25 23 26
REMARK SMILES IDX 24 27 25 28 26 30 27 31 28 32 89 33 29 34 88 35 30 36 31 37
REMARK SMILES IDX 32 38 82 39 33 40 87 41 81 42 83 43 34 44 86 45 80 46 79 47
REMARK SMILES IDX 35 49 67 50 47 51 66 52 48 53 51 54 65 55 84 56 49 57 50 58
REMARK SMILES IDX 64 60 85 61 52 62 36 63 37 64 45 65 38 66 44 67 46 68 43 69
REMARK SMILES IDX 39 70 40 71 41 72 42 73 68 74 69 75 77 76 70 77 76 78 78 79
REMARK SMILES IDX 75 80 71 81 72 82 73 83 74 84 53 85 54 86 62 87 55 88 61 89
REMARK SMILES IDX 63 90 60 91 56 92 57 93 58 94 59 95
REMARK H PARENT 20 6 16 16 16 17 24 29 83 48 51 59
REMARK Flexibility Score: inf
ROOT
ATOM      1  C   UNL A   1      36.212  20.854  25.197  1.00  0.00     0.042 C 
ENDROOT
BRANCH   1   2
ATOM      2  C   UNL A   1      35.188  21.768  24.527  1.00  0.00     0.117 C 
BRANCH   2   3
ATOM      3  N   UNL A   1      34.049  22.043  25.378  1.00  0.00    -0.354 N 
ATOM      4  O   UNL A   1      32.637  22.668  23.680  1.00  0.00    -0.273 OA
ATOM      5  C   UNL A   1      32.841  22.481  24.877  1.00  0.00     0.239 C 
ATOM      6  H   UNL A   1      34.140  21.912  26.349  1.00  0.00     0.163 HD
BRANCH   5   7
ATOM      7  C   UNL A   1      31.862  22.960  25.946  1.00  0.00     0.219 C 
BRANCH   7   8
ATOM      8  N   UNL A   1      31.621  24.411  26.013  1.00  0.00    -0.325 N 
BRANCH   8   9
ATOM      9  C   UNL A   1      30.420  25.055  25.695  1.00  0.00     0.281 C 
ATOM     10  O   UNL A   1      29.559  25.240  26.568  1.00  0.00    -0.268 OA
BRANCH   9  11
ATOM     11  C   UNL A   1      30.154  25.644  24.282  1.00  0.00     0.273 C 
ATOM     12  C   UNL A   1      29.783  27.124  24.427  1.00  0.00     0.076 C 
ATOM     13  N   UNL A   1      31.268  25.365  23.359  1.00  0.00    -0.333 N 
ATOM     14  C   UNL A   1      29.683  27.823  23.074  1.00  0.00     0.016 C 
ATOM     15  C   UNL A   1      31.193  26.080  22.081  1.00  0.00     0.186 C 
ATOM     16  H   UNL A   1      31.277  24.364  23.165  1.00  0.00     0.347 HD
ATOM     17  H   UNL A   1      32.116  25.690  23.823  1.00  0.00     0.347 HD
ATOM     18  C   UNL A   1      30.947  27.593  22.235  1.00  0.00     0.048 C 
ATOM     19  C   UNL A   1      32.497  25.861  21.304  1.00  0.00     0.065 C 
ATOM     20  C   UNL A   1      32.143  28.372  22.813  1.00  0.00     0.010 C 
ATOM     21  C   UNL A   1      33.701  26.462  22.022  1.00  0.00     0.006 C 
ATOM     22  C   UNL A   1      33.529  27.945  22.332  1.00  0.00     0.001 C 
ENDBRANCH   9  11
ENDBRANCH   8   9
BRANCH   8  23
ATOM     23  C   UNL A   1      32.680  25.221  26.592  1.00  0.00     0.086 C 
ATOM     24  C   UNL A   1      33.767  25.778  25.703  1.00  0.00     0.027 C 
ATOM     25  C   UNL A   1      32.827  26.710  26.403  1.00  0.00     0.027 C 
ENDBRANCH   8  23
ENDBRANCH   7   8
ENDBRANCH   5   7
ENDBRANCH   2   3
ENDBRANCH   1   2
BRANCH   1  26
ATOM     26  C   UNL A   1      37.670  21.228  24.935  1.00  0.00     0.118 C 
BRANCH  26  27
ATOM     27  N   UNL A   1      38.618  20.331  25.583  1.00  0.00    -0.352 N 
ATOM     28  C   UNL A   1      39.742  20.596  26.326  1.00  0.00     0.251 C 
ATOM     29  H   UNL A   1      38.419  19.373  25.468  1.00  0.00     0.163 HD
ATOM     30  O   UNL A   1      40.478  19.663  26.642  1.00  0.00    -0.269 OA
BRANCH  28  31
ATOM     31  C   UNL A   1      40.091  21.980  26.718  1.00  0.00     0.039 A 
ATOM     32  C   UNL A   1      41.084  22.169  27.685  1.00  0.00     0.014 A 
ATOM     33  C   UNL A   1      39.444  23.086  26.165  1.00  0.00     0.014 A 
ATOM     34  C   UNL A   1      41.488  23.463  28.027  1.00  0.00     0.010 A 
ATOM     35  C   UNL A   1      39.894  24.375  26.455  1.00  0.00     0.010 A 
ATOM     36  C   UNL A   1      40.934  24.577  27.377  1.00  0.00    -0.014 A 
BRANCH  36  37
ATOM     37  C   UNL A   1      41.459  25.949  27.616  1.00  0.00     0.031 A 
ATOM     38  C   UNL A   1      42.834  26.337  27.144  1.00  0.00     0.074 A 
ATOM     39  C   UNL A   1      40.717  26.828  28.319  1.00  0.00     0.049 A 
ATOM     40  N   UNL A   1      43.493  27.450  27.343  1.00  0.00    -0.248 NA
ATOM     41  C   UNL A   1      43.572  25.330  26.368  1.00  0.00     0.031 C 
ATOM     42  C   UNL A   1      39.378  26.566  28.852  1.00  0.00     0.029 A 
ATOM     43  N   UNL A   1      40.982  28.115  28.719  1.00  0.00    -0.354 N 
ATOM     44  C   UNL A   1      44.727  27.278  26.722  1.00  0.00     0.074 A 
ATOM     45  C   UNL A   1      44.740  25.931  26.191  1.00  0.00     0.031 C 
ATOM     46  C   UNL A   1      38.934  27.659  29.488  1.00  0.00     0.029 A 
ATOM     47  C   UNL A   1      39.973  28.683  29.464  1.00  0.00     0.049 A 
ATOM     48  H   UNL A   1      41.816  28.588  28.495  1.00  0.00     0.167 HD
ATOM     49  C   UNL A   1      45.743  28.167  26.594  1.00  0.00     0.034 A 
ATOM     50  C   UNL A   1      39.899  29.880  30.079  1.00  0.00     0.034 A 
ATOM     51  C   UNL A   1      45.714  29.508  27.131  1.00  0.00     0.049 A 
ATOM     52  C   UNL A   1      41.069  30.827  29.975  1.00  0.00     0.074 A 
ATOM     53  C   UNL A   1      46.669  30.504  27.014  1.00  0.00     0.029 A 
ATOM     54  N   UNL A   1      44.686  30.039  27.901  1.00  0.00    -0.354 N 
ATOM     55  N   UNL A   1      42.209  30.666  29.344  1.00  0.00    -0.248 NA
ATOM     56  C   UNL A   1      40.938  32.119  30.661  1.00  0.00     0.031 C 
ATOM     57  C   UNL A   1      46.258  31.601  27.777  1.00  0.00     0.029 A 
ATOM     58  C   UNL A   1      45.005  31.329  28.300  1.00  0.00     0.049 A 
ATOM     59  H   UNL A   1      43.852  29.568  28.129  1.00  0.00     0.167 HD
ATOM     60  C   UNL A   1      42.919  31.848  29.537  1.00  0.00     0.074 A 
ATOM     61  C   UNL A   1      42.069  32.719  30.323  1.00  0.00     0.031 C 
ATOM     62  C   UNL A   1      44.160  32.185  29.101  1.00  0.00     0.034 A 
BRANCH  49  63
ATOM     63  C   UNL A   1      46.987  27.705  25.872  1.00  0.00     0.023 A 
ATOM     64  C   UNL A   1      47.204  27.990  24.513  1.00  0.00     0.031 A 
ATOM     65  C   UNL A   1      47.967  26.955  26.548  1.00  0.00     0.131 A 
ATOM     66  C   UNL A   1      48.329  27.468  23.856  1.00  0.00     0.055 A 
ATOM     67  C   UNL A   1      49.128  26.511  25.910  1.00  0.00     0.041 A 
ATOM     68  F   UNL A   1      47.809  26.632  27.842  1.00  0.00    -0.206 F 
ATOM     69  C   UNL A   1      49.306  26.754  24.552  1.00  0.00     0.022 A 
BRANCH  66  70
ATOM     70  S   UNL A   1      48.418  27.608  22.050  1.00  0.00     0.124 S 
ATOM     71  O   UNL A   1      48.604  26.214  21.655  1.00  0.00    -0.237 OA
ATOM     72  O   UNL A   1      47.129  28.202  21.715  1.00  0.00    -0.237 OA
ATOM     73  O   UNL A   1      49.579  28.470  21.830  1.00  0.00    -0.744 OA
ENDBRANCH  66  70
ENDBRANCH  49  63
BRANCH  50  74
ATOM     74  C   UNL A   1      38.693  30.249  30.877  1.00  0.00     0.023 A 
ATOM     75  C   UNL A   1      37.637  30.972  30.300  1.00  0.00     0.031 A 
ATOM     76  C   UNL A   1      38.602  29.928  32.243  1.00  0.00     0.131 A 
ATOM     77  C   UNL A   1      36.560  31.393  31.097  1.00  0.00     0.055 A 
ATOM     78  C   UNL A   1      37.500  30.296  33.017  1.00  0.00     0.041 A 
ATOM     79  F   UNL A   1      39.584  29.239  32.847  1.00  0.00    -0.206 F 
ATOM     80  C   UNL A   1      36.477  31.046  32.447  1.00  0.00     0.022 A 
BRANCH  77  81
ATOM     81  S   UNL A   1      35.315  32.489  30.362  1.00  0.00     0.124 S 
ATOM     82  O   UNL A   1      34.355  32.619  31.453  1.00  0.00    -0.237 OA
ATOM     83  O   UNL A   1      36.102  33.677  30.052  1.00  0.00    -0.237 OA
ATOM     84  O   UNL A   1      34.844  31.736  29.201  1.00  0.00    -0.744 OA
ENDBRANCH  77  81
ENDBRANCH  50  74
BRANCH  62  85
ATOM     85  C   UNL A   1      44.655  33.572  29.438  1.00  0.00     0.023 A 
ATOM     86  C   UNL A   1      44.490  34.653  28.554  1.00  0.00     0.031 A 
ATOM     87  C   UNL A   1      45.311  33.813  30.659  1.00  0.00     0.131 A 
ATOM     88  C   UNL A   1      45.027  35.909  28.876  1.00  0.00     0.055 A 
ATOM     89  C   UNL A   1      45.782  35.080  31.004  1.00  0.00     0.041 A 
ATOM     90  F   UNL A   1      45.500  32.819  31.540  1.00  0.00    -0.206 F 
ATOM     91  C   UNL A   1      45.654  36.135  30.104  1.00  0.00     0.022 A 
BRANCH  88  92
ATOM     92  S   UNL A   1      44.981  37.224  27.628  1.00  0.00     0.124 S 
ATOM     93  O   UNL A   1      43.553  37.323  27.345  1.00  0.00    -0.237 OA
ATOM     94  O   UNL A   1      45.569  38.353  28.341  1.00  0.00    -0.237 OA
ATOM     95  O   UNL A   1      45.794  36.690  26.536  1.00  0.00    -0.744 OA
ENDBRANCH  88  92
ENDBRANCH  62  85
ENDBRANCH  36  37
ENDBRANCH  28  31
ENDBRANCH  26  27
ENDBRANCH   1  26
TORSDOF 17
ENDMDL
