MODEL 1
REMARK VINA RESULT:     -12.0      0.000      0.000
REMARK SMILES O=C(/C=N/O)Nc1cccc(C(=O)NCCCNC(=O)c2ccc(-c3c4nc(c(-c5cc(S(=O)(=O)[O-])ccc5F)c5ccc([nH]5)c(-c5cc(S(=O)(=O)[O-])ccc5F)c5nc(c(-c6cc(S(=O)(=O)[O-])ccc6F)c6ccc3[nH]6)C=C5)C=C4)cc2)c1
REMARK SMILES IDX 16 1 15 2 14 3 12 4 13 5 11 7 7 8 8 9 84 10 9 11 10 12 6 13
REMARK SMILES IDX 1 14 2 15 3 17 4 18 5 19 17 21 18 22 19 23 20 25 21 26 22 27
REMARK SMILES IDX 83 28 23 29 82 30 24 31 25 32 26 33 76 34 27 35 81 36 75 37
REMARK SMILES IDX 77 38 28 39 80 40 74 41 73 42 29 44 61 45 41 46 60 47 42 48
REMARK SMILES IDX 45 49 59 50 78 51 43 52 44 53 58 55 79 56 46 57 30 58 31 59
REMARK SMILES IDX 39 60 32 61 38 62 40 63 37 64 33 65 34 66 35 67 36 68 62 69
REMARK SMILES IDX 63 70 71 71 64 72 70 73 72 74 69 75 65 76 66 77 67 78 68 79
REMARK SMILES IDX 47 80 48 81 56 82 49 83 55 84 57 85 54 86 50 87 51 88 52 89
REMARK SMILES IDX 53 90
REMARK H PARENT 14 6 6 16 5 20 18 24 77 43 45 54
REMARK Flexibility Score: inf
ROOT
ATOM      1  C   UNL A   1      31.919  30.995  26.682  1.00  0.00     0.042 C 
ENDROOT
BRANCH   1   2
ATOM      2  C   UNL A   1      32.005  29.489  26.877  1.00  0.00     0.118 C 
BRANCH   2   3
ATOM      3  N   UNL A   1      33.037  28.825  26.081  1.00  0.00    -0.352 N 
ATOM      4  C   UNL A   1      33.024  28.262  24.820  1.00  0.00     0.251 C 
ATOM      5  O   UNL A   1      34.064  27.768  24.386  1.00  0.00    -0.269 OA
ATOM      6  H   UNL A   1      33.911  28.770  26.531  1.00  0.00     0.163 HD
BRANCH   4   7
ATOM      7  C   UNL A   1      31.784  28.157  24.003  1.00  0.00     0.041 A 
ATOM      8  C   UNL A   1      30.180  29.203  22.525  1.00  0.00     0.042 A 
ATOM      9  C   UNL A   1      29.243  28.220  22.853  1.00  0.00     0.026 A 
ATOM     10  C   UNL A   1      31.487  29.061  22.987  1.00  0.00     0.040 A 
ATOM     11  C   UNL A   1      29.598  27.165  23.699  1.00  0.00     0.003 A 
ATOM     12  C   UNL A   1      30.854  27.159  24.312  1.00  0.00     0.014 A 
BRANCH   8  13
ATOM     13  N   UNL A   1      29.738  30.378  21.879  1.00  0.00    -0.321 N 
ATOM     14  O   UNL A   1      28.166  31.247  23.396  1.00  0.00    -0.268 OA
ATOM     15  C   UNL A   1      28.703  31.196  22.303  1.00  0.00     0.270 C 
ATOM     16  H   UNL A   1      30.207  30.639  21.055  1.00  0.00     0.170 HD
BRANCH  15  17
ATOM     17  C   UNL A   1      28.155  32.110  21.239  1.00  0.00     0.225 C 
ATOM     18  N   UNL A   1      27.753  33.307  21.524  1.00  0.00    -0.092 NA
BRANCH  18  19
ATOM     19  O   UNL A   1      27.354  33.920  20.325  1.00  0.00    -0.411 OA
ATOM     20  H   UNL A   1      27.378  33.439  19.522  1.00  0.00     0.330 HD
ENDBRANCH  18  19
ENDBRANCH  15  17
ENDBRANCH   8  13
ENDBRANCH   4   7
ENDBRANCH   2   3
ENDBRANCH   1   2
BRANCH   1  21
ATOM     21  C   UNL A   1      33.116  31.780  27.190  1.00  0.00     0.118 C 
BRANCH  21  22
ATOM     22  N   UNL A   1      32.810  33.179  27.462  1.00  0.00    -0.352 N 
ATOM     23  C   UNL A   1      33.316  34.052  28.398  1.00  0.00     0.251 C 
ATOM     24  H   UNL A   1      32.122  33.566  26.875  1.00  0.00     0.163 HD
ATOM     25  O   UNL A   1      32.767  35.141  28.554  1.00  0.00    -0.269 OA
BRANCH  23  26
ATOM     26  C   UNL A   1      34.480  33.687  29.237  1.00  0.00     0.039 A 
ATOM     27  C   UNL A   1      34.293  32.822  30.320  1.00  0.00     0.014 A 
ATOM     28  C   UNL A   1      35.753  34.198  28.978  1.00  0.00     0.014 A 
ATOM     29  C   UNL A   1      35.392  32.393  31.070  1.00  0.00     0.010 A 
ATOM     30  C   UNL A   1      36.858  33.693  29.657  1.00  0.00     0.010 A 
ATOM     31  C   UNL A   1      36.693  32.776  30.706  1.00  0.00    -0.014 A 
BRANCH  31  32
ATOM     32  C   UNL A   1      37.893  32.218  31.387  1.00  0.00     0.031 A 
ATOM     33  C   UNL A   1      38.692  31.120  30.736  1.00  0.00     0.074 A 
ATOM     34  C   UNL A   1      38.208  32.639  32.630  1.00  0.00     0.049 A 
ATOM     35  N   UNL A   1      39.691  30.428  31.217  1.00  0.00    -0.248 NA
ATOM     36  C   UNL A   1      38.293  30.731  29.374  1.00  0.00     0.031 C 
ATOM     37  C   UNL A   1      37.483  33.667  33.382  1.00  0.00     0.029 A 
ATOM     38  N   UNL A   1      39.204  32.246  33.489  1.00  0.00    -0.354 N 
ATOM     39  C   UNL A   1      40.028  29.509  30.229  1.00  0.00     0.074 A 
ATOM     40  C   UNL A   1      39.089  29.697  29.144  1.00  0.00     0.031 C 
ATOM     41  C   UNL A   1      38.072  33.836  34.576  1.00  0.00     0.029 A 
ATOM     42  C   UNL A   1      39.174  32.891  34.706  1.00  0.00     0.049 A 
ATOM     43  H   UNL A   1      39.878  31.566  33.257  1.00  0.00     0.167 HD
ATOM     44  C   UNL A   1      41.039  28.604  30.221  1.00  0.00     0.034 A 
ATOM     45  C   UNL A   1      39.929  32.723  35.811  1.00  0.00     0.034 A 
ATOM     46  C   UNL A   1      41.975  28.442  31.307  1.00  0.00     0.049 A 
ATOM     47  C   UNL A   1      41.024  31.686  35.790  1.00  0.00     0.074 A 
ATOM     48  C   UNL A   1      43.079  27.610  31.372  1.00  0.00     0.029 A 
ATOM     49  N   UNL A   1      41.910  29.110  32.523  1.00  0.00    -0.354 N 
ATOM     50  N   UNL A   1      41.369  30.870  34.821  1.00  0.00    -0.248 NA
ATOM     51  C   UNL A   1      41.833  31.548  37.007  1.00  0.00     0.031 C 
ATOM     52  C   UNL A   1      43.630  27.712  32.654  1.00  0.00     0.029 A 
ATOM     53  C   UNL A   1      42.926  28.674  33.360  1.00  0.00     0.049 A 
ATOM     54  H   UNL A   1      41.242  29.794  32.756  1.00  0.00     0.167 HD
ATOM     55  C   UNL A   1      42.453  30.142  35.305  1.00  0.00     0.074 A 
ATOM     56  C   UNL A   1      42.715  30.630  36.643  1.00  0.00     0.031 C 
ATOM     57  C   UNL A   1      43.168  29.160  34.698  1.00  0.00     0.034 A 
BRANCH  44  58
ATOM     58  C   UNL A   1      41.167  27.703  29.016  1.00  0.00     0.023 A 
ATOM     59  C   UNL A   1      42.156  27.904  28.037  1.00  0.00     0.031 A 
ATOM     60  C   UNL A   1      40.281  26.624  28.840  1.00  0.00     0.131 A 
ATOM     61  C   UNL A   1      42.193  27.085  26.899  1.00  0.00     0.055 A 
ATOM     62  C   UNL A   1      40.375  25.761  27.746  1.00  0.00     0.041 A 
ATOM     63  F   UNL A   1      39.301  26.392  29.729  1.00  0.00    -0.206 F 
ATOM     64  C   UNL A   1      41.328  25.999  26.759  1.00  0.00     0.022 A 
BRANCH  61  65
ATOM     65  S   UNL A   1      43.300  27.546  25.537  1.00  0.00     0.124 S 
ATOM     66  O   UNL A   1      43.980  26.281  25.269  1.00  0.00    -0.237 OA
ATOM     67  O   UNL A   1      42.367  28.000  24.513  1.00  0.00    -0.237 OA
ATOM     68  O   UNL A   1      44.144  28.587  26.119  1.00  0.00    -0.744 OA
ENDBRANCH  61  65
ENDBRANCH  44  58
BRANCH  45  69
ATOM     69  C   UNL A   1      39.662  33.525  37.042  1.00  0.00     0.023 A 
ATOM     70  C   UNL A   1      40.396  34.687  37.325  1.00  0.00     0.031 A 
ATOM     71  C   UNL A   1      38.699  33.111  37.981  1.00  0.00     0.131 A 
ATOM     72  C   UNL A   1      40.195  35.366  38.538  1.00  0.00     0.055 A 
ATOM     73  C   UNL A   1      38.460  33.824  39.157  1.00  0.00     0.041 A 
ATOM     74  F   UNL A   1      37.967  32.006  37.764  1.00  0.00    -0.206 F 
ATOM     75  C   UNL A   1      39.220  34.952  39.447  1.00  0.00     0.022 A 
BRANCH  72  76
ATOM     76  S   UNL A   1      41.300  36.741  38.957  1.00  0.00     0.124 S 
ATOM     77  O   UNL A   1      42.052  36.905  37.717  1.00  0.00    -0.237 OA
ATOM     78  O   UNL A   1      40.354  37.803  39.280  1.00  0.00    -0.237 OA
ATOM     79  O   UNL A   1      42.068  36.226  40.089  1.00  0.00    -0.744 OA
ENDBRANCH  72  76
ENDBRANCH  45  69
BRANCH  57  80
ATOM     80  C   UNL A   1      44.328  28.576  35.469  1.00  0.00     0.023 A 
ATOM     81  C   UNL A   1      44.146  27.553  36.416  1.00  0.00     0.031 A 
ATOM     82  C   UNL A   1      45.634  29.048  35.247  1.00  0.00     0.131 A 
ATOM     83  C   UNL A   1      45.245  27.070  37.142  1.00  0.00     0.055 A 
ATOM     84  C   UNL A   1      46.732  28.518  35.924  1.00  0.00     0.041 A 
ATOM     85  F   UNL A   1      45.865  30.028  34.358  1.00  0.00    -0.206 F 
ATOM     86  C   UNL A   1      46.540  27.532  36.887  1.00  0.00     0.022 A 
BRANCH  83  87
ATOM     87  S   UNL A   1      44.951  25.893  38.489  1.00  0.00     0.124 S 
ATOM     88  O   UNL A   1      46.219  25.933  39.209  1.00  0.00    -0.237 OA
ATOM     89  O   UNL A   1      43.808  26.484  39.177  1.00  0.00    -0.237 OA
ATOM     90  O   UNL A   1      44.672  24.638  37.792  1.00  0.00    -0.744 OA
ENDBRANCH  83  87
ENDBRANCH  57  80
ENDBRANCH  31  32
ENDBRANCH  23  26
ENDBRANCH  21  22
ENDBRANCH   1  21
TORSDOF 16
ENDMDL
MODEL 2
REMARK VINA RESULT:     -11.7      6.712      9.962
REMARK SMILES O=C(/C=N/O)Nc1cccc(C(=O)NCCCNC(=O)c2ccc(-c3c4nc(c(-c5cc(S(=O)(=O)[O-])ccc5F)c5ccc([nH]5)c(-c5cc(S(=O)(=O)[O-])ccc5F)c5nc(c(-c6cc(S(=O)(=O)[O-])ccc6F)c6ccc3[nH]6)C=C5)C=C4)cc2)c1
REMARK SMILES IDX 16 1 15 2 14 3 12 4 13 5 11 7 7 8 8 9 84 10 9 11 10 12 6 13
REMARK SMILES IDX 1 14 2 15 3 17 4 18 5 19 17 21 18 22 19 23 20 25 21 26 22 27
REMARK SMILES IDX 83 28 23 29 82 30 24 31 25 32 26 33 76 34 27 35 81 36 75 37
REMARK SMILES IDX 77 38 28 39 80 40 74 41 73 42 29 44 61 45 41 46 60 47 42 48
REMARK SMILES IDX 45 49 59 50 78 51 43 52 44 53 58 55 79 56 46 57 30 58 31 59
REMARK SMILES IDX 39 60 32 61 38 62 40 63 37 64 33 65 34 66 35 67 36 68 62 69
REMARK SMILES IDX 63 70 71 71 64 72 70 73 72 74 69 75 65 76 66 77 67 78 68 79
REMARK SMILES IDX 47 80 48 81 56 82 49 83 55 84 57 85 54 86 50 87 51 88 52 89
REMARK SMILES IDX 53 90
REMARK H PARENT 14 6 6 16 5 20 18 24 77 43 45 54
REMARK Flexibility Score: inf
ROOT
ATOM      1  C   UNL A   1      36.135  20.885  25.089  1.00  0.00     0.042 C 
ENDROOT
BRANCH   1   2
ATOM      2  C   UNL A   1      35.353  21.490  26.244  1.00  0.00     0.118 C 
BRANCH   2   3
ATOM      3  N   UNL A   1      34.570  22.676  25.901  1.00  0.00    -0.352 N 
ATOM      4  C   UNL A   1      33.434  22.855  25.137  1.00  0.00     0.251 C 
ATOM      5  O   UNL A   1      32.975  23.992  25.023  1.00  0.00    -0.269 OA
ATOM      6  H   UNL A   1      34.920  23.510  26.291  1.00  0.00     0.163 HD
BRANCH   4   7
ATOM      7  C   UNL A   1      32.792  21.744  24.383  1.00  0.00     0.041 A 
ATOM      8  C   UNL A   1      32.285  19.386  24.199  1.00  0.00     0.042 A 
ATOM      9  C   UNL A   1      32.067  19.544  22.828  1.00  0.00     0.026 A 
ATOM     10  C   UNL A   1      32.490  20.522  24.979  1.00  0.00     0.040 A 
ATOM     11  C   UNL A   1      32.141  20.814  22.247  1.00  0.00     0.003 A 
ATOM     12  C   UNL A   1      32.550  21.906  23.015  1.00  0.00     0.014 A 
BRANCH   8  13
ATOM     13  N   UNL A   1      32.450  18.083  24.716  1.00  0.00    -0.321 N 
ATOM     14  O   UNL A   1      34.307  17.277  23.521  1.00  0.00    -0.268 OA
ATOM     15  C   UNL A   1      33.338  17.129  24.246  1.00  0.00     0.270 C 
ATOM     16  H   UNL A   1      31.883  17.829  25.480  1.00  0.00     0.170 HD
BRANCH  15  17
ATOM     17  C   UNL A   1      33.020  15.719  24.667  1.00  0.00     0.225 C 
ATOM     18  N   UNL A   1      33.863  15.017  25.355  1.00  0.00    -0.092 NA
BRANCH  18  19
ATOM     19  O   UNL A   1      33.260  13.780  25.635  1.00  0.00    -0.411 OA
ATOM     20  H   UNL A   1      33.779  13.068  25.953  1.00  0.00     0.330 HD
ENDBRANCH  18  19
ENDBRANCH  15  17
ENDBRANCH   8  13
ENDBRANCH   4   7
ENDBRANCH   2   3
ENDBRANCH   1   2
BRANCH   1  21
ATOM     21  C   UNL A   1      37.571  21.366  24.962  1.00  0.00     0.118 C 
BRANCH  21  22
ATOM     22  N   UNL A   1      38.535  20.460  25.576  1.00  0.00    -0.352 N 
ATOM     23  C   UNL A   1      39.685  20.708  26.290  1.00  0.00     0.251 C 
ATOM     24  H   UNL A   1      38.327  19.506  25.458  1.00  0.00     0.163 HD
ATOM     25  O   UNL A   1      40.435  19.771  26.553  1.00  0.00    -0.269 OA
BRANCH  23  26
ATOM     26  C   UNL A   1      40.044  22.081  26.712  1.00  0.00     0.039 A 
ATOM     27  C   UNL A   1      41.089  22.259  27.625  1.00  0.00     0.014 A 
ATOM     28  C   UNL A   1      39.355  23.195  26.230  1.00  0.00     0.014 A 
ATOM     29  C   UNL A   1      41.503  23.550  27.969  1.00  0.00     0.010 A 
ATOM     30  C   UNL A   1      39.832  24.476  26.491  1.00  0.00     0.010 A 
ATOM     31  C   UNL A   1      40.919  24.670  27.357  1.00  0.00    -0.014 A 
BRANCH  31  32
ATOM     32  C   UNL A   1      41.438  26.046  27.584  1.00  0.00     0.031 A 
ATOM     33  C   UNL A   1      42.805  26.434  27.085  1.00  0.00     0.074 A 
ATOM     34  C   UNL A   1      40.714  26.917  28.317  1.00  0.00     0.049 A 
ATOM     35  N   UNL A   1      43.477  27.537  27.285  1.00  0.00    -0.248 NA
ATOM     36  C   UNL A   1      43.523  25.432  26.281  1.00  0.00     0.031 C 
ATOM     37  C   UNL A   1      39.393  26.643  28.891  1.00  0.00     0.029 A 
ATOM     38  N   UNL A   1      40.987  28.200  28.723  1.00  0.00    -0.354 N 
ATOM     39  C   UNL A   1      44.701  27.358  26.651  1.00  0.00     0.074 A 
ATOM     40  C   UNL A   1      44.699  26.017  26.107  1.00  0.00     0.031 C 
ATOM     41  C   UNL A   1      38.966  27.730  29.553  1.00  0.00     0.029 A 
ATOM     42  C   UNL A   1      40.001  28.756  29.508  1.00  0.00     0.049 A 
ATOM     43  H   UNL A   1      41.812  28.679  28.476  1.00  0.00     0.167 HD
ATOM     44  C   UNL A   1      45.725  28.239  26.519  1.00  0.00     0.034 A 
ATOM     45  C   UNL A   1      39.946  29.945  30.143  1.00  0.00     0.034 A 
ATOM     46  C   UNL A   1      45.702  29.578  27.055  1.00  0.00     0.049 A 
ATOM     47  C   UNL A   1      41.112  30.892  30.011  1.00  0.00     0.074 A 
ATOM     48  C   UNL A   1      46.651  30.575  26.917  1.00  0.00     0.029 A 
ATOM     49  N   UNL A   1      44.688  30.103  27.847  1.00  0.00    -0.354 N 
ATOM     50  N   UNL A   1      42.236  30.730  29.350  1.00  0.00    -0.248 NA
ATOM     51  C   UNL A   1      41.003  32.182  30.703  1.00  0.00     0.031 C 
ATOM     52  C   UNL A   1      46.254  31.670  27.691  1.00  0.00     0.029 A 
ATOM     53  C   UNL A   1      45.012  31.392  28.241  1.00  0.00     0.049 A 
ATOM     54  H   UNL A   1      43.861  29.630  28.091  1.00  0.00     0.167 HD
ATOM     55  C   UNL A   1      42.954  31.910  29.529  1.00  0.00     0.074 A 
ATOM     56  C   UNL A   1      42.128  32.780  30.339  1.00  0.00     0.031 C 
ATOM     57  C   UNL A   1      44.184  32.245  29.062  1.00  0.00     0.034 A 
BRANCH  44  58
ATOM     58  C   UNL A   1      46.964  27.772  25.791  1.00  0.00     0.023 A 
ATOM     59  C   UNL A   1      47.173  28.044  24.428  1.00  0.00     0.031 A 
ATOM     60  C   UNL A   1      47.953  27.040  26.473  1.00  0.00     0.131 A 
ATOM     61  C   UNL A   1      48.305  27.532  23.776  1.00  0.00     0.055 A 
ATOM     62  C   UNL A   1      49.117  26.603  25.838  1.00  0.00     0.041 A 
ATOM     63  F   UNL A   1      47.801  26.730  27.771  1.00  0.00    -0.206 F 
ATOM     64  C   UNL A   1      49.291  26.836  24.477  1.00  0.00     0.022 A 
BRANCH  61  65
ATOM     65  S   UNL A   1      48.399  27.668  21.970  1.00  0.00     0.124 S 
ATOM     66  O   UNL A   1      49.574  28.519  21.799  1.00  0.00    -0.237 OA
ATOM     67  O   UNL A   1      48.551  26.278  21.557  1.00  0.00    -0.237 OA
ATOM     68  O   UNL A   1      47.129  28.292  21.606  1.00  0.00    -0.744 OA
ENDBRANCH  61  65
ENDBRANCH  44  58
BRANCH  45  69
ATOM     69  C   UNL A   1      38.767  30.300  30.988  1.00  0.00     0.023 A 
ATOM     70  C   UNL A   1      37.688  31.025  30.461  1.00  0.00     0.031 A 
ATOM     71  C   UNL A   1      38.727  29.961  32.353  1.00  0.00     0.131 A 
ATOM     72  C   UNL A   1      36.640  31.434  31.302  1.00  0.00     0.055 A 
ATOM     73  C   UNL A   1      37.653  30.316  33.172  1.00  0.00     0.041 A 
ATOM     74  F   UNL A   1      39.732  29.268  32.913  1.00  0.00    -0.206 F 
ATOM     75  C   UNL A   1      36.608  31.070  32.650  1.00  0.00     0.022 A 
BRANCH  72  76
ATOM     76  S   UNL A   1      35.368  32.539  30.631  1.00  0.00     0.124 S 
ATOM     77  O   UNL A   1      36.111  33.785  30.477  1.00  0.00    -0.237 OA
ATOM     78  O   UNL A   1      34.993  31.857  29.398  1.00  0.00    -0.237 OA
ATOM     79  O   UNL A   1      34.343  32.548  31.673  1.00  0.00    -0.744 OA
ENDBRANCH  72  76
ENDBRANCH  45  69
BRANCH  57  80
ATOM     80  C   UNL A   1      44.693  33.628  29.391  1.00  0.00     0.023 A 
ATOM     81  C   UNL A   1      44.327  34.751  28.630  1.00  0.00     0.031 A 
ATOM     82  C   UNL A   1      45.553  33.823  30.486  1.00  0.00     0.131 A 
ATOM     83  C   UNL A   1      44.858  36.011  28.943  1.00  0.00     0.055 A 
ATOM     84  C   UNL A   1      46.026  35.088  30.833  1.00  0.00     0.041 A 
ATOM     85  F   UNL A   1      45.940  32.784  31.245  1.00  0.00    -0.206 F 
ATOM     86  C   UNL A   1      45.689  36.190  30.053  1.00  0.00     0.022 A 
BRANCH  83  87
ATOM     87  S   UNL A   1      44.522  37.401  27.829  1.00  0.00     0.124 S 
ATOM     88  O   UNL A   1      45.866  37.799  27.426  1.00  0.00    -0.237 OA
ATOM     89  O   UNL A   1      43.703  36.780  26.792  1.00  0.00    -0.237 OA
ATOM     90  O   UNL A   1      43.819  38.360  28.679  1.00  0.00    -0.744 OA
ENDBRANCH  83  87
ENDBRANCH  57  80
ENDBRANCH  31  32
ENDBRANCH  23  26
ENDBRANCH  21  22
ENDBRANCH   1  21
TORSDOF 16
ENDMDL
MODEL 3
REMARK VINA RESULT:     -11.7      6.834     11.683
REMARK SMILES O=C(/C=N/O)Nc1cccc(C(=O)NCCCNC(=O)c2ccc(-c3c4nc(c(-c5cc(S(=O)(=O)[O-])ccc5F)c5ccc([nH]5)c(-c5cc(S(=O)(=O)[O-])ccc5F)c5nc(c(-c6cc(S(=O)(=O)[O-])ccc6F)c6ccc3[nH]6)C=C5)C=C4)cc2)c1
REMARK SMILES IDX 16 1 15 2 14 3 12 4 13 5 11 7 7 8 8 9 84 10 9 11 10 12 6 13
REMARK SMILES IDX 1 14 2 15 3 17 4 18 5 19 17 21 18 22 19 23 20 25 21 26 22 27
REMARK SMILES IDX 83 28 23 29 82 30 24 31 25 32 26 33 76 34 27 35 81 36 75 37
REMARK SMILES IDX 77 38 28 39 80 40 74 41 73 42 29 44 61 45 41 46 60 47 42 48
REMARK SMILES IDX 45 49 59 50 78 51 43 52 44 53 58 55 79 56 46 57 30 58 31 59
REMARK SMILES IDX 39 60 32 61 38 62 40 63 37 64 33 65 34 66 35 67 36 68 62 69
REMARK SMILES IDX 63 70 71 71 64 72 70 73 72 74 69 75 65 76 66 77 67 78 68 79
REMARK SMILES IDX 47 80 48 81 56 82 49 83 55 84 57 85 54 86 50 87 51 88 52 89
REMARK SMILES IDX 53 90
REMARK H PARENT 14 6 6 16 5 20 18 24 77 43 45 54
REMARK Flexibility Score: inf
ROOT
ATOM      1  C   UNL A   1      37.013  21.898  23.912  1.00  0.00     0.042 C 
ENDROOT
BRANCH   1   2
ATOM      2  C   UNL A   1      36.042  23.017  23.565  1.00  0.00     0.118 C 
BRANCH   2   3
ATOM      3  N   UNL A   1      35.145  23.410  24.651  1.00  0.00    -0.352 N 
ATOM      4  C   UNL A   1      33.909  22.948  25.054  1.00  0.00     0.251 C 
ATOM      5  O   UNL A   1      33.375  23.473  26.031  1.00  0.00    -0.269 OA
ATOM      6  H   UNL A   1      35.491  24.149  25.203  1.00  0.00     0.163 HD
BRANCH   4   7
ATOM      7  C   UNL A   1      33.164  21.899  24.306  1.00  0.00     0.041 A 
ATOM      8  C   UNL A   1      32.839  19.559  23.786  1.00  0.00     0.042 A 
ATOM      9  C   UNL A   1      32.182  19.916  22.607  1.00  0.00     0.026 A 
ATOM     10  C   UNL A   1      33.179  20.561  24.693  1.00  0.00     0.040 A 
ATOM     11  C   UNL A   1      31.951  21.264  22.311  1.00  0.00     0.003 A 
ATOM     12  C   UNL A   1      32.483  22.256  23.137  1.00  0.00     0.014 A 
BRANCH   8  13
ATOM     13  N   UNL A   1      33.278  18.227  23.945  1.00  0.00    -0.321 N 
ATOM     14  O   UNL A   1      32.223  17.562  25.938  1.00  0.00    -0.268 OA
ATOM     15  C   UNL A   1      33.042  17.420  25.046  1.00  0.00     0.270 C 
ATOM     16  H   UNL A   1      33.799  17.835  23.207  1.00  0.00     0.170 HD
BRANCH  15  17
ATOM     17  C   UNL A   1      33.962  16.233  25.160  1.00  0.00     0.225 C 
ATOM     18  N   UNL A   1      35.246  16.368  25.073  1.00  0.00    -0.092 NA
BRANCH  18  19
ATOM     19  O   UNL A   1      35.824  15.104  25.271  1.00  0.00    -0.411 OA
ATOM     20  H   UNL A   1      36.025  14.560  24.536  1.00  0.00     0.330 HD
ENDBRANCH  18  19
ENDBRANCH  15  17
ENDBRANCH   8  13
ENDBRANCH   4   7
ENDBRANCH   2   3
ENDBRANCH   1   2
BRANCH   1  21
ATOM     21  C   UNL A   1      37.153  21.605  25.396  1.00  0.00     0.118 C 
BRANCH  21  22
ATOM     22  N   UNL A   1      38.202  20.638  25.693  1.00  0.00    -0.352 N 
ATOM     23  C   UNL A   1      39.470  20.803  26.205  1.00  0.00     0.251 C 
ATOM     24  H   UNL A   1      37.964  19.705  25.491  1.00  0.00     0.163 HD
ATOM     25  O   UNL A   1      40.243  19.848  26.197  1.00  0.00    -0.269 OA
BRANCH  23  26
ATOM     26  C   UNL A   1      39.920  22.112  26.730  1.00  0.00     0.039 A 
ATOM     27  C   UNL A   1      40.865  22.141  27.761  1.00  0.00     0.014 A 
ATOM     28  C   UNL A   1      39.412  23.312  26.229  1.00  0.00     0.014 A 
ATOM     29  C   UNL A   1      41.371  23.366  28.210  1.00  0.00     0.010 A 
ATOM     30  C   UNL A   1      39.988  24.522  26.602  1.00  0.00     0.010 A 
ATOM     31  C   UNL A   1      40.982  24.565  27.591  1.00  0.00    -0.014 A 
BRANCH  31  32
ATOM     32  C   UNL A   1      41.613  25.866  27.941  1.00  0.00     0.031 A 
ATOM     33  C   UNL A   1      40.811  26.935  28.638  1.00  0.00     0.074 A 
ATOM     34  C   UNL A   1      42.879  26.117  27.551  1.00  0.00     0.049 A 
ATOM     35  N   UNL A   1      41.144  28.167  28.919  1.00  0.00    -0.248 NA
ATOM     36  C   UNL A   1      39.443  26.575  29.043  1.00  0.00     0.031 C 
ATOM     37  C   UNL A   1      43.743  25.176  26.832  1.00  0.00     0.029 A 
ATOM     38  N   UNL A   1      43.659  27.240  27.685  1.00  0.00    -0.354 N 
ATOM     39  C   UNL A   1      40.024  28.737  29.515  1.00  0.00     0.074 A 
ATOM     40  C   UNL A   1      38.986  27.730  29.503  1.00  0.00     0.031 C 
ATOM     41  C   UNL A   1      44.935  25.753  26.610  1.00  0.00     0.029 A 
ATOM     42  C   UNL A   1      44.905  27.122  27.110  1.00  0.00     0.049 A 
ATOM     43  H   UNL A   1      43.355  28.054  28.149  1.00  0.00     0.167 HD
ATOM     44  C   UNL A   1      39.884  29.981  30.039  1.00  0.00     0.034 A 
ATOM     45  C   UNL A   1      45.902  28.021  26.976  1.00  0.00     0.034 A 
ATOM     46  C   UNL A   1      40.937  30.966  30.055  1.00  0.00     0.049 A 
ATOM     47  C   UNL A   1      45.707  29.408  27.536  1.00  0.00     0.074 A 
ATOM     48  C   UNL A   1      40.926  32.227  30.625  1.00  0.00     0.029 A 
ATOM     49  N   UNL A   1      42.183  30.812  29.460  1.00  0.00    -0.354 N 
ATOM     50  N   UNL A   1      44.663  29.909  28.155  1.00  0.00    -0.248 NA
ATOM     51  C   UNL A   1      46.824  30.350  27.384  1.00  0.00     0.031 C 
ATOM     52  C   UNL A   1      42.128  32.864  30.304  1.00  0.00     0.029 A 
ATOM     53  C   UNL A   1      42.929  31.971  29.611  1.00  0.00     0.049 A 
ATOM     54  H   UNL A   1      42.492  29.998  29.001  1.00  0.00     0.167 HD
ATOM     55  C   UNL A   1      45.010  31.216  28.488  1.00  0.00     0.074 A 
ATOM     56  C   UNL A   1      46.365  31.417  28.020  1.00  0.00     0.031 C 
ATOM     57  C   UNL A   1      44.276  32.163  29.126  1.00  0.00     0.034 A 
BRANCH  44  58
ATOM     58  C   UNL A   1      38.536  30.353  30.612  1.00  0.00     0.023 A 
ATOM     59  C   UNL A   1      37.543  30.974  29.835  1.00  0.00     0.031 A 
ATOM     60  C   UNL A   1      38.241  30.086  31.961  1.00  0.00     0.131 A 
ATOM     61  C   UNL A   1      36.333  31.365  30.426  1.00  0.00     0.055 A 
ATOM     62  C   UNL A   1      37.003  30.403  32.523  1.00  0.00     0.041 A 
ATOM     63  F   UNL A   1      39.156  29.514  32.761  1.00  0.00    -0.206 F 
ATOM     64  C   UNL A   1      36.044  31.060  31.757  1.00  0.00     0.022 A 
BRANCH  61  65
ATOM     65  S   UNL A   1      35.196  32.403  29.465  1.00  0.00     0.124 S 
ATOM     66  O   UNL A   1      36.117  33.351  28.842  1.00  0.00    -0.237 OA
ATOM     67  O   UNL A   1      34.569  31.438  28.570  1.00  0.00    -0.237 OA
ATOM     68  O   UNL A   1      34.316  32.977  30.481  1.00  0.00    -0.744 OA
ENDBRANCH  61  65
ENDBRANCH  44  58
BRANCH  45  69
ATOM     69  C   UNL A   1      47.159  27.659  26.256  1.00  0.00     0.023 A 
ATOM     70  C   UNL A   1      47.303  27.900  24.881  1.00  0.00     0.031 A 
ATOM     71  C   UNL A   1      48.217  27.017  26.925  1.00  0.00     0.131 A 
ATOM     72  C   UNL A   1      48.454  27.457  24.208  1.00  0.00     0.055 A 
ATOM     73  C   UNL A   1      49.386  26.635  26.264  1.00  0.00     0.041 A 
ATOM     74  F   UNL A   1      48.134  26.760  28.241  1.00  0.00    -0.206 F 
ATOM     75  C   UNL A   1      49.503  26.841  24.894  1.00  0.00     0.022 A 
BRANCH  72  76
ATOM     76  S   UNL A   1      48.516  27.605  22.402  1.00  0.00     0.124 S 
ATOM     77  O   UNL A   1      47.275  28.319  22.121  1.00  0.00    -0.237 OA
ATOM     78  O   UNL A   1      49.750  28.357  22.201  1.00  0.00    -0.237 OA
ATOM     79  O   UNL A   1      48.554  26.216  21.949  1.00  0.00    -0.744 OA
ENDBRANCH  72  76
ENDBRANCH  45  69
BRANCH  57  80
ATOM     80  C   UNL A   1      44.942  33.493  29.385  1.00  0.00     0.023 A 
ATOM     81  C   UNL A   1      44.831  34.564  28.482  1.00  0.00     0.031 A 
ATOM     82  C   UNL A   1      45.697  33.690  30.555  1.00  0.00     0.131 A 
ATOM     83  C   UNL A   1      45.503  35.768  28.740  1.00  0.00     0.055 A 
ATOM     84  C   UNL A   1      46.309  34.911  30.838  1.00  0.00     0.041 A 
ATOM     85  F   UNL A   1      45.842  32.699  31.450  1.00  0.00    -0.206 F 
ATOM     86  C   UNL A   1      46.225  35.955  29.923  1.00  0.00     0.022 A 
BRANCH  83  87
ATOM     87  S   UNL A   1      45.498  37.060  27.468  1.00  0.00     0.124 S 
ATOM     88  O   UNL A   1      44.108  37.041  27.023  1.00  0.00    -0.237 OA
ATOM     89  O   UNL A   1      45.910  38.241  28.219  1.00  0.00    -0.237 OA
ATOM     90  O   UNL A   1      46.470  36.580  26.488  1.00  0.00    -0.744 OA
ENDBRANCH  83  87
ENDBRANCH  57  80
ENDBRANCH  31  32
ENDBRANCH  23  26
ENDBRANCH  21  22
ENDBRANCH   1  21
TORSDOF 16
ENDMDL
