MODEL 1
REMARK VINA RESULT:     -13.2      0.000      0.000
REMARK SMILES Cc1ccccc1/C=C1\SC(=S)N(CCC(=O)N[C@@H](C)C(=O)NCCCNC(=O)c2ccc(-c3c4nc(c(-c5cc(S(=O)(=O)[O-])ccc5F)c5ccc([nH]5)c(-c5cc(S(=O)(=O)[O-])ccc5F)c5nc(c(-c6cc(S(=O)(=O)[O-])ccc6F)c6ccc3[nH]6)C=C5)C=C4)cc2)C1=O
REMARK SMILES IDX 24 1 23 2 21 3 22 4 19 6 20 7 18 8 16 9 17 10 15 12 14 13
REMARK SMILES IDX 13 14 8 15 9 16 10 17 93 18 11 19 94 20 12 21 7 22 1 23 2 24
REMARK SMILES IDX 3 25 4 26 6 27 5 28 25 29 26 30 27 31 28 32 29 34 30 35
REMARK SMILES IDX 31 36 92 37 32 38 91 39 33 40 34 41 35 42 85 43 36 44 90 45
REMARK SMILES IDX 84 46 86 47 37 48 89 49 83 50 82 51 38 53 70 54 50 55 69 56
REMARK SMILES IDX 51 57 54 58 68 59 87 60 52 61 53 62 67 64 88 65 55 66 39 67
REMARK SMILES IDX 40 68 48 69 41 70 47 71 49 72 46 73 42 74 43 75 44 76 45 77
REMARK SMILES IDX 71 78 72 79 80 80 73 81 79 82 81 83 78 84 74 85 75 86 76 87
REMARK SMILES IDX 77 88 56 89 57 90 65 91 58 92 64 93 66 94 63 95 59 96 60 97
REMARK SMILES IDX 61 98 62 99
REMARK H PARENT 23 5 18 11 27 33 86 52 54 63
REMARK Flexibility Score: inf
ROOT
ATOM      1  C   UNL A   1      32.350  29.992  26.046  1.00  0.00     0.117 C 
ENDROOT
BRANCH   1   2
ATOM      2  N   UNL A   1      31.857  28.680  26.469  1.00  0.00    -0.354 N 
ATOM      3  C   UNL A   1      31.378  27.597  25.804  1.00  0.00     0.242 C 
ATOM      4  O   UNL A   1      30.888  26.693  26.494  1.00  0.00    -0.273 OA
ATOM      5  H   UNL A   1      31.877  28.557  27.446  1.00  0.00     0.163 HD
BRANCH   3   6
ATOM      6  C   UNL A   1      31.391  27.429  24.261  1.00  0.00     0.168 C 
ATOM      7  C   UNL A   1      30.226  27.986  23.479  1.00  0.00     0.041 C 
BRANCH   6   8
ATOM      8  N   UNL A   1      31.536  26.028  23.854  1.00  0.00    -0.345 N 
ATOM      9  C   UNL A   1      32.703  25.383  23.555  1.00  0.00     0.222 C 
ATOM     10  O   UNL A   1      32.690  24.454  22.747  1.00  0.00    -0.275 OA
ATOM     11  H   UNL A   1      30.708  25.498  23.789  1.00  0.00     0.164 HD
BRANCH   9  12
ATOM     12  C   UNL A   1      33.983  25.775  24.274  1.00  0.00     0.122 C 
BRANCH  12  13
ATOM     13  C   UNL A   1      34.150  25.233  25.704  1.00  0.00     0.137 C 
BRANCH  13  14
ATOM     14  N   UNL A   1      34.298  23.766  25.777  1.00  0.00    -0.292 N 
ATOM     15  C   UNL A   1      32.477  20.741  25.378  1.00  0.00     0.029 C 
ATOM     16  C   UNL A   1      33.479  21.570  25.701  1.00  0.00     0.081 C 
ATOM     17  S   UNL A   1      35.167  21.347  25.533  1.00  0.00    -0.054 SA
ATOM     18  C   UNL A   1      33.195  22.981  26.071  1.00  0.00     0.266 C 
ATOM     19  C   UNL A   1      35.489  23.075  25.677  1.00  0.00     0.148 C 
ATOM     20  O   UNL A   1      32.127  23.370  26.525  1.00  0.00    -0.268 OA
ATOM     21  S   UNL A   1      37.040  23.690  25.693  1.00  0.00    -0.052 S 
BRANCH  15  22
ATOM     22  C   UNL A   1      32.584  19.430  24.723  1.00  0.00    -0.021 A 
ATOM     23  C   UNL A   1      32.153  20.466  22.444  1.00  0.00     0.045 C 
ATOM     24  C   UNL A   1      32.493  19.299  23.327  1.00  0.00    -0.044 A 
ATOM     25  C   UNL A   1      32.715  18.040  22.744  1.00  0.00     0.004 A 
ATOM     26  C   UNL A   1      33.062  16.940  23.527  1.00  0.00     0.000 A 
ATOM     27  C   UNL A   1      32.914  18.310  25.502  1.00  0.00     0.008 A 
ATOM     28  C   UNL A   1      33.161  17.075  24.906  1.00  0.00     0.001 A 
ENDBRANCH  15  22
ENDBRANCH  13  14
ENDBRANCH  12  13
ENDBRANCH   9  12
ENDBRANCH   6   8
ENDBRANCH   3   6
ENDBRANCH   1   2
BRANCH   1  29
ATOM     29  C   UNL A   1      32.821  30.827  27.239  1.00  0.00     0.042 C 
BRANCH  29  30
ATOM     30  C   UNL A   1      34.185  30.371  27.727  1.00  0.00     0.118 C 
BRANCH  30  31
ATOM     31  N   UNL A   1      34.806  31.248  28.714  1.00  0.00    -0.352 N 
ATOM     32  C   UNL A   1      35.909  30.995  29.513  1.00  0.00     0.251 C 
ATOM     33  H   UNL A   1      34.388  32.132  28.825  1.00  0.00     0.163 HD
ATOM     34  O   UNL A   1      36.249  31.763  30.398  1.00  0.00    -0.269 OA
BRANCH  32  35
ATOM     35  C   UNL A   1      36.742  29.813  29.189  1.00  0.00     0.039 A 
ATOM     36  C   UNL A   1      37.049  28.940  30.238  1.00  0.00     0.014 A 
ATOM     37  C   UNL A   1      37.435  29.753  27.983  1.00  0.00     0.014 A 
ATOM     38  C   UNL A   1      38.208  28.174  30.164  1.00  0.00     0.010 A 
ATOM     39  C   UNL A   1      38.644  29.088  27.958  1.00  0.00     0.010 A 
ATOM     40  C   UNL A   1      39.058  28.346  29.071  1.00  0.00    -0.014 A 
BRANCH  40  41
ATOM     41  C   UNL A   1      40.442  27.883  29.062  1.00  0.00     0.031 A 
ATOM     42  C   UNL A   1      40.763  26.522  28.584  1.00  0.00     0.074 A 
ATOM     43  C   UNL A   1      41.432  28.702  29.473  1.00  0.00     0.049 A 
ATOM     44  N   UNL A   1      41.808  25.850  28.927  1.00  0.00    -0.248 NA
ATOM     45  C   UNL A   1      39.866  25.780  27.706  1.00  0.00     0.031 C 
ATOM     46  C   UNL A   1      42.871  28.509  29.318  1.00  0.00     0.029 A 
ATOM     47  N   UNL A   1      41.326  29.780  30.343  1.00  0.00    -0.354 N 
ATOM     48  C   UNL A   1      41.863  24.720  28.140  1.00  0.00     0.074 A 
ATOM     49  C   UNL A   1      40.603  24.700  27.435  1.00  0.00     0.031 C 
ATOM     50  C   UNL A   1      43.512  29.261  30.227  1.00  0.00     0.029 A 
ATOM     51  C   UNL A   1      42.505  29.845  31.097  1.00  0.00     0.049 A 
ATOM     52  H   UNL A   1      40.557  30.390  30.418  1.00  0.00     0.167 HD
ATOM     53  C   UNL A   1      43.016  23.995  28.078  1.00  0.00     0.034 A 
ATOM     54  C   UNL A   1      42.474  29.714  32.455  1.00  0.00     0.034 A 
ATOM     55  C   UNL A   1      44.023  24.516  29.003  1.00  0.00     0.049 A 
ATOM     56  C   UNL A   1      43.242  28.516  32.969  1.00  0.00     0.074 A 
ATOM     57  C   UNL A   1      45.109  25.360  28.832  1.00  0.00     0.029 A 
ATOM     58  N   UNL A   1      43.812  24.421  30.374  1.00  0.00    -0.354 N 
ATOM     59  N   UNL A   1      43.644  27.525  32.223  1.00  0.00    -0.248 NA
ATOM     60  C   UNL A   1      43.582  28.331  34.377  1.00  0.00     0.031 C 
ATOM     61  C   UNL A   1      45.493  25.843  30.111  1.00  0.00     0.029 A 
ATOM     62  C   UNL A   1      44.671  25.260  31.061  1.00  0.00     0.049 A 
ATOM     63  H   UNL A   1      43.143  23.836  30.799  1.00  0.00     0.167 HD
ATOM     64  C   UNL A   1      44.212  26.560  33.014  1.00  0.00     0.074 A 
ATOM     65  C   UNL A   1      44.196  27.136  34.348  1.00  0.00     0.031 C 
ATOM     66  C   UNL A   1      44.612  25.353  32.514  1.00  0.00     0.034 A 
BRANCH  53  67
ATOM     67  C   UNL A   1      43.334  23.021  26.963  1.00  0.00     0.023 A 
ATOM     68  C   UNL A   1      42.812  21.711  27.021  1.00  0.00     0.031 A 
ATOM     69  C   UNL A   1      44.178  23.279  25.865  1.00  0.00     0.131 A 
ATOM     70  C   UNL A   1      43.219  20.714  26.113  1.00  0.00     0.055 A 
ATOM     71  C   UNL A   1      44.642  22.274  25.005  1.00  0.00     0.041 A 
ATOM     72  F   UNL A   1      44.544  24.523  25.535  1.00  0.00    -0.206 F 
ATOM     73  C   UNL A   1      44.174  20.977  25.136  1.00  0.00     0.022 A 
BRANCH  70  74
ATOM     74  S   UNL A   1      42.470  19.065  26.214  1.00  0.00     0.124 S 
ATOM     75  O   UNL A   1      42.309  18.883  27.652  1.00  0.00    -0.237 OA
ATOM     76  O   UNL A   1      41.244  19.237  25.442  1.00  0.00    -0.237 OA
ATOM     77  O   UNL A   1      43.472  18.200  25.592  1.00  0.00    -0.744 OA
ENDBRANCH  70  74
ENDBRANCH  53  67
BRANCH  54  78
ATOM     78  C   UNL A   1      41.232  30.259  33.077  1.00  0.00     0.023 A 
ATOM     79  C   UNL A   1      41.133  31.660  33.186  1.00  0.00     0.031 A 
ATOM     80  C   UNL A   1      40.053  29.510  33.189  1.00  0.00     0.131 A 
ATOM     81  C   UNL A   1      39.876  32.279  33.222  1.00  0.00     0.055 A 
ATOM     82  C   UNL A   1      38.802  30.132  33.302  1.00  0.00     0.041 A 
ATOM     83  F   UNL A   1      40.077  28.175  33.061  1.00  0.00    -0.206 F 
ATOM     84  C   UNL A   1      38.705  31.525  33.273  1.00  0.00     0.022 A 
BRANCH  81  85
ATOM     85  S   UNL A   1      39.819  34.067  32.914  1.00  0.00     0.124 S 
ATOM     86  O   UNL A   1      41.079  34.517  33.495  1.00  0.00    -0.237 OA
ATOM     87  O   UNL A   1      39.738  34.118  31.455  1.00  0.00    -0.237 OA
ATOM     88  O   UNL A   1      38.608  34.505  33.602  1.00  0.00    -0.744 OA
ENDBRANCH  81  85
ENDBRANCH  54  78
BRANCH  66  89
ATOM     89  C   UNL A   1      45.035  24.167  33.353  1.00  0.00     0.023 A 
ATOM     90  C   UNL A   1      46.283  24.078  33.987  1.00  0.00     0.031 A 
ATOM     91  C   UNL A   1      44.136  23.105  33.614  1.00  0.00     0.131 A 
ATOM     92  C   UNL A   1      46.635  22.950  34.749  1.00  0.00     0.055 A 
ATOM     93  C   UNL A   1      44.455  22.028  34.446  1.00  0.00     0.041 A 
ATOM     94  F   UNL A   1      42.908  23.074  33.076  1.00  0.00    -0.206 F 
ATOM     95  C   UNL A   1      45.719  21.935  35.006  1.00  0.00     0.022 A 
BRANCH  92  96
ATOM     96  S   UNL A   1      48.345  22.809  35.331  1.00  0.00     0.124 S 
ATOM     97  O   UNL A   1      48.515  24.062  36.064  1.00  0.00    -0.237 OA
ATOM     98  O   UNL A   1      48.302  21.600  36.145  1.00  0.00    -0.237 OA
ATOM     99  O   UNL A   1      49.122  22.704  34.097  1.00  0.00    -0.744 OA
ENDBRANCH  92  96
ENDBRANCH  66  89
ENDBRANCH  40  41
ENDBRANCH  32  35
ENDBRANCH  30  31
ENDBRANCH  29  30
ENDBRANCH   1  29
TORSDOF 18
ENDMDL
MODEL 2
REMARK VINA RESULT:     -12.8      1.582      2.392
REMARK SMILES Cc1ccccc1/C=C1\SC(=S)N(CCC(=O)N[C@@H](C)C(=O)NCCCNC(=O)c2ccc(-c3c4nc(c(-c5cc(S(=O)(=O)[O-])ccc5F)c5ccc([nH]5)c(-c5cc(S(=O)(=O)[O-])ccc5F)c5nc(c(-c6cc(S(=O)(=O)[O-])ccc6F)c6ccc3[nH]6)C=C5)C=C4)cc2)C1=O
REMARK SMILES IDX 24 1 23 2 21 3 22 4 19 6 20 7 18 8 16 9 17 10 15 12 14 13
REMARK SMILES IDX 13 14 8 15 9 16 10 17 93 18 11 19 94 20 12 21 7 22 1 23 2 24
REMARK SMILES IDX 3 25 4 26 6 27 5 28 25 29 26 30 27 31 28 32 29 34 30 35
REMARK SMILES IDX 31 36 92 37 32 38 91 39 33 40 34 41 35 42 85 43 36 44 90 45
REMARK SMILES IDX 84 46 86 47 37 48 89 49 83 50 82 51 38 53 70 54 50 55 69 56
REMARK SMILES IDX 51 57 54 58 68 59 87 60 52 61 53 62 67 64 88 65 55 66 39 67
REMARK SMILES IDX 40 68 48 69 41 70 47 71 49 72 46 73 42 74 43 75 44 76 45 77
REMARK SMILES IDX 71 78 72 79 80 80 73 81 79 82 81 83 78 84 74 85 75 86 76 87
REMARK SMILES IDX 77 88 56 89 57 90 65 91 58 92 64 93 66 94 63 95 59 96 60 97
REMARK SMILES IDX 61 98 62 99
REMARK H PARENT 23 5 18 11 27 33 86 52 54 63
REMARK Flexibility Score: inf
ROOT
ATOM      1  C   UNL A   1      32.304  30.338  25.919  1.00  0.00     0.117 C 
ENDROOT
BRANCH   1   2
ATOM      2  N   UNL A   1      33.249  29.794  24.943  1.00  0.00    -0.354 N 
ATOM      3  C   UNL A   1      33.148  28.870  23.952  1.00  0.00     0.242 C 
ATOM      4  O   UNL A   1      34.205  28.523  23.407  1.00  0.00    -0.273 OA
ATOM      5  H   UNL A   1      34.151  30.181  25.021  1.00  0.00     0.163 HD
BRANCH   3   6
ATOM      6  C   UNL A   1      31.820  28.223  23.478  1.00  0.00     0.168 C 
ATOM      7  C   UNL A   1      30.744  29.133  22.937  1.00  0.00     0.041 C 
BRANCH   6   8
ATOM      8  N   UNL A   1      31.192  27.410  24.524  1.00  0.00    -0.345 N 
ATOM      9  C   UNL A   1      30.470  26.263  24.341  1.00  0.00     0.222 C 
ATOM     10  O   UNL A   1      29.578  25.977  25.140  1.00  0.00    -0.275 OA
ATOM     11  H   UNL A   1      31.301  27.721  25.453  1.00  0.00     0.164 HD
BRANCH   9  12
ATOM     12  C   UNL A   1      30.824  25.327  23.198  1.00  0.00     0.122 C 
BRANCH  12  13
ATOM     13  C   UNL A   1      30.534  23.835  23.429  1.00  0.00     0.137 C 
BRANCH  13  14
ATOM     14  N   UNL A   1      31.643  23.098  24.066  1.00  0.00    -0.292 N 
ATOM     15  C   UNL A   1      35.093  22.341  23.678  1.00  0.00     0.029 C 
ATOM     16  C   UNL A   1      33.845  22.294  24.161  1.00  0.00     0.081 C 
ATOM     17  S   UNL A   1      33.314  22.125  25.778  1.00  0.00    -0.054 SA
ATOM     18  C   UNL A   1      32.690  22.630  23.287  1.00  0.00     0.266 C 
ATOM     19  C   UNL A   1      31.700  22.725  25.394  1.00  0.00     0.148 C 
ATOM     20  O   UNL A   1      32.703  22.539  22.068  1.00  0.00    -0.268 OA
ATOM     21  S   UNL A   1      30.481  22.784  26.533  1.00  0.00    -0.052 S 
BRANCH  15  22
ATOM     22  C   UNL A   1      36.345  22.324  24.447  1.00  0.00    -0.021 A 
ATOM     23  C   UNL A   1      35.849  24.618  25.420  1.00  0.00     0.045 C 
ATOM     24  C   UNL A   1      36.681  23.372  25.323  1.00  0.00    -0.044 A 
ATOM     25  C   UNL A   1      37.834  23.252  26.118  1.00  0.00     0.004 A 
ATOM     26  C   UNL A   1      38.614  22.099  26.078  1.00  0.00     0.000 A 
ATOM     27  C   UNL A   1      37.152  21.176  24.401  1.00  0.00     0.008 A 
ATOM     28  C   UNL A   1      38.274  21.061  25.219  1.00  0.00     0.001 A 
ENDBRANCH  15  22
ENDBRANCH  13  14
ENDBRANCH  12  13
ENDBRANCH   9  12
ENDBRANCH   6   8
ENDBRANCH   3   6
ENDBRANCH   1   2
BRANCH   1  29
ATOM     29  C   UNL A   1      32.874  30.293  27.339  1.00  0.00     0.042 C 
BRANCH  29  30
ATOM     30  C   UNL A   1      34.393  30.292  27.324  1.00  0.00     0.118 C 
BRANCH  30  31
ATOM     31  N   UNL A   1      35.015  31.248  28.233  1.00  0.00    -0.352 N 
ATOM     32  C   UNL A   1      36.123  31.065  29.044  1.00  0.00     0.251 C 
ATOM     33  H   UNL A   1      34.593  32.136  28.275  1.00  0.00     0.163 HD
ATOM     34  O   UNL A   1      36.464  31.904  29.861  1.00  0.00    -0.269 OA
BRANCH  32  35
ATOM     35  C   UNL A   1      36.961  29.865  28.810  1.00  0.00     0.039 A 
ATOM     36  C   UNL A   1      37.228  29.047  29.914  1.00  0.00     0.014 A 
ATOM     37  C   UNL A   1      37.694  29.740  27.633  1.00  0.00     0.014 A 
ATOM     38  C   UNL A   1      38.384  28.275  29.919  1.00  0.00     0.010 A 
ATOM     39  C   UNL A   1      38.900  29.070  27.685  1.00  0.00     0.010 A 
ATOM     40  C   UNL A   1      39.272  28.386  28.849  1.00  0.00    -0.014 A 
BRANCH  40  41
ATOM     41  C   UNL A   1      40.653  27.918  28.911  1.00  0.00     0.031 A 
ATOM     42  C   UNL A   1      40.991  26.551  28.466  1.00  0.00     0.074 A 
ATOM     43  C   UNL A   1      41.626  28.739  29.360  1.00  0.00     0.049 A 
ATOM     44  N   UNL A   1      42.016  25.879  28.866  1.00  0.00    -0.248 NA
ATOM     45  C   UNL A   1      40.135  25.801  27.555  1.00  0.00     0.031 C 
ATOM     46  C   UNL A   1      43.070  28.540  29.276  1.00  0.00     0.029 A 
ATOM     47  N   UNL A   1      41.482  29.828  30.211  1.00  0.00    -0.354 N 
ATOM     48  C   UNL A   1      42.104  24.740  28.096  1.00  0.00     0.074 A 
ATOM     49  C   UNL A   1      40.879  24.715  27.332  1.00  0.00     0.031 C 
ATOM     50  C   UNL A   1      43.669  29.300  30.205  1.00  0.00     0.029 A 
ATOM     51  C   UNL A   1      42.624  29.898  31.019  1.00  0.00     0.049 A 
ATOM     52  H   UNL A   1      40.713  30.442  30.242  1.00  0.00     0.167 HD
ATOM     53  C   UNL A   1      43.256  24.010  28.099  1.00  0.00     0.034 A 
ATOM     54  C   UNL A   1      42.527  29.784  32.376  1.00  0.00     0.034 A 
ATOM     55  C   UNL A   1      44.220  24.539  29.064  1.00  0.00     0.049 A 
ATOM     56  C   UNL A   1      43.265  28.589  32.940  1.00  0.00     0.074 A 
ATOM     57  C   UNL A   1      45.316  25.377  28.935  1.00  0.00     0.029 A 
ATOM     58  N   UNL A   1      43.943  24.461  30.425  1.00  0.00    -0.354 N 
ATOM     59  N   UNL A   1      43.698  27.587  32.226  1.00  0.00    -0.248 NA
ATOM     60  C   UNL A   1      43.537  28.420  34.365  1.00  0.00     0.031 C 
ATOM     61  C   UNL A   1      45.640  25.875  30.225  1.00  0.00     0.029 A 
ATOM     62  C   UNL A   1      44.772  25.306  31.141  1.00  0.00     0.049 A 
ATOM     63  H   UNL A   1      43.252  23.884  30.823  1.00  0.00     0.167 HD
ATOM     64  C   UNL A   1      44.224  26.631  33.055  1.00  0.00     0.074 A 
ATOM     65  C   UNL A   1      44.147  27.223  34.380  1.00  0.00     0.031 C 
ATOM     66  C   UNL A   1      44.644  25.416  32.589  1.00  0.00     0.034 A 
BRANCH  53  67
ATOM     67  C   UNL A   1      43.623  23.021  27.011  1.00  0.00     0.023 A 
ATOM     68  C   UNL A   1      43.021  21.745  27.007  1.00  0.00     0.031 A 
ATOM     69  C   UNL A   1      44.584  23.231  26.003  1.00  0.00     0.131 A 
ATOM     70  C   UNL A   1      43.454  20.728  26.135  1.00  0.00     0.055 A 
ATOM     71  C   UNL A   1      45.069  22.202  25.184  1.00  0.00     0.041 A 
ATOM     72  F   UNL A   1      45.054  24.452  25.721  1.00  0.00    -0.206 F 
ATOM     73  C   UNL A   1      44.515  20.935  25.258  1.00  0.00     0.022 A 
BRANCH  70  74
ATOM     74  S   UNL A   1      42.602  19.127  26.148  1.00  0.00     0.124 S 
ATOM     75  O   UNL A   1      42.302  18.945  27.564  1.00  0.00    -0.237 OA
ATOM     76  O   UNL A   1      41.464  19.377  25.272  1.00  0.00    -0.237 OA
ATOM     77  O   UNL A   1      43.603  18.206  25.608  1.00  0.00    -0.744 OA
ENDBRANCH  70  74
ENDBRANCH  53  67
BRANCH  54  78
ATOM     78  C   UNL A   1      41.259  30.340  32.931  1.00  0.00     0.023 A 
ATOM     79  C   UNL A   1      41.152  31.743  32.997  1.00  0.00     0.031 A 
ATOM     80  C   UNL A   1      40.079  29.589  33.015  1.00  0.00     0.131 A 
ATOM     81  C   UNL A   1      39.893  32.358  32.965  1.00  0.00     0.055 A 
ATOM     82  C   UNL A   1      38.823  30.210  33.060  1.00  0.00     0.041 A 
ATOM     83  F   UNL A   1      40.112  28.252  32.925  1.00  0.00    -0.206 F 
ATOM     84  C   UNL A   1      38.723  31.601  32.989  1.00  0.00     0.022 A 
BRANCH  81  85
ATOM     85  S   UNL A   1      39.844  34.136  32.607  1.00  0.00     0.124 S 
ATOM     86  O   UNL A   1      39.779  34.715  33.943  1.00  0.00    -0.237 OA
ATOM     87  O   UNL A   1      41.103  34.333  31.889  1.00  0.00    -0.237 OA
ATOM     88  O   UNL A   1      38.648  34.298  31.784  1.00  0.00    -0.744 OA
ENDBRANCH  81  85
ENDBRANCH  54  78
BRANCH  66  89
ATOM     89  C   UNL A   1      45.021  24.239  33.461  1.00  0.00     0.023 A 
ATOM     90  C   UNL A   1      46.328  24.004  33.914  1.00  0.00     0.031 A 
ATOM     91  C   UNL A   1      44.034  23.347  33.943  1.00  0.00     0.131 A 
ATOM     92  C   UNL A   1      46.632  22.890  34.716  1.00  0.00     0.055 A 
ATOM     93  C   UNL A   1      44.323  22.292  34.814  1.00  0.00     0.041 A 
ATOM     94  F   UNL A   1      42.744  23.467  33.593  1.00  0.00    -0.206 F 
ATOM     95  C   UNL A   1      45.634  22.046  35.192  1.00  0.00     0.022 A 
BRANCH  92  96
ATOM     96  S   UNL A   1      48.375  22.530  35.056  1.00  0.00     0.124 S 
ATOM     97  O   UNL A   1      48.349  22.259  36.492  1.00  0.00    -0.237 OA
ATOM     98  O   UNL A   1      48.631  21.378  34.199  1.00  0.00    -0.237 OA
ATOM     99  O   UNL A   1      49.063  23.760  34.670  1.00  0.00    -0.744 OA
ENDBRANCH  92  96
ENDBRANCH  66  89
ENDBRANCH  40  41
ENDBRANCH  32  35
ENDBRANCH  30  31
ENDBRANCH  29  30
ENDBRANCH   1  29
TORSDOF 18
ENDMDL
MODEL 3
REMARK VINA RESULT:     -12.5      2.316      3.143
REMARK SMILES Cc1ccccc1/C=C1\SC(=S)N(CCC(=O)N[C@@H](C)C(=O)NCCCNC(=O)c2ccc(-c3c4nc(c(-c5cc(S(=O)(=O)[O-])ccc5F)c5ccc([nH]5)c(-c5cc(S(=O)(=O)[O-])ccc5F)c5nc(c(-c6cc(S(=O)(=O)[O-])ccc6F)c6ccc3[nH]6)C=C5)C=C4)cc2)C1=O
REMARK SMILES IDX 24 1 23 2 21 3 22 4 19 6 20 7 18 8 16 9 17 10 15 12 14 13
REMARK SMILES IDX 13 14 8 15 9 16 10 17 93 18 11 19 94 20 12 21 7 22 1 23 2 24
REMARK SMILES IDX 3 25 4 26 6 27 5 28 25 29 26 30 27 31 28 32 29 34 30 35
REMARK SMILES IDX 31 36 92 37 32 38 91 39 33 40 34 41 35 42 85 43 36 44 90 45
REMARK SMILES IDX 84 46 86 47 37 48 89 49 83 50 82 51 38 53 70 54 50 55 69 56
REMARK SMILES IDX 51 57 54 58 68 59 87 60 52 61 53 62 67 64 88 65 55 66 39 67
REMARK SMILES IDX 40 68 48 69 41 70 47 71 49 72 46 73 42 74 43 75 44 76 45 77
REMARK SMILES IDX 71 78 72 79 80 80 73 81 79 82 81 83 78 84 74 85 75 86 76 87
REMARK SMILES IDX 77 88 56 89 57 90 65 91 58 92 64 93 66 94 63 95 59 96 60 97
REMARK SMILES IDX 61 98 62 99
REMARK H PARENT 23 5 18 11 27 33 86 52 54 63
REMARK Flexibility Score: inf
ROOT
ATOM      1  C   UNL A   1      31.991  30.388  25.823  1.00  0.00     0.117 C 
ENDROOT
BRANCH   1   2
ATOM      2  N   UNL A   1      33.136  29.683  25.246  1.00  0.00    -0.354 N 
ATOM      3  C   UNL A   1      33.263  28.675  24.345  1.00  0.00     0.242 C 
ATOM      4  O   UNL A   1      34.397  28.200  24.197  1.00  0.00    -0.273 OA
ATOM      5  H   UNL A   1      34.001  30.010  25.585  1.00  0.00     0.163 HD
BRANCH   3   6
ATOM      6  C   UNL A   1      32.095  28.081  23.513  1.00  0.00     0.168 C 
ATOM      7  C   UNL A   1      31.344  29.008  22.587  1.00  0.00     0.041 C 
BRANCH   6   8
ATOM      8  N   UNL A   1      31.088  27.426  24.354  1.00  0.00    -0.345 N 
ATOM      9  C   UNL A   1      30.333  26.336  24.022  1.00  0.00     0.222 C 
ATOM     10  O   UNL A   1      29.212  26.204  24.514  1.00  0.00    -0.275 OA
ATOM     11  H   UNL A   1      30.941  27.810  25.249  1.00  0.00     0.164 HD
BRANCH   9  12
ATOM     12  C   UNL A   1      30.914  25.271  23.106  1.00  0.00     0.122 C 
BRANCH  12  13
ATOM     13  C   UNL A   1      30.572  23.814  23.459  1.00  0.00     0.137 C 
BRANCH  13  14
ATOM     14  N   UNL A   1      31.633  23.111  24.206  1.00  0.00    -0.292 N 
ATOM     15  C   UNL A   1      35.038  22.122  23.977  1.00  0.00     0.029 C 
ATOM     16  C   UNL A   1      33.785  22.209  24.442  1.00  0.00     0.081 C 
ATOM     17  S   UNL A   1      33.233  22.291  26.060  1.00  0.00    -0.054 SA
ATOM     18  C   UNL A   1      32.658  22.486  23.514  1.00  0.00     0.266 C 
ATOM     19  C   UNL A   1      31.659  22.920  25.573  1.00  0.00     0.148 C 
ATOM     20  O   UNL A   1      32.675  22.229  22.318  1.00  0.00    -0.268 OA
ATOM     21  S   UNL A   1      30.436  23.199  26.674  1.00  0.00    -0.052 S 
BRANCH  15  22
ATOM     22  C   UNL A   1      36.281  22.141  24.760  1.00  0.00    -0.021 A 
ATOM     23  C   UNL A   1      36.438  19.607  24.689  1.00  0.00     0.045 C 
ATOM     24  C   UNL A   1      36.984  20.959  25.049  1.00  0.00    -0.044 A 
ATOM     25  C   UNL A   1      38.224  21.045  25.704  1.00  0.00     0.004 A 
ATOM     26  C   UNL A   1      38.778  22.283  26.027  1.00  0.00     0.000 A 
ATOM     27  C   UNL A   1      36.841  23.381  25.110  1.00  0.00     0.008 A 
ATOM     28  C   UNL A   1      38.086  23.450  25.731  1.00  0.00     0.001 A 
ENDBRANCH  15  22
ENDBRANCH  13  14
ENDBRANCH  12  13
ENDBRANCH   9  12
ENDBRANCH   6   8
ENDBRANCH   3   6
ENDBRANCH   1   2
BRANCH   1  29
ATOM     29  C   UNL A   1      32.321  30.964  27.202  1.00  0.00     0.042 C 
BRANCH  29  30
ATOM     30  C   UNL A   1      33.745  30.633  27.611  1.00  0.00     0.118 C 
BRANCH  30  31
ATOM     31  N   UNL A   1      34.373  31.614  28.489  1.00  0.00    -0.352 N 
ATOM     32  C   UNL A   1      35.508  31.464  29.271  1.00  0.00     0.251 C 
ATOM     33  H   UNL A   1      33.935  32.494  28.531  1.00  0.00     0.163 HD
ATOM     34  O   UNL A   1      35.854  32.321  30.067  1.00  0.00    -0.269 OA
BRANCH  32  35
ATOM     35  C   UNL A   1      36.362  30.277  29.032  1.00  0.00     0.039 A 
ATOM     36  C   UNL A   1      36.878  29.624  30.156  1.00  0.00     0.014 A 
ATOM     37  C   UNL A   1      36.871  30.026  27.761  1.00  0.00     0.014 A 
ATOM     38  C   UNL A   1      38.062  28.905  30.035  1.00  0.00     0.010 A 
ATOM     39  C   UNL A   1      38.106  29.416  27.663  1.00  0.00     0.010 A 
ATOM     40  C   UNL A   1      38.728  28.907  28.810  1.00  0.00    -0.014 A 
BRANCH  40  41
ATOM     41  C   UNL A   1      40.124  28.506  28.664  1.00  0.00     0.031 A 
ATOM     42  C   UNL A   1      40.463  27.090  28.409  1.00  0.00     0.074 A 
ATOM     43  C   UNL A   1      41.106  29.428  28.745  1.00  0.00     0.049 A 
ATOM     44  N   UNL A   1      41.593  26.541  28.700  1.00  0.00    -0.248 NA
ATOM     45  C   UNL A   1      39.498  26.153  27.847  1.00  0.00     0.031 C 
ATOM     46  C   UNL A   1      42.514  29.264  28.396  1.00  0.00     0.029 A 
ATOM     47  N   UNL A   1      41.058  30.653  29.398  1.00  0.00    -0.354 N 
ATOM     48  C   UNL A   1      41.606  25.280  28.146  1.00  0.00     0.074 A 
ATOM     49  C   UNL A   1      40.259  25.070  27.672  1.00  0.00     0.031 C 
ATOM     50  C   UNL A   1      43.231  30.207  29.029  1.00  0.00     0.029 A 
ATOM     51  C   UNL A   1      42.330  30.913  29.923  1.00  0.00     0.049 A 
ATOM     52  H   UNL A   1      40.268  31.236  29.478  1.00  0.00     0.167 HD
ATOM     53  C   UNL A   1      42.785  24.602  28.037  1.00  0.00     0.034 A 
ATOM     54  C   UNL A   1      42.514  31.056  31.268  1.00  0.00     0.034 A 
ATOM     55  C   UNL A   1      43.882  25.336  28.668  1.00  0.00     0.049 A 
ATOM     56  C   UNL A   1      43.433  30.015  31.870  1.00  0.00     0.074 A 
ATOM     57  C   UNL A   1      44.867  26.170  28.165  1.00  0.00     0.029 A 
ATOM     58  N   UNL A   1      43.889  25.509  30.048  1.00  0.00    -0.354 N 
ATOM     59  N   UNL A   1      43.786  28.911  31.272  1.00  0.00    -0.248 NA
ATOM     60  C   UNL A   1      43.996  30.129  33.213  1.00  0.00     0.031 C 
ATOM     61  C   UNL A   1      45.406  26.914  29.248  1.00  0.00     0.029 A 
ATOM     62  C   UNL A   1      44.781  26.501  30.412  1.00  0.00     0.049 A 
ATOM     63  H   UNL A   1      43.334  24.996  30.680  1.00  0.00     0.167 HD
ATOM     64  C   UNL A   1      44.534  28.147  32.130  1.00  0.00     0.074 A 
ATOM     65  C   UNL A   1      44.680  28.977  33.313  1.00  0.00     0.031 C 
ATOM     66  C   UNL A   1      44.937  26.880  31.811  1.00  0.00     0.034 A 
BRANCH  53  67
ATOM     67  C   UNL A   1      42.997  23.438  27.091  1.00  0.00     0.023 A 
ATOM     68  C   UNL A   1      42.363  22.206  27.360  1.00  0.00     0.031 A 
ATOM     69  C   UNL A   1      43.843  23.440  25.965  1.00  0.00     0.131 A 
ATOM     70  C   UNL A   1      42.665  21.045  26.623  1.00  0.00     0.055 A 
ATOM     71  C   UNL A   1      44.202  22.273  25.276  1.00  0.00     0.041 A 
ATOM     72  F   UNL A   1      44.312  24.578  25.438  1.00  0.00    -0.206 F 
ATOM     73  C   UNL A   1      43.623  21.061  25.616  1.00  0.00     0.022 A 
BRANCH  70  74
ATOM     74  S   UNL A   1      41.775  19.507  26.989  1.00  0.00     0.124 S 
ATOM     75  O   UNL A   1      42.827  18.661  27.541  1.00  0.00    -0.237 OA
ATOM     76  O   UNL A   1      40.751  19.960  27.924  1.00  0.00    -0.237 OA
ATOM     77  O   UNL A   1      41.270  19.088  25.681  1.00  0.00    -0.744 OA
ENDBRANCH  70  74
ENDBRANCH  53  67
BRANCH  54  78
ATOM     78  C   UNL A   1      41.346  31.665  31.967  1.00  0.00     0.023 A 
ATOM     79  C   UNL A   1      40.705  30.880  32.945  1.00  0.00     0.031 A 
ATOM     80  C   UNL A   1      41.113  33.047  31.982  1.00  0.00     0.131 A 
ATOM     81  C   UNL A   1      40.010  31.491  33.998  1.00  0.00     0.055 A 
ATOM     82  C   UNL A   1      40.352  33.646  32.996  1.00  0.00     0.041 A 
ATOM     83  F   UNL A   1      41.720  33.852  31.098  1.00  0.00    -0.206 F 
ATOM     84  C   UNL A   1      39.834  32.873  34.036  1.00  0.00     0.022 A 
BRANCH  81  85
ATOM     85  S   UNL A   1      39.601  30.460  35.435  1.00  0.00     0.124 S 
ATOM     86  O   UNL A   1      40.566  29.373  35.314  1.00  0.00    -0.237 OA
ATOM     87  O   UNL A   1      39.824  31.388  36.543  1.00  0.00    -0.237 OA
ATOM     88  O   UNL A   1      38.203  30.097  35.223  1.00  0.00    -0.744 OA
ENDBRANCH  81  85
ENDBRANCH  54  78
BRANCH  66  89
ATOM     89  C   UNL A   1      45.565  25.904  32.781  1.00  0.00     0.023 A 
ATOM     90  C   UNL A   1      44.832  24.930  33.476  1.00  0.00     0.031 A 
ATOM     91  C   UNL A   1      46.967  25.870  32.972  1.00  0.00     0.131 A 
ATOM     92  C   UNL A   1      45.460  24.051  34.376  1.00  0.00     0.055 A 
ATOM     93  C   UNL A   1      47.599  24.936  33.797  1.00  0.00     0.041 A 
ATOM     94  F   UNL A   1      47.783  26.741  32.358  1.00  0.00    -0.206 F 
ATOM     95  C   UNL A   1      46.843  24.028  34.522  1.00  0.00     0.022 A 
BRANCH  92  96
ATOM     96  S   UNL A   1      44.413  22.990  35.407  1.00  0.00     0.124 S 
ATOM     97  O   UNL A   1      44.246  21.815  34.554  1.00  0.00    -0.237 OA
ATOM     98  O   UNL A   1      45.234  22.798  36.596  1.00  0.00    -0.237 OA
ATOM     99  O   UNL A   1      43.204  23.787  35.605  1.00  0.00    -0.744 OA
ENDBRANCH  92  96
ENDBRANCH  66  89
ENDBRANCH  40  41
ENDBRANCH  32  35
ENDBRANCH  30  31
ENDBRANCH  29  30
ENDBRANCH   1  29
TORSDOF 18
ENDMDL
