MODEL 1
REMARK VINA RESULT:     -11.8      0.000      0.000
REMARK SMILES C[C@@H]1CCC[C@](CCSc2ccccc2)(C(=O)NCCCNC(=O)c2ccc(-c3c4nc(c(-c5cc(S(=O)(=O)[O-])ccc5F)c5ccc([nH]5)c(-c5cc(S(=O)(=O)[O-])ccc5F)c5nc(c(-c6cc(S(=O)(=O)[O-])ccc6F)c6ccc3[nH]6)C=C5)C=C4)cc2)C1
REMARK SMILES IDX 19 1 18 2 16 3 17 4 6 6 1 7 2 8 3 9 88 10 4 11 5 12 7 13
REMARK SMILES IDX 8 14 9 15 10 16 11 17 15 18 12 19 14 20 13 21 20 22 21 23
REMARK SMILES IDX 22 24 23 25 24 27 25 28 26 29 87 30 27 31 86 32 28 33 29 34
REMARK SMILES IDX 30 35 80 36 31 37 85 38 79 39 81 40 32 41 84 42 78 43 77 44
REMARK SMILES IDX 33 46 65 47 45 48 64 49 46 50 49 51 63 52 82 53 47 54 48 55
REMARK SMILES IDX 62 57 83 58 50 59 34 60 35 61 43 62 36 63 42 64 44 65 41 66
REMARK SMILES IDX 37 67 38 68 39 69 40 70 66 71 67 72 75 73 68 74 74 75 76 76
REMARK SMILES IDX 73 77 69 78 70 79 71 80 72 81 51 82 52 83 60 84 53 85 59 86
REMARK SMILES IDX 61 87 58 88 54 89 55 90 56 91 57 92
REMARK H PARENT 18 5 22 26 81 45 49 56
REMARK Flexibility Score: inf
ROOT
ATOM      1  C   UNL A   1      35.222  23.027  26.535  1.00  0.00     0.117 C 
ENDROOT
BRANCH   1   2
ATOM      2  N   UNL A   1      33.868  22.930  27.010  1.00  0.00    -0.356 N 
ATOM      3  C   UNL A   1      32.722  23.554  26.679  1.00  0.00     0.226 C 
ATOM      4  O   UNL A   1      31.814  23.362  27.500  1.00  0.00    -0.274 OA
ATOM      5  H   UNL A   1      33.755  22.267  27.730  1.00  0.00     0.163 HD
BRANCH   3   6
ATOM      6  C   UNL A   1      32.511  24.506  25.466  1.00  0.00     0.050 C 
ATOM      7  C   UNL A   1      33.655  27.930  26.761  1.00  0.00     0.007 C 
ATOM      8  C   UNL A   1      32.723  27.175  25.792  1.00  0.00    -0.013 C 
ATOM      9  C   UNL A   1      31.244  27.219  26.200  1.00  0.00     0.003 C 
ATOM     10  C   UNL A   1      33.323  25.814  25.397  1.00  0.00     0.020 C 
ATOM     11  C   UNL A   1      30.479  25.898  26.250  1.00  0.00     0.001 C 
ATOM     12  C   UNL A   1      31.003  24.807  25.326  1.00  0.00     0.017 C 
BRANCH   6  13
ATOM     13  C   UNL A   1      32.945  23.630  24.211  1.00  0.00     0.028 C 
BRANCH  13  14
ATOM     14  C   UNL A   1      32.173  23.794  22.875  1.00  0.00     0.076 C 
BRANCH  14  15
ATOM     15  S   UNL A   1      32.885  24.820  21.533  1.00  0.00    -0.126 SA
BRANCH  15  16
ATOM     16  C   UNL A   1      32.531  26.495  22.043  1.00  0.00     0.007 A 
ATOM     17  C   UNL A   1      31.198  26.848  22.286  1.00  0.00     0.015 A 
ATOM     18  C   UNL A   1      33.525  27.458  22.239  1.00  0.00     0.015 A 
ATOM     19  C   UNL A   1      30.854  28.158  22.629  1.00  0.00     0.001 A 
ATOM     20  C   UNL A   1      33.183  28.773  22.574  1.00  0.00     0.001 A 
ATOM     21  C   UNL A   1      31.846  29.126  22.753  1.00  0.00     0.000 A 
ENDBRANCH  15  16
ENDBRANCH  14  15
ENDBRANCH  13  14
ENDBRANCH   6  13
ENDBRANCH   3   6
ENDBRANCH   1   2
BRANCH   1  22
ATOM     22  C   UNL A   1      35.684  21.705  25.947  1.00  0.00     0.042 C 
BRANCH  22  23
ATOM     23  C   UNL A   1      36.990  21.859  25.187  1.00  0.00     0.118 C 
BRANCH  23  24
ATOM     24  N   UNL A   1      37.963  20.841  25.577  1.00  0.00    -0.352 N 
ATOM     25  C   UNL A   1      39.227  20.999  26.097  1.00  0.00     0.251 C 
ATOM     26  H   UNL A   1      37.671  19.909  25.449  1.00  0.00     0.163 HD
ATOM     27  O   UNL A   1      40.003  20.048  26.121  1.00  0.00    -0.269 OA
BRANCH  25  28
ATOM     28  C   UNL A   1      39.642  22.328  26.591  1.00  0.00     0.039 A 
ATOM     29  C   UNL A   1      40.734  22.438  27.454  1.00  0.00     0.014 A 
ATOM     30  C   UNL A   1      38.976  23.472  26.149  1.00  0.00     0.014 A 
ATOM     31  C   UNL A   1      41.219  23.705  27.789  1.00  0.00     0.010 A 
ATOM     32  C   UNL A   1      39.530  24.721  26.386  1.00  0.00     0.010 A 
ATOM     33  C   UNL A   1      40.658  24.855  27.209  1.00  0.00    -0.014 A 
BRANCH  33  34
ATOM     34  C   UNL A   1      41.221  26.214  27.437  1.00  0.00     0.031 A 
ATOM     35  C   UNL A   1      42.576  26.558  26.877  1.00  0.00     0.074 A 
ATOM     36  C   UNL A   1      40.570  27.083  28.238  1.00  0.00     0.049 A 
ATOM     37  N   UNL A   1      43.317  27.614  27.091  1.00  0.00    -0.248 NA
ATOM     38  C   UNL A   1      43.205  25.557  25.998  1.00  0.00     0.031 C 
ATOM     39  C   UNL A   1      39.280  26.835  28.891  1.00  0.00     0.029 A 
ATOM     40  N   UNL A   1      40.910  28.345  28.662  1.00  0.00    -0.354 N 
ATOM     41  C   UNL A   1      44.510  27.384  26.414  1.00  0.00     0.074 A 
ATOM     42  C   UNL A   1      44.414  26.066  25.827  1.00  0.00     0.031 C 
ATOM     43  C   UNL A   1      38.932  27.914  29.611  1.00  0.00     0.029 A 
ATOM     44  C   UNL A   1      39.995  28.909  29.522  1.00  0.00     0.049 A 
ATOM     45  H   UNL A   1      41.734  28.803  28.377  1.00  0.00     0.167 HD
ATOM     46  C   UNL A   1      45.579  28.206  26.279  1.00  0.00     0.034 A 
ATOM     47  C   UNL A   1      40.020  30.084  30.185  1.00  0.00     0.034 A 
ATOM     48  C   UNL A   1      45.626  29.539  26.823  1.00  0.00     0.049 A 
ATOM     49  C   UNL A   1      41.212  30.991  29.995  1.00  0.00     0.074 A 
ATOM     50  C   UNL A   1      46.598  30.507  26.642  1.00  0.00     0.029 A 
ATOM     51  N   UNL A   1      44.664  30.090  27.658  1.00  0.00    -0.354 N 
ATOM     52  N   UNL A   1      42.291  30.794  29.273  1.00  0.00    -0.248 NA
ATOM     53  C   UNL A   1      41.190  32.276  30.705  1.00  0.00     0.031 C 
ATOM     54  C   UNL A   1      46.261  31.615  27.425  1.00  0.00     0.029 A 
ATOM     55  C   UNL A   1      45.041  31.369  28.036  1.00  0.00     0.049 A 
ATOM     56  H   UNL A   1      43.835  29.640  27.940  1.00  0.00     0.167 HD
ATOM     57  C   UNL A   1      43.063  31.942  29.425  1.00  0.00     0.074 A 
ATOM     58  C   UNL A   1      42.316  32.834  30.286  1.00  0.00     0.031 C 
ATOM     59  C   UNL A   1      44.281  32.236  28.902  1.00  0.00     0.034 A 
BRANCH  46  60
ATOM     60  C   UNL A   1      46.782  27.687  25.530  1.00  0.00     0.023 A 
ATOM     61  C   UNL A   1      47.035  28.036  24.193  1.00  0.00     0.031 A 
ATOM     62  C   UNL A   1      47.693  26.829  26.170  1.00  0.00     0.131 A 
ATOM     63  C   UNL A   1      48.133  27.480  23.519  1.00  0.00     0.055 A 
ATOM     64  C   UNL A   1      48.827  26.339  25.517  1.00  0.00     0.041 A 
ATOM     65  F   UNL A   1      47.494  26.444  27.440  1.00  0.00    -0.206 F 
ATOM     66  C   UNL A   1      49.045  26.654  24.180  1.00  0.00     0.022 A 
BRANCH  63  67
ATOM     67  S   UNL A   1      48.287  27.758  21.734  1.00  0.00     0.124 S 
ATOM     68  O   UNL A   1      46.970  28.301  21.407  1.00  0.00    -0.237 OA
ATOM     69  O   UNL A   1      49.401  28.695  21.655  1.00  0.00    -0.237 OA
ATOM     70  O   UNL A   1      48.553  26.424  21.201  1.00  0.00    -0.744 OA
ENDBRANCH  63  67
ENDBRANCH  46  60
BRANCH  47  71
ATOM     71  C   UNL A   1      38.910  30.471  31.107  1.00  0.00     0.023 A 
ATOM     72  C   UNL A   1      37.870  31.309  30.674  1.00  0.00     0.031 A 
ATOM     73  C   UNL A   1      38.907  30.063  32.453  1.00  0.00     0.131 A 
ATOM     74  C   UNL A   1      36.906  31.762  31.590  1.00  0.00     0.055 A 
ATOM     75  C   UNL A   1      37.911  30.466  33.345  1.00  0.00     0.041 A 
ATOM     76  F   UNL A   1      39.874  29.258  32.922  1.00  0.00    -0.206 F 
ATOM     77  C   UNL A   1      36.913  31.335  32.920  1.00  0.00     0.022 A 
BRANCH  74  78
ATOM     78  S   UNL A   1      35.708  33.011  31.044  1.00  0.00     0.124 S 
ATOM     79  O   UNL A   1      35.954  33.049  29.607  1.00  0.00    -0.237 OA
ATOM     80  O   UNL A   1      34.443  32.419  31.463  1.00  0.00    -0.237 OA
ATOM     81  O   UNL A   1      36.108  34.209  31.779  1.00  0.00    -0.744 OA
ENDBRANCH  74  78
ENDBRANCH  47  71
BRANCH  59  82
ATOM     82  C   UNL A   1      44.858  33.589  29.229  1.00  0.00     0.023 A 
ATOM     83  C   UNL A   1      44.625  34.704  28.406  1.00  0.00     0.031 A 
ATOM     84  C   UNL A   1      45.643  33.765  30.381  1.00  0.00     0.131 A 
ATOM     85  C   UNL A   1      45.208  35.938  28.725  1.00  0.00     0.055 A 
ATOM     86  C   UNL A   1      46.171  35.009  30.726  1.00  0.00     0.041 A 
ATOM     87  F   UNL A   1      45.897  32.731  31.200  1.00  0.00    -0.206 F 
ATOM     88  C   UNL A   1      45.964  36.103  29.889  1.00  0.00     0.022 A 
BRANCH  85  89
ATOM     89  S   UNL A   1      45.026  37.313  27.557  1.00  0.00     0.124 S 
ATOM     90  O   UNL A   1      45.271  38.470  28.412  1.00  0.00    -0.237 OA
ATOM     91  O   UNL A   1      46.058  37.022  26.567  1.00  0.00    -0.237 OA
ATOM     92  O   UNL A   1      43.652  37.176  27.077  1.00  0.00    -0.744 OA
ENDBRANCH  85  89
ENDBRANCH  59  82
ENDBRANCH  33  34
ENDBRANCH  25  28
ENDBRANCH  23  24
ENDBRANCH  22  23
ENDBRANCH   1  22
TORSDOF 17
ENDMDL
MODEL 2
REMARK VINA RESULT:     -11.7      0.697      7.554
REMARK SMILES C[C@@H]1CCC[C@](CCSc2ccccc2)(C(=O)NCCCNC(=O)c2ccc(-c3c4nc(c(-c5cc(S(=O)(=O)[O-])ccc5F)c5ccc([nH]5)c(-c5cc(S(=O)(=O)[O-])ccc5F)c5nc(c(-c6cc(S(=O)(=O)[O-])ccc6F)c6ccc3[nH]6)C=C5)C=C4)cc2)C1
REMARK SMILES IDX 19 1 18 2 16 3 17 4 6 6 1 7 2 8 3 9 88 10 4 11 5 12 7 13
REMARK SMILES IDX 8 14 9 15 10 16 11 17 15 18 12 19 14 20 13 21 20 22 21 23
REMARK SMILES IDX 22 24 23 25 24 27 25 28 26 29 87 30 27 31 86 32 28 33 29 34
REMARK SMILES IDX 30 35 80 36 31 37 85 38 79 39 81 40 32 41 84 42 78 43 77 44
REMARK SMILES IDX 33 46 65 47 45 48 64 49 46 50 49 51 63 52 82 53 47 54 48 55
REMARK SMILES IDX 62 57 83 58 50 59 34 60 35 61 43 62 36 63 42 64 44 65 41 66
REMARK SMILES IDX 37 67 38 68 39 69 40 70 66 71 67 72 75 73 68 74 74 75 76 76
REMARK SMILES IDX 73 77 69 78 70 79 71 80 72 81 51 82 52 83 60 84 53 85 59 86
REMARK SMILES IDX 61 87 58 88 54 89 55 90 56 91 57 92
REMARK H PARENT 18 5 22 26 81 45 49 56
REMARK Flexibility Score: inf
ROOT
ATOM      1  C   UNL A   1      35.237  23.079  26.539  1.00  0.00     0.117 C 
ENDROOT
BRANCH   1   2
ATOM      2  N   UNL A   1      33.863  23.015  26.959  1.00  0.00    -0.356 N 
ATOM      3  C   UNL A   1      32.760  23.711  26.627  1.00  0.00     0.226 C 
ATOM      4  O   UNL A   1      31.813  23.511  27.401  1.00  0.00    -0.274 OA
ATOM      5  H   UNL A   1      33.693  22.315  27.629  1.00  0.00     0.163 HD
BRANCH   3   6
ATOM      6  C   UNL A   1      32.638  24.747  25.472  1.00  0.00     0.050 C 
ATOM      7  C   UNL A   1      33.380  28.112  27.155  1.00  0.00     0.007 C 
ATOM      8  C   UNL A   1      32.629  27.387  26.020  1.00  0.00    -0.013 C 
ATOM      9  C   UNL A   1      31.111  27.314  26.236  1.00  0.00     0.003 C 
ATOM     10  C   UNL A   1      33.363  26.100  25.606  1.00  0.00     0.020 C 
ATOM     11  C   UNL A   1      30.436  25.952  26.088  1.00  0.00     0.001 C 
ATOM     12  C   UNL A   1      31.142  24.973  25.160  1.00  0.00     0.017 C 
BRANCH   6  13
ATOM     13  C   UNL A   1      33.282  24.003  24.221  1.00  0.00     0.028 C 
BRANCH  13  14
ATOM     14  C   UNL A   1      32.420  23.784  22.950  1.00  0.00     0.076 C 
BRANCH  14  15
ATOM     15  S   UNL A   1      32.743  24.787  21.448  1.00  0.00    -0.126 SA
BRANCH  15  16
ATOM     16  C   UNL A   1      32.438  26.463  21.982  1.00  0.00     0.007 A 
ATOM     17  C   UNL A   1      33.537  27.310  22.171  1.00  0.00     0.015 A 
ATOM     18  C   UNL A   1      31.155  26.976  22.191  1.00  0.00     0.015 A 
ATOM     19  C   UNL A   1      33.365  28.614  22.645  1.00  0.00     0.001 A 
ATOM     20  C   UNL A   1      30.979  28.277  22.675  1.00  0.00     0.001 A 
ATOM     21  C   UNL A   1      32.086  29.090  22.916  1.00  0.00     0.000 A 
ENDBRANCH  15  16
ENDBRANCH  14  15
ENDBRANCH  13  14
ENDBRANCH   6  13
ENDBRANCH   3   6
ENDBRANCH   1   2
BRANCH   1  22
ATOM     22  C   UNL A   1      35.656  21.785  25.863  1.00  0.00     0.042 C 
BRANCH  22  23
ATOM     23  C   UNL A   1      36.996  21.931  25.162  1.00  0.00     0.118 C 
BRANCH  23  24
ATOM     24  N   UNL A   1      37.882  20.808  25.457  1.00  0.00    -0.352 N 
ATOM     25  C   UNL A   1      39.149  20.817  25.992  1.00  0.00     0.251 C 
ATOM     26  H   UNL A   1      37.520  19.918  25.241  1.00  0.00     0.163 HD
ATOM     27  O   UNL A   1      39.849  19.810  25.929  1.00  0.00    -0.269 OA
BRANCH  25  28
ATOM     28  C   UNL A   1      39.662  22.057  26.611  1.00  0.00     0.039 A 
ATOM     29  C   UNL A   1      40.688  21.990  27.555  1.00  0.00     0.014 A 
ATOM     30  C   UNL A   1      39.157  23.294  26.206  1.00  0.00     0.014 A 
ATOM     31  C   UNL A   1      41.276  23.171  28.016  1.00  0.00     0.010 A 
ATOM     32  C   UNL A   1      39.819  24.456  26.573  1.00  0.00     0.010 A 
ATOM     33  C   UNL A   1      40.886  24.412  27.482  1.00  0.00    -0.014 A 
BRANCH  33  34
ATOM     34  C   UNL A   1      41.569  25.682  27.848  1.00  0.00     0.031 A 
ATOM     35  C   UNL A   1      40.801  26.753  28.578  1.00  0.00     0.074 A 
ATOM     36  C   UNL A   1      42.830  25.912  27.423  1.00  0.00     0.049 A 
ATOM     37  N   UNL A   1      41.150  27.985  28.846  1.00  0.00    -0.248 NA
ATOM     38  C   UNL A   1      39.440  26.408  29.020  1.00  0.00     0.031 C 
ATOM     39  C   UNL A   1      43.650  24.973  26.651  1.00  0.00     0.029 A 
ATOM     40  N   UNL A   1      43.638  27.014  27.557  1.00  0.00    -0.354 N 
ATOM     41  C   UNL A   1      40.038  28.571  29.444  1.00  0.00     0.074 A 
ATOM     42  C   UNL A   1      38.989  27.576  29.451  1.00  0.00     0.031 C 
ATOM     43  C   UNL A   1      44.846  25.530  26.401  1.00  0.00     0.029 A 
ATOM     44  C   UNL A   1      44.863  26.885  26.941  1.00  0.00     0.049 A 
ATOM     45  H   UNL A   1      43.366  27.823  28.049  1.00  0.00     0.167 HD
ATOM     46  C   UNL A   1      39.914  29.818  29.958  1.00  0.00     0.034 A 
ATOM     47  C   UNL A   1      45.875  27.766  26.804  1.00  0.00     0.034 A 
ATOM     48  C   UNL A   1      40.994  30.771  29.994  1.00  0.00     0.049 A 
ATOM     49  C   UNL A   1      45.717  29.141  27.409  1.00  0.00     0.074 A 
ATOM     50  C   UNL A   1      41.023  32.014  30.601  1.00  0.00     0.029 A 
ATOM     51  N   UNL A   1      42.231  30.592  29.392  1.00  0.00    -0.354 N 
ATOM     52  N   UNL A   1      44.691  29.645  28.055  1.00  0.00    -0.248 NA
ATOM     53  C   UNL A   1      46.851  30.063  27.270  1.00  0.00     0.031 C 
ATOM     54  C   UNL A   1      42.250  32.615  30.307  1.00  0.00     0.029 A 
ATOM     55  C   UNL A   1      43.016  31.718  29.578  1.00  0.00     0.049 A 
ATOM     56  H   UNL A   1      42.512  29.783  28.906  1.00  0.00     0.167 HD
ATOM     57  C   UNL A   1      45.068  30.934  28.419  1.00  0.00     0.074 A 
ATOM     58  C   UNL A   1      46.423  31.121  27.942  1.00  0.00     0.031 C 
ATOM     59  C   UNL A   1      44.362  31.883  29.085  1.00  0.00     0.034 A 
BRANCH  46  60
ATOM     60  C   UNL A   1      38.569  30.227  30.508  1.00  0.00     0.023 A 
ATOM     61  C   UNL A   1      37.639  30.950  29.742  1.00  0.00     0.031 A 
ATOM     62  C   UNL A   1      38.212  29.882  31.823  1.00  0.00     0.131 A 
ATOM     63  C   UNL A   1      36.427  31.360  30.316  1.00  0.00     0.055 A 
ATOM     64  C   UNL A   1      36.972  30.227  32.365  1.00  0.00     0.041 A 
ATOM     65  F   UNL A   1      39.066  29.209  32.610  1.00  0.00    -0.206 F 
ATOM     66  C   UNL A   1      36.076  30.982  31.614  1.00  0.00     0.022 A 
BRANCH  63  67
ATOM     67  S   UNL A   1      35.366  32.497  29.383  1.00  0.00     0.124 S 
ATOM     68  O   UNL A   1      34.989  31.672  28.237  1.00  0.00    -0.237 OA
ATOM     69  O   UNL A   1      34.302  32.790  30.336  1.00  0.00    -0.237 OA
ATOM     70  O   UNL A   1      36.252  33.615  29.071  1.00  0.00    -0.744 OA
ENDBRANCH  63  67
ENDBRANCH  46  60
BRANCH  47  71
ATOM     71  C   UNL A   1      47.112  27.406  26.049  1.00  0.00     0.023 A 
ATOM     72  C   UNL A   1      47.276  27.784  24.707  1.00  0.00     0.031 A 
ATOM     73  C   UNL A   1      48.120  26.620  26.637  1.00  0.00     0.131 A 
ATOM     74  C   UNL A   1      48.387  27.327  23.979  1.00  0.00     0.055 A 
ATOM     75  C   UNL A   1      49.254  26.220  25.927  1.00  0.00     0.041 A 
ATOM     76  F   UNL A   1      48.019  26.232  27.918  1.00  0.00    -0.206 F 
ATOM     77  C   UNL A   1      49.384  26.559  24.584  1.00  0.00     0.022 A 
BRANCH  74  78
ATOM     78  S   UNL A   1      48.452  27.656  22.196  1.00  0.00     0.124 S 
ATOM     79  O   UNL A   1      49.683  28.431  22.081  1.00  0.00    -0.237 OA
ATOM     80  O   UNL A   1      48.489  26.308  21.642  1.00  0.00    -0.237 OA
ATOM     81  O   UNL A   1      47.220  28.399  21.943  1.00  0.00    -0.744 OA
ENDBRANCH  74  78
ENDBRANCH  47  71
BRANCH  59  82
ATOM     82  C   UNL A   1      45.059  33.190  29.360  1.00  0.00     0.023 A 
ATOM     83  C   UNL A   1      44.984  34.265  28.460  1.00  0.00     0.031 A 
ATOM     84  C   UNL A   1      45.801  33.361  30.541  1.00  0.00     0.131 A 
ATOM     85  C   UNL A   1      45.676  35.453  28.734  1.00  0.00     0.055 A 
ATOM     86  C   UNL A   1      46.439  34.567  30.838  1.00  0.00     0.041 A 
ATOM     87  F   UNL A   1      45.906  32.364  31.435  1.00  0.00    -0.206 F 
ATOM     88  C   UNL A   1      46.387  35.617  29.926  1.00  0.00     0.022 A 
BRANCH  85  89
ATOM     89  S   UNL A   1      45.696  36.759  27.476  1.00  0.00     0.124 S 
ATOM     90  O   UNL A   1      44.274  37.053  27.323  1.00  0.00    -0.237 OA
ATOM     91  O   UNL A   1      46.495  37.798  28.117  1.00  0.00    -0.237 OA
ATOM     92  O   UNL A   1      46.325  36.116  26.324  1.00  0.00    -0.744 OA
ENDBRANCH  85  89
ENDBRANCH  59  82
ENDBRANCH  33  34
ENDBRANCH  25  28
ENDBRANCH  23  24
ENDBRANCH  22  23
ENDBRANCH   1  22
TORSDOF 17
ENDMDL
MODEL 3
REMARK VINA RESULT:     -11.7      4.877      7.583
REMARK SMILES C[C@@H]1CCC[C@](CCSc2ccccc2)(C(=O)NCCCNC(=O)c2ccc(-c3c4nc(c(-c5cc(S(=O)(=O)[O-])ccc5F)c5ccc([nH]5)c(-c5cc(S(=O)(=O)[O-])ccc5F)c5nc(c(-c6cc(S(=O)(=O)[O-])ccc6F)c6ccc3[nH]6)C=C5)C=C4)cc2)C1
REMARK SMILES IDX 19 1 18 2 16 3 17 4 6 6 1 7 2 8 3 9 88 10 4 11 5 12 7 13
REMARK SMILES IDX 8 14 9 15 10 16 11 17 15 18 12 19 14 20 13 21 20 22 21 23
REMARK SMILES IDX 22 24 23 25 24 27 25 28 26 29 87 30 27 31 86 32 28 33 29 34
REMARK SMILES IDX 30 35 80 36 31 37 85 38 79 39 81 40 32 41 84 42 78 43 77 44
REMARK SMILES IDX 33 46 65 47 45 48 64 49 46 50 49 51 63 52 82 53 47 54 48 55
REMARK SMILES IDX 62 57 83 58 50 59 34 60 35 61 43 62 36 63 42 64 44 65 41 66
REMARK SMILES IDX 37 67 38 68 39 69 40 70 66 71 67 72 75 73 68 74 74 75 76 76
REMARK SMILES IDX 73 77 69 78 70 79 71 80 72 81 51 82 52 83 60 84 53 85 59 86
REMARK SMILES IDX 61 87 58 88 54 89 55 90 56 91 57 92
REMARK H PARENT 18 5 22 26 81 45 49 56
REMARK Flexibility Score: inf
ROOT
ATOM      1  C   UNL A   1      31.759  27.921  26.845  1.00  0.00     0.117 C 
ENDROOT
BRANCH   1   2
ATOM      2  N   UNL A   1      30.759  26.905  26.658  1.00  0.00    -0.356 N 
ATOM      3  C   UNL A   1      30.781  25.669  26.126  1.00  0.00     0.226 C 
ATOM      4  O   UNL A   1      29.648  25.209  25.928  1.00  0.00    -0.274 OA
ATOM      5  H   UNL A   1      29.870  27.169  26.989  1.00  0.00     0.163 HD
BRANCH   3   6
ATOM      6  C   UNL A   1      32.049  24.877  25.692  1.00  0.00     0.050 C 
ATOM      7  C   UNL A   1      33.838  27.247  23.264  1.00  0.00     0.007 C 
ATOM      8  C   UNL A   1      33.572  25.780  23.657  1.00  0.00    -0.013 C 
ATOM      9  C   UNL A   1      32.659  25.035  22.674  1.00  0.00     0.003 C 
ATOM     10  C   UNL A   1      33.267  25.658  25.161  1.00  0.00     0.020 C 
ATOM     11  C   UNL A   1      31.466  24.272  23.247  1.00  0.00     0.001 C 
ATOM     12  C   UNL A   1      31.633  23.786  24.681  1.00  0.00     0.017 C 
BRANCH   6  13
ATOM     13  C   UNL A   1      32.519  24.145  27.024  1.00  0.00     0.028 C 
BRANCH  13  14
ATOM     14  C   UNL A   1      32.398  22.601  27.115  1.00  0.00     0.076 C 
BRANCH  14  15
ATOM     15  S   UNL A   1      33.915  21.570  27.135  1.00  0.00    -0.126 SA
BRANCH  15  16
ATOM     16  C   UNL A   1      34.960  22.325  25.900  1.00  0.00     0.007 A 
ATOM     17  C   UNL A   1      34.696  22.055  24.551  1.00  0.00     0.015 A 
ATOM     18  C   UNL A   1      36.008  23.194  26.216  1.00  0.00     0.015 A 
ATOM     19  C   UNL A   1      35.515  22.570  23.543  1.00  0.00     0.001 A 
ATOM     20  C   UNL A   1      36.837  23.703  25.210  1.00  0.00     0.001 A 
ATOM     21  C   UNL A   1      36.599  23.378  23.875  1.00  0.00     0.000 A 
ENDBRANCH  15  16
ENDBRANCH  14  15
ENDBRANCH  13  14
ENDBRANCH   6  13
ENDBRANCH   3   6
ENDBRANCH   1   2
BRANCH   1  22
ATOM     22  C   UNL A   1      31.638  29.001  25.783  1.00  0.00     0.042 C 
BRANCH  22  23
ATOM     23  C   UNL A   1      32.836  29.935  25.799  1.00  0.00     0.118 C 
BRANCH  23  24
ATOM     24  N   UNL A   1      32.470  31.269  26.268  1.00  0.00    -0.352 N 
ATOM     25  C   UNL A   1      33.079  32.053  27.221  1.00  0.00     0.251 C 
ATOM     26  H   UNL A   1      31.675  31.662  25.842  1.00  0.00     0.163 HD
ATOM     27  O   UNL A   1      32.493  33.030  27.678  1.00  0.00    -0.269 OA
BRANCH  25  28
ATOM     28  C   UNL A   1      34.426  31.684  27.705  1.00  0.00     0.039 A 
ATOM     29  C   UNL A   1      35.414  32.663  27.820  1.00  0.00     0.014 A 
ATOM     30  C   UNL A   1      34.686  30.371  28.098  1.00  0.00     0.014 A 
ATOM     31  C   UNL A   1      36.632  32.342  28.427  1.00  0.00     0.010 A 
ATOM     32  C   UNL A   1      35.845  30.085  28.805  1.00  0.00     0.010 A 
ATOM     33  C   UNL A   1      36.833  31.065  28.979  1.00  0.00    -0.014 A 
BRANCH  33  34
ATOM     34  C   UNL A   1      38.061  30.717  29.744  1.00  0.00     0.031 A 
ATOM     35  C   UNL A   1      39.042  29.731  29.164  1.00  0.00     0.074 A 
ATOM     36  C   UNL A   1      38.228  31.193  30.996  1.00  0.00     0.049 A 
ATOM     37  N   UNL A   1      40.081  29.169  29.725  1.00  0.00    -0.248 NA
ATOM     38  C   UNL A   1      38.790  29.280  27.785  1.00  0.00     0.031 C 
ATOM     39  C   UNL A   1      37.310  32.103  31.688  1.00  0.00     0.029 A 
ATOM     40  N   UNL A   1      39.215  30.962  31.922  1.00  0.00    -0.354 N 
ATOM     41  C   UNL A   1      40.576  28.268  28.787  1.00  0.00     0.074 A 
ATOM     42  C   UNL A   1      39.693  28.322  27.643  1.00  0.00     0.031 C 
ATOM     43  C   UNL A   1      37.787  32.367  32.915  1.00  0.00     0.029 A 
ATOM     44  C   UNL A   1      39.013  31.604  33.124  1.00  0.00     0.049 A 
ATOM     45  H   UNL A   1      39.996  30.390  31.744  1.00  0.00     0.167 HD
ATOM     46  C   UNL A   1      41.679  27.485  28.867  1.00  0.00     0.034 A 
ATOM     47  C   UNL A   1      39.720  31.564  34.272  1.00  0.00     0.034 A 
ATOM     48  C   UNL A   1      42.577  27.495  29.993  1.00  0.00     0.049 A 
ATOM     49  C   UNL A   1      40.959  30.701  34.323  1.00  0.00     0.074 A 
ATOM     50  C   UNL A   1      43.789  26.842  30.130  1.00  0.00     0.029 A 
ATOM     51  N   UNL A   1      42.359  28.186  31.176  1.00  0.00    -0.354 N 
ATOM     52  N   UNL A   1      41.464  29.928  33.389  1.00  0.00    -0.248 NA
ATOM     53  C   UNL A   1      41.723  30.708  35.577  1.00  0.00     0.031 C 
ATOM     54  C   UNL A   1      44.269  27.079  31.421  1.00  0.00     0.029 A 
ATOM     55  C   UNL A   1      43.393  27.941  32.065  1.00  0.00     0.049 A 
ATOM     56  H   UNL A   1      41.584  28.766  31.358  1.00  0.00     0.167 HD
ATOM     57  C   UNL A   1      42.617  29.375  33.939  1.00  0.00     0.074 A 
ATOM     58  C   UNL A   1      42.746  29.922  35.273  1.00  0.00     0.031 C 
ATOM     59  C   UNL A   1      43.494  28.493  33.394  1.00  0.00     0.034 A 
BRANCH  46  60
ATOM     60  C   UNL A   1      41.967  26.548  27.719  1.00  0.00     0.023 A 
ATOM     61  C   UNL A   1      41.564  25.203  27.736  1.00  0.00     0.031 A 
ATOM     62  C   UNL A   1      42.656  27.015  26.585  1.00  0.00     0.131 A 
ATOM     63  C   UNL A   1      41.907  24.354  26.673  1.00  0.00     0.055 A 
ATOM     64  C   UNL A   1      42.928  26.184  25.496  1.00  0.00     0.041 A 
ATOM     65  F   UNL A   1      43.083  28.285  26.519  1.00  0.00    -0.206 F 
ATOM     66  C   UNL A   1      42.564  24.842  25.541  1.00  0.00     0.022 A 
BRANCH  63  67
ATOM     67  S   UNL A   1      41.588  22.577  26.843  1.00  0.00     0.124 S 
ATOM     68  O   UNL A   1      40.148  22.561  27.093  1.00  0.00    -0.237 OA
ATOM     69  O   UNL A   1      42.017  22.055  25.551  1.00  0.00    -0.237 OA
ATOM     70  O   UNL A   1      42.416  22.188  27.982  1.00  0.00    -0.744 OA
ENDBRANCH  63  67
ENDBRANCH  46  60
BRANCH  47  71
ATOM     71  C   UNL A   1      39.278  32.331  35.475  1.00  0.00     0.023 A 
ATOM     72  C   UNL A   1      39.697  33.655  35.683  1.00  0.00     0.031 A 
ATOM     73  C   UNL A   1      38.484  31.730  36.469  1.00  0.00     0.131 A 
ATOM     74  C   UNL A   1      39.373  34.314  36.881  1.00  0.00     0.055 A 
ATOM     75  C   UNL A   1      38.113  32.411  37.630  1.00  0.00     0.041 A 
ATOM     76  F   UNL A   1      38.051  30.468  36.323  1.00  0.00    -0.206 F 
ATOM     77  C   UNL A   1      38.573  33.705  37.849  1.00  0.00     0.022 A 
BRANCH  74  78
ATOM     78  S   UNL A   1      40.112  35.940  37.203  1.00  0.00     0.124 S 
ATOM     79  O   UNL A   1      39.468  36.315  38.457  1.00  0.00    -0.237 OA
ATOM     80  O   UNL A   1      41.532  35.615  37.283  1.00  0.00    -0.237 OA
ATOM     81  O   UNL A   1      39.719  36.729  36.038  1.00  0.00    -0.744 OA
ENDBRANCH  74  78
ENDBRANCH  47  71
BRANCH  59  82
ATOM     82  C   UNL A   1      44.679  28.097  34.235  1.00  0.00     0.023 A 
ATOM     83  C   UNL A   1      44.632  26.984  35.091  1.00  0.00     0.031 A 
ATOM     84  C   UNL A   1      45.871  28.839  34.172  1.00  0.00     0.131 A 
ATOM     85  C   UNL A   1      45.744  26.669  35.884  1.00  0.00     0.055 A 
ATOM     86  C   UNL A   1      46.995  28.485  34.920  1.00  0.00     0.041 A 
ATOM     87  F   UNL A   1      45.967  29.913  33.371  1.00  0.00    -0.206 F 
ATOM     88  C   UNL A   1      46.931  27.400  35.790  1.00  0.00     0.022 A 
BRANCH  85  89
ATOM     89  S   UNL A   1      45.595  25.330  37.098  1.00  0.00     0.124 S 
ATOM     90  O   UNL A   1      46.189  25.932  38.287  1.00  0.00    -0.237 OA
ATOM     91  O   UNL A   1      44.153  25.111  37.148  1.00  0.00    -0.237 OA
ATOM     92  O   UNL A   1      46.366  24.240  36.503  1.00  0.00    -0.744 OA
ENDBRANCH  85  89
ENDBRANCH  59  82
ENDBRANCH  33  34
ENDBRANCH  25  28
ENDBRANCH  23  24
ENDBRANCH  22  23
ENDBRANCH   1  22
TORSDOF 17
ENDMDL
