MODEL 1
REMARK VINA RESULT:     -11.0      0.000      0.000
REMARK SMILES CCC[C@H](C)C[N@H+]1[C@@H]2CC[C@H]1C[C@H](CC(=O)NCCCNC(=O)c1ccc(-c3c4nc(c(-c5cc(S(=O)(=O)[O-])ccc5F)c5ccc([nH]5)c(-c5cc(S(=O)(=O)[O-])ccc5F)c5nc(c(-c6cc(S(=O)(=O)[O-])ccc6F)c6ccc3[nH]6)C=C5)C=C4)cc1)C2
REMARK SMILES IDX 18 1 17 2 15 3 16 4 14 6 13 7 7 8 8 9 11 10 9 12 87 13 10 14
REMARK SMILES IDX 12 15 6 16 4 17 5 18 3 19 2 20 1 21 19 22 20 23 21 24 22 25
REMARK SMILES IDX 23 27 24 28 25 29 86 30 26 31 85 32 27 33 28 34 29 35 79 36
REMARK SMILES IDX 30 37 84 38 78 39 80 40 31 41 83 42 77 43 76 44 32 46 64 47
REMARK SMILES IDX 44 48 63 49 45 50 48 51 62 52 81 53 46 54 47 55 61 57 82 58
REMARK SMILES IDX 49 59 33 60 34 61 42 62 35 63 41 64 43 65 40 66 36 67 37 68
REMARK SMILES IDX 38 69 39 70 65 71 66 72 74 73 67 74 73 75 75 76 72 77 68 78
REMARK SMILES IDX 69 79 70 80 71 81 50 82 51 83 59 84 52 85 58 86 60 87 57 88
REMARK SMILES IDX 53 89 54 90 55 91 56 92
REMARK H PARENT 17 5 7 11 21 26 80 45 48 56
REMARK Flexibility Score: inf
ROOT
ATOM      1  C   UNL A   1      34.025  22.634  27.597  1.00  0.00     0.117 C 
ENDROOT
BRANCH   1   2
ATOM      2  N   UNL A   1      32.581  22.830  27.636  1.00  0.00    -0.356 N 
ATOM      3  C   UNL A   1      31.745  23.628  26.915  1.00  0.00     0.220 C 
ATOM      4  O   UNL A   1      30.533  23.529  27.124  1.00  0.00    -0.275 OA
ATOM      5  H   UNL A   1      32.122  22.279  28.312  1.00  0.00     0.163 HD
BRANCH   3   6
ATOM      6  C   UNL A   1      32.263  24.613  25.883  1.00  0.00     0.104 C 
BRANCH   6   7
ATOM      7  C   UNL A   1      32.539  26.019  26.460  1.00  0.00     0.010 C 
ATOM      8  N   UNL A   1      32.636  28.569  24.959  1.00  0.00    -0.330 N 
ATOM      9  C   UNL A   1      31.614  28.401  25.985  1.00  0.00     0.184 C 
ATOM     10  C   UNL A   1      33.858  28.115  25.632  1.00  0.00     0.184 C 
ATOM     11  H   UNL A   1      32.585  29.547  24.671  1.00  0.00     0.348 HD
ATOM     12  C   UNL A   1      32.303  29.083  27.183  1.00  0.00     0.071 C 
ATOM     13  C   UNL A   1      31.299  26.933  26.320  1.00  0.00     0.069 C 
ATOM     14  C   UNL A   1      33.792  28.837  26.973  1.00  0.00     0.071 C 
ATOM     15  C   UNL A   1      33.809  26.600  25.822  1.00  0.00     0.069 C 
BRANCH   8  16
ATOM     16  C   UNL A   1      32.498  28.136  23.563  1.00  0.00     0.265 C 
BRANCH  16  17
ATOM     17  C   UNL A   1      31.196  27.507  23.002  1.00  0.00     0.041 C 
ATOM     18  C   UNL A   1      30.289  28.546  22.340  1.00  0.00     0.013 C 
BRANCH  17  19
ATOM     19  C   UNL A   1      31.508  26.398  21.958  1.00  0.00     0.009 C 
BRANCH  19  20
ATOM     20  C   UNL A   1      32.980  25.965  21.935  1.00  0.00    -0.003 C 
ATOM     21  C   UNL A   1      33.175  24.489  22.271  1.00  0.00     0.004 C 
ENDBRANCH  19  20
ENDBRANCH  17  19
ENDBRANCH  16  17
ENDBRANCH   8  16
ENDBRANCH   6   7
ENDBRANCH   3   6
ENDBRANCH   1   2
BRANCH   1  22
ATOM     22  C   UNL A   1      34.491  21.765  26.427  1.00  0.00     0.042 C 
BRANCH  22  23
ATOM     23  C   UNL A   1      35.830  22.170  25.826  1.00  0.00     0.118 C 
BRANCH  23  24
ATOM     24  N   UNL A   1      36.756  21.054  25.801  1.00  0.00    -0.352 N 
ATOM     25  C   UNL A   1      38.129  21.061  25.775  1.00  0.00     0.251 C 
ATOM     26  H   UNL A   1      36.340  20.162  25.801  1.00  0.00     0.163 HD
ATOM     27  O   UNL A   1      38.713  20.019  25.462  1.00  0.00    -0.269 OA
BRANCH  25  28
ATOM     28  C   UNL A   1      38.914  22.280  26.100  1.00  0.00     0.039 A 
ATOM     29  C   UNL A   1      40.098  22.143  26.835  1.00  0.00     0.014 A 
ATOM     30  C   UNL A   1      38.468  23.561  25.760  1.00  0.00     0.014 A 
ATOM     31  C   UNL A   1      40.836  23.274  27.204  1.00  0.00     0.010 A 
ATOM     32  C   UNL A   1      39.247  24.683  26.057  1.00  0.00     0.010 A 
ATOM     33  C   UNL A   1      40.426  24.556  26.807  1.00  0.00    -0.014 A 
BRANCH  33  34
ATOM     34  C   UNL A   1      41.179  25.774  27.222  1.00  0.00     0.031 A 
ATOM     35  C   UNL A   1      40.520  26.798  28.115  1.00  0.00     0.074 A 
ATOM     36  C   UNL A   1      42.432  25.985  26.771  1.00  0.00     0.049 A 
ATOM     37  N   UNL A   1      40.973  27.953  28.530  1.00  0.00    -0.248 NA
ATOM     38  C   UNL A   1      39.157  26.490  28.576  1.00  0.00     0.031 C 
ATOM     39  C   UNL A   1      43.172  25.089  25.882  1.00  0.00     0.029 A 
ATOM     40  N   UNL A   1      43.304  27.024  26.995  1.00  0.00    -0.354 N 
ATOM     41  C   UNL A   1      39.945  28.522  29.276  1.00  0.00     0.074 A 
ATOM     42  C   UNL A   1      38.827  27.605  29.209  1.00  0.00     0.031 C 
ATOM     43  C   UNL A   1      44.394  25.602  25.658  1.00  0.00     0.029 A 
ATOM     44  C   UNL A   1      44.511  26.883  26.348  1.00  0.00     0.049 A 
ATOM     45  H   UNL A   1      43.085  27.795  27.564  1.00  0.00     0.167 HD
ATOM     46  C   UNL A   1      39.937  29.687  29.970  1.00  0.00     0.034 A 
ATOM     47  C   UNL A   1      45.586  27.696  26.309  1.00  0.00     0.034 A 
ATOM     48  C   UNL A   1      41.071  30.576  30.059  1.00  0.00     0.049 A 
ATOM     49  C   UNL A   1      45.552  28.992  27.083  1.00  0.00     0.074 A 
ATOM     50  C   UNL A   1      41.195  31.745  30.791  1.00  0.00     0.029 A 
ATOM     51  N   UNL A   1      42.276  30.396  29.394  1.00  0.00    -0.354 N 
ATOM     52  N   UNL A   1      44.587  29.489  27.822  1.00  0.00    -0.248 NA
ATOM     53  C   UNL A   1      46.758  29.829  27.027  1.00  0.00     0.031 C 
ATOM     54  C   UNL A   1      42.449  32.304  30.518  1.00  0.00     0.029 A 
ATOM     55  C   UNL A   1      43.136  31.447  29.675  1.00  0.00     0.049 A 
ATOM     56  H   UNL A   1      42.489  29.634  28.808  1.00  0.00     0.167 HD
ATOM     57  C   UNL A   1      45.086  30.679  28.347  1.00  0.00     0.074 A 
ATOM     58  C   UNL A   1      46.439  30.816  27.850  1.00  0.00     0.031 C 
ATOM     59  C   UNL A   1      44.483  31.573  29.170  1.00  0.00     0.034 A 
BRANCH  46  60
ATOM     60  C   UNL A   1      38.654  30.078  30.666  1.00  0.00     0.023 A 
ATOM     61  C   UNL A   1      37.645  30.805  30.011  1.00  0.00     0.031 A 
ATOM     62  C   UNL A   1      38.445  29.734  32.015  1.00  0.00     0.131 A 
ATOM     63  C   UNL A   1      36.513  31.231  30.721  1.00  0.00     0.055 A 
ATOM     64  C   UNL A   1      37.278  30.091  32.694  1.00  0.00     0.041 A 
ATOM     65  F   UNL A   1      39.380  29.057  32.700  1.00  0.00    -0.206 F 
ATOM     66  C   UNL A   1      36.310  30.858  32.052  1.00  0.00     0.022 A 
BRANCH  63  67
ATOM     67  S   UNL A   1      35.375  32.399  29.926  1.00  0.00     0.124 S 
ATOM     68  O   UNL A   1      34.882  31.606  28.800  1.00  0.00    -0.237 OA
ATOM     69  O   UNL A   1      34.406  32.666  30.988  1.00  0.00    -0.237 OA
ATOM     70  O   UNL A   1      36.228  33.522  29.563  1.00  0.00    -0.744 OA
ENDBRANCH  63  67
ENDBRANCH  46  60
BRANCH  47  71
ATOM     71  C   UNL A   1      46.790  27.327  25.510  1.00  0.00     0.023 A 
ATOM     72  C   UNL A   1      46.972  27.823  24.209  1.00  0.00     0.031 A 
ATOM     73  C   UNL A   1      47.748  26.430  26.013  1.00  0.00     0.131 A 
ATOM     74  C   UNL A   1      48.056  27.379  23.435  1.00  0.00     0.055 A 
ATOM     75  C   UNL A   1      48.854  26.033  25.259  1.00  0.00     0.041 A 
ATOM     76  F   UNL A   1      47.625  25.928  27.252  1.00  0.00    -0.206 F 
ATOM     77  C   UNL A   1      49.005  26.497  23.956  1.00  0.00     0.022 A 
BRANCH  74  78
ATOM     78  S   UNL A   1      48.155  27.902  21.700  1.00  0.00     0.124 S 
ATOM     79  O   UNL A   1      46.817  28.435  21.473  1.00  0.00    -0.237 OA
ATOM     80  O   UNL A   1      49.238  28.878  21.741  1.00  0.00    -0.237 OA
ATOM     81  O   UNL A   1      48.462  26.661  20.989  1.00  0.00    -0.744 OA
ENDBRANCH  74  78
ENDBRANCH  47  71
BRANCH  59  82
ATOM     82  C   UNL A   1      45.310  32.750  29.627  1.00  0.00     0.023 A 
ATOM     83  C   UNL A   1      45.327  33.964  28.919  1.00  0.00     0.031 A 
ATOM     84  C   UNL A   1      46.103  32.646  30.784  1.00  0.00     0.131 A 
ATOM     85  C   UNL A   1      46.163  35.008  29.343  1.00  0.00     0.055 A 
ATOM     86  C   UNL A   1      46.888  33.709  31.233  1.00  0.00     0.041 A 
ATOM     87  F   UNL A   1      46.125  31.510  31.498  1.00  0.00    -0.206 F 
ATOM     88  C   UNL A   1      46.932  34.893  30.504  1.00  0.00     0.022 A 
BRANCH  85  89
ATOM     89  S   UNL A   1      46.302  36.490  28.306  1.00  0.00     0.124 S 
ATOM     90  O   UNL A   1      44.998  37.117  28.495  1.00  0.00    -0.237 OA
ATOM     91  O   UNL A   1      47.436  37.185  28.904  1.00  0.00    -0.237 OA
ATOM     92  O   UNL A   1      46.543  35.951  26.968  1.00  0.00    -0.744 OA
ENDBRANCH  85  89
ENDBRANCH  59  82
ENDBRANCH  33  34
ENDBRANCH  25  28
ENDBRANCH  23  24
ENDBRANCH  22  23
ENDBRANCH   1  22
TORSDOF 18
ENDMDL
MODEL 2
REMARK VINA RESULT:     -10.8      4.520     10.304
REMARK SMILES CCC[C@H](C)C[N@H+]1[C@@H]2CC[C@H]1C[C@H](CC(=O)NCCCNC(=O)c1ccc(-c3c4nc(c(-c5cc(S(=O)(=O)[O-])ccc5F)c5ccc([nH]5)c(-c5cc(S(=O)(=O)[O-])ccc5F)c5nc(c(-c6cc(S(=O)(=O)[O-])ccc6F)c6ccc3[nH]6)C=C5)C=C4)cc1)C2
REMARK SMILES IDX 18 1 17 2 15 3 16 4 14 6 13 7 7 8 8 9 11 10 9 12 87 13 10 14
REMARK SMILES IDX 12 15 6 16 4 17 5 18 3 19 2 20 1 21 19 22 20 23 21 24 22 25
REMARK SMILES IDX 23 27 24 28 25 29 86 30 26 31 85 32 27 33 28 34 29 35 79 36
REMARK SMILES IDX 30 37 84 38 78 39 80 40 31 41 83 42 77 43 76 44 32 46 64 47
REMARK SMILES IDX 44 48 63 49 45 50 48 51 62 52 81 53 46 54 47 55 61 57 82 58
REMARK SMILES IDX 49 59 33 60 34 61 42 62 35 63 41 64 43 65 40 66 36 67 37 68
REMARK SMILES IDX 38 69 39 70 65 71 66 72 74 73 67 74 73 75 75 76 72 77 68 78
REMARK SMILES IDX 69 79 70 80 71 81 50 82 51 83 59 84 52 85 58 86 60 87 57 88
REMARK SMILES IDX 53 89 54 90 55 91 56 92
REMARK H PARENT 17 5 7 11 21 26 80 45 48 56
REMARK Flexibility Score: inf
ROOT
ATOM      1  C   UNL A   1      42.749  19.575  26.399  1.00  0.00     0.117 C 
ENDROOT
BRANCH   1   2
ATOM      2  N   UNL A   1      43.236  19.450  25.031  1.00  0.00    -0.356 N 
ATOM      3  C   UNL A   1      44.384  19.867  24.425  1.00  0.00     0.220 C 
ATOM      4  O   UNL A   1      44.558  19.551  23.246  1.00  0.00    -0.275 OA
ATOM      5  H   UNL A   1      42.617  18.975  24.429  1.00  0.00     0.163 HD
BRANCH   3   6
ATOM      6  C   UNL A   1      45.427  20.691  25.158  1.00  0.00     0.104 C 
BRANCH   6   7
ATOM      7  C   UNL A   1      45.296  22.210  24.907  1.00  0.00     0.010 C 
ATOM      8  N   UNL A   1      44.904  24.319  26.948  1.00  0.00    -0.330 N 
ATOM      9  C   UNL A   1      46.122  24.341  26.145  1.00  0.00     0.184 C 
ATOM     10  C   UNL A   1      43.852  24.121  25.946  1.00  0.00     0.184 C 
ATOM     11  H   UNL A   1      44.902  25.192  27.476  1.00  0.00     0.348 HD
ATOM     12  C   UNL A   1      45.712  25.336  25.042  1.00  0.00     0.071 C 
ATOM     13  C   UNL A   1      46.486  22.981  25.524  1.00  0.00     0.069 C 
ATOM     14  C   UNL A   1      44.210  25.141  24.872  1.00  0.00     0.071 C 
ATOM     15  C   UNL A   1      43.925  22.697  25.396  1.00  0.00     0.069 C 
BRANCH   8  16
ATOM     16  C   UNL A   1      44.735  23.552  28.187  1.00  0.00     0.265 C 
BRANCH  16  17
ATOM     17  C   UNL A   1      43.645  23.882  29.241  1.00  0.00     0.041 C 
ATOM     18  C   UNL A   1      42.531  22.834  29.271  1.00  0.00     0.013 C 
BRANCH  17  19
ATOM     19  C   UNL A   1      44.252  23.990  30.668  1.00  0.00     0.009 C 
BRANCH  19  20
ATOM     20  C   UNL A   1      44.624  25.422  31.077  1.00  0.00    -0.003 C 
ATOM     21  C   UNL A   1      46.102  25.738  30.869  1.00  0.00     0.004 C 
ENDBRANCH  19  20
ENDBRANCH  17  19
ENDBRANCH  16  17
ENDBRANCH   8  16
ENDBRANCH   6   7
ENDBRANCH   3   6
ENDBRANCH   1   2
BRANCH   1  22
ATOM     22  C   UNL A   1      41.245  19.840  26.489  1.00  0.00     0.042 C 
BRANCH  22  23
ATOM     23  C   UNL A   1      40.864  21.309  26.609  1.00  0.00     0.118 C 
BRANCH  23  24
ATOM     24  N   UNL A   1      39.530  21.552  26.094  1.00  0.00    -0.352 N 
ATOM     25  C   UNL A   1      38.727  22.656  26.238  1.00  0.00     0.251 C 
ATOM     26  H   UNL A   1      39.144  20.819  25.563  1.00  0.00     0.163 HD
ATOM     27  O   UNL A   1      37.526  22.546  25.971  1.00  0.00    -0.269 OA
BRANCH  25  28
ATOM     28  C   UNL A   1      39.261  23.959  26.713  1.00  0.00     0.039 A 
ATOM     29  C   UNL A   1      39.035  24.336  28.043  1.00  0.00     0.014 A 
ATOM     30  C   UNL A   1      39.913  24.851  25.854  1.00  0.00     0.014 A 
ATOM     31  C   UNL A   1      39.478  25.579  28.510  1.00  0.00     0.010 A 
ATOM     32  C   UNL A   1      40.427  26.055  26.343  1.00  0.00     0.010 A 
ATOM     33  C   UNL A   1      40.191  26.447  27.669  1.00  0.00    -0.014 A 
BRANCH  33  34
ATOM     34  C   UNL A   1      40.638  27.789  28.139  1.00  0.00     0.031 A 
ATOM     35  C   UNL A   1      42.105  28.146  28.111  1.00  0.00     0.074 A 
ATOM     36  C   UNL A   1      39.743  28.671  28.627  1.00  0.00     0.049 A 
ATOM     37  N   UNL A   1      42.706  29.227  28.539  1.00  0.00    -0.248 NA
ATOM     38  C   UNL A   1      43.018  27.136  27.553  1.00  0.00     0.031 C 
ATOM     39  C   UNL A   1      38.301  28.441  28.734  1.00  0.00     0.029 A 
ATOM     40  N   UNL A   1      39.913  29.940  29.128  1.00  0.00    -0.354 N 
ATOM     41  C   UNL A   1      44.066  29.017  28.328  1.00  0.00     0.074 A 
ATOM     42  C   UNL A   1      44.201  27.683  27.785  1.00  0.00     0.031 C 
ATOM     43  C   UNL A   1      37.717  29.539  29.242  1.00  0.00     0.029 A 
ATOM     44  C   UNL A   1      38.742  30.535  29.539  1.00  0.00     0.049 A 
ATOM     45  H   UNL A   1      40.791  30.380  29.187  1.00  0.00     0.167 HD
ATOM     46  C   UNL A   1      45.103  29.863  28.546  1.00  0.00     0.034 A 
ATOM     47  C   UNL A   1      38.520  31.742  30.098  1.00  0.00     0.034 A 
ATOM     48  C   UNL A   1      44.952  31.205  29.056  1.00  0.00     0.049 A 
ATOM     49  C   UNL A   1      39.691  32.664  30.338  1.00  0.00     0.074 A 
ATOM     50  C   UNL A   1      45.926  32.170  29.249  1.00  0.00     0.029 A 
ATOM     51  N   UNL A   1      43.749  31.772  29.456  1.00  0.00    -0.354 N 
ATOM     52  N   UNL A   1      40.965  32.466  30.087  1.00  0.00    -0.248 NA
ATOM     53  C   UNL A   1      39.392  33.977  30.925  1.00  0.00     0.031 C 
ATOM     54  C   UNL A   1      45.324  33.295  29.823  1.00  0.00     0.029 A 
ATOM     55  C   UNL A   1      43.963  33.062  29.921  1.00  0.00     0.049 A 
ATOM     56  H   UNL A   1      42.873  31.326  29.415  1.00  0.00     0.167 HD
ATOM     57  C   UNL A   1      41.611  33.644  30.454  1.00  0.00     0.074 A 
ATOM     58  C   UNL A   1      40.585  34.549  30.929  1.00  0.00     0.031 C 
ATOM     59  C   UNL A   1      42.931  33.953  30.396  1.00  0.00     0.034 A 
BRANCH  46  60
ATOM     60  C   UNL A   1      46.496  29.351  28.259  1.00  0.00     0.023 A 
ATOM     61  C   UNL A   1      47.303  28.791  29.264  1.00  0.00     0.031 A 
ATOM     62  C   UNL A   1      47.031  29.443  26.961  1.00  0.00     0.131 A 
ATOM     63  C   UNL A   1      48.624  28.417  28.975  1.00  0.00     0.055 A 
ATOM     64  C   UNL A   1      48.319  28.992  26.661  1.00  0.00     0.041 A 
ATOM     65  F   UNL A   1      46.315  29.985  25.963  1.00  0.00    -0.206 F 
ATOM     66  C   UNL A   1      49.130  28.490  27.675  1.00  0.00     0.022 A 
BRANCH  63  67
ATOM     67  S   UNL A   1      49.721  27.964  30.347  1.00  0.00     0.124 S 
ATOM     68  O   UNL A   1      50.231  26.669  29.899  1.00  0.00    -0.237 OA
ATOM     69  O   UNL A   1      50.687  29.061  30.353  1.00  0.00    -0.237 OA
ATOM     70  O   UNL A   1      48.830  27.911  31.499  1.00  0.00    -0.744 OA
ENDBRANCH  63  67
ENDBRANCH  46  60
BRANCH  47  71
ATOM     71  C   UNL A   1      37.140  32.162  30.478  1.00  0.00     0.023 A 
ATOM     72  C   UNL A   1      36.274  32.734  29.532  1.00  0.00     0.031 A 
ATOM     73  C   UNL A   1      36.686  32.050  31.804  1.00  0.00     0.131 A 
ATOM     74  C   UNL A   1      35.020  33.221  29.934  1.00  0.00     0.055 A 
ATOM     75  C   UNL A   1      35.417  32.485  32.188  1.00  0.00     0.041 A 
ATOM     76  F   UNL A   1      37.472  31.506  32.747  1.00  0.00    -0.206 F 
ATOM     77  C   UNL A   1      34.581  33.089  31.253  1.00  0.00     0.022 A 
BRANCH  74  78
ATOM     78  S   UNL A   1      34.008  34.115  28.723  1.00  0.00     0.124 S 
ATOM     79  O   UNL A   1      33.752  33.080  27.727  1.00  0.00    -0.237 OA
ATOM     80  O   UNL A   1      32.865  34.526  29.531  1.00  0.00    -0.237 OA
ATOM     81  O   UNL A   1      34.882  35.201  28.285  1.00  0.00    -0.744 OA
ENDBRANCH  74  78
ENDBRANCH  47  71
BRANCH  59  82
ATOM     82  C   UNL A   1      43.327  35.349  30.808  1.00  0.00     0.023 A 
ATOM     83  C   UNL A   1      43.491  35.707  32.157  1.00  0.00     0.031 A 
ATOM     84  C   UNL A   1      43.531  36.340  29.830  1.00  0.00     0.131 A 
ATOM     85  C   UNL A   1      43.793  37.035  32.496  1.00  0.00     0.055 A 
ATOM     86  C   UNL A   1      43.889  37.645  30.171  1.00  0.00     0.041 A 
ATOM     87  F   UNL A   1      43.387  36.055  28.526  1.00  0.00    -0.206 F 
ATOM     88  C   UNL A   1      44.008  38.002  31.510  1.00  0.00     0.022 A 
BRANCH  85  89
ATOM     89  S   UNL A   1      43.815  37.503  34.248  1.00  0.00     0.124 S 
ATOM     90  O   UNL A   1      43.661  36.212  34.911  1.00  0.00    -0.237 OA
ATOM     91  O   UNL A   1      45.121  38.138  34.385  1.00  0.00    -0.237 OA
ATOM     92  O   UNL A   1      42.672  38.406  34.376  1.00  0.00    -0.744 OA
ENDBRANCH  85  89
ENDBRANCH  59  82
ENDBRANCH  33  34
ENDBRANCH  25  28
ENDBRANCH  23  24
ENDBRANCH  22  23
ENDBRANCH   1  22
TORSDOF 18
ENDMDL
MODEL 3
REMARK VINA RESULT:     -10.7      2.493      8.081
REMARK SMILES CCC[C@H](C)C[N@H+]1[C@@H]2CC[C@H]1C[C@H](CC(=O)NCCCNC(=O)c1ccc(-c3c4nc(c(-c5cc(S(=O)(=O)[O-])ccc5F)c5ccc([nH]5)c(-c5cc(S(=O)(=O)[O-])ccc5F)c5nc(c(-c6cc(S(=O)(=O)[O-])ccc6F)c6ccc3[nH]6)C=C5)C=C4)cc1)C2
REMARK SMILES IDX 18 1 17 2 15 3 16 4 14 6 13 7 7 8 8 9 11 10 9 12 87 13 10 14
REMARK SMILES IDX 12 15 6 16 4 17 5 18 3 19 2 20 1 21 19 22 20 23 21 24 22 25
REMARK SMILES IDX 23 27 24 28 25 29 86 30 26 31 85 32 27 33 28 34 29 35 79 36
REMARK SMILES IDX 30 37 84 38 78 39 80 40 31 41 83 42 77 43 76 44 32 46 64 47
REMARK SMILES IDX 44 48 63 49 45 50 48 51 62 52 81 53 46 54 47 55 61 57 82 58
REMARK SMILES IDX 49 59 33 60 34 61 42 62 35 63 41 64 43 65 40 66 36 67 37 68
REMARK SMILES IDX 38 69 39 70 65 71 66 72 74 73 67 74 73 75 75 76 72 77 68 78
REMARK SMILES IDX 69 79 70 80 71 81 50 82 51 83 59 84 52 85 58 86 60 87 57 88
REMARK SMILES IDX 53 89 54 90 55 91 56 92
REMARK H PARENT 17 5 7 11 21 26 80 45 48 56
REMARK Flexibility Score: inf
ROOT
ATOM      1  C   UNL A   1      35.417  20.919  25.080  1.00  0.00     0.117 C 
ENDROOT
BRANCH   1   2
ATOM      2  N   UNL A   1      34.017  20.561  25.274  1.00  0.00    -0.356 N 
ATOM      3  C   UNL A   1      32.860  21.099  24.797  1.00  0.00     0.220 C 
ATOM      4  O   UNL A   1      31.802  20.529  25.079  1.00  0.00    -0.275 OA
ATOM      5  H   UNL A   1      33.883  19.782  25.862  1.00  0.00     0.163 HD
BRANCH   3   6
ATOM      6  C   UNL A   1      32.846  22.354  23.944  1.00  0.00     0.104 C 
BRANCH   6   7
ATOM      7  C   UNL A   1      31.712  23.335  24.313  1.00  0.00     0.010 C 
ATOM      8  N   UNL A   1      31.941  26.266  24.663  1.00  0.00    -0.330 N 
ATOM      9  C   UNL A   1      31.086  25.754  23.598  1.00  0.00     0.184 C 
ATOM     10  C   UNL A   1      31.543  25.459  25.822  1.00  0.00     0.184 C 
ATOM     11  H   UNL A   1      31.769  27.272  24.701  1.00  0.00     0.348 HD
ATOM     12  C   UNL A   1      29.715  25.780  24.302  1.00  0.00     0.071 C 
ATOM     13  C   UNL A   1      31.428  24.321  23.156  1.00  0.00     0.069 C 
ATOM     14  C   UNL A   1      30.021  25.523  25.772  1.00  0.00     0.071 C 
ATOM     15  C   UNL A   1      32.038  24.025  25.646  1.00  0.00     0.069 C 
BRANCH   8  16
ATOM     16  C   UNL A   1      33.384  26.502  24.536  1.00  0.00     0.265 C 
BRANCH  16  17
ATOM     17  C   UNL A   1      34.006  27.923  24.507  1.00  0.00     0.041 C 
ATOM     18  C   UNL A   1      33.931  28.560  23.118  1.00  0.00     0.013 C 
BRANCH  17  19
ATOM     19  C   UNL A   1      33.299  28.870  25.517  1.00  0.00     0.009 C 
BRANCH  19  20
ATOM     20  C   UNL A   1      33.760  28.685  26.968  1.00  0.00    -0.003 C 
ATOM     21  C   UNL A   1      35.177  29.196  27.215  1.00  0.00     0.004 C 
ENDBRANCH  19  20
ENDBRANCH  17  19
ENDBRANCH  16  17
ENDBRANCH   8  16
ENDBRANCH   6   7
ENDBRANCH   3   6
ENDBRANCH   1   2
BRANCH   1  22
ATOM     22  C   UNL A   1      35.876  22.082  25.962  1.00  0.00     0.042 C 
BRANCH  22  23
ATOM     23  C   UNL A   1      37.273  22.602  25.653  1.00  0.00     0.118 C 
BRANCH  23  24
ATOM     24  N   UNL A   1      38.294  21.685  26.122  1.00  0.00    -0.352 N 
ATOM     25  C   UNL A   1      39.570  21.947  26.555  1.00  0.00     0.251 C 
ATOM     26  H   UNL A   1      38.035  20.735  26.130  1.00  0.00     0.163 HD
ATOM     27  O   UNL A   1      40.367  21.007  26.632  1.00  0.00    -0.269 OA
BRANCH  25  28
ATOM     28  C   UNL A   1      40.009  23.320  26.918  1.00  0.00     0.039 A 
ATOM     29  C   UNL A   1      40.758  23.501  28.087  1.00  0.00     0.014 A 
ATOM     30  C   UNL A   1      39.633  24.441  26.170  1.00  0.00     0.014 A 
ATOM     31  C   UNL A   1      41.144  24.786  28.487  1.00  0.00     0.010 A 
ATOM     32  C   UNL A   1      40.088  25.713  26.525  1.00  0.00     0.010 A 
ATOM     33  C   UNL A   1      40.825  25.906  27.704  1.00  0.00    -0.014 A 
BRANCH  33  34
ATOM     34  C   UNL A   1      41.196  27.284  28.133  1.00  0.00     0.031 A 
ATOM     35  C   UNL A   1      42.642  27.716  28.109  1.00  0.00     0.074 A 
ATOM     36  C   UNL A   1      40.250  28.134  28.581  1.00  0.00     0.049 A 
ATOM     37  N   UNL A   1      43.181  28.840  28.507  1.00  0.00    -0.248 NA
ATOM     38  C   UNL A   1      43.614  26.738  27.594  1.00  0.00     0.031 C 
ATOM     39  C   UNL A   1      38.821  27.831  28.681  1.00  0.00     0.029 A 
ATOM     40  N   UNL A   1      40.347  29.425  29.042  1.00  0.00    -0.354 N 
ATOM     41  C   UNL A   1      44.552  28.696  28.317  1.00  0.00     0.074 A 
ATOM     42  C   UNL A   1      44.764  27.354  27.820  1.00  0.00     0.031 C 
ATOM     43  C   UNL A   1      38.174  28.913  29.146  1.00  0.00     0.029 A 
ATOM     44  C   UNL A   1      39.142  29.971  29.420  1.00  0.00     0.049 A 
ATOM     45  H   UNL A   1      41.200  29.913  29.096  1.00  0.00     0.167 HD
ATOM     46  C   UNL A   1      45.541  29.602  28.518  1.00  0.00     0.034 A 
ATOM     47  C   UNL A   1      38.850  31.182  29.936  1.00  0.00     0.034 A 
ATOM     48  C   UNL A   1      45.313  30.950  28.981  1.00  0.00     0.049 A 
ATOM     49  C   UNL A   1      39.968  32.172  30.158  1.00  0.00     0.074 A 
ATOM     50  C   UNL A   1      46.234  31.970  29.152  1.00  0.00     0.029 A 
ATOM     51  N   UNL A   1      44.079  31.466  29.349  1.00  0.00    -0.354 N 
ATOM     52  N   UNL A   1      41.254  32.033  29.928  1.00  0.00    -0.248 NA
ATOM     53  C   UNL A   1      39.594  33.485  30.698  1.00  0.00     0.031 C 
ATOM     54  C   UNL A   1      45.567  33.081  29.682  1.00  0.00     0.029 A 
ATOM     55  C   UNL A   1      44.219  32.780  29.773  1.00  0.00     0.049 A 
ATOM     56  H   UNL A   1      43.228  30.973  29.314  1.00  0.00     0.167 HD
ATOM     57  C   UNL A   1      41.833  33.254  30.261  1.00  0.00     0.074 A 
ATOM     58  C   UNL A   1      40.756  34.120  30.695  1.00  0.00     0.031 C 
ATOM     59  C   UNL A   1      43.136  33.631  30.207  1.00  0.00     0.034 A 
BRANCH  46  60
ATOM     60  C   UNL A   1      46.962  29.154  28.262  1.00  0.00     0.023 A 
ATOM     61  C   UNL A   1      47.436  28.893  26.965  1.00  0.00     0.031 A 
ATOM     62  C   UNL A   1      47.851  28.967  29.337  1.00  0.00     0.131 A 
ATOM     63  C   UNL A   1      48.731  28.386  26.781  1.00  0.00     0.055 A 
ATOM     64  C   UNL A   1      49.166  28.542  29.139  1.00  0.00     0.041 A 
ATOM     65  F   UNL A   1      47.452  29.183  30.600  1.00  0.00    -0.206 F 
ATOM     66  C   UNL A   1      49.609  28.233  27.856  1.00  0.00     0.022 A 
BRANCH  63  67
ATOM     67  S   UNL A   1      49.209  27.798  25.132  1.00  0.00     0.124 S 
ATOM     68  O   UNL A   1      50.381  28.627  24.854  1.00  0.00    -0.237 OA
ATOM     69  O   UNL A   1      49.475  26.380  25.370  1.00  0.00    -0.237 OA
ATOM     70  O   UNL A   1      48.041  28.085  24.310  1.00  0.00    -0.744 OA
ENDBRANCH  63  67
ENDBRANCH  46  60
BRANCH  47  71
ATOM     71  C   UNL A   1      37.446  31.541  30.288  1.00  0.00     0.023 A 
ATOM     72  C   UNL A   1      36.562  32.032  29.314  1.00  0.00     0.031 A 
ATOM     73  C   UNL A   1      36.983  31.452  31.612  1.00  0.00     0.131 A 
ATOM     74  C   UNL A   1      35.280  32.466  29.685  1.00  0.00     0.055 A 
ATOM     75  C   UNL A   1      35.688  31.833  31.968  1.00  0.00     0.041 A 
ATOM     76  F   UNL A   1      37.786  30.985  32.583  1.00  0.00    -0.206 F 
ATOM     77  C   UNL A   1      34.833  32.358  31.004  1.00  0.00     0.022 A 
BRANCH  74  78
ATOM     78  S   UNL A   1      34.235  33.261  28.433  1.00  0.00     0.124 S 
ATOM     79  O   UNL A   1      33.405  34.138  29.251  1.00  0.00    -0.237 OA
ATOM     80  O   UNL A   1      35.225  33.917  27.587  1.00  0.00    -0.237 OA
ATOM     81  O   UNL A   1      33.533  32.137  27.813  1.00  0.00    -0.744 OA
ENDBRANCH  74  78
ENDBRANCH  47  71
BRANCH  59  82
ATOM     82  C   UNL A   1      43.454  35.059  30.576  1.00  0.00     0.023 A 
ATOM     83  C   UNL A   1      43.640  35.456  31.911  1.00  0.00     0.031 A 
ATOM     84  C   UNL A   1      43.558  36.038  29.572  1.00  0.00     0.131 A 
ATOM     85  C   UNL A   1      43.866  36.808  32.212  1.00  0.00     0.055 A 
ATOM     86  C   UNL A   1      43.842  37.371  29.874  1.00  0.00     0.041 A 
ATOM     87  F   UNL A   1      43.389  35.715  28.281  1.00  0.00    -0.206 F 
ATOM     88  C   UNL A   1      43.983  37.765  31.200  1.00  0.00     0.022 A 
BRANCH  85  89
ATOM     89  S   UNL A   1      43.917  37.316  33.953  1.00  0.00     0.124 S 
ATOM     90  O   UNL A   1      44.115  36.041  34.637  1.00  0.00    -0.237 OA
ATOM     91  O   UNL A   1      45.051  38.234  33.977  1.00  0.00    -0.237 OA
ATOM     92  O   UNL A   1      42.612  37.939  34.167  1.00  0.00    -0.744 OA
ENDBRANCH  85  89
ENDBRANCH  59  82
ENDBRANCH  33  34
ENDBRANCH  25  28
ENDBRANCH  23  24
ENDBRANCH  22  23
ENDBRANCH   1  22
TORSDOF 18
ENDMDL
