MODEL 1
REMARK VINA RESULT:     -11.3      0.000      0.000
REMARK SMILES CCC(CC)(CC(=O)Nc1cccc(Br)c1)C(=O)NCCCNC(=O)c1ccc(-c2c3nc(c(-c4cc(S(=O)(=O)[O-])ccc4F)c4ccc([nH]4)c(-c4cc(S(=O)(=O)[O-])ccc4F)c4nc(c(-c5cc(S(=O)(=O)[O-])ccc5F)c5ccc2[nH]5)C=C4)C=C3)cc1
REMARK SMILES IDX 21 1 20 2 19 3 17 4 18 5 3 7 2 8 1 9 4 10 5 11 6 12 7 13
REMARK SMILES IDX 8 14 9 15 10 17 11 18 16 19 12 20 14 21 13 22 15 23 22 24
REMARK SMILES IDX 23 25 24 26 25 28 26 29 27 30 88 31 28 32 87 33 29 34 30 35
REMARK SMILES IDX 31 36 81 37 32 38 86 39 80 40 82 41 33 42 85 43 79 44 78 45
REMARK SMILES IDX 34 47 66 48 46 49 65 50 47 51 50 52 64 53 83 54 48 55 49 56
REMARK SMILES IDX 63 58 84 59 51 60 35 61 36 62 44 63 37 64 43 65 45 66 42 67
REMARK SMILES IDX 38 68 39 69 40 70 41 71 67 72 68 73 76 74 69 75 75 76 77 77
REMARK SMILES IDX 74 78 70 79 71 80 72 81 73 82 52 83 53 84 61 85 54 86 60 87
REMARK SMILES IDX 62 88 59 89 55 90 56 91 57 92 58 93
REMARK H PARENT 19 6 9 16 23 27 82 46 50 57
REMARK Flexibility Score: inf
ROOT
ATOM      1  C   UNL A   1      33.019  29.568  25.060  1.00  0.00     0.042 C 
ENDROOT
BRANCH   1   2
ATOM      2  C   UNL A   1      32.059  28.709  24.258  1.00  0.00     0.117 C 
BRANCH   2   3
ATOM      3  N   UNL A   1      32.691  28.123  23.092  1.00  0.00    -0.356 N 
ATOM      4  C   UNL A   1      33.015  26.856  22.753  1.00  0.00     0.226 C 
ATOM      5  O   UNL A   1      33.661  26.741  21.705  1.00  0.00    -0.274 OA
ATOM      6  H   UNL A   1      32.933  28.786  22.406  1.00  0.00     0.163 HD
BRANCH   4   7
ATOM      7  C   UNL A   1      32.617  25.622  23.594  1.00  0.00     0.057 C 
BRANCH   7   8
ATOM      8  C   UNL A   1      33.273  24.382  22.925  1.00  0.00     0.014 C 
ATOM      9  C   UNL A   1      34.642  23.922  23.410  1.00  0.00     0.005 C 
ENDBRANCH   7   8
BRANCH   7  10
ATOM     10  C   UNL A   1      31.070  25.410  23.602  1.00  0.00     0.014 C 
ATOM     11  C   UNL A   1      30.598  24.000  23.262  1.00  0.00     0.005 C 
ENDBRANCH   7  10
BRANCH   7  12
ATOM     12  C   UNL A   1      33.203  25.736  25.037  1.00  0.00     0.117 C 
BRANCH  12  13
ATOM     13  C   UNL A   1      32.281  25.424  26.222  1.00  0.00     0.225 C 
ATOM     14  O   UNL A   1      31.577  26.309  26.713  1.00  0.00    -0.275 OA
ATOM     15  N   UNL A   1      32.112  24.129  26.661  1.00  0.00    -0.326 N 
ATOM     16  H   UNL A   1      31.338  23.975  27.250  1.00  0.00     0.169 HD
BRANCH  15  17
ATOM     17  C   UNL A   1      32.897  23.004  26.380  1.00  0.00     0.042 A 
ATOM     18  C   UNL A   1      34.164  22.877  26.950  1.00  0.00     0.026 A 
ATOM     19  C   UNL A   1      32.391  21.966  25.603  1.00  0.00     0.041 A 
ATOM     20  C   UNL A   1      35.017  21.843  26.568  1.00  0.00     0.003 A 
ATOM     21  C   UNL A   1      33.228  20.897  25.267  1.00  0.00     0.020 A 
ATOM     22  C   UNL A   1      34.554  20.858  25.703  1.00  0.00     0.016 A 
ATOM     23  Br  UNL A   1      32.565  19.481  24.204  1.00  0.00    -0.051 Br
ENDBRANCH  15  17
ENDBRANCH  12  13
ENDBRANCH   7  12
ENDBRANCH   4   7
ENDBRANCH   2   3
ENDBRANCH   1   2
BRANCH   1  24
ATOM     24  C   UNL A   1      32.519  29.947  26.444  1.00  0.00     0.118 C 
BRANCH  24  25
ATOM     25  N   UNL A   1      32.453  31.387  26.652  1.00  0.00    -0.352 N 
ATOM     26  C   UNL A   1      33.283  32.212  27.371  1.00  0.00     0.251 C 
ATOM     27  H   UNL A   1      31.698  31.837  26.209  1.00  0.00     0.163 HD
ATOM     28  O   UNL A   1      32.943  33.369  27.592  1.00  0.00    -0.269 OA
BRANCH  26  29
ATOM     29  C   UNL A   1      34.563  31.691  27.901  1.00  0.00     0.039 A 
ATOM     30  C   UNL A   1      35.651  32.556  28.014  1.00  0.00     0.014 A 
ATOM     31  C   UNL A   1      34.686  30.357  28.297  1.00  0.00     0.014 A 
ATOM     32  C   UNL A   1      36.836  32.099  28.593  1.00  0.00     0.010 A 
ATOM     33  C   UNL A   1      35.823  29.937  28.978  1.00  0.00     0.010 A 
ATOM     34  C   UNL A   1      36.918  30.799  29.121  1.00  0.00    -0.014 A 
BRANCH  34  35
ATOM     35  C   UNL A   1      38.145  30.335  29.818  1.00  0.00     0.031 A 
ATOM     36  C   UNL A   1      38.428  30.772  31.232  1.00  0.00     0.074 A 
ATOM     37  C   UNL A   1      39.018  29.546  29.162  1.00  0.00     0.049 A 
ATOM     38  N   UNL A   1      39.435  30.460  32.006  1.00  0.00    -0.248 NA
ATOM     39  C   UNL A   1      37.472  31.708  31.842  1.00  0.00     0.031 C 
ATOM     40  C   UNL A   1      38.884  29.116  27.767  1.00  0.00     0.029 A 
ATOM     41  N   UNL A   1      40.185  28.955  29.577  1.00  0.00    -0.354 N 
ATOM     42  C   UNL A   1      39.235  31.164  33.191  1.00  0.00     0.074 A 
ATOM     43  C   UNL A   1      38.056  31.980  32.998  1.00  0.00     0.031 C 
ATOM     44  C   UNL A   1      39.896  28.289  27.461  1.00  0.00     0.029 A 
ATOM     45  C   UNL A   1      40.776  28.165  28.617  1.00  0.00     0.049 A 
ATOM     46  H   UNL A   1      40.563  29.084  30.476  1.00  0.00     0.167 HD
ATOM     47  C   UNL A   1      39.950  31.110  34.341  1.00  0.00     0.034 A 
ATOM     48  C   UNL A   1      41.899  27.422  28.665  1.00  0.00     0.034 A 
ATOM     49  C   UNL A   1      41.121  30.285  34.513  1.00  0.00     0.049 A 
ATOM     50  C   UNL A   1      42.676  27.378  29.955  1.00  0.00     0.074 A 
ATOM     51  C   UNL A   1      41.897  30.114  35.647  1.00  0.00     0.029 A 
ATOM     52  N   UNL A   1      41.692  29.497  33.520  1.00  0.00    -0.354 N 
ATOM     53  N   UNL A   1      42.437  27.998  31.089  1.00  0.00    -0.248 NA
ATOM     54  C   UNL A   1      43.864  26.517  29.978  1.00  0.00     0.031 C 
ATOM     55  C   UNL A   1      42.976  29.284  35.318  1.00  0.00     0.029 A 
ATOM     56  C   UNL A   1      42.826  28.862  34.008  1.00  0.00     0.049 A 
ATOM     57  H   UNL A   1      41.343  29.403  32.605  1.00  0.00     0.167 HD
ATOM     58  C   UNL A   1      43.428  27.574  31.969  1.00  0.00     0.074 A 
ATOM     59  C   UNL A   1      44.246  26.625  31.241  1.00  0.00     0.031 C 
ATOM     60  C   UNL A   1      43.645  27.934  33.261  1.00  0.00     0.034 A 
BRANCH  47  61
ATOM     61  C   UNL A   1      39.492  31.985  35.487  1.00  0.00     0.023 A 
ATOM     62  C   UNL A   1      38.776  31.461  36.580  1.00  0.00     0.031 A 
ATOM     63  C   UNL A   1      39.749  33.368  35.477  1.00  0.00     0.131 A 
ATOM     64  C   UNL A   1      38.277  32.320  37.571  1.00  0.00     0.055 A 
ATOM     65  C   UNL A   1      39.325  34.205  36.512  1.00  0.00     0.041 A 
ATOM     66  F   UNL A   1      40.405  33.934  34.452  1.00  0.00    -0.206 F 
ATOM     67  C   UNL A   1      38.570  33.685  37.559  1.00  0.00     0.022 A 
BRANCH  64  68
ATOM     68  S   UNL A   1      37.113  31.652  38.792  1.00  0.00     0.124 S 
ATOM     69  O   UNL A   1      36.949  30.278  38.322  1.00  0.00    -0.237 OA
ATOM     70  O   UNL A   1      37.840  31.816  40.045  1.00  0.00    -0.237 OA
ATOM     71  O   UNL A   1      35.932  32.499  38.639  1.00  0.00    -0.744 OA
ENDBRANCH  64  68
ENDBRANCH  47  61
BRANCH  48  72
ATOM     72  C   UNL A   1      42.352  26.651  27.469  1.00  0.00     0.023 A 
ATOM     73  C   UNL A   1      42.035  25.292  27.319  1.00  0.00     0.031 A 
ATOM     74  C   UNL A   1      43.147  27.256  26.479  1.00  0.00     0.131 A 
ATOM     75  C   UNL A   1      42.554  24.569  26.233  1.00  0.00     0.055 A 
ATOM     76  C   UNL A   1      43.610  26.546  25.370  1.00  0.00     0.041 A 
ATOM     77  F   UNL A   1      43.475  28.554  26.569  1.00  0.00    -0.206 F 
ATOM     78  C   UNL A   1      43.327  25.190  25.250  1.00  0.00     0.022 A 
BRANCH  75  79
ATOM     79  S   UNL A   1      42.282  22.776  26.173  1.00  0.00     0.124 S 
ATOM     80  O   UNL A   1      40.844  22.685  26.400  1.00  0.00    -0.237 OA
ATOM     81  O   UNL A   1      42.742  22.444  24.829  1.00  0.00    -0.237 OA
ATOM     82  O   UNL A   1      43.119  22.269  27.259  1.00  0.00    -0.744 OA
ENDBRANCH  75  79
ENDBRANCH  48  72
BRANCH  60  83
ATOM     83  C   UNL A   1      44.794  27.255  33.971  1.00  0.00     0.023 A 
ATOM     84  C   UNL A   1      44.615  26.068  34.705  1.00  0.00     0.031 A 
ATOM     85  C   UNL A   1      46.077  27.832  33.956  1.00  0.00     0.131 A 
ATOM     86  C   UNL A   1      45.672  25.551  35.467  1.00  0.00     0.055 A 
ATOM     87  C   UNL A   1      47.147  27.265  34.651  1.00  0.00     0.041 A 
ATOM     88  F   UNL A   1      46.311  28.965  33.276  1.00  0.00    -0.206 F 
ATOM     89  C   UNL A   1      46.941  26.131  35.430  1.00  0.00     0.022 A 
BRANCH  86  90
ATOM     90  S   UNL A   1      45.322  24.201  36.627  1.00  0.00     0.124 S 
ATOM     91  O   UNL A   1      44.380  24.828  37.547  1.00  0.00    -0.237 OA
ATOM     92  O   UNL A   1      44.769  23.173  35.750  1.00  0.00    -0.237 OA
ATOM     93  O   UNL A   1      46.632  23.891  37.196  1.00  0.00    -0.744 OA
ENDBRANCH  86  90
ENDBRANCH  60  83
ENDBRANCH  34  35
ENDBRANCH  26  29
ENDBRANCH  24  25
ENDBRANCH   1  24
TORSDOF 18
ENDMDL
MODEL 2
REMARK VINA RESULT:     -11.3      5.046     10.386
REMARK SMILES CCC(CC)(CC(=O)Nc1cccc(Br)c1)C(=O)NCCCNC(=O)c1ccc(-c2c3nc(c(-c4cc(S(=O)(=O)[O-])ccc4F)c4ccc([nH]4)c(-c4cc(S(=O)(=O)[O-])ccc4F)c4nc(c(-c5cc(S(=O)(=O)[O-])ccc5F)c5ccc2[nH]5)C=C4)C=C3)cc1
REMARK SMILES IDX 21 1 20 2 19 3 17 4 18 5 3 7 2 8 1 9 4 10 5 11 6 12 7 13
REMARK SMILES IDX 8 14 9 15 10 17 11 18 16 19 12 20 14 21 13 22 15 23 22 24
REMARK SMILES IDX 23 25 24 26 25 28 26 29 27 30 88 31 28 32 87 33 29 34 30 35
REMARK SMILES IDX 31 36 81 37 32 38 86 39 80 40 82 41 33 42 85 43 79 44 78 45
REMARK SMILES IDX 34 47 66 48 46 49 65 50 47 51 50 52 64 53 83 54 48 55 49 56
REMARK SMILES IDX 63 58 84 59 51 60 35 61 36 62 44 63 37 64 43 65 45 66 42 67
REMARK SMILES IDX 38 68 39 69 40 70 41 71 67 72 68 73 76 74 69 75 75 76 77 77
REMARK SMILES IDX 74 78 70 79 71 80 72 81 73 82 52 83 53 84 61 85 54 86 60 87
REMARK SMILES IDX 62 88 59 89 55 90 56 91 57 92 58 93
REMARK H PARENT 19 6 9 16 23 27 82 46 50 57
REMARK Flexibility Score: inf
ROOT
ATOM      1  C   UNL A   1      36.390  21.435  24.441  1.00  0.00     0.042 C 
ENDROOT
BRANCH   1   2
ATOM      2  C   UNL A   1      35.027  20.852  24.764  1.00  0.00     0.117 C 
BRANCH   2   3
ATOM      3  N   UNL A   1      34.635  21.100  26.137  1.00  0.00    -0.356 N 
ATOM      4  C   UNL A   1      33.840  22.023  26.721  1.00  0.00     0.226 C 
ATOM      5  O   UNL A   1      33.826  22.000  27.957  1.00  0.00    -0.274 OA
ATOM      6  H   UNL A   1      35.030  20.464  26.776  1.00  0.00     0.163 HD
BRANCH   4   7
ATOM      7  C   UNL A   1      32.996  23.044  25.925  1.00  0.00     0.057 C 
BRANCH   7   8
ATOM      8  C   UNL A   1      31.989  22.232  25.065  1.00  0.00     0.014 C 
ATOM      9  C   UNL A   1      31.863  22.553  23.581  1.00  0.00     0.005 C 
ENDBRANCH   7   8
BRANCH   7  10
ATOM     10  C   UNL A   1      33.885  23.894  24.961  1.00  0.00     0.014 C 
ATOM     11  C   UNL A   1      34.028  25.367  25.327  1.00  0.00     0.005 C 
ENDBRANCH   7  10
BRANCH   7  12
ATOM     12  C   UNL A   1      32.163  23.937  26.898  1.00  0.00     0.117 C 
BRANCH  12  13
ATOM     13  C   UNL A   1      30.635  23.821  26.861  1.00  0.00     0.225 C 
ATOM     14  O   UNL A   1      30.063  22.927  27.487  1.00  0.00    -0.275 OA
ATOM     15  N   UNL A   1      29.869  24.791  26.252  1.00  0.00    -0.326 N 
ATOM     16  H   UNL A   1      28.909  24.780  26.474  1.00  0.00     0.169 HD
BRANCH  15  17
ATOM     17  C   UNL A   1      30.276  25.791  25.360  1.00  0.00     0.042 A 
ATOM     18  C   UNL A   1      30.140  25.597  23.986  1.00  0.00     0.026 A 
ATOM     19  C   UNL A   1      30.737  27.016  25.834  1.00  0.00     0.041 A 
ATOM     20  C   UNL A   1      30.674  26.513  23.080  1.00  0.00     0.003 A 
ATOM     21  C   UNL A   1      31.219  27.961  24.923  1.00  0.00     0.020 A 
ATOM     22  C   UNL A   1      31.237  27.693  23.553  1.00  0.00     0.016 A 
ATOM     23  Br  UNL A   1      31.860  29.627  25.545  1.00  0.00    -0.051 Br
ENDBRANCH  15  17
ENDBRANCH  12  13
ENDBRANCH   7  12
ENDBRANCH   4   7
ENDBRANCH   2   3
ENDBRANCH   1   2
BRANCH   1  24
ATOM     24  C   UNL A   1      37.234  21.775  25.658  1.00  0.00     0.118 C 
BRANCH  24  25
ATOM     25  N   UNL A   1      38.292  20.806  25.907  1.00  0.00    -0.352 N 
ATOM     26  C   UNL A   1      39.588  21.001  26.318  1.00  0.00     0.251 C 
ATOM     27  H   UNL A   1      38.039  19.866  25.757  1.00  0.00     0.163 HD
ATOM     28  O   UNL A   1      40.384  20.070  26.273  1.00  0.00    -0.269 OA
BRANCH  26  29
ATOM     29  C   UNL A   1      40.021  22.339  26.779  1.00  0.00     0.039 A 
ATOM     30  C   UNL A   1      41.000  22.430  27.769  1.00  0.00     0.014 A 
ATOM     31  C   UNL A   1      39.475  23.501  26.227  1.00  0.00     0.014 A 
ATOM     32  C   UNL A   1      41.479  23.684  28.149  1.00  0.00     0.010 A 
ATOM     33  C   UNL A   1      40.034  24.739  26.521  1.00  0.00     0.010 A 
ATOM     34  C   UNL A   1      41.033  24.847  27.497  1.00  0.00    -0.014 A 
BRANCH  34  35
ATOM     35  C   UNL A   1      41.604  26.177  27.835  1.00  0.00     0.031 A 
ATOM     36  C   UNL A   1      42.978  26.559  27.350  1.00  0.00     0.074 A 
ATOM     37  C   UNL A   1      40.893  27.024  28.605  1.00  0.00     0.049 A 
ATOM     38  N   UNL A   1      43.635  27.676  27.529  1.00  0.00    -0.248 NA
ATOM     39  C   UNL A   1      43.724  25.543  26.595  1.00  0.00     0.031 C 
ATOM     40  C   UNL A   1      39.581  26.733  29.190  1.00  0.00     0.029 A 
ATOM     41  N   UNL A   1      41.163  28.302  29.023  1.00  0.00    -0.354 N 
ATOM     42  C   UNL A   1      44.870  27.494  26.914  1.00  0.00     0.074 A 
ATOM     43  C   UNL A   1      44.898  26.131  26.429  1.00  0.00     0.031 C 
ATOM     44  C   UNL A   1      39.139  27.819  29.843  1.00  0.00     0.029 A 
ATOM     45  C   UNL A   1      40.151  28.866  29.765  1.00  0.00     0.049 A 
ATOM     46  H   UNL A   1      42.002  28.771  28.812  1.00  0.00     0.167 HD
ATOM     47  C   UNL A   1      45.874  28.389  26.741  1.00  0.00     0.034 A 
ATOM     48  C   UNL A   1      40.049  30.090  30.318  1.00  0.00     0.034 A 
ATOM     49  C   UNL A   1      45.823  29.746  27.229  1.00  0.00     0.049 A 
ATOM     50  C   UNL A   1      41.177  31.068  30.112  1.00  0.00     0.074 A 
ATOM     51  C   UNL A   1      46.758  30.754  27.073  1.00  0.00     0.029 A 
ATOM     52  N   UNL A   1      44.782  30.285  27.977  1.00  0.00    -0.354 N 
ATOM     53  N   UNL A   1      42.311  30.901  29.470  1.00  0.00    -0.248 NA
ATOM     54  C   UNL A   1      41.001  32.406  30.689  1.00  0.00     0.031 C 
ATOM     55  C   UNL A   1      46.318  31.875  27.788  1.00  0.00     0.029 A 
ATOM     56  C   UNL A   1      45.066  31.600  28.313  1.00  0.00     0.049 A 
ATOM     57  H   UNL A   1      43.962  29.802  28.230  1.00  0.00     0.167 HD
ATOM     58  C   UNL A   1      42.969  32.126  29.538  1.00  0.00     0.074 A 
ATOM     59  C   UNL A   1      42.089  33.025  30.258  1.00  0.00     0.031 C 
ATOM     60  C   UNL A   1      44.188  32.479  29.052  1.00  0.00     0.034 A 
BRANCH  47  61
ATOM     61  C   UNL A   1      47.113  27.914  26.015  1.00  0.00     0.023 A 
ATOM     62  C   UNL A   1      47.289  28.127  24.634  1.00  0.00     0.031 A 
ATOM     63  C   UNL A   1      48.121  27.216  26.703  1.00  0.00     0.131 A 
ATOM     64  C   UNL A   1      48.402  27.579  23.976  1.00  0.00     0.055 A 
ATOM     65  C   UNL A   1      49.268  26.750  26.057  1.00  0.00     0.041 A 
ATOM     66  F   UNL A   1      48.001  26.959  28.015  1.00  0.00    -0.206 F 
ATOM     67  C   UNL A   1      49.407  26.917  24.682  1.00  0.00     0.022 A 
BRANCH  64  68
ATOM     68  S   UNL A   1      48.439  27.616  22.162  1.00  0.00     0.124 S 
ATOM     69  O   UNL A   1      47.121  28.164  21.851  1.00  0.00    -0.237 OA
ATOM     70  O   UNL A   1      49.576  28.488  21.886  1.00  0.00    -0.237 OA
ATOM     71  O   UNL A   1      48.624  26.214  21.795  1.00  0.00    -0.744 OA
ENDBRANCH  64  68
ENDBRANCH  47  61
BRANCH  48  72
ATOM     72  C   UNL A   1      38.838  30.471  31.105  1.00  0.00     0.023 A 
ATOM     73  C   UNL A   1      37.805  31.225  30.528  1.00  0.00     0.031 A 
ATOM     74  C   UNL A   1      38.718  30.118  32.461  1.00  0.00     0.131 A 
ATOM     75  C   UNL A   1      36.723  31.650  31.317  1.00  0.00     0.055 A 
ATOM     76  C   UNL A   1      37.612  30.492  33.226  1.00  0.00     0.041 A 
ATOM     77  F   UNL A   1      39.674  29.392  33.062  1.00  0.00    -0.206 F 
ATOM     78  C   UNL A   1      36.613  31.275  32.658  1.00  0.00     0.022 A 
BRANCH  75  79
ATOM     79  S   UNL A   1      35.507  32.781  30.588  1.00  0.00     0.124 S 
ATOM     80  O   UNL A   1      34.305  32.457  31.349  1.00  0.00    -0.237 OA
ATOM     81  O   UNL A   1      36.105  34.085  30.858  1.00  0.00    -0.237 OA
ATOM     82  O   UNL A   1      35.480  32.390  29.181  1.00  0.00    -0.744 OA
ENDBRANCH  75  79
ENDBRANCH  48  72
BRANCH  60  83
ATOM     83  C   UNL A   1      44.609  33.917  29.253  1.00  0.00     0.023 A 
ATOM     84  C   UNL A   1      44.044  34.966  28.506  1.00  0.00     0.031 A 
ATOM     85  C   UNL A   1      45.627  34.235  30.171  1.00  0.00     0.131 A 
ATOM     86  C   UNL A   1      44.564  36.263  28.618  1.00  0.00     0.055 A 
ATOM     87  C   UNL A   1      46.083  35.544  30.338  1.00  0.00     0.041 A 
ATOM     88  F   UNL A   1      46.206  33.278  30.912  1.00  0.00    -0.206 F 
ATOM     89  C   UNL A   1      45.566  36.563  29.543  1.00  0.00     0.022 A 
BRANCH  86  90
ATOM     90  S   UNL A   1      44.018  37.520  27.430  1.00  0.00     0.124 S 
ATOM     91  O   UNL A   1      45.288  38.035  26.929  1.00  0.00    -0.237 OA
ATOM     92  O   UNL A   1      43.231  36.734  26.486  1.00  0.00    -0.237 OA
ATOM     93  O   UNL A   1      43.250  38.455  28.250  1.00  0.00    -0.744 OA
ENDBRANCH  86  90
ENDBRANCH  60  83
ENDBRANCH  34  35
ENDBRANCH  26  29
ENDBRANCH  24  25
ENDBRANCH   1  24
TORSDOF 18
ENDMDL
MODEL 3
REMARK VINA RESULT:     -11.2      1.556      1.941
REMARK SMILES CCC(CC)(CC(=O)Nc1cccc(Br)c1)C(=O)NCCCNC(=O)c1ccc(-c2c3nc(c(-c4cc(S(=O)(=O)[O-])ccc4F)c4ccc([nH]4)c(-c4cc(S(=O)(=O)[O-])ccc4F)c4nc(c(-c5cc(S(=O)(=O)[O-])ccc5F)c5ccc2[nH]5)C=C4)C=C3)cc1
REMARK SMILES IDX 21 1 20 2 19 3 17 4 18 5 3 7 2 8 1 9 4 10 5 11 6 12 7 13
REMARK SMILES IDX 8 14 9 15 10 17 11 18 16 19 12 20 14 21 13 22 15 23 22 24
REMARK SMILES IDX 23 25 24 26 25 28 26 29 27 30 88 31 28 32 87 33 29 34 30 35
REMARK SMILES IDX 31 36 81 37 32 38 86 39 80 40 82 41 33 42 85 43 79 44 78 45
REMARK SMILES IDX 34 47 66 48 46 49 65 50 47 51 50 52 64 53 83 54 48 55 49 56
REMARK SMILES IDX 63 58 84 59 51 60 35 61 36 62 44 63 37 64 43 65 45 66 42 67
REMARK SMILES IDX 38 68 39 69 40 70 41 71 67 72 68 73 76 74 69 75 75 76 77 77
REMARK SMILES IDX 74 78 70 79 71 80 72 81 73 82 52 83 53 84 61 85 54 86 60 87
REMARK SMILES IDX 62 88 59 89 55 90 56 91 57 92 58 93
REMARK H PARENT 19 6 9 16 23 27 82 46 50 57
REMARK Flexibility Score: inf
ROOT
ATOM      1  C   UNL A   1      31.641  28.977  25.288  1.00  0.00     0.042 C 
ENDROOT
BRANCH   1   2
ATOM      2  C   UNL A   1      31.504  27.599  25.909  1.00  0.00     0.117 C 
BRANCH   2   3
ATOM      3  N   UNL A   1      30.722  26.700  25.082  1.00  0.00    -0.356 N 
ATOM      4  C   UNL A   1      31.039  25.630  24.322  1.00  0.00     0.226 C 
ATOM      5  O   UNL A   1      30.109  25.166  23.652  1.00  0.00    -0.274 OA
ATOM      6  H   UNL A   1      29.761  26.915  25.074  1.00  0.00     0.163 HD
BRANCH   4   7
ATOM      7  C   UNL A   1      32.454  25.008  24.276  1.00  0.00     0.057 C 
BRANCH   7   8
ATOM      8  C   UNL A   1      33.431  26.128  23.825  1.00  0.00     0.014 C 
ATOM      9  C   UNL A   1      33.208  26.799  22.475  1.00  0.00     0.005 C 
ENDBRANCH   7   8
BRANCH   7  10
ATOM     10  C   UNL A   1      32.534  23.844  23.238  1.00  0.00     0.014 C 
ATOM     11  C   UNL A   1      33.928  23.277  22.993  1.00  0.00     0.005 C 
ENDBRANCH   7  10
BRANCH   7  12
ATOM     12  C   UNL A   1      32.894  24.554  25.704  1.00  0.00     0.117 C 
BRANCH  12  13
ATOM     13  C   UNL A   1      31.884  23.787  26.565  1.00  0.00     0.225 C 
ATOM     14  O   UNL A   1      31.062  24.396  27.254  1.00  0.00    -0.275 OA
ATOM     15  N   UNL A   1      31.779  22.416  26.475  1.00  0.00    -0.326 N 
ATOM     16  H   UNL A   1      30.964  22.023  26.863  1.00  0.00     0.169 HD
BRANCH  15  17
ATOM     17  C   UNL A   1      32.680  21.509  25.903  1.00  0.00     0.042 A 
ATOM     18  C   UNL A   1      34.023  21.528  26.280  1.00  0.00     0.026 A 
ATOM     19  C   UNL A   1      32.232  20.528  25.023  1.00  0.00     0.041 A 
ATOM     20  C   UNL A   1      34.960  20.736  25.617  1.00  0.00     0.003 A 
ATOM     21  C   UNL A   1      33.165  19.694  24.401  1.00  0.00     0.020 A 
ATOM     22  C   UNL A   1      34.532  19.829  24.655  1.00  0.00     0.016 A 
ATOM     23  Br  UNL A   1      32.580  18.362  23.193  1.00  0.00    -0.051 Br
ENDBRANCH  15  17
ENDBRANCH  12  13
ENDBRANCH   7  12
ENDBRANCH   4   7
ENDBRANCH   2   3
ENDBRANCH   1   2
BRANCH   1  24
ATOM     24  C   UNL A   1      32.869  29.751  25.738  1.00  0.00     0.118 C 
BRANCH  24  25
ATOM     25  N   UNL A   1      32.554  31.089  26.220  1.00  0.00    -0.352 N 
ATOM     26  C   UNL A   1      33.176  31.848  27.182  1.00  0.00     0.251 C 
ATOM     27  H   UNL A   1      31.776  31.513  25.791  1.00  0.00     0.163 HD
ATOM     28  O   UNL A   1      32.635  32.870  27.589  1.00  0.00    -0.269 OA
BRANCH  26  29
ATOM     29  C   UNL A   1      34.473  31.410  27.742  1.00  0.00     0.039 A 
ATOM     30  C   UNL A   1      35.472  32.359  27.958  1.00  0.00     0.014 A 
ATOM     31  C   UNL A   1      34.700  30.070  28.066  1.00  0.00     0.014 A 
ATOM     32  C   UNL A   1      36.668  31.974  28.567  1.00  0.00     0.010 A 
ATOM     33  C   UNL A   1      35.840  29.711  28.776  1.00  0.00     0.010 A 
ATOM     34  C   UNL A   1      36.845  30.655  29.022  1.00  0.00    -0.014 A 
BRANCH  34  35
ATOM     35  C   UNL A   1      38.078  30.260  29.750  1.00  0.00     0.031 A 
ATOM     36  C   UNL A   1      38.318  30.743  31.157  1.00  0.00     0.074 A 
ATOM     37  C   UNL A   1      38.993  29.491  29.128  1.00  0.00     0.049 A 
ATOM     38  N   UNL A   1      39.324  30.491  31.955  1.00  0.00    -0.248 NA
ATOM     39  C   UNL A   1      37.316  31.654  31.728  1.00  0.00     0.031 C 
ATOM     40  C   UNL A   1      38.900  29.022  27.743  1.00  0.00     0.029 A 
ATOM     41  N   UNL A   1      40.176  28.959  29.576  1.00  0.00    -0.354 N 
ATOM     42  C   UNL A   1      39.076  31.215  33.118  1.00  0.00     0.074 A 
ATOM     43  C   UNL A   1      37.868  31.977  32.886  1.00  0.00     0.031 C 
ATOM     44  C   UNL A   1      39.950  28.229  27.474  1.00  0.00     0.029 A 
ATOM     45  C   UNL A   1      40.814  28.171  28.646  1.00  0.00     0.049 A 
ATOM     46  H   UNL A   1      40.533  29.125  30.478  1.00  0.00     0.167 HD
ATOM     47  C   UNL A   1      39.773  31.219  34.281  1.00  0.00     0.034 A 
ATOM     48  C   UNL A   1      41.965  27.475  28.731  1.00  0.00     0.034 A 
ATOM     49  C   UNL A   1      40.973  30.447  34.492  1.00  0.00     0.049 A 
ATOM     50  C   UNL A   1      42.722  27.495  30.035  1.00  0.00     0.074 A 
ATOM     51  C   UNL A   1      41.736  30.336  35.642  1.00  0.00     0.029 A 
ATOM     52  N   UNL A   1      41.593  29.659  33.529  1.00  0.00    -0.354 N 
ATOM     53  N   UNL A   1      42.439  28.133  31.148  1.00  0.00    -0.248 NA
ATOM     54  C   UNL A   1      43.943  26.684  30.098  1.00  0.00     0.031 C 
ATOM     55  C   UNL A   1      42.853  29.544  35.352  1.00  0.00     0.029 A 
ATOM     56  C   UNL A   1      42.742  29.083  34.050  1.00  0.00     0.049 A 
ATOM     57  H   UNL A   1      41.263  29.528  32.611  1.00  0.00     0.167 HD
ATOM     58  C   UNL A   1      43.431  27.771  32.055  1.00  0.00     0.074 A 
ATOM     59  C   UNL A   1      44.299  26.839  31.363  1.00  0.00     0.031 C 
ATOM     60  C   UNL A   1      43.611  28.171  33.341  1.00  0.00     0.034 A 
BRANCH  47  61
ATOM     61  C   UNL A   1      39.260  32.103  35.396  1.00  0.00     0.023 A 
ATOM     62  C   UNL A   1      39.692  33.435  35.544  1.00  0.00     0.031 A 
ATOM     63  C   UNL A   1      38.349  31.603  36.343  1.00  0.00     0.131 A 
ATOM     64  C   UNL A   1      39.276  34.190  36.652  1.00  0.00     0.055 A 
ATOM     65  C   UNL A   1      37.870  32.389  37.394  1.00  0.00     0.041 A 
ATOM     66  F   UNL A   1      37.918  30.334  36.273  1.00  0.00    -0.206 F 
ATOM     67  C   UNL A   1      38.346  33.686  37.562  1.00  0.00     0.022 A 
BRANCH  64  68
ATOM     68  S   UNL A   1      40.083  35.785  36.966  1.00  0.00     0.124 S 
ATOM     69  O   UNL A   1      39.676  36.557  35.794  1.00  0.00    -0.237 OA
ATOM     70  O   UNL A   1      39.495  36.192  38.236  1.00  0.00    -0.237 OA
ATOM     71  O   UNL A   1      41.503  35.446  37.016  1.00  0.00    -0.744 OA
ENDBRANCH  64  68
ENDBRANCH  47  61
BRANCH  48  72
ATOM     72  C   UNL A   1      42.470  26.695  27.563  1.00  0.00     0.023 A 
ATOM     73  C   UNL A   1      42.110  25.350  27.378  1.00  0.00     0.031 A 
ATOM     74  C   UNL A   1      43.355  27.273  26.635  1.00  0.00     0.131 A 
ATOM     75  C   UNL A   1      42.674  24.613  26.324  1.00  0.00     0.055 A 
ATOM     76  C   UNL A   1      43.866  26.552  25.555  1.00  0.00     0.041 A 
ATOM     77  F   UNL A   1      43.728  28.556  26.760  1.00  0.00    -0.206 F 
ATOM     78  C   UNL A   1      43.538  25.209  25.403  1.00  0.00     0.022 A 
BRANCH  75  79
ATOM     79  S   UNL A   1      42.335  22.833  26.230  1.00  0.00     0.124 S 
ATOM     80  O   UNL A   1      43.131  22.319  27.338  1.00  0.00    -0.237 OA
ATOM     81  O   UNL A   1      40.887  22.791  26.405  1.00  0.00    -0.237 OA
ATOM     82  O   UNL A   1      42.810  22.467  24.897  1.00  0.00    -0.744 OA
ENDBRANCH  75  79
ENDBRANCH  48  72
BRANCH  60  83
ATOM     83  C   UNL A   1      44.775  27.557  34.085  1.00  0.00     0.023 A 
ATOM     84  C   UNL A   1      44.685  26.286  34.681  1.00  0.00     0.031 A 
ATOM     85  C   UNL A   1      45.972  28.277  34.246  1.00  0.00     0.131 A 
ATOM     86  C   UNL A   1      45.734  25.816  35.485  1.00  0.00     0.055 A 
ATOM     87  C   UNL A   1      47.045  27.767  34.980  1.00  0.00     0.041 A 
ATOM     88  F   UNL A   1      46.118  29.497  33.703  1.00  0.00    -0.206 F 
ATOM     89  C   UNL A   1      46.920  26.539  35.623  1.00  0.00     0.022 A 
BRANCH  86  90
ATOM     90  S   UNL A   1      45.462  24.318  36.471  1.00  0.00     0.124 S 
ATOM     91  O   UNL A   1      44.141  23.894  36.020  1.00  0.00    -0.237 OA
ATOM     92  O   UNL A   1      46.578  23.470  36.063  1.00  0.00    -0.237 OA
ATOM     93  O   UNL A   1      45.522  24.800  37.850  1.00  0.00    -0.744 OA
ENDBRANCH  86  90
ENDBRANCH  60  83
ENDBRANCH  34  35
ENDBRANCH  26  29
ENDBRANCH  24  25
ENDBRANCH   1  24
TORSDOF 18
ENDMDL
