MODEL 1
REMARK VINA RESULT:     -12.4      0.000      0.000
REMARK SMILES C[C@@H](C(=O)NCCCNC(=O)c1ccc(-c2c3nc(c(-c4cc(S(=O)(=O)[O-])ccc4F)c4ccc([nH]4)c(-c4cc(S(=O)(=O)[O-])ccc4F)c4nc(c(-c5cc(S(=O)(=O)[O-])ccc5F)c5ccc2[nH]5)C=C4)C=C3)cc1)c1ccc(C[C@H]2CCC[C@H]2O)cc1-c1ccc(O)cc1
REMARK SMILES IDX 6 1 5 2 3 3 4 4 2 6 1 7 75 8 76 9 87 10 77 11 86 12 78 13
REMARK SMILES IDX 88 14 89 15 94 16 90 17 93 18 91 19 92 20 79 22 80 23 81 24
REMARK SMILES IDX 84 25 82 26 83 27 85 28 7 30 8 31 9 32 10 33 11 35 12 36
REMARK SMILES IDX 13 37 74 38 14 39 73 40 15 41 16 42 17 43 67 44 18 45 72 46
REMARK SMILES IDX 66 47 68 48 19 49 71 50 65 51 64 52 20 54 52 55 32 56 51 57
REMARK SMILES IDX 33 58 36 59 50 60 69 61 34 62 35 63 49 65 70 66 37 67 21 68
REMARK SMILES IDX 22 69 30 70 23 71 29 72 31 73 28 74 24 75 25 76 26 77 27 78
REMARK SMILES IDX 53 79 54 80 62 81 55 82 61 83 63 84 60 85 56 86 57 87 58 88
REMARK SMILES IDX 59 89 38 90 39 91 47 92 40 93 46 94 48 95 45 96 41 97 42 98
REMARK SMILES IDX 43 99 44 100
REMARK H PARENT 5 5 92 21 85 29 9 34 68 53 36 64
REMARK Flexibility Score: inf
ROOT
ATOM      1  C   UNL A   1      34.385  24.430  25.879  1.00  0.00     0.117 C 
ENDROOT
BRANCH   1   2
ATOM      2  N   UNL A   1      33.733  24.487  24.584  1.00  0.00    -0.356 N 
ATOM      3  C   UNL A   1      32.397  24.600  24.320  1.00  0.00     0.227 C 
ATOM      4  O   UNL A   1      31.982  24.166  23.244  1.00  0.00    -0.274 OA
ATOM      5  H   UNL A   1      34.325  24.438  23.800  1.00  0.00     0.163 HD
BRANCH   3   6
ATOM      6  C   UNL A   1      31.488  25.234  25.376  1.00  0.00     0.106 C 
ATOM      7  C   UNL A   1      30.736  24.043  26.006  1.00  0.00     0.023 C 
BRANCH   6   8
ATOM      8  C   UNL A   1      30.578  26.332  24.803  1.00  0.00    -0.028 A 
ATOM      9  C   UNL A   1      29.312  25.968  24.307  1.00  0.00     0.005 A 
ATOM     10  C   UNL A   1      30.930  27.708  24.763  1.00  0.00    -0.014 A 
ATOM     11  C   UNL A   1      28.500  26.872  23.636  1.00  0.00     0.004 A 
ATOM     12  C   UNL A   1      30.139  28.580  23.978  1.00  0.00     0.012 A 
ATOM     13  C   UNL A   1      28.961  28.150  23.355  1.00  0.00    -0.047 A 
BRANCH  10  14
ATOM     14  C   UNL A   1      31.996  28.319  25.587  1.00  0.00    -0.018 A 
ATOM     15  C   UNL A   1      31.635  29.246  26.584  1.00  0.00     0.012 A 
ATOM     16  C   UNL A   1      33.363  28.078  25.391  1.00  0.00     0.012 A 
ATOM     17  C   UNL A   1      32.599  29.861  27.388  1.00  0.00     0.047 A 
ATOM     18  C   UNL A   1      34.331  28.655  26.224  1.00  0.00     0.047 A 
ATOM     19  C   UNL A   1      33.937  29.540  27.220  1.00  0.00     0.115 A 
BRANCH  19  20
ATOM     20  O   UNL A   1      34.841  30.124  28.056  1.00  0.00    -0.508 OA
ATOM     21  H   UNL A   1      35.704  30.321  27.749  1.00  0.00     0.293 HD
ENDBRANCH  19  20
ENDBRANCH  10  14
BRANCH  13  22
ATOM     22  C   UNL A   1      28.207  29.018  22.385  1.00  0.00     0.041 C 
BRANCH  22  23
ATOM     23  C   UNL A   1      28.671  30.486  22.261  1.00  0.00     0.022 C 
ATOM     24  C   UNL A   1      28.256  31.208  20.969  1.00  0.00     0.007 C 
ATOM     25  C   UNL A   1      28.329  31.483  23.383  1.00  0.00     0.117 C 
ATOM     26  C   UNL A   1      28.193  32.698  21.318  1.00  0.00     0.003 C 
ATOM     27  C   UNL A   1      28.694  32.823  22.755  1.00  0.00     0.032 C 
BRANCH  25  28
ATOM     28  O   UNL A   1      26.966  31.538  23.762  1.00  0.00    -0.393 OA
ATOM     29  H   UNL A   1      26.856  31.130  24.635  1.00  0.00     0.210 HD
ENDBRANCH  25  28
ENDBRANCH  22  23
ENDBRANCH  13  22
ENDBRANCH   6   8
ENDBRANCH   3   6
ENDBRANCH   1   2
BRANCH   1  30
ATOM     30  C   UNL A   1      35.362  23.255  25.924  1.00  0.00     0.042 C 
BRANCH  30  31
ATOM     31  C   UNL A   1      36.788  23.648  25.561  1.00  0.00     0.118 C 
BRANCH  31  32
ATOM     32  N   UNL A   1      37.740  22.609  25.914  1.00  0.00    -0.352 N 
ATOM     33  C   UNL A   1      39.016  22.735  26.393  1.00  0.00     0.251 C 
ATOM     34  H   UNL A   1      37.422  21.685  25.792  1.00  0.00     0.163 HD
ATOM     35  O   UNL A   1      39.748  21.742  26.411  1.00  0.00    -0.269 OA
BRANCH  33  36
ATOM     36  C   UNL A   1      39.519  24.042  26.864  1.00  0.00     0.039 A 
ATOM     37  C   UNL A   1      39.385  24.365  28.217  1.00  0.00     0.014 A 
ATOM     38  C   UNL A   1      40.079  24.969  25.977  1.00  0.00     0.014 A 
ATOM     39  C   UNL A   1      39.827  25.604  28.683  1.00  0.00     0.010 A 
ATOM     40  C   UNL A   1      40.592  26.171  26.457  1.00  0.00     0.010 A 
ATOM     41  C   UNL A   1      40.445  26.514  27.809  1.00  0.00    -0.014 A 
BRANCH  41  42
ATOM     42  C   UNL A   1      40.880  27.852  28.287  1.00  0.00     0.031 A 
ATOM     43  C   UNL A   1      42.339  28.220  28.257  1.00  0.00     0.074 A 
ATOM     44  C   UNL A   1      39.971  28.720  28.768  1.00  0.00     0.049 A 
ATOM     45  N   UNL A   1      42.926  29.322  28.650  1.00  0.00    -0.248 NA
ATOM     46  C   UNL A   1      43.265  27.199  27.743  1.00  0.00     0.031 C 
ATOM     47  C   UNL A   1      38.535  28.457  28.893  1.00  0.00     0.029 A 
ATOM     48  N   UNL A   1      40.117  29.998  29.245  1.00  0.00    -0.354 N 
ATOM     49  C   UNL A   1      44.287  29.122  28.441  1.00  0.00     0.074 A 
ATOM     50  C   UNL A   1      44.440  27.766  27.959  1.00  0.00     0.031 C 
ATOM     51  C   UNL A   1      37.931  29.549  29.390  1.00  0.00     0.029 A 
ATOM     52  C   UNL A   1      38.936  30.574  29.651  1.00  0.00     0.049 A 
ATOM     53  H   UNL A   1      40.984  30.458  29.293  1.00  0.00     0.167 HD
ATOM     54  C   UNL A   1      45.311  29.997  28.602  1.00  0.00     0.034 A 
ATOM     55  C   UNL A   1      38.692  31.791  30.177  1.00  0.00     0.034 A 
ATOM     56  C   UNL A   1      45.138  31.349  29.078  1.00  0.00     0.049 A 
ATOM     57  C   UNL A   1      39.841  32.752  30.346  1.00  0.00     0.074 A 
ATOM     58  C   UNL A   1      46.094  32.333  29.256  1.00  0.00     0.029 A 
ATOM     59  N   UNL A   1      43.922  31.908  29.455  1.00  0.00    -0.354 N 
ATOM     60  N   UNL A   1      41.118  32.565  30.100  1.00  0.00    -0.248 NA
ATOM     61  C   UNL A   1      39.512  34.095  30.839  1.00  0.00     0.031 C 
ATOM     62  C   UNL A   1      45.467  33.464  29.793  1.00  0.00     0.029 A 
ATOM     63  C   UNL A   1      44.107  33.215  29.879  1.00  0.00     0.049 A 
ATOM     64  H   UNL A   1      43.055  31.443  29.425  1.00  0.00     0.167 HD
ATOM     65  C   UNL A   1      41.740  33.779  30.380  1.00  0.00     0.074 A 
ATOM     66  C   UNL A   1      40.694  34.692  30.796  1.00  0.00     0.031 C 
ATOM     67  C   UNL A   1      43.054  34.111  30.300  1.00  0.00     0.034 A 
BRANCH  54  68
ATOM     68  C   UNL A   1      46.703  29.499  28.278  1.00  0.00     0.023 A 
ATOM     69  C   UNL A   1      47.520  28.911  29.260  1.00  0.00     0.031 A 
ATOM     70  C   UNL A   1      47.241  29.662  26.990  1.00  0.00     0.131 A 
ATOM     71  C   UNL A   1      48.856  28.595  28.965  1.00  0.00     0.055 A 
ATOM     72  C   UNL A   1      48.543  29.260  26.679  1.00  0.00     0.041 A 
ATOM     73  F   UNL A   1      46.520  30.236  26.013  1.00  0.00    -0.206 F 
ATOM     74  C   UNL A   1      49.365  28.741  27.674  1.00  0.00     0.022 A 
BRANCH  71  75
ATOM     75  S   UNL A   1      49.960  28.154  30.335  1.00  0.00     0.124 S 
ATOM     76  O   UNL A   1      50.974  29.203  30.246  1.00  0.00    -0.237 OA
ATOM     77  O   UNL A   1      49.074  28.218  31.491  1.00  0.00    -0.237 OA
ATOM     78  O   UNL A   1      50.428  26.815  29.979  1.00  0.00    -0.744 OA
ENDBRANCH  71  75
ENDBRANCH  54  68
BRANCH  55  79
ATOM     79  C   UNL A   1      37.308  32.171  30.577  1.00  0.00     0.023 A 
ATOM     80  C   UNL A   1      36.426  32.773  29.666  1.00  0.00     0.031 A 
ATOM     81  C   UNL A   1      36.857  31.961  31.892  1.00  0.00     0.131 A 
ATOM     82  C   UNL A   1      35.153  33.185  30.094  1.00  0.00     0.055 A 
ATOM     83  C   UNL A   1      35.572  32.327  32.299  1.00  0.00     0.041 A 
ATOM     84  F   UNL A   1      37.658  31.380  32.800  1.00  0.00    -0.206 F 
ATOM     85  C   UNL A   1      34.716  32.954  31.399  1.00  0.00     0.022 A 
BRANCH  82  86
ATOM     86  S   UNL A   1      34.098  34.095  28.932  1.00  0.00     0.124 S 
ATOM     87  O   UNL A   1      33.685  33.038  28.015  1.00  0.00    -0.237 OA
ATOM     88  O   UNL A   1      33.061  34.622  29.814  1.00  0.00    -0.237 OA
ATOM     89  O   UNL A   1      35.001  35.096  28.366  1.00  0.00    -0.744 OA
ENDBRANCH  82  86
ENDBRANCH  55  79
BRANCH  67  90
ATOM     90  C   UNL A   1      43.419  35.540  30.622  1.00  0.00     0.023 A 
ATOM     91  C   UNL A   1      43.683  35.961  31.937  1.00  0.00     0.031 A 
ATOM     92  C   UNL A   1      43.477  36.500  29.596  1.00  0.00     0.131 A 
ATOM     93  C   UNL A   1      43.928  37.317  32.201  1.00  0.00     0.055 A 
ATOM     94  C   UNL A   1      43.785  37.837  29.856  1.00  0.00     0.041 A 
ATOM     95  F   UNL A   1      43.232  36.157  28.321  1.00  0.00    -0.206 F 
ATOM     96  C   UNL A   1      43.996  38.254  31.167  1.00  0.00     0.022 A 
BRANCH  93  97
ATOM     97  S   UNL A   1      44.045  37.860  33.928  1.00  0.00     0.124 S 
ATOM     98  O   UNL A   1      45.168  38.789  33.879  1.00  0.00    -0.237 OA
ATOM     99  O   UNL A   1      42.732  38.456  34.156  1.00  0.00    -0.237 OA
ATOM    100  O   UNL A   1      44.297  36.620  34.660  1.00  0.00    -0.744 OA
ENDBRANCH  93  97
ENDBRANCH  67  90
ENDBRANCH  41  42
ENDBRANCH  33  36
ENDBRANCH  31  32
ENDBRANCH  30  31
ENDBRANCH   1  30
TORSDOF 19
ENDMDL
MODEL 2
REMARK VINA RESULT:     -12.2      2.015      2.390
REMARK SMILES C[C@@H](C(=O)NCCCNC(=O)c1ccc(-c2c3nc(c(-c4cc(S(=O)(=O)[O-])ccc4F)c4ccc([nH]4)c(-c4cc(S(=O)(=O)[O-])ccc4F)c4nc(c(-c5cc(S(=O)(=O)[O-])ccc5F)c5ccc2[nH]5)C=C4)C=C3)cc1)c1ccc(C[C@H]2CCC[C@H]2O)cc1-c1ccc(O)cc1
REMARK SMILES IDX 6 1 5 2 3 3 4 4 2 6 1 7 75 8 76 9 87 10 77 11 86 12 78 13
REMARK SMILES IDX 88 14 89 15 94 16 90 17 93 18 91 19 92 20 79 22 80 23 81 24
REMARK SMILES IDX 84 25 82 26 83 27 85 28 7 30 8 31 9 32 10 33 11 35 12 36
REMARK SMILES IDX 13 37 74 38 14 39 73 40 15 41 16 42 17 43 67 44 18 45 72 46
REMARK SMILES IDX 66 47 68 48 19 49 71 50 65 51 64 52 20 54 52 55 32 56 51 57
REMARK SMILES IDX 33 58 36 59 50 60 69 61 34 62 35 63 49 65 70 66 37 67 21 68
REMARK SMILES IDX 22 69 30 70 23 71 29 72 31 73 28 74 24 75 25 76 26 77 27 78
REMARK SMILES IDX 53 79 54 80 62 81 55 82 61 83 63 84 60 85 56 86 57 87 58 88
REMARK SMILES IDX 59 89 38 90 39 91 47 92 40 93 46 94 48 95 45 96 41 97 42 98
REMARK SMILES IDX 43 99 44 100
REMARK H PARENT 5 5 92 21 85 29 9 34 68 53 36 64
REMARK Flexibility Score: inf
ROOT
ATOM      1  C   UNL A   1      34.455  24.648  25.439  1.00  0.00     0.117 C 
ENDROOT
BRANCH   1   2
ATOM      2  N   UNL A   1      33.620  24.469  24.266  1.00  0.00    -0.356 N 
ATOM      3  C   UNL A   1      32.256  24.395  24.208  1.00  0.00     0.227 C 
ATOM      4  O   UNL A   1      31.750  23.787  23.264  1.00  0.00    -0.274 OA
ATOM      5  H   UNL A   1      34.092  24.391  23.407  1.00  0.00     0.163 HD
BRANCH   3   6
ATOM      6  C   UNL A   1      31.435  25.048  25.323  1.00  0.00     0.106 C 
ATOM      7  C   UNL A   1      30.713  23.871  26.013  1.00  0.00     0.023 C 
BRANCH   6   8
ATOM      8  C   UNL A   1      30.503  26.156  24.812  1.00  0.00    -0.028 A 
ATOM      9  C   UNL A   1      29.182  25.818  24.458  1.00  0.00     0.005 A 
ATOM     10  C   UNL A   1      30.887  27.519  24.691  1.00  0.00    -0.014 A 
ATOM     11  C   UNL A   1      28.331  26.727  23.845  1.00  0.00     0.004 A 
ATOM     12  C   UNL A   1      30.044  28.392  23.964  1.00  0.00     0.012 A 
ATOM     13  C   UNL A   1      28.797  27.982  23.478  1.00  0.00    -0.047 A 
BRANCH  10  14
ATOM     14  C   UNL A   1      32.049  28.120  25.383  1.00  0.00    -0.018 A 
ATOM     15  C   UNL A   1      33.245  28.307  24.664  1.00  0.00     0.012 A 
ATOM     16  C   UNL A   1      32.051  28.458  26.744  1.00  0.00     0.012 A 
ATOM     17  C   UNL A   1      34.377  28.863  25.268  1.00  0.00     0.047 A 
ATOM     18  C   UNL A   1      33.166  29.058  27.343  1.00  0.00     0.047 A 
ATOM     19  C   UNL A   1      34.320  29.260  26.595  1.00  0.00     0.115 A 
BRANCH  19  20
ATOM     20  O   UNL A   1      35.428  29.842  27.133  1.00  0.00    -0.508 OA
ATOM     21  H   UNL A   1      35.892  29.416  27.827  1.00  0.00     0.293 HD
ENDBRANCH  19  20
ENDBRANCH  10  14
BRANCH  13  22
ATOM     22  C   UNL A   1      27.972  28.845  22.563  1.00  0.00     0.041 C 
BRANCH  22  23
ATOM     23  C   UNL A   1      28.504  30.267  22.283  1.00  0.00     0.022 C 
ATOM     24  C   UNL A   1      28.073  30.887  20.944  1.00  0.00     0.007 C 
ATOM     25  C   UNL A   1      28.259  31.381  23.317  1.00  0.00     0.117 C 
ATOM     26  C   UNL A   1      28.100  32.405  21.152  1.00  0.00     0.003 C 
ATOM     27  C   UNL A   1      28.665  32.635  22.551  1.00  0.00     0.032 C 
BRANCH  25  28
ATOM     28  O   UNL A   1      26.917  31.545  23.738  1.00  0.00    -0.393 OA
ATOM     29  H   UNL A   1      26.753  30.993  24.518  1.00  0.00     0.210 HD
ENDBRANCH  25  28
ENDBRANCH  22  23
ENDBRANCH  13  22
ENDBRANCH   6   8
ENDBRANCH   3   6
ENDBRANCH   1   2
BRANCH   1  30
ATOM     30  C   UNL A   1      35.272  23.382  25.700  1.00  0.00     0.042 C 
BRANCH  30  31
ATOM     31  C   UNL A   1      36.659  23.424  25.072  1.00  0.00     0.118 C 
BRANCH  31  32
ATOM     32  N   UNL A   1      37.532  22.404  25.625  1.00  0.00    -0.352 N 
ATOM     33  C   UNL A   1      38.724  22.552  26.281  1.00  0.00     0.251 C 
ATOM     34  H   UNL A   1      37.222  21.476  25.514  1.00  0.00     0.163 HD
ATOM     35  O   UNL A   1      39.431  21.558  26.468  1.00  0.00    -0.269 OA
BRANCH  33  36
ATOM     36  C   UNL A   1      39.171  23.884  26.742  1.00  0.00     0.039 A 
ATOM     37  C   UNL A   1      39.760  24.752  25.818  1.00  0.00     0.014 A 
ATOM     38  C   UNL A   1      39.054  24.265  28.084  1.00  0.00     0.014 A 
ATOM     39  C   UNL A   1      40.214  26.004  26.234  1.00  0.00     0.010 A 
ATOM     40  C   UNL A   1      39.435  25.545  28.480  1.00  0.00     0.010 A 
ATOM     41  C   UNL A   1      40.045  26.416  27.566  1.00  0.00    -0.014 A 
BRANCH  41  42
ATOM     42  C   UNL A   1      40.564  27.730  28.027  1.00  0.00     0.031 A 
ATOM     43  C   UNL A   1      42.028  28.049  27.886  1.00  0.00     0.074 A 
ATOM     44  C   UNL A   1      39.726  28.621  28.591  1.00  0.00     0.049 A 
ATOM     45  N   UNL A   1      42.683  29.123  28.248  1.00  0.00    -0.248 NA
ATOM     46  C   UNL A   1      42.874  27.006  27.286  1.00  0.00     0.031 C 
ATOM     47  C   UNL A   1      38.296  28.404  28.826  1.00  0.00     0.029 A 
ATOM     48  N   UNL A   1      39.955  29.885  29.073  1.00  0.00    -0.354 N 
ATOM     49  C   UNL A   1      44.015  28.881  27.927  1.00  0.00     0.074 A 
ATOM     50  C   UNL A   1      44.082  27.529  27.416  1.00  0.00     0.031 C 
ATOM     51  C   UNL A   1      37.772  29.508  29.385  1.00  0.00     0.029 A 
ATOM     52  C   UNL A   1      38.831  30.494  29.580  1.00  0.00     0.049 A 
ATOM     53  H   UNL A   1      40.839  30.314  29.059  1.00  0.00     0.167 HD
ATOM     54  C   UNL A   1      45.079  29.718  28.019  1.00  0.00     0.034 A 
ATOM     55  C   UNL A   1      38.673  31.709  30.141  1.00  0.00     0.034 A 
ATOM     56  C   UNL A   1      44.992  31.066  28.527  1.00  0.00     0.049 A 
ATOM     57  C   UNL A   1      39.864  32.627  30.232  1.00  0.00     0.074 A 
ATOM     58  C   UNL A   1      45.993  32.014  28.642  1.00  0.00     0.029 A 
ATOM     59  N   UNL A   1      43.830  31.660  29.007  1.00  0.00    -0.354 N 
ATOM     60  N   UNL A   1      41.111  32.401  29.882  1.00  0.00    -0.248 NA
ATOM     61  C   UNL A   1      39.623  33.972  30.769  1.00  0.00     0.031 C 
ATOM     62  C   UNL A   1      45.451  33.157  29.243  1.00  0.00     0.029 A 
ATOM     63  C   UNL A   1      44.094  32.953  29.434  1.00  0.00     0.049 A 
ATOM     64  H   UNL A   1      42.947  31.225  29.039  1.00  0.00     0.167 HD
ATOM     65  C   UNL A   1      41.795  33.588  30.130  1.00  0.00     0.074 A 
ATOM     66  C   UNL A   1      40.818  34.529  30.640  1.00  0.00     0.031 C 
ATOM     67  C   UNL A   1      43.110  33.877  29.950  1.00  0.00     0.034 A 
BRANCH  54  68
ATOM     68  C   UNL A   1      46.422  29.178  27.578  1.00  0.00     0.023 A 
ATOM     69  C   UNL A   1      46.692  28.893  26.227  1.00  0.00     0.031 A 
ATOM     70  C   UNL A   1      47.425  28.894  28.520  1.00  0.00     0.131 A 
ATOM     71  C   UNL A   1      47.891  28.256  25.870  1.00  0.00     0.055 A 
ATOM     72  C   UNL A   1      48.655  28.344  28.145  1.00  0.00     0.041 A 
ATOM     73  F   UNL A   1      47.223  29.123  29.828  1.00  0.00    -0.206 F 
ATOM     74  C   UNL A   1      48.885  28.005  26.816  1.00  0.00     0.022 A 
BRANCH  71  75
ATOM     75  S   UNL A   1      48.054  27.611  24.182  1.00  0.00     0.124 S 
ATOM     76  O   UNL A   1      47.591  26.235  24.347  1.00  0.00    -0.237 OA
ATOM     77  O   UNL A   1      47.180  28.493  23.419  1.00  0.00    -0.237 OA
ATOM     78  O   UNL A   1      49.482  27.748  23.900  1.00  0.00    -0.744 OA
ENDBRANCH  71  75
ENDBRANCH  54  68
BRANCH  55  79
ATOM     79  C   UNL A   1      37.339  32.129  30.656  1.00  0.00     0.023 A 
ATOM     80  C   UNL A   1      36.404  32.766  29.823  1.00  0.00     0.031 A 
ATOM     81  C   UNL A   1      36.990  31.923  32.002  1.00  0.00     0.131 A 
ATOM     82  C   UNL A   1      35.185  33.214  30.356  1.00  0.00     0.055 A 
ATOM     83  C   UNL A   1      35.756  32.325  32.515  1.00  0.00     0.041 A 
ATOM     84  F   UNL A   1      37.844  31.310  32.838  1.00  0.00    -0.206 F 
ATOM     85  C   UNL A   1      34.849  32.987  31.692  1.00  0.00     0.022 A 
BRANCH  82  86
ATOM     86  S   UNL A   1      34.068  34.166  29.289  1.00  0.00     0.124 S 
ATOM     87  O   UNL A   1      33.133  34.723  30.260  1.00  0.00    -0.237 OA
ATOM     88  O   UNL A   1      34.984  35.114  28.662  1.00  0.00    -0.237 OA
ATOM     89  O   UNL A   1      33.511  33.155  28.392  1.00  0.00    -0.744 OA
ENDBRANCH  82  86
ENDBRANCH  55  79
BRANCH  67  90
ATOM     90  C   UNL A   1      43.549  35.287  30.262  1.00  0.00     0.023 A 
ATOM     91  C   UNL A   1      43.472  36.317  29.308  1.00  0.00     0.031 A 
ATOM     92  C   UNL A   1      44.076  35.597  31.528  1.00  0.00     0.131 A 
ATOM     93  C   UNL A   1      43.977  37.590  29.611  1.00  0.00     0.055 A 
ATOM     94  C   UNL A   1      44.517  36.882  31.847  1.00  0.00     0.041 A 
ATOM     95  F   UNL A   1      44.175  34.654  32.478  1.00  0.00    -0.206 F 
ATOM     96  C   UNL A   1      44.484  37.883  30.880  1.00  0.00     0.022 A 
BRANCH  93  97
ATOM     97  S   UNL A   1      44.065  38.829  28.290  1.00  0.00     0.124 S 
ATOM     98  O   UNL A   1      43.506  40.008  28.940  1.00  0.00    -0.237 OA
ATOM     99  O   UNL A   1      45.495  38.876  28.003  1.00  0.00    -0.237 OA
ATOM    100  O   UNL A   1      43.240  38.256  27.227  1.00  0.00    -0.744 OA
ENDBRANCH  93  97
ENDBRANCH  67  90
ENDBRANCH  41  42
ENDBRANCH  33  36
ENDBRANCH  31  32
ENDBRANCH  30  31
ENDBRANCH   1  30
TORSDOF 19
ENDMDL
MODEL 3
REMARK VINA RESULT:     -12.1      3.701      9.058
REMARK SMILES C[C@@H](C(=O)NCCCNC(=O)c1ccc(-c2c3nc(c(-c4cc(S(=O)(=O)[O-])ccc4F)c4ccc([nH]4)c(-c4cc(S(=O)(=O)[O-])ccc4F)c4nc(c(-c5cc(S(=O)(=O)[O-])ccc5F)c5ccc2[nH]5)C=C4)C=C3)cc1)c1ccc(C[C@H]2CCC[C@H]2O)cc1-c1ccc(O)cc1
REMARK SMILES IDX 6 1 5 2 3 3 4 4 2 6 1 7 75 8 76 9 87 10 77 11 86 12 78 13
REMARK SMILES IDX 88 14 89 15 94 16 90 17 93 18 91 19 92 20 79 22 80 23 81 24
REMARK SMILES IDX 84 25 82 26 83 27 85 28 7 30 8 31 9 32 10 33 11 35 12 36
REMARK SMILES IDX 13 37 74 38 14 39 73 40 15 41 16 42 17 43 67 44 18 45 72 46
REMARK SMILES IDX 66 47 68 48 19 49 71 50 65 51 64 52 20 54 52 55 32 56 51 57
REMARK SMILES IDX 33 58 36 59 50 60 69 61 34 62 35 63 49 65 70 66 37 67 21 68
REMARK SMILES IDX 22 69 30 70 23 71 29 72 31 73 28 74 24 75 25 76 26 77 27 78
REMARK SMILES IDX 53 79 54 80 62 81 55 82 61 83 63 84 60 85 56 86 57 87 58 88
REMARK SMILES IDX 59 89 38 90 39 91 47 92 40 93 46 94 48 95 45 96 41 97 42 98
REMARK SMILES IDX 43 99 44 100
REMARK H PARENT 5 5 92 21 85 29 9 34 68 53 36 64
REMARK Flexibility Score: inf
ROOT
ATOM      1  C   UNL A   1      37.057  19.752  24.642  1.00  0.00     0.117 C 
ENDROOT
BRANCH   1   2
ATOM      2  N   UNL A   1      36.456  20.725  25.537  1.00  0.00    -0.356 N 
ATOM      3  C   UNL A   1      35.980  21.969  25.227  1.00  0.00     0.227 C 
ATOM      4  O   UNL A   1      35.953  22.815  26.122  1.00  0.00    -0.274 OA
ATOM      5  H   UNL A   1      36.383  20.457  26.480  1.00  0.00     0.163 HD
BRANCH   3   6
ATOM      6  C   UNL A   1      35.529  22.250  23.792  1.00  0.00     0.106 C 
ATOM      7  C   UNL A   1      36.681  23.073  23.178  1.00  0.00     0.023 C 
BRANCH   6   8
ATOM      8  C   UNL A   1      34.152  22.926  23.717  1.00  0.00    -0.028 A 
ATOM      9  C   UNL A   1      34.073  24.246  23.234  1.00  0.00     0.005 A 
ATOM     10  C   UNL A   1      32.938  22.288  24.090  1.00  0.00    -0.014 A 
ATOM     11  C   UNL A   1      32.893  24.976  23.281  1.00  0.00     0.004 A 
ATOM     12  C   UNL A   1      31.778  23.086  24.233  1.00  0.00     0.012 A 
ATOM     13  C   UNL A   1      31.769  24.445  23.898  1.00  0.00    -0.047 A 
BRANCH  10  14
ATOM     14  C   UNL A   1      32.771  20.823  24.215  1.00  0.00    -0.018 A 
ATOM     15  C   UNL A   1      32.438  20.078  23.067  1.00  0.00     0.012 A 
ATOM     16  C   UNL A   1      32.862  20.134  25.432  1.00  0.00     0.012 A 
ATOM     17  C   UNL A   1      32.260  18.693  23.127  1.00  0.00     0.047 A 
ATOM     18  C   UNL A   1      32.732  18.740  25.490  1.00  0.00     0.047 A 
ATOM     19  C   UNL A   1      32.436  18.031  24.333  1.00  0.00     0.115 A 
BRANCH  19  20
ATOM     20  O   UNL A   1      32.302  16.675  24.339  1.00  0.00    -0.508 OA
ATOM     21  H   UNL A   1      31.494  16.282  24.072  1.00  0.00     0.293 HD
ENDBRANCH  19  20
ENDBRANCH  10  14
BRANCH  13  22
ATOM     22  C   UNL A   1      30.597  25.337  24.205  1.00  0.00     0.041 C 
BRANCH  22  23
ATOM     23  C   UNL A   1      30.817  26.429  25.274  1.00  0.00     0.022 C 
ATOM     24  C   UNL A   1      31.895  26.122  26.326  1.00  0.00     0.007 C 
ATOM     25  C   UNL A   1      31.118  27.872  24.828  1.00  0.00     0.117 C 
ATOM     26  C   UNL A   1      32.414  27.480  26.810  1.00  0.00     0.003 C 
ATOM     27  C   UNL A   1      31.545  28.536  26.132  1.00  0.00     0.032 C 
BRANCH  25  28
ATOM     28  O   UNL A   1      32.175  28.020  23.899  1.00  0.00    -0.393 OA
ATOM     29  H   UNL A   1      33.024  27.885  24.350  1.00  0.00     0.210 HD
ENDBRANCH  25  28
ENDBRANCH  22  23
ENDBRANCH  13  22
ENDBRANCH   6   8
ENDBRANCH   3   6
ENDBRANCH   1   2
BRANCH   1  30
ATOM     30  C   UNL A   1      38.136  18.959  25.379  1.00  0.00     0.042 C 
BRANCH  30  31
ATOM     31  C   UNL A   1      39.350  19.800  25.751  1.00  0.00     0.118 C 
BRANCH  31  32
ATOM     32  N   UNL A   1      40.481  18.974  26.136  1.00  0.00    -0.352 N 
ATOM     33  C   UNL A   1      41.757  19.353  26.454  1.00  0.00     0.251 C 
ATOM     34  H   UNL A   1      40.304  18.006  26.175  1.00  0.00     0.163 HD
ATOM     35  O   UNL A   1      42.636  18.491  26.527  1.00  0.00    -0.269 OA
BRANCH  33  36
ATOM     36  C   UNL A   1      42.085  20.775  26.688  1.00  0.00     0.039 A 
ATOM     37  C   UNL A   1      42.159  21.637  25.590  1.00  0.00     0.014 A 
ATOM     38  C   UNL A   1      42.363  21.256  27.973  1.00  0.00     0.014 A 
ATOM     39  C   UNL A   1      42.493  22.978  25.782  1.00  0.00     0.010 A 
ATOM     40  C   UNL A   1      42.618  22.610  28.171  1.00  0.00     0.010 A 
ATOM     41  C   UNL A   1      42.714  23.479  27.075  1.00  0.00    -0.014 A 
BRANCH  41  42
ATOM     42  C   UNL A   1      43.112  24.896  27.284  1.00  0.00     0.031 A 
ATOM     43  C   UNL A   1      42.153  25.855  27.937  1.00  0.00     0.074 A 
ATOM     44  C   UNL A   1      44.319  25.322  26.866  1.00  0.00     0.049 A 
ATOM     45  N   UNL A   1      42.296  27.132  28.187  1.00  0.00    -0.248 NA
ATOM     46  C   UNL A   1      40.846  25.310  28.334  1.00  0.00     0.031 C 
ATOM     47  C   UNL A   1      45.314  24.496  26.176  1.00  0.00     0.029 A 
ATOM     48  N   UNL A   1      44.915  26.554  26.956  1.00  0.00    -0.354 N 
ATOM     49  C   UNL A   1      41.097  27.543  28.761  1.00  0.00     0.074 A 
ATOM     50  C   UNL A   1      40.214  26.396  28.748  1.00  0.00     0.031 C 
ATOM     51  C   UNL A   1      46.404  25.240  25.928  1.00  0.00     0.029 A 
ATOM     52  C   UNL A   1      46.175  26.600  26.408  1.00  0.00     0.049 A 
ATOM     53  H   UNL A   1      44.481  27.332  27.374  1.00  0.00     0.167 HD
ATOM     54  C   UNL A   1      40.772  28.753  29.280  1.00  0.00     0.034 A 
ATOM     55  C   UNL A   1      47.046  27.623  26.301  1.00  0.00     0.034 A 
ATOM     56  C   UNL A   1      41.669  29.884  29.289  1.00  0.00     0.049 A 
ATOM     57  C   UNL A   1      46.670  28.959  26.887  1.00  0.00     0.074 A 
ATOM     58  C   UNL A   1      41.462  31.149  29.810  1.00  0.00     0.029 A 
ATOM     59  N   UNL A   1      42.949  29.886  28.748  1.00  0.00    -0.354 N 
ATOM     60  N   UNL A   1      45.548  29.322  27.468  1.00  0.00    -0.248 NA
ATOM     61  C   UNL A   1      47.686  30.017  26.825  1.00  0.00     0.031 C 
ATOM     62  C   UNL A   1      42.591  31.930  29.533  1.00  0.00     0.029 A 
ATOM     63  C   UNL A   1      43.535  31.133  28.908  1.00  0.00     0.049 A 
ATOM     64  H   UNL A   1      43.378  29.114  28.313  1.00  0.00     0.167 HD
ATOM     65  C   UNL A   1      45.738  30.642  27.868  1.00  0.00     0.074 A 
ATOM     66  C   UNL A   1      47.086  31.002  27.477  1.00  0.00     0.031 C 
ATOM     67  C   UNL A   1      44.879  31.480  28.503  1.00  0.00     0.034 A 
BRANCH  54  68
ATOM     68  C   UNL A   1      39.382  28.906  29.857  1.00  0.00     0.023 A 
ATOM     69  C   UNL A   1      38.332  29.465  29.106  1.00  0.00     0.031 A 
ATOM     70  C   UNL A   1      39.113  28.541  31.187  1.00  0.00     0.131 A 
ATOM     71  C   UNL A   1      37.095  29.730  29.716  1.00  0.00     0.055 A 
ATOM     72  C   UNL A   1      37.852  28.723  31.761  1.00  0.00     0.041 A 
ATOM     73  F   UNL A   1      40.078  28.023  31.964  1.00  0.00    -0.206 F 
ATOM     74  C   UNL A   1      36.840  29.338  31.031  1.00  0.00     0.022 A 
BRANCH  71  75
ATOM     75  S   UNL A   1      35.890  30.746  28.818  1.00  0.00     0.124 S 
ATOM     76  O   UNL A   1      36.763  31.559  27.973  1.00  0.00    -0.237 OA
ATOM     77  O   UNL A   1      35.084  29.746  28.129  1.00  0.00    -0.237 OA
ATOM     78  O   UNL A   1      35.204  31.481  29.879  1.00  0.00    -0.744 OA
ENDBRANCH  71  75
ENDBRANCH  54  68
BRANCH  55  79
ATOM     79  C   UNL A   1      48.356  27.425  25.618  1.00  0.00     0.023 A 
ATOM     80  C   UNL A   1      48.483  27.579  24.228  1.00  0.00     0.031 A 
ATOM     81  C   UNL A   1      49.498  27.051  26.348  1.00  0.00     0.131 A 
ATOM     82  C   UNL A   1      49.714  27.316  23.606  1.00  0.00     0.055 A 
ATOM     83  C   UNL A   1      50.732  26.839  25.731  1.00  0.00     0.041 A 
ATOM     84  F   UNL A   1      49.432  26.900  27.681  1.00  0.00    -0.206 F 
ATOM     85  C   UNL A   1      50.841  26.959  24.349  1.00  0.00     0.022 A 
BRANCH  82  86
ATOM     86  S   UNL A   1      49.802  27.376  21.795  1.00  0.00     0.124 S 
ATOM     87  O   UNL A   1      51.228  27.176  21.561  1.00  0.00    -0.237 OA
ATOM     88  O   UNL A   1      48.927  26.272  21.412  1.00  0.00    -0.237 OA
ATOM     89  O   UNL A   1      49.296  28.709  21.474  1.00  0.00    -0.744 OA
ENDBRANCH  82  86
ENDBRANCH  55  79
BRANCH  67  90
ATOM     90  C   UNL A   1      45.398  32.852  28.857  1.00  0.00     0.023 A 
ATOM     91  C   UNL A   1      45.253  33.948  27.988  1.00  0.00     0.031 A 
ATOM     92  C   UNL A   1      46.072  33.059  30.074  1.00  0.00     0.131 A 
ATOM     93  C   UNL A   1      45.832  35.183  28.317  1.00  0.00     0.055 A 
ATOM     94  C   UNL A   1      46.590  34.306  30.425  1.00  0.00     0.041 A 
ATOM     95  F   UNL A   1      46.242  32.049  30.942  1.00  0.00    -0.206 F 
ATOM     96  C   UNL A   1      46.486  35.373  29.537  1.00  0.00     0.022 A 
BRANCH  93  97
ATOM     97  S   UNL A   1      45.818  36.508  27.079  1.00  0.00     0.124 S 
ATOM     98  O   UNL A   1      46.607  37.545  27.734  1.00  0.00    -0.237 OA
ATOM     99  O   UNL A   1      46.441  35.865  25.927  1.00  0.00    -0.237 OA
ATOM    100  O   UNL A   1      44.397  36.816  26.923  1.00  0.00    -0.744 OA
ENDBRANCH  93  97
ENDBRANCH  67  90
ENDBRANCH  41  42
ENDBRANCH  33  36
ENDBRANCH  31  32
ENDBRANCH  30  31
ENDBRANCH   1  30
TORSDOF 19
ENDMDL
