MODEL 1
REMARK VINA RESULT:     -13.3      0.000      0.000
REMARK SMILES C[C@@H](S[C@H]1CC(=O)N(c2ccc3ccccc3c2)C1=O)C(=O)NCCCNC(=O)c1ccc(-c2c3nc(c(-c4cc(S(=O)(=O)[O-])ccc4F)c4ccc([nH]4)c(-c4cc(S(=O)(=O)[O-])ccc4F)c4nc(c(-c5cc(S(=O)(=O)[O-])ccc5F)c5ccc2[nH]5)C=C4)C=C3)cc1
REMARK SMILES IDX 25 1 24 2 23 3 21 4 22 5 2 7 1 8 3 9 4 10 5 11 19 12 6 13
REMARK SMILES IDX 8 14 20 15 7 16 9 17 10 18 18 19 11 20 17 21 12 22 16 23
REMARK SMILES IDX 13 24 15 25 14 26 26 27 27 28 28 29 29 31 30 32 31 33 92 34
REMARK SMILES IDX 32 35 91 36 33 37 34 38 35 39 85 40 36 41 90 42 84 43 86 44
REMARK SMILES IDX 37 45 89 46 83 47 82 48 38 50 70 51 50 52 69 53 51 54 54 55
REMARK SMILES IDX 68 56 87 57 52 58 53 59 67 61 88 62 55 63 39 64 40 65 48 66
REMARK SMILES IDX 41 67 47 68 49 69 46 70 42 71 43 72 44 73 45 74 71 75 72 76
REMARK SMILES IDX 80 77 73 78 79 79 81 80 78 81 74 82 75 83 76 84 77 85 56 86
REMARK SMILES IDX 57 87 65 88 58 89 64 90 66 91 63 92 59 93 60 94 61 95 62 96
REMARK H PARENT 23 6 27 30 86 49 54 60
REMARK Flexibility Score: inf
ROOT
ATOM      1  C   UNL A   1      35.967  21.282  25.245  1.00  0.00     0.042 C 
ENDROOT
BRANCH   1   2
ATOM      2  C   UNL A   1      35.549  19.916  24.741  1.00  0.00     0.117 C 
BRANCH   2   3
ATOM      3  N   UNL A   1      34.292  19.428  25.280  1.00  0.00    -0.355 N 
ATOM      4  C   UNL A   1      32.999  19.782  25.044  1.00  0.00     0.232 C 
ATOM      5  O   UNL A   1      32.144  18.979  25.439  1.00  0.00    -0.274 OA
ATOM      6  H   UNL A   1      34.393  18.704  25.940  1.00  0.00     0.163 HD
BRANCH   4   7
ATOM      7  C   UNL A   1      32.566  21.067  24.331  1.00  0.00     0.133 C 
ATOM      8  C   UNL A   1      32.129  20.952  22.879  1.00  0.00     0.030 C 
BRANCH   7   9
ATOM      9  S   UNL A   1      31.477  22.163  25.331  1.00  0.00    -0.135 SA
BRANCH   9  10
ATOM     10  C   UNL A   1      32.323  23.763  25.221  1.00  0.00     0.147 C 
ATOM     11  C   UNL A   1      33.008  23.957  23.885  1.00  0.00     0.125 C 
ATOM     12  C   UNL A   1      31.403  24.945  25.360  1.00  0.00     0.247 C 
ATOM     13  C   UNL A   1      32.609  25.339  23.458  1.00  0.00     0.235 C 
ATOM     14  N   UNL A   1      31.702  25.842  24.362  1.00  0.00    -0.250 N 
ATOM     15  O   UNL A   1      30.575  25.064  26.257  1.00  0.00    -0.273 OA
ATOM     16  O   UNL A   1      33.073  25.875  22.467  1.00  0.00    -0.274 OA
BRANCH  14  17
ATOM     17  C   UNL A   1      31.122  27.130  24.273  1.00  0.00     0.052 A 
ATOM     18  C   UNL A   1      31.743  28.236  24.859  1.00  0.00     0.027 A 
ATOM     19  C   UNL A   1      29.916  27.322  23.579  1.00  0.00     0.035 A 
ATOM     20  C   UNL A   1      31.216  29.519  24.685  1.00  0.00     0.011 A 
ATOM     21  C   UNL A   1      29.344  28.598  23.446  1.00  0.00    -0.016 A 
ATOM     22  C   UNL A   1      30.023  29.717  23.973  1.00  0.00    -0.018 A 
ATOM     23  C   UNL A   1      28.112  28.786  22.797  1.00  0.00     0.009 A 
ATOM     24  C   UNL A   1      29.489  31.000  23.780  1.00  0.00     0.009 A 
ATOM     25  C   UNL A   1      27.580  30.065  22.634  1.00  0.00     0.001 A 
ATOM     26  C   UNL A   1      28.278  31.173  23.108  1.00  0.00     0.001 A 
ENDBRANCH  14  17
ENDBRANCH   9  10
ENDBRANCH   7   9
ENDBRANCH   4   7
ENDBRANCH   2   3
ENDBRANCH   1   2
BRANCH   1  27
ATOM     27  C   UNL A   1      37.419  21.628  24.947  1.00  0.00     0.118 C 
BRANCH  27  28
ATOM     28  N   UNL A   1      38.377  20.692  25.529  1.00  0.00    -0.352 N 
ATOM     29  C   UNL A   1      39.539  20.892  26.240  1.00  0.00     0.251 C 
ATOM     30  H   UNL A   1      38.150  19.744  25.387  1.00  0.00     0.163 HD
ATOM     31  O   UNL A   1      40.269  19.930  26.463  1.00  0.00    -0.269 OA
BRANCH  29  32
ATOM     32  C   UNL A   1      39.931  22.245  26.691  1.00  0.00     0.039 A 
ATOM     33  C   UNL A   1      40.982  22.390  27.603  1.00  0.00     0.014 A 
ATOM     34  C   UNL A   1      39.268  23.375  26.222  1.00  0.00     0.014 A 
ATOM     35  C   UNL A   1      41.431  23.670  27.947  1.00  0.00     0.010 A 
ATOM     36  C   UNL A   1      39.799  24.636  26.453  1.00  0.00     0.010 A 
ATOM     37  C   UNL A   1      40.885  24.803  27.325  1.00  0.00    -0.014 A 
BRANCH  37  38
ATOM     38  C   UNL A   1      41.398  26.178  27.571  1.00  0.00     0.031 A 
ATOM     39  C   UNL A   1      42.770  26.561  27.076  1.00  0.00     0.074 A 
ATOM     40  C   UNL A   1      40.690  27.035  28.335  1.00  0.00     0.049 A 
ATOM     41  N   UNL A   1      43.484  27.624  27.342  1.00  0.00    -0.248 NA
ATOM     42  C   UNL A   1      43.449  25.586  26.208  1.00  0.00     0.031 C 
ATOM     43  C   UNL A   1      39.375  26.764  28.922  1.00  0.00     0.029 A 
ATOM     44  N   UNL A   1      40.984  28.306  28.762  1.00  0.00    -0.354 N 
ATOM     45  C   UNL A   1      44.708  27.423  26.712  1.00  0.00     0.074 A 
ATOM     46  C   UNL A   1      44.662  26.106  26.114  1.00  0.00     0.031 C 
ATOM     47  C   UNL A   1      38.966  27.844  29.606  1.00  0.00     0.029 A 
ATOM     48  C   UNL A   1      40.008  28.863  29.555  1.00  0.00     0.049 A 
ATOM     49  H   UNL A   1      41.818  28.774  28.525  1.00  0.00     0.167 HD
ATOM     50  C   UNL A   1      45.764  28.270  26.614  1.00  0.00     0.034 A 
ATOM     51  C   UNL A   1      39.963  30.056  30.182  1.00  0.00     0.034 A 
ATOM     52  C   UNL A   1      45.771  29.600  27.174  1.00  0.00     0.049 A 
ATOM     53  C   UNL A   1      41.136  30.992  30.041  1.00  0.00     0.074 A 
ATOM     54  C   UNL A   1      46.749  30.573  27.075  1.00  0.00     0.029 A 
ATOM     55  N   UNL A   1      44.743  30.145  27.934  1.00  0.00    -0.354 N 
ATOM     56  N   UNL A   1      42.270  30.805  29.407  1.00  0.00    -0.248 NA
ATOM     57  C   UNL A   1      41.017  32.303  30.691  1.00  0.00     0.031 C 
ATOM     58  C   UNL A   1      46.337  31.685  27.818  1.00  0.00     0.029 A 
ATOM     59  C   UNL A   1      45.073  31.433  28.326  1.00  0.00     0.049 A 
ATOM     60  H   UNL A   1      43.903  29.683  28.160  1.00  0.00     0.167 HD
ATOM     61  C   UNL A   1      42.988  31.988  29.558  1.00  0.00     0.074 A 
ATOM     62  C   UNL A   1      42.152  32.884  30.330  1.00  0.00     0.031 C 
ATOM     63  C   UNL A   1      44.225  32.307  29.102  1.00  0.00     0.034 A 
BRANCH  50  64
ATOM     64  C   UNL A   1      46.991  27.772  25.887  1.00  0.00     0.023 A 
ATOM     65  C   UNL A   1      47.219  28.072  24.531  1.00  0.00     0.031 A 
ATOM     66  C   UNL A   1      47.923  26.947  26.539  1.00  0.00     0.131 A 
ATOM     67  C   UNL A   1      48.290  27.477  23.851  1.00  0.00     0.055 A 
ATOM     68  C   UNL A   1      49.041  26.432  25.880  1.00  0.00     0.041 A 
ATOM     69  F   UNL A   1      47.753  26.608  27.827  1.00  0.00    -0.206 F 
ATOM     70  C   UNL A   1      49.220  26.679  24.521  1.00  0.00     0.022 A 
BRANCH  67  71
ATOM     71  S   UNL A   1      48.354  27.627  22.044  1.00  0.00     0.124 S 
ATOM     72  O   UNL A   1      49.489  28.530  21.866  1.00  0.00    -0.237 OA
ATOM     73  O   UNL A   1      48.564  26.248  21.620  1.00  0.00    -0.237 OA
ATOM     74  O   UNL A   1      47.054  28.196  21.700  1.00  0.00    -0.744 OA
ENDBRANCH  67  71
ENDBRANCH  50  64
BRANCH  51  75
ATOM     75  C   UNL A   1      38.776  30.439  30.999  1.00  0.00     0.023 A 
ATOM     76  C   UNL A   1      37.686  31.103  30.416  1.00  0.00     0.031 A 
ATOM     77  C   UNL A   1      38.728  30.180  32.381  1.00  0.00     0.131 A 
ATOM     78  C   UNL A   1      36.614  31.528  31.216  1.00  0.00     0.055 A 
ATOM     79  C   UNL A   1      37.636  30.560  33.164  1.00  0.00     0.041 A 
ATOM     80  F   UNL A   1      39.739  29.538  32.987  1.00  0.00    -0.206 F 
ATOM     81  C   UNL A   1      36.577  31.251  32.584  1.00  0.00     0.022 A 
BRANCH  78  82
ATOM     82  S   UNL A   1      35.303  32.522  30.452  1.00  0.00     0.124 S 
ATOM     83  O   UNL A   1      34.994  31.740  29.260  1.00  0.00    -0.237 OA
ATOM     84  O   UNL A   1      34.284  32.530  31.497  1.00  0.00    -0.237 OA
ATOM     85  O   UNL A   1      35.951  33.808  30.207  1.00  0.00    -0.744 OA
ENDBRANCH  78  82
ENDBRANCH  51  75
BRANCH  63  86
ATOM     86  C   UNL A   1      44.720  33.702  29.388  1.00  0.00     0.023 A 
ATOM     87  C   UNL A   1      44.503  34.761  28.490  1.00  0.00     0.031 A 
ATOM     88  C   UNL A   1      45.429  33.970  30.573  1.00  0.00     0.131 A 
ATOM     89  C   UNL A   1      45.036  36.029  28.765  1.00  0.00     0.055 A 
ATOM     90  C   UNL A   1      45.906  35.247  30.868  1.00  0.00     0.041 A 
ATOM     91  F   UNL A   1      45.664  32.994  31.464  1.00  0.00    -0.206 F 
ATOM     92  C   UNL A   1      45.723  36.282  29.956  1.00  0.00     0.022 A 
BRANCH  89  93
ATOM     93  S   UNL A   1      44.897  37.323  27.503  1.00  0.00     0.124 S 
ATOM     94  O   UNL A   1      43.535  37.127  27.015  1.00  0.00    -0.237 OA
ATOM     95  O   UNL A   1      45.127  38.540  28.277  1.00  0.00    -0.237 OA
ATOM     96  O   UNL A   1      45.953  36.987  26.550  1.00  0.00    -0.744 OA
ENDBRANCH  89  93
ENDBRANCH  63  86
ENDBRANCH  37  38
ENDBRANCH  29  32
ENDBRANCH  27  28
ENDBRANCH   1  27
TORSDOF 16
ENDMDL
MODEL 2
REMARK VINA RESULT:     -13.3      1.865      2.461
REMARK SMILES C[C@@H](S[C@H]1CC(=O)N(c2ccc3ccccc3c2)C1=O)C(=O)NCCCNC(=O)c1ccc(-c2c3nc(c(-c4cc(S(=O)(=O)[O-])ccc4F)c4ccc([nH]4)c(-c4cc(S(=O)(=O)[O-])ccc4F)c4nc(c(-c5cc(S(=O)(=O)[O-])ccc5F)c5ccc2[nH]5)C=C4)C=C3)cc1
REMARK SMILES IDX 25 1 24 2 23 3 21 4 22 5 2 7 1 8 3 9 4 10 5 11 19 12 6 13
REMARK SMILES IDX 8 14 20 15 7 16 9 17 10 18 18 19 11 20 17 21 12 22 16 23
REMARK SMILES IDX 13 24 15 25 14 26 26 27 27 28 28 29 29 31 30 32 31 33 92 34
REMARK SMILES IDX 32 35 91 36 33 37 34 38 35 39 85 40 36 41 90 42 84 43 86 44
REMARK SMILES IDX 37 45 89 46 83 47 82 48 38 50 70 51 50 52 69 53 51 54 54 55
REMARK SMILES IDX 68 56 87 57 52 58 53 59 67 61 88 62 55 63 39 64 40 65 48 66
REMARK SMILES IDX 41 67 47 68 49 69 46 70 42 71 43 72 44 73 45 74 71 75 72 76
REMARK SMILES IDX 80 77 73 78 79 79 81 80 78 81 74 82 75 83 76 84 77 85 56 86
REMARK SMILES IDX 57 87 65 88 58 89 64 90 66 91 63 92 59 93 60 94 61 95 62 96
REMARK H PARENT 23 6 27 30 86 49 54 60
REMARK Flexibility Score: inf
ROOT
ATOM      1  C   UNL A   1      36.022  20.485  24.949  1.00  0.00     0.042 C 
ENDROOT
BRANCH   1   2
ATOM      2  C   UNL A   1      35.004  21.160  25.846  1.00  0.00     0.117 C 
BRANCH   2   3
ATOM      3  N   UNL A   1      33.807  20.378  26.102  1.00  0.00    -0.355 N 
ATOM      4  C   UNL A   1      33.019  19.623  25.290  1.00  0.00     0.232 C 
ATOM      5  O   UNL A   1      32.247  18.846  25.866  1.00  0.00    -0.274 OA
ATOM      6  H   UNL A   1      33.511  20.397  27.041  1.00  0.00     0.163 HD
BRANCH   4   7
ATOM      7  C   UNL A   1      33.047  19.674  23.759  1.00  0.00     0.133 C 
ATOM      8  C   UNL A   1      32.870  18.364  23.008  1.00  0.00     0.030 C 
BRANCH   7   9
ATOM      9  S   UNL A   1      32.089  21.064  23.025  1.00  0.00    -0.135 SA
BRANCH   9  10
ATOM     10  C   UNL A   1      33.210  22.472  23.243  1.00  0.00     0.147 C 
ATOM     11  C   UNL A   1      33.441  23.223  21.949  1.00  0.00     0.125 C 
ATOM     12  C   UNL A   1      32.700  23.508  24.207  1.00  0.00     0.247 C 
ATOM     13  C   UNL A   1      33.269  24.667  22.320  1.00  0.00     0.235 C 
ATOM     14  N   UNL A   1      32.859  24.747  23.631  1.00  0.00    -0.250 N 
ATOM     15  O   UNL A   1      32.268  23.247  25.325  1.00  0.00    -0.273 OA
ATOM     16  O   UNL A   1      33.494  25.574  21.537  1.00  0.00    -0.274 OA
BRANCH  14  17
ATOM     17  C   UNL A   1      32.610  25.962  24.314  1.00  0.00     0.052 A 
ATOM     18  C   UNL A   1      31.349  26.562  24.266  1.00  0.00     0.027 A 
ATOM     19  C   UNL A   1      33.624  26.578  25.064  1.00  0.00     0.035 A 
ATOM     20  C   UNL A   1      31.082  27.709  25.020  1.00  0.00     0.011 A 
ATOM     21  C   UNL A   1      33.386  27.763  25.780  1.00  0.00    -0.016 A 
ATOM     22  C   UNL A   1      32.087  28.315  25.789  1.00  0.00    -0.018 A 
ATOM     23  C   UNL A   1      34.412  28.409  26.490  1.00  0.00     0.009 A 
ATOM     24  C   UNL A   1      31.832  29.458  26.561  1.00  0.00     0.009 A 
ATOM     25  C   UNL A   1      34.148  29.561  27.232  1.00  0.00     0.001 A 
ATOM     26  C   UNL A   1      32.855  30.073  27.283  1.00  0.00     0.001 A 
ENDBRANCH  14  17
ENDBRANCH   9  10
ENDBRANCH   7   9
ENDBRANCH   4   7
ENDBRANCH   2   3
ENDBRANCH   1   2
BRANCH   1  27
ATOM     27  C   UNL A   1      37.412  21.100  25.028  1.00  0.00     0.118 C 
BRANCH  27  28
ATOM     28  N   UNL A   1      38.432  20.184  25.533  1.00  0.00    -0.352 N 
ATOM     29  C   UNL A   1      39.630  20.407  26.173  1.00  0.00     0.251 C 
ATOM     30  H   UNL A   1      38.224  19.232  25.388  1.00  0.00     0.163 HD
ATOM     31  O   UNL A   1      40.400  19.464  26.333  1.00  0.00    -0.269 OA
BRANCH  29  32
ATOM     32  C   UNL A   1      40.011  21.764  26.623  1.00  0.00     0.039 A 
ATOM     33  C   UNL A   1      40.993  21.914  27.607  1.00  0.00     0.014 A 
ATOM     34  C   UNL A   1      39.403  22.893  26.082  1.00  0.00     0.014 A 
ATOM     35  C   UNL A   1      41.438  23.194  27.955  1.00  0.00     0.010 A 
ATOM     36  C   UNL A   1      39.937  24.150  26.325  1.00  0.00     0.010 A 
ATOM     37  C   UNL A   1      40.958  24.321  27.271  1.00  0.00    -0.014 A 
BRANCH  37  38
ATOM     38  C   UNL A   1      41.475  25.693  27.525  1.00  0.00     0.031 A 
ATOM     39  C   UNL A   1      42.865  26.061  27.072  1.00  0.00     0.074 A 
ATOM     40  C   UNL A   1      40.750  26.561  28.259  1.00  0.00     0.049 A 
ATOM     41  N   UNL A   1      43.580  27.119  27.355  1.00  0.00    -0.248 NA
ATOM     42  C   UNL A   1      43.564  25.074  26.233  1.00  0.00     0.031 C 
ATOM     43  C   UNL A   1      39.415  26.305  28.805  1.00  0.00     0.029 A 
ATOM     44  N   UNL A   1      41.041  27.832  28.688  1.00  0.00    -0.354 N 
ATOM     45  C   UNL A   1      44.823  26.904  26.766  1.00  0.00     0.074 A 
ATOM     46  C   UNL A   1      44.784  25.584  26.176  1.00  0.00     0.031 C 
ATOM     47  C   UNL A   1      38.993  27.393  29.468  1.00  0.00     0.029 A 
ATOM     48  C   UNL A   1      40.044  28.403  29.445  1.00  0.00     0.049 A 
ATOM     49  H   UNL A   1      41.886  28.292  28.475  1.00  0.00     0.167 HD
ATOM     50  C   UNL A   1      45.888  27.741  26.698  1.00  0.00     0.034 A 
ATOM     51  C   UNL A   1      39.989  29.600  30.062  1.00  0.00     0.034 A 
ATOM     52  C   UNL A   1      45.888  29.074  27.249  1.00  0.00     0.049 A 
ATOM     53  C   UNL A   1      41.174  30.526  29.954  1.00  0.00     0.074 A 
ATOM     54  C   UNL A   1      46.877  30.038  27.175  1.00  0.00     0.029 A 
ATOM     55  N   UNL A   1      44.841  29.633  27.971  1.00  0.00    -0.354 N 
ATOM     56  N   UNL A   1      42.327  30.324  29.358  1.00  0.00    -0.248 NA
ATOM     57  C   UNL A   1      41.045  31.842  30.592  1.00  0.00     0.031 C 
ATOM     58  C   UNL A   1      46.451  31.159  27.898  1.00  0.00     0.029 A 
ATOM     59  C   UNL A   1      45.169  30.921  28.366  1.00  0.00     0.049 A 
ATOM     60  H   UNL A   1      43.990  29.180  28.173  1.00  0.00     0.167 HD
ATOM     61  C   UNL A   1      43.050  31.503  29.526  1.00  0.00     0.074 A 
ATOM     62  C   UNL A   1      42.197  32.411  30.264  1.00  0.00     0.031 C 
ATOM     63  C   UNL A   1      44.304  31.808  29.108  1.00  0.00     0.034 A 
BRANCH  50  64
ATOM     64  C   UNL A   1      47.134  27.227  26.014  1.00  0.00     0.023 A 
ATOM     65  C   UNL A   1      48.079  26.441  26.696  1.00  0.00     0.031 A 
ATOM     66  C   UNL A   1      47.407  27.565  24.677  1.00  0.00     0.131 A 
ATOM     67  C   UNL A   1      49.290  26.102  26.075  1.00  0.00     0.055 A 
ATOM     68  C   UNL A   1      48.573  27.146  24.033  1.00  0.00     0.041 A 
ATOM     69  F   UNL A   1      46.553  28.330  23.977  1.00  0.00    -0.206 F 
ATOM     70  C   UNL A   1      49.533  26.426  24.739  1.00  0.00     0.022 A 
BRANCH  67  71
ATOM     71  S   UNL A   1      50.607  25.377  27.090  1.00  0.00     0.124 S 
ATOM     72  O   UNL A   1      51.011  26.522  27.905  1.00  0.00    -0.237 OA
ATOM     73  O   UNL A   1      49.911  24.307  27.794  1.00  0.00    -0.237 OA
ATOM     74  O   UNL A   1      51.596  24.940  26.108  1.00  0.00    -0.744 OA
ENDBRANCH  67  71
ENDBRANCH  50  64
BRANCH  51  75
ATOM     75  C   UNL A   1      38.780  29.998  30.837  1.00  0.00     0.023 A 
ATOM     76  C   UNL A   1      37.836  30.882  30.292  1.00  0.00     0.031 A 
ATOM     77  C   UNL A   1      38.567  29.532  32.147  1.00  0.00     0.131 A 
ATOM     78  C   UNL A   1      36.746  31.309  31.067  1.00  0.00     0.055 A 
ATOM     79  C   UNL A   1      37.455  29.921  32.896  1.00  0.00     0.041 A 
ATOM     80  F   UNL A   1      39.434  28.676  32.713  1.00  0.00    -0.206 F 
ATOM     81  C   UNL A   1      36.544  30.826  32.361  1.00  0.00     0.022 A 
BRANCH  78  82
ATOM     82  S   UNL A   1      35.639  32.573  30.383  1.00  0.00     0.124 S 
ATOM     83  O   UNL A   1      36.420  33.789  30.578  1.00  0.00    -0.237 OA
ATOM     84  O   UNL A   1      35.483  32.123  29.004  1.00  0.00    -0.237 OA
ATOM     85  O   UNL A   1      34.441  32.459  31.212  1.00  0.00    -0.744 OA
ENDBRANCH  78  82
ENDBRANCH  51  75
BRANCH  63  86
ATOM     86  C   UNL A   1      44.801  33.200  29.401  1.00  0.00     0.023 A 
ATOM     87  C   UNL A   1      44.569  34.268  28.518  1.00  0.00     0.031 A 
ATOM     88  C   UNL A   1      45.528  33.457  30.577  1.00  0.00     0.131 A 
ATOM     89  C   UNL A   1      45.105  35.534  28.798  1.00  0.00     0.055 A 
ATOM     90  C   UNL A   1      46.009  34.731  30.879  1.00  0.00     0.041 A 
ATOM     91  F   UNL A   1      45.779  32.472  31.454  1.00  0.00    -0.206 F 
ATOM     92  C   UNL A   1      45.809  35.775  29.981  1.00  0.00     0.022 A 
BRANCH  89  93
ATOM     93  S   UNL A   1      44.943  36.842  27.553  1.00  0.00     0.124 S 
ATOM     94  O   UNL A   1      46.248  36.803  26.900  1.00  0.00    -0.237 OA
ATOM     95  O   UNL A   1      43.816  36.373  26.752  1.00  0.00    -0.237 OA
ATOM     96  O   UNL A   1      44.682  38.041  28.347  1.00  0.00    -0.744 OA
ENDBRANCH  89  93
ENDBRANCH  63  86
ENDBRANCH  37  38
ENDBRANCH  29  32
ENDBRANCH  27  28
ENDBRANCH   1  27
TORSDOF 16
ENDMDL
MODEL 3
REMARK VINA RESULT:     -13.2      5.325      9.042
REMARK SMILES C[C@@H](S[C@H]1CC(=O)N(c2ccc3ccccc3c2)C1=O)C(=O)NCCCNC(=O)c1ccc(-c2c3nc(c(-c4cc(S(=O)(=O)[O-])ccc4F)c4ccc([nH]4)c(-c4cc(S(=O)(=O)[O-])ccc4F)c4nc(c(-c5cc(S(=O)(=O)[O-])ccc5F)c5ccc2[nH]5)C=C4)C=C3)cc1
REMARK SMILES IDX 25 1 24 2 23 3 21 4 22 5 2 7 1 8 3 9 4 10 5 11 19 12 6 13
REMARK SMILES IDX 8 14 20 15 7 16 9 17 10 18 18 19 11 20 17 21 12 22 16 23
REMARK SMILES IDX 13 24 15 25 14 26 26 27 27 28 28 29 29 31 30 32 31 33 92 34
REMARK SMILES IDX 32 35 91 36 33 37 34 38 35 39 85 40 36 41 90 42 84 43 86 44
REMARK SMILES IDX 37 45 89 46 83 47 82 48 38 50 70 51 50 52 69 53 51 54 54 55
REMARK SMILES IDX 68 56 87 57 52 58 53 59 67 61 88 62 55 63 39 64 40 65 48 66
REMARK SMILES IDX 41 67 47 68 49 69 46 70 42 71 43 72 44 73 45 74 71 75 72 76
REMARK SMILES IDX 80 77 73 78 79 79 81 80 78 81 74 82 75 83 76 84 77 85 56 86
REMARK SMILES IDX 57 87 65 88 58 89 64 90 66 91 63 92 59 93 60 94 61 95 62 96
REMARK H PARENT 23 6 27 30 86 49 54 60
REMARK Flexibility Score: inf
ROOT
ATOM      1  C   UNL A   1      31.309  31.832  26.447  1.00  0.00     0.042 C 
ENDROOT
BRANCH   1   2
ATOM      2  C   UNL A   1      31.426  30.505  25.726  1.00  0.00     0.117 C 
BRANCH   2   3
ATOM      3  N   UNL A   1      30.772  30.458  24.430  1.00  0.00    -0.355 N 
ATOM      4  C   UNL A   1      30.388  29.420  23.638  1.00  0.00     0.232 C 
ATOM      5  O   UNL A   1      29.592  29.704  22.733  1.00  0.00    -0.274 OA
ATOM      6  H   UNL A   1      30.568  31.345  24.052  1.00  0.00     0.163 HD
BRANCH   4   7
ATOM      7  C   UNL A   1      30.860  27.973  23.812  1.00  0.00     0.133 C 
ATOM      8  C   UNL A   1      29.803  26.881  23.790  1.00  0.00     0.030 C 
BRANCH   7   9
ATOM      9  S   UNL A   1      32.366  27.543  22.845  1.00  0.00    -0.135 SA
BRANCH   9  10
ATOM     10  C   UNL A   1      33.336  26.581  24.037  1.00  0.00     0.147 C 
ATOM     11  C   UNL A   1      32.604  26.393  25.349  1.00  0.00     0.125 C 
ATOM     12  C   UNL A   1      33.661  25.189  23.570  1.00  0.00     0.247 C 
ATOM     13  C   UNL A   1      32.760  24.932  25.656  1.00  0.00     0.235 C 
ATOM     14  N   UNL A   1      33.387  24.316  24.597  1.00  0.00    -0.250 N 
ATOM     15  O   UNL A   1      34.133  24.931  22.468  1.00  0.00    -0.273 OA
ATOM     16  O   UNL A   1      32.384  24.442  26.707  1.00  0.00    -0.274 OA
BRANCH  14  17
ATOM     17  C   UNL A   1      33.703  22.937  24.553  1.00  0.00     0.052 A 
ATOM     18  C   UNL A   1      34.910  22.463  25.074  1.00  0.00     0.027 A 
ATOM     19  C   UNL A   1      32.800  22.017  23.997  1.00  0.00     0.035 A 
ATOM     20  C   UNL A   1      35.174  21.091  25.114  1.00  0.00     0.011 A 
ATOM     21  C   UNL A   1      33.078  20.640  23.978  1.00  0.00    -0.016 A 
ATOM     22  C   UNL A   1      34.263  20.167  24.580  1.00  0.00    -0.018 A 
ATOM     23  C   UNL A   1      32.199  19.723  23.377  1.00  0.00     0.009 A 
ATOM     24  C   UNL A   1      34.508  18.786  24.625  1.00  0.00     0.009 A 
ATOM     25  C   UNL A   1      32.469  18.354  23.407  1.00  0.00     0.001 A 
ATOM     26  C   UNL A   1      33.612  17.885  24.047  1.00  0.00     0.001 A 
ENDBRANCH  14  17
ENDBRANCH   9  10
ENDBRANCH   7   9
ENDBRANCH   4   7
ENDBRANCH   2   3
ENDBRANCH   1   2
BRANCH   1  27
ATOM     27  C   UNL A   1      32.634  32.359  26.981  1.00  0.00     0.118 C 
BRANCH  27  28
ATOM     28  N   UNL A   1      32.533  33.674  27.609  1.00  0.00    -0.352 N 
ATOM     29  C   UNL A   1      33.262  34.269  28.613  1.00  0.00     0.251 C 
ATOM     30  H   UNL A   1      31.809  34.237  27.248  1.00  0.00     0.163 HD
ATOM     31  O   UNL A   1      32.857  35.325  29.092  1.00  0.00    -0.269 OA
BRANCH  29  32
ATOM     32  C   UNL A   1      34.488  33.634  29.142  1.00  0.00     0.039 A 
ATOM     33  C   UNL A   1      35.735  34.205  28.866  1.00  0.00     0.014 A 
ATOM     34  C   UNL A   1      34.419  32.474  29.909  1.00  0.00     0.014 A 
ATOM     35  C   UNL A   1      36.888  33.674  29.455  1.00  0.00     0.010 A 
ATOM     36  C   UNL A   1      35.538  32.033  30.601  1.00  0.00     0.010 A 
ATOM     37  C   UNL A   1      36.791  32.622  30.379  1.00  0.00    -0.014 A 
BRANCH  37  38
ATOM     38  C   UNL A   1      37.971  32.093  31.117  1.00  0.00     0.031 A 
ATOM     39  C   UNL A   1      38.806  31.001  30.500  1.00  0.00     0.074 A 
ATOM     40  C   UNL A   1      38.217  32.505  32.377  1.00  0.00     0.049 A 
ATOM     41  N   UNL A   1      39.747  30.268  31.038  1.00  0.00    -0.248 NA
ATOM     42  C   UNL A   1      38.500  30.650  29.104  1.00  0.00     0.031 C 
ATOM     43  C   UNL A   1      37.447  33.515  33.108  1.00  0.00     0.029 A 
ATOM     44  N   UNL A   1      39.178  32.113  33.275  1.00  0.00    -0.354 N 
ATOM     45  C   UNL A   1      40.110  29.345  30.062  1.00  0.00     0.074 A 
ATOM     46  C   UNL A   1      39.237  29.566  28.930  1.00  0.00     0.031 C 
ATOM     47  C   UNL A   1      37.984  33.682  34.327  1.00  0.00     0.029 A 
ATOM     48  C   UNL A   1      39.099  32.756  34.488  1.00  0.00     0.049 A 
ATOM     49  H   UNL A   1      39.861  31.433  33.070  1.00  0.00     0.167 HD
ATOM     50  C   UNL A   1      41.101  28.418  30.095  1.00  0.00     0.034 A 
ATOM     51  C   UNL A   1      39.833  32.607  35.610  1.00  0.00     0.034 A 
ATOM     52  C   UNL A   1      41.994  28.248  31.215  1.00  0.00     0.049 A 
ATOM     53  C   UNL A   1      40.944  31.589  35.617  1.00  0.00     0.074 A 
ATOM     54  C   UNL A   1      43.079  27.398  31.332  1.00  0.00     0.029 A 
ATOM     55  N   UNL A   1      41.908  28.951  32.411  1.00  0.00    -0.354 N 
ATOM     56  N   UNL A   1      41.302  30.751  34.671  1.00  0.00    -0.248 NA
ATOM     57  C   UNL A   1      41.754  31.504  36.839  1.00  0.00     0.031 C 
ATOM     58  C   UNL A   1      43.615  27.547  32.617  1.00  0.00     0.029 A 
ATOM     59  C   UNL A   1      42.908  28.539  33.277  1.00  0.00     0.049 A 
ATOM     60  H   UNL A   1      41.235  29.641  32.612  1.00  0.00     0.167 HD
ATOM     61  C   UNL A   1      42.401  30.059  35.176  1.00  0.00     0.074 A 
ATOM     62  C   UNL A   1      42.651  30.589  36.500  1.00  0.00     0.031 C 
ATOM     63  C   UNL A   1      43.136  29.077  34.598  1.00  0.00     0.034 A 
BRANCH  50  64
ATOM     64  C   UNL A   1      41.252  27.518  28.890  1.00  0.00     0.023 A 
ATOM     65  C   UNL A   1      42.276  27.715  27.946  1.00  0.00     0.031 A 
ATOM     66  C   UNL A   1      40.335  26.480  28.653  1.00  0.00     0.131 A 
ATOM     67  C   UNL A   1      42.302  26.954  26.769  1.00  0.00     0.055 A 
ATOM     68  C   UNL A   1      40.421  25.664  27.523  1.00  0.00     0.041 A 
ATOM     69  F   UNL A   1      39.323  26.254  29.506  1.00  0.00    -0.206 F 
ATOM     70  C   UNL A   1      41.397  25.911  26.562  1.00  0.00     0.022 A 
BRANCH  67  71
ATOM     71  S   UNL A   1      43.430  27.457  25.441  1.00  0.00     0.124 S 
ATOM     72  O   UNL A   1      44.129  28.582  26.061  1.00  0.00    -0.237 OA
ATOM     73  O   UNL A   1      44.224  26.253  25.227  1.00  0.00    -0.237 OA
ATOM     74  O   UNL A   1      42.533  27.818  24.346  1.00  0.00    -0.744 OA
ENDBRANCH  67  71
ENDBRANCH  50  64
BRANCH  51  75
ATOM     75  C   UNL A   1      39.548  33.434  36.817  1.00  0.00     0.023 A 
ATOM     76  C   UNL A   1      38.839  32.898  37.903  1.00  0.00     0.031 A 
ATOM     77  C   UNL A   1      39.946  34.781  36.890  1.00  0.00     0.131 A 
ATOM     78  C   UNL A   1      38.509  33.715  38.996  1.00  0.00     0.055 A 
ATOM     79  C   UNL A   1      39.659  35.575  38.001  1.00  0.00     0.041 A 
ATOM     80  F   UNL A   1      40.636  35.340  35.882  1.00  0.00    -0.206 F 
ATOM     81  C   UNL A   1      38.924  35.046  39.057  1.00  0.00     0.022 A 
BRANCH  78  82
ATOM     82  S   UNL A   1      37.456  33.028  40.305  1.00  0.00     0.124 S 
ATOM     83  O   UNL A   1      37.341  34.160  41.217  1.00  0.00    -0.237 OA
ATOM     84  O   UNL A   1      36.249  32.674  39.565  1.00  0.00    -0.237 OA
ATOM     85  O   UNL A   1      38.231  31.896  40.806  1.00  0.00    -0.744 OA
ENDBRANCH  78  82
ENDBRANCH  51  75
BRANCH  63  86
ATOM     86  C   UNL A   1      44.311  28.552  35.384  1.00  0.00     0.023 A 
ATOM     87  C   UNL A   1      44.161  27.540  36.347  1.00  0.00     0.031 A 
ATOM     88  C   UNL A   1      45.596  29.082  35.171  1.00  0.00     0.131 A 
ATOM     89  C   UNL A   1      45.268  27.126  37.102  1.00  0.00     0.055 A 
ATOM     90  C   UNL A   1      46.704  28.624  35.884  1.00  0.00     0.041 A 
ATOM     91  F   UNL A   1      45.794  30.050  34.263  1.00  0.00    -0.206 F 
ATOM     92  C   UNL A   1      46.542  27.651  36.864  1.00  0.00     0.022 A 
BRANCH  89  93
ATOM     93  S   UNL A   1      45.006  25.954  38.460  1.00  0.00     0.124 S 
ATOM     94  O   UNL A   1      44.266  24.883  37.800  1.00  0.00    -0.237 OA
ATOM     95  O   UNL A   1      46.371  25.631  38.862  1.00  0.00    -0.237 OA
ATOM     96  O   UNL A   1      44.240  26.727  39.436  1.00  0.00    -0.744 OA
ENDBRANCH  89  93
ENDBRANCH  63  86
ENDBRANCH  37  38
ENDBRANCH  29  32
ENDBRANCH  27  28
ENDBRANCH   1  27
TORSDOF 16
ENDMDL
