MODEL 1
REMARK VINA RESULT:     -11.4      0.000      0.000
REMARK SMILES O=C1NC[C@@H](CSc2ccnc(C(=O)NCCCNC(=O)c3ccc(-c4c5nc(c(-c6cc(S(=O)(=O)[O-])ccc6F)c6ccc([nH]6)c(-c6cc(S(=O)(=O)[O-])ccc6F)c6nc(c(-c7cc(S(=O)(=O)[O-])ccc7F)c7ccc4[nH]7)C=C6)C=C5)cc3)c2)O1
REMARK SMILES IDX 17 1 16 2 15 3 13 4 14 5 12 7 8 8 9 9 85 10 10 11 11 12 7 13
REMARK SMILES IDX 6 14 5 15 1 16 2 17 3 18 86 19 4 20 18 22 19 23 20 24 21 26
REMARK SMILES IDX 22 27 23 28 84 29 24 30 83 31 25 32 26 33 27 34 77 35 28 36
REMARK SMILES IDX 82 37 76 38 78 39 29 40 81 41 75 42 74 43 30 45 62 46 42 47
REMARK SMILES IDX 61 48 43 49 46 50 60 51 79 52 44 53 45 54 59 56 80 57 47 58
REMARK SMILES IDX 31 59 32 60 40 61 33 62 39 63 41 64 38 65 34 66 35 67 36 68
REMARK SMILES IDX 37 69 63 70 64 71 72 72 65 73 71 74 73 75 70 76 66 77 67 78
REMARK SMILES IDX 68 79 69 80 48 81 49 82 57 83 50 84 56 85 58 86 55 87 51 88
REMARK SMILES IDX 52 89 53 90 54 91
REMARK H PARENT 15 6 3 21 19 25 78 44 46 55
REMARK Flexibility Score: inf
ROOT
ATOM      1  C   UNL A   1      33.113  28.217  26.966  1.00  0.00     0.042 C 
ENDROOT
BRANCH   1   2
ATOM      2  C   UNL A   1      31.645  28.092  26.565  1.00  0.00     0.118 C 
BRANCH   2   3
ATOM      3  N   UNL A   1      31.157  26.762  26.886  1.00  0.00    -0.351 N 
ATOM      4  C   UNL A   1      31.344  25.537  26.285  1.00  0.00     0.269 C 
ATOM      5  O   UNL A   1      30.730  24.579  26.757  1.00  0.00    -0.268 OA
ATOM      6  H   UNL A   1      30.583  26.730  27.685  1.00  0.00     0.163 HD
BRANCH   4   7
ATOM      7  C   UNL A   1      32.323  25.329  25.167  1.00  0.00     0.129 A 
ATOM      8  C   UNL A   1      34.302  24.390  24.224  1.00  0.00     0.011 A 
ATOM      9  C   UNL A   1      33.734  24.552  22.964  1.00  0.00     0.035 A 
ATOM     10  C   UNL A   1      33.602  24.823  25.347  1.00  0.00     0.049 A 
ATOM     11  C   UNL A   1      32.525  25.206  22.866  1.00  0.00     0.113 A 
ATOM     12  N   UNL A   1      31.808  25.586  23.935  1.00  0.00    -0.251 NA
BRANCH   8  13
ATOM     13  S   UNL A   1      35.800  23.446  24.401  1.00  0.00    -0.122 SA
BRANCH  13  14
ATOM     14  C   UNL A   1      35.170  21.735  24.595  1.00  0.00     0.122 C 
BRANCH  14  15
ATOM     15  C   UNL A   1      33.760  21.569  25.181  1.00  0.00     0.208 C 
ATOM     16  O   UNL A   1      32.207  18.504  24.815  1.00  0.00    -0.225 OA
ATOM     17  C   UNL A   1      32.729  19.540  25.197  1.00  0.00     0.407 C 
ATOM     18  N   UNL A   1      33.149  19.770  26.471  1.00  0.00    -0.318 N 
ATOM     19  O   UNL A   1      32.974  20.631  24.420  1.00  0.00    -0.443 OA
ATOM     20  C   UNL A   1      33.697  21.073  26.611  1.00  0.00     0.165 C 
ATOM     21  H   UNL A   1      33.082  19.115  27.205  1.00  0.00     0.167 HD
ENDBRANCH  14  15
ENDBRANCH  13  14
ENDBRANCH   8  13
ENDBRANCH   4   7
ENDBRANCH   2   3
ENDBRANCH   1   2
BRANCH   1  22
ATOM     22  C   UNL A   1      33.870  29.217  26.096  1.00  0.00     0.118 C 
BRANCH  22  23
ATOM     23  N   UNL A   1      33.752  30.570  26.619  1.00  0.00    -0.352 N 
ATOM     24  C   UNL A   1      34.410  31.169  27.661  1.00  0.00     0.251 C 
ATOM     25  H   UNL A   1      33.099  31.142  26.154  1.00  0.00     0.163 HD
ATOM     26  O   UNL A   1      33.947  32.199  28.145  1.00  0.00    -0.269 OA
BRANCH  24  27
ATOM     27  C   UNL A   1      35.657  30.582  28.194  1.00  0.00     0.039 A 
ATOM     28  C   UNL A   1      36.863  30.859  27.546  1.00  0.00     0.014 A 
ATOM     29  C   UNL A   1      35.635  29.723  29.296  1.00  0.00     0.014 A 
ATOM     30  C   UNL A   1      38.048  30.306  28.030  1.00  0.00     0.010 A 
ATOM     31  C   UNL A   1      36.827  29.250  29.834  1.00  0.00     0.010 A 
ATOM     32  C   UNL A   1      38.044  29.521  29.196  1.00  0.00    -0.014 A 
BRANCH  32  33
ATOM     33  C   UNL A   1      39.308  28.971  29.746  1.00  0.00     0.031 A 
ATOM     34  C   UNL A   1      39.896  29.532  31.011  1.00  0.00     0.074 A 
ATOM     35  C   UNL A   1      39.938  27.983  29.082  1.00  0.00     0.049 A 
ATOM     36  N   UNL A   1      40.985  29.182  31.646  1.00  0.00    -0.248 NA
ATOM     37  C   UNL A   1      39.179  30.659  31.626  1.00  0.00     0.031 C 
ATOM     38  C   UNL A   1      39.483  27.390  27.822  1.00  0.00     0.029 A 
ATOM     39  N   UNL A   1      41.085  27.295  29.378  1.00  0.00    -0.354 N 
ATOM     40  C   UNL A   1      41.084  30.044  32.733  1.00  0.00     0.074 A 
ATOM     41  C   UNL A   1      39.995  30.990  32.613  1.00  0.00     0.031 C 
ATOM     42  C   UNL A   1      40.307  26.388  27.487  1.00  0.00     0.029 A 
ATOM     43  C   UNL A   1      41.376  26.299  28.475  1.00  0.00     0.049 A 
ATOM     44  H   UNL A   1      41.648  27.493  30.162  1.00  0.00     0.167 HD
ATOM     45  C   UNL A   1      41.978  30.028  33.754  1.00  0.00     0.034 A 
ATOM     46  C   UNL A   1      42.388  25.411  28.452  1.00  0.00     0.034 A 
ATOM     47  C   UNL A   1      43.066  29.082  33.843  1.00  0.00     0.049 A 
ATOM     48  C   UNL A   1      43.402  25.443  29.566  1.00  0.00     0.074 A 
ATOM     49  C   UNL A   1      44.017  28.949  34.839  1.00  0.00     0.029 A 
ATOM     50  N   UNL A   1      43.358  28.114  32.888  1.00  0.00    -0.354 N 
ATOM     51  N   UNL A   1      43.456  26.232  30.615  1.00  0.00    -0.248 NA
ATOM     52  C   UNL A   1      44.483  24.454  29.493  1.00  0.00     0.031 C 
ATOM     53  C   UNL A   1      44.928  27.959  34.448  1.00  0.00     0.029 A 
ATOM     54  C   UNL A   1      44.494  27.406  33.253  1.00  0.00     0.049 A 
ATOM     55  H   UNL A   1      42.833  27.953  32.071  1.00  0.00     0.167 HD
ATOM     56  C   UNL A   1      44.563  25.810  31.348  1.00  0.00     0.074 A 
ATOM     57  C   UNL A   1      45.126  24.685  30.627  1.00  0.00     0.031 C 
ATOM     58  C   UNL A   1      45.065  26.304  32.510  1.00  0.00     0.034 A 
BRANCH  45  59
ATOM     59  C   UNL A   1      41.820  31.088  34.824  1.00  0.00     0.023 A 
ATOM     60  C   UNL A   1      40.723  31.082  35.708  1.00  0.00     0.031 A 
ATOM     61  C   UNL A   1      42.727  32.157  34.919  1.00  0.00     0.131 A 
ATOM     62  C   UNL A   1      40.500  32.174  36.560  1.00  0.00     0.055 A 
ATOM     63  C   UNL A   1      42.556  33.190  35.846  1.00  0.00     0.041 A 
ATOM     64  F   UNL A   1      43.782  32.236  34.094  1.00  0.00    -0.206 F 
ATOM     65  C   UNL A   1      41.425  33.215  36.656  1.00  0.00     0.022 A 
BRANCH  62  66
ATOM     66  S   UNL A   1      38.886  32.312  37.377  1.00  0.00     0.124 S 
ATOM     67  O   UNL A   1      38.349  33.526  36.765  1.00  0.00    -0.237 OA
ATOM     68  O   UNL A   1      38.235  31.064  37.002  1.00  0.00    -0.237 OA
ATOM     69  O   UNL A   1      39.229  32.439  38.793  1.00  0.00    -0.744 OA
ENDBRANCH  62  66
ENDBRANCH  45  59
BRANCH  46  70
ATOM     70  C   UNL A   1      42.480  24.403  27.358  1.00  0.00     0.023 A 
ATOM     71  C   UNL A   1      41.690  23.243  27.384  1.00  0.00     0.031 A 
ATOM     72  C   UNL A   1      43.367  24.574  26.281  1.00  0.00     0.131 A 
ATOM     73  C   UNL A   1      41.832  22.278  26.375  1.00  0.00     0.055 A 
ATOM     74  C   UNL A   1      43.464  23.637  25.251  1.00  0.00     0.041 A 
ATOM     75  F   UNL A   1      44.140  25.670  26.204  1.00  0.00    -0.206 F 
ATOM     76  C   UNL A   1      42.701  22.475  25.300  1.00  0.00     0.022 A 
BRANCH  73  77
ATOM     77  S   UNL A   1      40.910  20.723  26.526  1.00  0.00     0.124 S 
ATOM     78  O   UNL A   1      39.623  21.085  25.944  1.00  0.00    -0.237 OA
ATOM     79  O   UNL A   1      41.735  19.806  25.746  1.00  0.00    -0.237 OA
ATOM     80  O   UNL A   1      40.899  20.476  27.966  1.00  0.00    -0.744 OA
ENDBRANCH  73  77
ENDBRANCH  46  70
BRANCH  58  81
ATOM     81  C   UNL A   1      46.271  25.595  33.082  1.00  0.00     0.023 A 
ATOM     82  C   UNL A   1      46.140  24.481  33.932  1.00  0.00     0.031 A 
ATOM     83  C   UNL A   1      47.568  26.070  32.818  1.00  0.00     0.131 A 
ATOM     84  C   UNL A   1      47.274  23.939  34.555  1.00  0.00     0.055 A 
ATOM     85  C   UNL A   1      48.700  25.472  33.374  1.00  0.00     0.041 A 
ATOM     86  F   UNL A   1      47.757  27.133  32.019  1.00  0.00    -0.206 F 
ATOM     87  C   UNL A   1      48.555  24.414  34.265  1.00  0.00     0.022 A 
BRANCH  84  88
ATOM     88  S   UNL A   1      47.036  22.704  35.862  1.00  0.00     0.124 S 
ATOM     89  O   UNL A   1      46.950  21.466  35.095  1.00  0.00    -0.237 OA
ATOM     90  O   UNL A   1      48.239  22.871  36.671  1.00  0.00    -0.237 OA
ATOM     91  O   UNL A   1      45.792  23.123  36.507  1.00  0.00    -0.744 OA
ENDBRANCH  84  88
ENDBRANCH  58  81
ENDBRANCH  32  33
ENDBRANCH  24  27
ENDBRANCH  22  23
ENDBRANCH   1  22
TORSDOF 16
ENDMDL
MODEL 2
REMARK VINA RESULT:     -11.3      4.863      9.932
REMARK SMILES O=C1NC[C@@H](CSc2ccnc(C(=O)NCCCNC(=O)c3ccc(-c4c5nc(c(-c6cc(S(=O)(=O)[O-])ccc6F)c6ccc([nH]6)c(-c6cc(S(=O)(=O)[O-])ccc6F)c6nc(c(-c7cc(S(=O)(=O)[O-])ccc7F)c7ccc4[nH]7)C=C6)C=C5)cc3)c2)O1
REMARK SMILES IDX 17 1 16 2 15 3 13 4 14 5 12 7 8 8 9 9 85 10 10 11 11 12 7 13
REMARK SMILES IDX 6 14 5 15 1 16 2 17 3 18 86 19 4 20 18 22 19 23 20 24 21 26
REMARK SMILES IDX 22 27 23 28 84 29 24 30 83 31 25 32 26 33 27 34 77 35 28 36
REMARK SMILES IDX 82 37 76 38 78 39 29 40 81 41 75 42 74 43 30 45 62 46 42 47
REMARK SMILES IDX 61 48 43 49 46 50 60 51 79 52 44 53 45 54 59 56 80 57 47 58
REMARK SMILES IDX 31 59 32 60 40 61 33 62 39 63 41 64 38 65 34 66 35 67 36 68
REMARK SMILES IDX 37 69 63 70 64 71 72 72 65 73 71 74 73 75 70 76 66 77 67 78
REMARK SMILES IDX 68 79 69 80 48 81 49 82 57 83 50 84 56 85 58 86 55 87 51 88
REMARK SMILES IDX 52 89 53 90 54 91
REMARK H PARENT 15 6 3 21 19 25 78 44 46 55
REMARK Flexibility Score: inf
ROOT
ATOM      1  C   UNL A   1      35.680  22.029  25.351  1.00  0.00     0.042 C 
ENDROOT
BRANCH   1   2
ATOM      2  C   UNL A   1      34.747  21.656  26.500  1.00  0.00     0.118 C 
BRANCH   2   3
ATOM      3  N   UNL A   1      33.883  20.560  26.099  1.00  0.00    -0.351 N 
ATOM      4  C   UNL A   1      32.736  20.516  25.339  1.00  0.00     0.269 C 
ATOM      5  O   UNL A   1      32.175  19.423  25.230  1.00  0.00    -0.268 OA
ATOM      6  H   UNL A   1      34.173  19.680  26.434  1.00  0.00     0.163 HD
BRANCH   4   7
ATOM      7  C   UNL A   1      32.222  21.706  24.585  1.00  0.00     0.129 A 
ATOM      8  C   UNL A   1      31.285  23.895  24.455  1.00  0.00     0.011 A 
ATOM      9  C   UNL A   1      31.834  24.015  23.183  1.00  0.00     0.035 A 
ATOM     10  C   UNL A   1      31.445  22.704  25.157  1.00  0.00     0.049 A 
ATOM     11  C   UNL A   1      32.459  22.918  22.629  1.00  0.00     0.113 A 
ATOM     12  N   UNL A   1      32.671  21.777  23.304  1.00  0.00    -0.251 NA
BRANCH   8  13
ATOM     13  S   UNL A   1      30.579  25.323  25.248  1.00  0.00    -0.122 SA
BRANCH  13  14
ATOM     14  C   UNL A   1      30.015  26.330  23.823  1.00  0.00     0.122 C 
BRANCH  14  15
ATOM     15  C   UNL A   1      30.940  27.463  23.355  1.00  0.00     0.208 C 
ATOM     16  O   UNL A   1      29.589  29.932  21.351  1.00  0.00    -0.225 OA
ATOM     17  C   UNL A   1      30.117  29.256  22.220  1.00  0.00     0.407 C 
ATOM     18  N   UNL A   1      30.362  29.682  23.490  1.00  0.00    -0.318 N 
ATOM     19  O   UNL A   1      30.548  27.973  22.065  1.00  0.00    -0.443 OA
ATOM     20  C   UNL A   1      31.003  28.676  24.261  1.00  0.00     0.165 C 
ATOM     21  H   UNL A   1      30.125  30.575  23.831  1.00  0.00     0.167 HD
ENDBRANCH  14  15
ENDBRANCH  13  14
ENDBRANCH   8  13
ENDBRANCH   4   7
ENDBRANCH   2   3
ENDBRANCH   1   2
BRANCH   1  22
ATOM     22  C   UNL A   1      36.928  22.766  25.831  1.00  0.00     0.118 C 
BRANCH  22  23
ATOM     23  N   UNL A   1      38.023  21.842  26.085  1.00  0.00    -0.352 N 
ATOM     24  C   UNL A   1      39.341  22.098  26.362  1.00  0.00     0.251 C 
ATOM     25  H   UNL A   1      37.781  20.888  26.052  1.00  0.00     0.163 HD
ATOM     26  O   UNL A   1      40.163  21.195  26.228  1.00  0.00    -0.269 OA
BRANCH  24  27
ATOM     27  C   UNL A   1      39.764  23.439  26.813  1.00  0.00     0.039 A 
ATOM     28  C   UNL A   1      40.344  23.575  28.076  1.00  0.00     0.014 A 
ATOM     29  C   UNL A   1      39.546  24.568  26.017  1.00  0.00     0.014 A 
ATOM     30  C   UNL A   1      40.740  24.836  28.521  1.00  0.00     0.010 A 
ATOM     31  C   UNL A   1      40.028  25.808  26.421  1.00  0.00     0.010 A 
ATOM     32  C   UNL A   1      40.613  25.959  27.685  1.00  0.00    -0.014 A 
BRANCH  32  33
ATOM     33  C   UNL A   1      41.079  27.295  28.131  1.00  0.00     0.031 A 
ATOM     34  C   UNL A   1      42.518  27.696  27.961  1.00  0.00     0.074 A 
ATOM     35  C   UNL A   1      40.204  28.133  28.719  1.00  0.00     0.049 A 
ATOM     36  N   UNL A   1      43.110  28.817  28.284  1.00  0.00    -0.248 NA
ATOM     37  C   UNL A   1      43.417  26.689  27.378  1.00  0.00     0.031 C 
ATOM     38  C   UNL A   1      38.793  27.834  28.977  1.00  0.00     0.029 A 
ATOM     39  N   UNL A   1      40.365  29.409  29.194  1.00  0.00    -0.354 N 
ATOM     40  C   UNL A   1      44.449  28.650  27.944  1.00  0.00     0.074 A 
ATOM     41  C   UNL A   1      44.592  27.287  27.480  1.00  0.00     0.031 C 
ATOM     42  C   UNL A   1      38.205  28.917  29.505  1.00  0.00     0.029 A 
ATOM     43  C   UNL A   1      39.203  29.967  29.673  1.00  0.00     0.049 A 
ATOM     44  H   UNL A   1      41.230  29.880  29.192  1.00  0.00     0.167 HD
ATOM     45  C   UNL A   1      45.458  29.557  27.984  1.00  0.00     0.034 A 
ATOM     46  C   UNL A   1      38.970  31.191  30.184  1.00  0.00     0.034 A 
ATOM     47  C   UNL A   1      45.292  30.908  28.467  1.00  0.00     0.049 A 
ATOM     48  C   UNL A   1      40.114  32.167  30.269  1.00  0.00     0.074 A 
ATOM     49  C   UNL A   1      46.228  31.926  28.529  1.00  0.00     0.029 A 
ATOM     50  N   UNL A   1      44.111  31.429  28.985  1.00  0.00    -0.354 N 
ATOM     51  N   UNL A   1      41.365  32.013  29.899  1.00  0.00    -0.248 NA
ATOM     52  C   UNL A   1      39.806  33.486  30.832  1.00  0.00     0.031 C 
ATOM     53  C   UNL A   1      45.638  33.029  29.159  1.00  0.00     0.029 A 
ATOM     54  C   UNL A   1      44.306  32.737  29.404  1.00  0.00     0.049 A 
ATOM     55  H   UNL A   1      43.259  30.939  29.045  1.00  0.00     0.167 HD
ATOM     56  C   UNL A   1      41.987  33.233  30.155  1.00  0.00     0.074 A 
ATOM     57  C   UNL A   1      40.964  34.110  30.688  1.00  0.00     0.031 C 
ATOM     58  C   UNL A   1      43.283  33.594  29.963  1.00  0.00     0.034 A 
BRANCH  45  59
ATOM     59  C   UNL A   1      46.821  29.091  27.520  1.00  0.00     0.023 A 
ATOM     60  C   UNL A   1      47.063  28.746  26.176  1.00  0.00     0.031 A 
ATOM     61  C   UNL A   1      47.873  28.916  28.436  1.00  0.00     0.131 A 
ATOM     62  C   UNL A   1      48.274  28.139  25.812  1.00  0.00     0.055 A 
ATOM     63  C   UNL A   1      49.116  28.410  28.045  1.00  0.00     0.041 A 
ATOM     64  F   UNL A   1      47.705  29.205  29.735  1.00  0.00    -0.206 F 
ATOM     65  C   UNL A   1      49.314  27.995  26.731  1.00  0.00     0.022 A 
BRANCH  62  66
ATOM     66  S   UNL A   1      48.387  27.354  24.180  1.00  0.00     0.124 S 
ATOM     67  O   UNL A   1      47.059  27.623  23.632  1.00  0.00    -0.237 OA
ATOM     68  O   UNL A   1      49.493  28.072  23.560  1.00  0.00    -0.237 OA
ATOM     69  O   UNL A   1      48.649  25.950  24.492  1.00  0.00    -0.744 OA
ENDBRANCH  62  66
ENDBRANCH  45  59
BRANCH  46  70
ATOM     70  C   UNL A   1      37.599  31.572  30.627  1.00  0.00     0.023 A 
ATOM     71  C   UNL A   1      36.723  32.239  29.757  1.00  0.00     0.031 A 
ATOM     72  C   UNL A   1      37.149  31.291  31.929  1.00  0.00     0.131 A 
ATOM     73  C   UNL A   1      35.458  32.641  30.210  1.00  0.00     0.055 A 
ATOM     74  C   UNL A   1      35.869  31.644  32.358  1.00  0.00     0.041 A 
ATOM     75  F   UNL A   1      37.945  30.649  32.800  1.00  0.00    -0.206 F 
ATOM     76  C   UNL A   1      35.018  32.333  31.499  1.00  0.00     0.022 A 
BRANCH  73  77
ATOM     77  S   UNL A   1      34.417  33.637  29.108  1.00  0.00     0.124 S 
ATOM     78  O   UNL A   1      35.389  34.566  28.544  1.00  0.00    -0.237 OA
ATOM     79  O   UNL A   1      33.887  32.627  28.197  1.00  0.00    -0.237 OA
ATOM     80  O   UNL A   1      33.436  34.230  30.014  1.00  0.00    -0.744 OA
ENDBRANCH  73  77
ENDBRANCH  46  70
BRANCH  58  81
ATOM     81  C   UNL A   1      43.646  35.021  30.309  1.00  0.00     0.023 A 
ATOM     82  C   UNL A   1      43.841  35.433  31.640  1.00  0.00     0.031 A 
ATOM     83  C   UNL A   1      43.749  35.994  29.299  1.00  0.00     0.131 A 
ATOM     84  C   UNL A   1      44.037  36.791  31.931  1.00  0.00     0.055 A 
ATOM     85  C   UNL A   1      44.028  37.330  29.588  1.00  0.00     0.041 A 
ATOM     86  F   UNL A   1      43.568  35.663  28.009  1.00  0.00    -0.206 F 
ATOM     87  C   UNL A   1      44.154  37.739  30.912  1.00  0.00     0.022 A 
BRANCH  84  88
ATOM     88  S   UNL A   1      43.988  37.321  33.665  1.00  0.00     0.124 S 
ATOM     89  O   UNL A   1      42.977  38.373  33.630  1.00  0.00    -0.237 OA
ATOM     90  O   UNL A   1      43.607  36.093  34.355  1.00  0.00    -0.237 OA
ATOM     91  O   UNL A   1      45.353  37.779  33.922  1.00  0.00    -0.744 OA
ENDBRANCH  84  88
ENDBRANCH  58  81
ENDBRANCH  32  33
ENDBRANCH  24  27
ENDBRANCH  22  23
ENDBRANCH   1  22
TORSDOF 16
ENDMDL
MODEL 3
REMARK VINA RESULT:     -11.2      4.911      9.994
REMARK SMILES O=C1NC[C@@H](CSc2ccnc(C(=O)NCCCNC(=O)c3ccc(-c4c5nc(c(-c6cc(S(=O)(=O)[O-])ccc6F)c6ccc([nH]6)c(-c6cc(S(=O)(=O)[O-])ccc6F)c6nc(c(-c7cc(S(=O)(=O)[O-])ccc7F)c7ccc4[nH]7)C=C6)C=C5)cc3)c2)O1
REMARK SMILES IDX 17 1 16 2 15 3 13 4 14 5 12 7 8 8 9 9 85 10 10 11 11 12 7 13
REMARK SMILES IDX 6 14 5 15 1 16 2 17 3 18 86 19 4 20 18 22 19 23 20 24 21 26
REMARK SMILES IDX 22 27 23 28 84 29 24 30 83 31 25 32 26 33 27 34 77 35 28 36
REMARK SMILES IDX 82 37 76 38 78 39 29 40 81 41 75 42 74 43 30 45 62 46 42 47
REMARK SMILES IDX 61 48 43 49 46 50 60 51 79 52 44 53 45 54 59 56 80 57 47 58
REMARK SMILES IDX 31 59 32 60 40 61 33 62 39 63 41 64 38 65 34 66 35 67 36 68
REMARK SMILES IDX 37 69 63 70 64 71 72 72 65 73 71 74 73 75 70 76 66 77 67 78
REMARK SMILES IDX 68 79 69 80 48 81 49 82 57 83 50 84 56 85 58 86 55 87 51 88
REMARK SMILES IDX 52 89 53 90 54 91
REMARK H PARENT 15 6 3 21 19 25 78 44 46 55
REMARK Flexibility Score: inf
ROOT
ATOM      1  C   UNL A   1      36.207  22.335  24.458  1.00  0.00     0.042 C 
ENDROOT
BRANCH   1   2
ATOM      2  C   UNL A   1      34.788  21.801  24.633  1.00  0.00     0.118 C 
BRANCH   2   3
ATOM      3  N   UNL A   1      34.428  21.806  26.040  1.00  0.00    -0.351 N 
ATOM      4  C   UNL A   1      33.745  22.714  26.818  1.00  0.00     0.269 C 
ATOM      5  O   UNL A   1      33.657  22.468  28.022  1.00  0.00    -0.268 OA
ATOM      6  H   UNL A   1      34.729  21.008  26.531  1.00  0.00     0.163 HD
BRANCH   4   7
ATOM      7  C   UNL A   1      33.045  23.907  26.238  1.00  0.00     0.129 A 
ATOM      8  C   UNL A   1      32.988  25.929  24.975  1.00  0.00     0.011 A 
ATOM      9  C   UNL A   1      31.628  25.719  24.769  1.00  0.00     0.035 A 
ATOM     10  C   UNL A   1      33.705  25.029  25.758  1.00  0.00     0.049 A 
ATOM     11  C   UNL A   1      31.021  24.661  25.411  1.00  0.00     0.113 A 
ATOM     12  N   UNL A   1      31.699  23.751  26.128  1.00  0.00    -0.251 NA
BRANCH   8  13
ATOM     13  S   UNL A   1      33.829  27.210  24.070  1.00  0.00    -0.122 SA
BRANCH  13  14
ATOM     14  C   UNL A   1      32.633  28.598  24.144  1.00  0.00     0.122 C 
BRANCH  14  15
ATOM     15  C   UNL A   1      32.586  29.415  25.444  1.00  0.00     0.208 C 
ATOM     16  O   UNL A   1      31.283  27.898  28.262  1.00  0.00    -0.225 OA
ATOM     17  C   UNL A   1      31.958  28.455  27.410  1.00  0.00     0.407 C 
ATOM     18  N   UNL A   1      33.311  28.591  27.462  1.00  0.00    -0.318 N 
ATOM     19  O   UNL A   1      31.473  29.031  26.275  1.00  0.00    -0.443 OA
ATOM     20  C   UNL A   1      33.806  29.302  26.335  1.00  0.00     0.165 C 
ATOM     21  H   UNL A   1      33.877  28.242  28.189  1.00  0.00     0.167 HD
ENDBRANCH  14  15
ENDBRANCH  13  14
ENDBRANCH   8  13
ENDBRANCH   4   7
ENDBRANCH   2   3
ENDBRANCH   1   2
BRANCH   1  22
ATOM     22  C   UNL A   1      36.905  22.582  25.792  1.00  0.00     0.118 C 
BRANCH  22  23
ATOM     23  N   UNL A   1      37.958  21.604  26.027  1.00  0.00    -0.352 N 
ATOM     24  C   UNL A   1      39.290  21.794  26.290  1.00  0.00     0.251 C 
ATOM     25  H   UNL A   1      37.670  20.664  25.991  1.00  0.00     0.163 HD
ATOM     26  O   UNL A   1      40.066  20.854  26.141  1.00  0.00    -0.269 OA
BRANCH  24  27
ATOM     27  C   UNL A   1      39.781  23.111  26.745  1.00  0.00     0.039 A 
ATOM     28  C   UNL A   1      40.595  23.174  27.878  1.00  0.00     0.014 A 
ATOM     29  C   UNL A   1      39.404  24.287  26.088  1.00  0.00     0.014 A 
ATOM     30  C   UNL A   1      41.060  24.409  28.326  1.00  0.00     0.010 A 
ATOM     31  C   UNL A   1      39.945  25.506  26.478  1.00  0.00     0.010 A 
ATOM     32  C   UNL A   1      40.764  25.583  27.612  1.00  0.00    -0.014 A 
BRANCH  32  33
ATOM     33  C   UNL A   1      41.298  26.896  28.053  1.00  0.00     0.031 A 
ATOM     34  C   UNL A   1      42.733  27.261  27.792  1.00  0.00     0.074 A 
ATOM     35  C   UNL A   1      40.489  27.744  28.718  1.00  0.00     0.049 A 
ATOM     36  N   UNL A   1      43.378  28.358  28.098  1.00  0.00    -0.248 NA
ATOM     37  C   UNL A   1      43.560  26.244  27.128  1.00  0.00     0.031 C 
ATOM     38  C   UNL A   1      39.091  27.477  29.065  1.00  0.00     0.029 A 
ATOM     39  N   UNL A   1      40.719  29.003  29.207  1.00  0.00    -0.354 N 
ATOM     40  C   UNL A   1      44.685  28.163  27.663  1.00  0.00     0.074 A 
ATOM     41  C   UNL A   1      44.756  26.807  27.161  1.00  0.00     0.031 C 
ATOM     42  C   UNL A   1      38.572  28.564  29.655  1.00  0.00     0.029 A 
ATOM     43  C   UNL A   1      39.609  29.582  29.776  1.00  0.00     0.049 A 
ATOM     44  H   UNL A   1      41.595  29.451  29.156  1.00  0.00     0.167 HD
ATOM     45  C   UNL A   1      45.719  29.041  27.652  1.00  0.00     0.034 A 
ATOM     46  C   UNL A   1      39.446  30.799  30.328  1.00  0.00     0.034 A 
ATOM     47  C   UNL A   1      45.626  30.385  28.173  1.00  0.00     0.049 A 
ATOM     48  C   UNL A   1      40.621  31.742  30.355  1.00  0.00     0.074 A 
ATOM     49  C   UNL A   1      46.593  31.375  28.192  1.00  0.00     0.029 A 
ATOM     50  N   UNL A   1      44.498  30.925  28.783  1.00  0.00    -0.354 N 
ATOM     51  N   UNL A   1      41.839  31.563  29.895  1.00  0.00    -0.248 NA
ATOM     52  C   UNL A   1      40.390  33.056  30.965  1.00  0.00     0.031 C 
ATOM     53  C   UNL A   1      46.079  32.479  28.884  1.00  0.00     0.029 A 
ATOM     54  C   UNL A   1      44.758  32.218  29.215  1.00  0.00     0.049 A 
ATOM     55  H   UNL A   1      43.639  30.458  28.891  1.00  0.00     0.167 HD
ATOM     56  C   UNL A   1      42.512  32.759  30.133  1.00  0.00     0.074 A 
ATOM     57  C   UNL A   1      41.553  33.651  30.755  1.00  0.00     0.031 C 
ATOM     58  C   UNL A   1      43.801  33.089  29.861  1.00  0.00     0.034 A 
BRANCH  45  59
ATOM     59  C   UNL A   1      47.034  28.549  27.086  1.00  0.00     0.023 A 
ATOM     60  C   UNL A   1      47.217  28.369  25.700  1.00  0.00     0.031 A 
ATOM     61  C   UNL A   1      48.093  28.183  27.935  1.00  0.00     0.131 A 
ATOM     62  C   UNL A   1      48.373  27.734  25.220  1.00  0.00     0.055 A 
ATOM     63  C   UNL A   1      49.286  27.650  27.439  1.00  0.00     0.041 A 
ATOM     64  F   UNL A   1      47.978  28.308  29.266  1.00  0.00    -0.206 F 
ATOM     65  C   UNL A   1      49.422  27.400  26.077  1.00  0.00     0.022 A 
BRANCH  62  66
ATOM     66  S   UNL A   1      48.389  27.167  23.496  1.00  0.00     0.124 S 
ATOM     67  O   UNL A   1      47.966  25.775  23.642  1.00  0.00    -0.237 OA
ATOM     68  O   UNL A   1      47.432  28.063  22.860  1.00  0.00    -0.237 OA
ATOM     69  O   UNL A   1      49.781  27.346  23.090  1.00  0.00    -0.744 OA
ENDBRANCH  62  66
ENDBRANCH  45  59
BRANCH  46  70
ATOM     70  C   UNL A   1      38.120  31.207  30.873  1.00  0.00     0.023 A 
ATOM     71  C   UNL A   1      37.163  31.817  30.047  1.00  0.00     0.031 A 
ATOM     72  C   UNL A   1      37.796  31.010  32.226  1.00  0.00     0.131 A 
ATOM     73  C   UNL A   1      35.943  32.246  30.591  1.00  0.00     0.055 A 
ATOM     74  C   UNL A   1      36.559  31.389  32.749  1.00  0.00     0.041 A 
ATOM     75  F   UNL A   1      38.673  30.425  33.057  1.00  0.00    -0.206 F 
ATOM     76  C   UNL A   1      35.627  32.021  31.932  1.00  0.00     0.022 A 
BRANCH  73  77
ATOM     77  S   UNL A   1      34.797  33.170  29.530  1.00  0.00     0.124 S 
ATOM     78  O   UNL A   1      33.901  33.766  30.512  1.00  0.00    -0.237 OA
ATOM     79  O   UNL A   1      35.697  34.087  28.838  1.00  0.00    -0.237 OA
ATOM     80  O   UNL A   1      34.203  32.132  28.689  1.00  0.00    -0.744 OA
ENDBRANCH  73  77
ENDBRANCH  46  70
BRANCH  58  81
ATOM     81  C   UNL A   1      44.228  34.497  30.210  1.00  0.00     0.023 A 
ATOM     82  C   UNL A   1      44.074  35.563  29.304  1.00  0.00     0.031 A 
ATOM     83  C   UNL A   1      44.845  34.769  31.444  1.00  0.00     0.131 A 
ATOM     84  C   UNL A   1      44.609  36.823  29.608  1.00  0.00     0.055 A 
ATOM     85  C   UNL A   1      45.300  36.046  31.775  1.00  0.00     0.041 A 
ATOM     86  F   UNL A   1      45.025  33.792  32.348  1.00  0.00    -0.206 F 
ATOM     87  C   UNL A   1      45.202  37.077  30.846  1.00  0.00     0.022 A 
BRANCH  84  88
ATOM     88  S   UNL A   1      44.652  38.083  28.304  1.00  0.00     0.124 S 
ATOM     89  O   UNL A   1      44.536  39.318  29.074  1.00  0.00    -0.237 OA
ATOM     90  O   UNL A   1      45.949  37.841  27.680  1.00  0.00    -0.237 OA
ATOM     91  O   UNL A   1      43.493  37.757  27.474  1.00  0.00    -0.744 OA
ENDBRANCH  84  88
ENDBRANCH  58  81
ENDBRANCH  32  33
ENDBRANCH  24  27
ENDBRANCH  22  23
ENDBRANCH   1  22
TORSDOF 16
ENDMDL
