MODEL 1
REMARK VINA RESULT:     -11.7      0.000      0.000
REMARK SMILES COc1ccccc1[C@H](C)NC(=O)[C@@H]1CC=CC[C@@H]1C(=O)NCCCNC(=O)c1ccc(-c2c3nc(c(-c4cc(S(=O)(=O)[O-])ccc4F)c4ccc([nH]4)c(-c4cc(S(=O)(=O)[O-])ccc4F)c4nc(c(-c5cc(S(=O)(=O)[O-])ccc5F)c5ccc2[nH]5)C=C4)C=C3)cc1
REMARK SMILES IDX 23 1 22 2 20 3 21 4 19 6 14 7 15 8 16 9 18 10 17 11 12 12
REMARK SMILES IDX 11 13 13 15 9 16 10 17 8 18 3 19 4 20 5 21 7 22 6 23 2 24
REMARK SMILES IDX 1 25 24 26 25 27 26 28 27 29 28 31 29 32 30 33 91 34 31 35
REMARK SMILES IDX 90 36 32 37 33 38 34 39 84 40 35 41 89 42 83 43 85 44 36 45
REMARK SMILES IDX 88 46 82 47 81 48 37 50 69 51 49 52 68 53 50 54 53 55 67 56
REMARK SMILES IDX 86 57 51 58 52 59 66 61 87 62 54 63 38 64 39 65 47 66 40 67
REMARK SMILES IDX 46 68 48 69 45 70 41 71 42 72 43 73 44 74 70 75 71 76 79 77
REMARK SMILES IDX 72 78 78 79 80 80 77 81 73 82 74 83 75 84 76 85 55 86 56 87
REMARK SMILES IDX 64 88 57 89 63 90 65 91 62 92 58 93 59 94 60 95 61 96
REMARK H PARENT 22 5 11 14 26 30 85 49 53 60
REMARK Flexibility Score: inf
ROOT
ATOM      1  C   UNL A   1      32.028  29.783  26.098  1.00  0.00     0.117 C 
ENDROOT
BRANCH   1   2
ATOM      2  N   UNL A   1      32.827  29.679  24.891  1.00  0.00    -0.356 N 
ATOM      3  C   UNL A   1      32.791  28.758  23.885  1.00  0.00     0.224 C 
ATOM      4  O   UNL A   1      33.516  28.967  22.913  1.00  0.00    -0.275 OA
ATOM      5  H   UNL A   1      33.502  30.386  24.780  1.00  0.00     0.163 HD
BRANCH   3   6
ATOM      6  C   UNL A   1      31.822  27.578  23.990  1.00  0.00     0.095 C 
ATOM      7  C   UNL A   1      32.481  26.224  24.324  1.00  0.00     0.095 C 
ATOM      8  C   UNL A   1      33.457  25.751  23.238  1.00  0.00     0.041 C 
ATOM      9  C   UNL A   1      32.900  25.946  21.855  1.00  0.00    -0.030 C 
ATOM     10  C   UNL A   1      31.056  27.443  22.657  1.00  0.00     0.041 C 
ATOM     11  C   UNL A   1      31.809  26.683  21.599  1.00  0.00    -0.030 C 
BRANCH   7  12
ATOM     12  C   UNL A   1      33.144  26.230  25.688  1.00  0.00     0.224 C 
ATOM     13  N   UNL A   1      32.798  25.322  26.632  1.00  0.00    -0.349 N 
ATOM     14  H   UNL A   1      33.192  25.502  27.516  1.00  0.00     0.164 HD
ATOM     15  O   UNL A   1      34.012  27.043  26.009  1.00  0.00    -0.275 OA
BRANCH  13  16
ATOM     16  C   UNL A   1      31.953  24.127  26.602  1.00  0.00     0.113 C 
ATOM     17  C   UNL A   1      30.552  24.585  26.178  1.00  0.00     0.036 C 
BRANCH  16  18
ATOM     18  C   UNL A   1      32.498  23.056  25.669  1.00  0.00     0.016 A 
ATOM     19  C   UNL A   1      33.788  22.516  25.834  1.00  0.00     0.124 A 
ATOM     20  C   UNL A   1      34.268  21.519  24.974  1.00  0.00     0.047 A 
ATOM     21  C   UNL A   1      33.477  21.055  23.924  1.00  0.00     0.004 A 
ATOM     22  C   UNL A   1      31.723  22.570  24.595  1.00  0.00     0.010 A 
ATOM     23  C   UNL A   1      32.213  21.593  23.725  1.00  0.00     0.001 A 
BRANCH  19  24
ATOM     24  O   UNL A   1      34.705  23.063  26.695  1.00  0.00    -0.496 OA
ATOM     25  C   UNL A   1      35.952  23.375  26.085  1.00  0.00     0.278 C 
ENDBRANCH  19  24
ENDBRANCH  16  18
ENDBRANCH  13  16
ENDBRANCH   7  12
ENDBRANCH   3   6
ENDBRANCH   1   2
BRANCH   1  26
ATOM     26  C   UNL A   1      31.751  31.224  26.492  1.00  0.00     0.042 C 
BRANCH  26  27
ATOM     27  C   UNL A   1      32.895  31.909  27.231  1.00  0.00     0.118 C 
BRANCH  27  28
ATOM     28  N   UNL A   1      32.663  33.330  27.453  1.00  0.00    -0.352 N 
ATOM     29  C   UNL A   1      33.248  34.195  28.349  1.00  0.00     0.251 C 
ATOM     30  H   UNL A   1      31.982  33.736  26.869  1.00  0.00     0.163 HD
ATOM     31  O   UNL A   1      32.786  35.321  28.486  1.00  0.00    -0.269 OA
BRANCH  29  32
ATOM     32  C   UNL A   1      34.402  33.756  29.166  1.00  0.00     0.039 A 
ATOM     33  C   UNL A   1      34.186  32.842  30.201  1.00  0.00     0.014 A 
ATOM     34  C   UNL A   1      35.690  34.237  28.920  1.00  0.00     0.014 A 
ATOM     35  C   UNL A   1      35.272  32.352  30.932  1.00  0.00     0.010 A 
ATOM     36  C   UNL A   1      36.778  33.681  29.587  1.00  0.00     0.010 A 
ATOM     37  C   UNL A   1      36.583  32.732  30.600  1.00  0.00    -0.014 A 
BRANCH  37  38
ATOM     38  C   UNL A   1      37.757  32.144  31.300  1.00  0.00     0.031 A 
ATOM     39  C   UNL A   1      38.554  31.046  30.649  1.00  0.00     0.074 A 
ATOM     40  C   UNL A   1      38.066  32.556  32.548  1.00  0.00     0.049 A 
ATOM     41  N   UNL A   1      39.559  30.358  31.127  1.00  0.00    -0.248 NA
ATOM     42  C   UNL A   1      38.147  30.647  29.293  1.00  0.00     0.031 C 
ATOM     43  C   UNL A   1      37.345  33.587  33.300  1.00  0.00     0.029 A 
ATOM     44  N   UNL A   1      39.058  32.157  33.409  1.00  0.00    -0.354 N 
ATOM     45  C   UNL A   1      39.894  29.436  30.140  1.00  0.00     0.074 A 
ATOM     46  C   UNL A   1      38.945  29.616  29.062  1.00  0.00     0.031 C 
ATOM     47  C   UNL A   1      37.936  33.756  34.493  1.00  0.00     0.029 A 
ATOM     48  C   UNL A   1      39.041  32.812  34.619  1.00  0.00     0.049 A 
ATOM     49  H   UNL A   1      39.722  31.466  33.181  1.00  0.00     0.167 HD
ATOM     50  C   UNL A   1      40.911  28.539  30.126  1.00  0.00     0.034 A 
ATOM     51  C   UNL A   1      39.813  32.657  35.714  1.00  0.00     0.034 A 
ATOM     52  C   UNL A   1      41.856  28.383  31.205  1.00  0.00     0.049 A 
ATOM     53  C   UNL A   1      40.918  31.629  35.685  1.00  0.00     0.074 A 
ATOM     54  C   UNL A   1      42.962  27.553  31.266  1.00  0.00     0.029 A 
ATOM     55  N   UNL A   1      41.803  29.060  32.417  1.00  0.00    -0.354 N 
ATOM     56  N   UNL A   1      41.259  30.810  34.716  1.00  0.00    -0.248 NA
ATOM     57  C   UNL A   1      41.747  31.512  36.891  1.00  0.00     0.031 C 
ATOM     58  C   UNL A   1      43.525  27.664  32.541  1.00  0.00     0.029 A 
ATOM     59  C   UNL A   1      42.830  28.633  33.246  1.00  0.00     0.049 A 
ATOM     60  H   UNL A   1      41.133  29.741  32.653  1.00  0.00     0.167 HD
ATOM     61  C   UNL A   1      42.366  30.108  35.187  1.00  0.00     0.074 A 
ATOM     62  C   UNL A   1      42.642  30.612  36.516  1.00  0.00     0.031 C 
ATOM     63  C   UNL A   1      43.092  29.137  34.575  1.00  0.00     0.034 A 
BRANCH  50  64
ATOM     64  C   UNL A   1      41.032  27.635  28.922  1.00  0.00     0.023 A 
ATOM     65  C   UNL A   1      42.023  27.828  27.943  1.00  0.00     0.031 A 
ATOM     66  C   UNL A   1      40.135  26.566  28.744  1.00  0.00     0.131 A 
ATOM     67  C   UNL A   1      42.051  27.012  26.802  1.00  0.00     0.055 A 
ATOM     68  C   UNL A   1      40.220  25.705  27.648  1.00  0.00     0.041 A 
ATOM     69  F   UNL A   1      39.152  26.343  29.632  1.00  0.00    -0.206 F 
ATOM     70  C   UNL A   1      41.173  25.935  26.660  1.00  0.00     0.022 A 
BRANCH  67  71
ATOM     71  S   UNL A   1      43.155  27.468  25.437  1.00  0.00     0.124 S 
ATOM     72  O   UNL A   1      43.601  26.158  24.967  1.00  0.00    -0.237 OA
ATOM     73  O   UNL A   1      42.265  28.200  24.543  1.00  0.00    -0.237 OA
ATOM     74  O   UNL A   1      44.188  28.274  26.087  1.00  0.00    -0.744 OA
ENDBRANCH  67  71
ENDBRANCH  50  64
BRANCH  51  75
ATOM     75  C   UNL A   1      39.569  33.475  36.940  1.00  0.00     0.023 A 
ATOM     76  C   UNL A   1      38.993  32.907  38.087  1.00  0.00     0.031 A 
ATOM     77  C   UNL A   1      39.852  34.853  36.960  1.00  0.00     0.131 A 
ATOM     78  C   UNL A   1      38.664  33.721  39.182  1.00  0.00     0.055 A 
ATOM     79  C   UNL A   1      39.582  35.647  38.077  1.00  0.00     0.041 A 
ATOM     80  F   UNL A   1      40.402  35.451  35.891  1.00  0.00    -0.206 F 
ATOM     81  C   UNL A   1      38.969  35.084  39.191  1.00  0.00     0.022 A 
BRANCH  78  82
ATOM     82  S   UNL A   1      37.727  32.993  40.555  1.00  0.00     0.124 S 
ATOM     83  O   UNL A   1      36.361  33.054  40.045  1.00  0.00    -0.237 OA
ATOM     84  O   UNL A   1      38.317  31.662  40.652  1.00  0.00    -0.237 OA
ATOM     85  O   UNL A   1      38.018  33.885  41.675  1.00  0.00    -0.744 OA
ENDBRANCH  78  82
ENDBRANCH  51  75
BRANCH  63  86
ATOM     86  C   UNL A   1      44.289  28.598  35.320  1.00  0.00     0.023 A 
ATOM     87  C   UNL A   1      44.182  27.530  36.229  1.00  0.00     0.031 A 
ATOM     88  C   UNL A   1      45.560  29.168  35.121  1.00  0.00     0.131 A 
ATOM     89  C   UNL A   1      45.311  27.109  36.949  1.00  0.00     0.055 A 
ATOM     90  C   UNL A   1      46.692  28.699  35.787  1.00  0.00     0.041 A 
ATOM     91  F   UNL A   1      45.723  30.194  34.269  1.00  0.00    -0.206 F 
ATOM     92  C   UNL A   1      46.569  27.671  36.718  1.00  0.00     0.022 A 
BRANCH  89  93
ATOM     93  S   UNL A   1      45.094  25.882  38.267  1.00  0.00     0.124 S 
ATOM     94  O   UNL A   1      44.255  26.604  39.218  1.00  0.00    -0.237 OA
ATOM     95  O   UNL A   1      44.454  24.776  37.563  1.00  0.00    -0.237 OA
ATOM     96  O   UNL A   1      46.460  25.620  38.719  1.00  0.00    -0.744 OA
ENDBRANCH  89  93
ENDBRANCH  63  86
ENDBRANCH  37  38
ENDBRANCH  29  32
ENDBRANCH  27  28
ENDBRANCH  26  27
ENDBRANCH   1  26
TORSDOF 17
ENDMDL
MODEL 2
REMARK VINA RESULT:     -11.6      1.857      2.234
REMARK SMILES COc1ccccc1[C@H](C)NC(=O)[C@@H]1CC=CC[C@@H]1C(=O)NCCCNC(=O)c1ccc(-c2c3nc(c(-c4cc(S(=O)(=O)[O-])ccc4F)c4ccc([nH]4)c(-c4cc(S(=O)(=O)[O-])ccc4F)c4nc(c(-c5cc(S(=O)(=O)[O-])ccc5F)c5ccc2[nH]5)C=C4)C=C3)cc1
REMARK SMILES IDX 23 1 22 2 20 3 21 4 19 6 14 7 15 8 16 9 18 10 17 11 12 12
REMARK SMILES IDX 11 13 13 15 9 16 10 17 8 18 3 19 4 20 5 21 7 22 6 23 2 24
REMARK SMILES IDX 1 25 24 26 25 27 26 28 27 29 28 31 29 32 30 33 91 34 31 35
REMARK SMILES IDX 90 36 32 37 33 38 34 39 84 40 35 41 89 42 83 43 85 44 36 45
REMARK SMILES IDX 88 46 82 47 81 48 37 50 69 51 49 52 68 53 50 54 53 55 67 56
REMARK SMILES IDX 86 57 51 58 52 59 66 61 87 62 54 63 38 64 39 65 47 66 40 67
REMARK SMILES IDX 46 68 48 69 45 70 41 71 42 72 43 73 44 74 70 75 71 76 79 77
REMARK SMILES IDX 72 78 78 79 80 80 77 81 73 82 74 83 75 84 76 85 55 86 56 87
REMARK SMILES IDX 64 88 57 89 63 90 65 91 62 92 58 93 59 94 60 95 61 96
REMARK H PARENT 22 5 11 14 26 30 85 49 53 60
REMARK Flexibility Score: inf
ROOT
ATOM      1  C   UNL A   1      31.120  29.835  25.198  1.00  0.00     0.117 C 
ENDROOT
BRANCH   1   2
ATOM      2  N   UNL A   1      32.142  29.670  24.182  1.00  0.00    -0.356 N 
ATOM      3  C   UNL A   1      32.426  28.604  23.379  1.00  0.00     0.224 C 
ATOM      4  O   UNL A   1      33.289  28.770  22.518  1.00  0.00    -0.275 OA
ATOM      5  H   UNL A   1      32.724  30.453  24.051  1.00  0.00     0.163 HD
BRANCH   3   6
ATOM      6  C   UNL A   1      31.624  27.312  23.548  1.00  0.00     0.095 C 
ATOM      7  C   UNL A   1      32.424  26.120  24.111  1.00  0.00     0.095 C 
ATOM      8  C   UNL A   1      33.568  25.678  23.189  1.00  0.00     0.041 C 
ATOM      9  C   UNL A   1      33.142  25.627  21.747  1.00  0.00    -0.030 C 
ATOM     10  C   UNL A   1      31.033  26.912  22.179  1.00  0.00     0.041 C 
ATOM     11  C   UNL A   1      31.994  26.157  21.301  1.00  0.00    -0.030 C 
BRANCH   7  12
ATOM     12  C   UNL A   1      32.928  26.382  25.518  1.00  0.00     0.224 C 
ATOM     13  N   UNL A   1      32.552  25.587  26.549  1.00  0.00    -0.349 N 
ATOM     14  H   UNL A   1      32.830  25.927  27.430  1.00  0.00     0.164 HD
ATOM     15  O   UNL A   1      33.686  27.311  25.797  1.00  0.00    -0.275 OA
BRANCH  13  16
ATOM     16  C   UNL A   1      31.816  24.324  26.616  1.00  0.00     0.113 C 
ATOM     17  C   UNL A   1      30.354  24.645  26.277  1.00  0.00     0.036 C 
BRANCH  16  18
ATOM     18  C   UNL A   1      32.387  23.269  25.681  1.00  0.00     0.016 A 
ATOM     19  C   UNL A   1      33.710  22.804  25.809  1.00  0.00     0.124 A 
ATOM     20  C   UNL A   1      34.216  21.821  24.948  1.00  0.00     0.047 A 
ATOM     21  C   UNL A   1      33.418  21.296  23.933  1.00  0.00     0.004 A 
ATOM     22  C   UNL A   1      31.606  22.723  24.641  1.00  0.00     0.010 A 
ATOM     23  C   UNL A   1      32.120  21.760  23.770  1.00  0.00     0.001 A 
BRANCH  19  24
ATOM     24  O   UNL A   1      34.624  23.415  26.631  1.00  0.00    -0.496 OA
ATOM     25  C   UNL A   1      35.933  23.491  26.078  1.00  0.00     0.278 C 
ENDBRANCH  19  24
ENDBRANCH  16  18
ENDBRANCH  13  16
ENDBRANCH   7  12
ENDBRANCH   3   6
ENDBRANCH   1   2
BRANCH   1  26
ATOM     26  C   UNL A   1      31.041  31.259  25.723  1.00  0.00     0.042 C 
BRANCH  26  27
ATOM     27  C   UNL A   1      32.224  31.682  26.586  1.00  0.00     0.118 C 
BRANCH  27  28
ATOM     28  N   UNL A   1      32.173  33.084  26.980  1.00  0.00    -0.352 N 
ATOM     29  C   UNL A   1      32.977  33.793  27.843  1.00  0.00     0.251 C 
ATOM     30  H   UNL A   1      31.450  33.606  26.562  1.00  0.00     0.163 HD
ATOM     31  O   UNL A   1      32.656  34.931  28.164  1.00  0.00    -0.269 OA
BRANCH  29  32
ATOM     32  C   UNL A   1      34.198  33.172  28.405  1.00  0.00     0.039 A 
ATOM     33  C   UNL A   1      35.380  33.917  28.437  1.00  0.00     0.014 A 
ATOM     34  C   UNL A   1      34.184  31.866  28.900  1.00  0.00     0.014 A 
ATOM     35  C   UNL A   1      36.522  33.380  29.037  1.00  0.00     0.010 A 
ATOM     36  C   UNL A   1      35.294  31.368  29.577  1.00  0.00     0.010 A 
ATOM     37  C   UNL A   1      36.476  32.119  29.654  1.00  0.00    -0.014 A 
BRANCH  37  38
ATOM     38  C   UNL A   1      37.653  31.575  30.385  1.00  0.00     0.031 A 
ATOM     39  C   UNL A   1      38.536  30.544  29.736  1.00  0.00     0.074 A 
ATOM     40  C   UNL A   1      37.886  31.962  31.656  1.00  0.00     0.049 A 
ATOM     41  N   UNL A   1      39.559  29.897  30.235  1.00  0.00    -0.248 NA
ATOM     42  C   UNL A   1      38.208  30.167  28.352  1.00  0.00     0.031 C 
ATOM     43  C   UNL A   1      37.078  32.927  32.408  1.00  0.00     0.029 A 
ATOM     44  N   UNL A   1      38.864  31.591  32.546  1.00  0.00    -0.354 N 
ATOM     45  C   UNL A   1      39.985  29.028  29.236  1.00  0.00     0.074 A 
ATOM     46  C   UNL A   1      39.073  29.190  28.124  1.00  0.00     0.031 C 
ATOM     47  C   UNL A   1      37.609  33.089  33.630  1.00  0.00     0.029 A 
ATOM     48  C   UNL A   1      38.760  32.204  33.775  1.00  0.00     0.049 A 
ATOM     49  H   UNL A   1      39.575  30.945  32.326  1.00  0.00     0.167 HD
ATOM     50  C   UNL A   1      41.051  28.189  29.238  1.00  0.00     0.034 A 
ATOM     51  C   UNL A   1      39.495  32.057  34.896  1.00  0.00     0.034 A 
ATOM     52  C   UNL A   1      41.958  28.052  30.352  1.00  0.00     0.049 A 
ATOM     53  C   UNL A   1      40.656  31.093  34.883  1.00  0.00     0.074 A 
ATOM     54  C   UNL A   1      43.106  27.282  30.434  1.00  0.00     0.029 A 
ATOM     55  N   UNL A   1      41.817  28.684  31.580  1.00  0.00    -0.354 N 
ATOM     56  N   UNL A   1      41.082  30.326  33.905  1.00  0.00    -0.248 NA
ATOM     57  C   UNL A   1      41.440  30.983  36.119  1.00  0.00     0.031 C 
ATOM     58  C   UNL A   1      43.610  27.382  31.735  1.00  0.00     0.029 A 
ATOM     59  C   UNL A   1      42.832  28.289  32.438  1.00  0.00     0.049 A 
ATOM     60  H   UNL A   1      41.101  29.320  31.807  1.00  0.00     0.167 HD
ATOM     61  C   UNL A   1      42.207  29.672  34.402  1.00  0.00     0.074 A 
ATOM     62  C   UNL A   1      42.400  30.147  35.756  1.00  0.00     0.031 C 
ATOM     63  C   UNL A   1      43.011  28.763  33.792  1.00  0.00     0.034 A 
BRANCH  50  64
ATOM     64  C   UNL A   1      41.272  27.333  28.013  1.00  0.00     0.023 A 
ATOM     65  C   UNL A   1      40.929  25.969  27.988  1.00  0.00     0.031 A 
ATOM     66  C   UNL A   1      41.844  27.887  26.854  1.00  0.00     0.131 A 
ATOM     67  C   UNL A   1      41.223  25.193  26.856  1.00  0.00     0.055 A 
ATOM     68  C   UNL A   1      42.056  27.129  25.701  1.00  0.00     0.041 A 
ATOM     69  F   UNL A   1      42.214  29.178  26.824  1.00  0.00    -0.206 F 
ATOM     70  C   UNL A   1      41.760  25.769  25.702  1.00  0.00     0.022 A 
BRANCH  67  71
ATOM     71  S   UNL A   1      41.029  23.394  26.965  1.00  0.00     0.124 S 
ATOM     72  O   UNL A   1      39.590  23.239  26.767  1.00  0.00    -0.237 OA
ATOM     73  O   UNL A   1      41.880  22.919  25.880  1.00  0.00    -0.237 OA
ATOM     74  O   UNL A   1      41.503  23.079  28.313  1.00  0.00    -0.744 OA
ENDBRANCH  67  71
ENDBRANCH  50  64
BRANCH  51  75
ATOM     75  C   UNL A   1      39.154  32.820  36.134  1.00  0.00     0.023 A 
ATOM     76  C   UNL A   1      39.660  34.110  36.353  1.00  0.00     0.031 A 
ATOM     77  C   UNL A   1      38.366  32.243  37.147  1.00  0.00     0.131 A 
ATOM     78  C   UNL A   1      39.424  34.758  37.575  1.00  0.00     0.055 A 
ATOM     79  C   UNL A   1      38.080  32.918  38.336  1.00  0.00     0.041 A 
ATOM     80  F   UNL A   1      37.856  31.010  36.994  1.00  0.00    -0.206 F 
ATOM     81  C   UNL A   1      38.624  34.177  38.561  1.00  0.00     0.022 A 
BRANCH  78  82
ATOM     82  S   UNL A   1      40.271  36.329  37.905  1.00  0.00     0.124 S 
ATOM     83  O   UNL A   1      41.432  35.883  38.668  1.00  0.00    -0.237 OA
ATOM     84  O   UNL A   1      40.539  36.817  36.556  1.00  0.00    -0.237 OA
ATOM     85  O   UNL A   1      39.283  37.096  38.659  1.00  0.00    -0.744 OA
ENDBRANCH  78  82
ENDBRANCH  51  75
BRANCH  63  86
ATOM     86  C   UNL A   1      44.206  28.266  34.570  1.00  0.00     0.023 A 
ATOM     87  C   UNL A   1      44.140  27.123  35.386  1.00  0.00     0.031 A 
ATOM     88  C   UNL A   1      45.430  28.956  34.499  1.00  0.00     0.131 A 
ATOM     89  C   UNL A   1      45.258  26.740  36.144  1.00  0.00     0.055 A 
ATOM     90  C   UNL A   1      46.558  28.530  35.201  1.00  0.00     0.041 A 
ATOM     91  F   UNL A   1      45.551  30.058  33.741  1.00  0.00    -0.206 F 
ATOM     92  C   UNL A   1      46.472  27.423  36.041  1.00  0.00     0.022 A 
BRANCH  89  93
ATOM     93  S   UNL A   1      45.073  25.396  37.348  1.00  0.00     0.124 S 
ATOM     94  O   UNL A   1      44.951  24.227  36.481  1.00  0.00    -0.237 OA
ATOM     95  O   UNL A   1      46.310  25.492  38.117  1.00  0.00    -0.237 OA
ATOM     96  O   UNL A   1      43.860  25.755  38.080  1.00  0.00    -0.744 OA
ENDBRANCH  89  93
ENDBRANCH  63  86
ENDBRANCH  37  38
ENDBRANCH  29  32
ENDBRANCH  27  28
ENDBRANCH  26  27
ENDBRANCH   1  26
TORSDOF 17
ENDMDL
MODEL 3
REMARK VINA RESULT:     -11.6      3.464      8.570
REMARK SMILES COc1ccccc1[C@H](C)NC(=O)[C@@H]1CC=CC[C@@H]1C(=O)NCCCNC(=O)c1ccc(-c2c3nc(c(-c4cc(S(=O)(=O)[O-])ccc4F)c4ccc([nH]4)c(-c4cc(S(=O)(=O)[O-])ccc4F)c4nc(c(-c5cc(S(=O)(=O)[O-])ccc5F)c5ccc2[nH]5)C=C4)C=C3)cc1
REMARK SMILES IDX 23 1 22 2 20 3 21 4 19 6 14 7 15 8 16 9 18 10 17 11 12 12
REMARK SMILES IDX 11 13 13 15 9 16 10 17 8 18 3 19 4 20 5 21 7 22 6 23 2 24
REMARK SMILES IDX 1 25 24 26 25 27 26 28 27 29 28 31 29 32 30 33 91 34 31 35
REMARK SMILES IDX 90 36 32 37 33 38 34 39 84 40 35 41 89 42 83 43 85 44 36 45
REMARK SMILES IDX 88 46 82 47 81 48 37 50 69 51 49 52 68 53 50 54 53 55 67 56
REMARK SMILES IDX 86 57 51 58 52 59 66 61 87 62 54 63 38 64 39 65 47 66 40 67
REMARK SMILES IDX 46 68 48 69 45 70 41 71 42 72 43 73 44 74 70 75 71 76 79 77
REMARK SMILES IDX 72 78 78 79 80 80 77 81 73 82 74 83 75 84 76 85 55 86 56 87
REMARK SMILES IDX 64 88 57 89 63 90 65 91 62 92 58 93 59 94 60 95 61 96
REMARK H PARENT 22 5 11 14 26 30 85 49 53 60
REMARK Flexibility Score: inf
ROOT
ATOM      1  C   UNL A   1      31.594  26.977  26.370  1.00  0.00     0.117 C 
ENDROOT
BRANCH   1   2
ATOM      2  N   UNL A   1      31.457  25.586  26.762  1.00  0.00    -0.356 N 
ATOM      3  C   UNL A   1      32.139  24.480  26.347  1.00  0.00     0.224 C 
ATOM      4  O   UNL A   1      31.892  23.424  26.926  1.00  0.00    -0.275 OA
ATOM      5  H   UNL A   1      30.760  25.414  27.435  1.00  0.00     0.163 HD
BRANCH   3   6
ATOM      6  C   UNL A   1      33.199  24.627  25.253  1.00  0.00     0.095 C 
ATOM      7  C   UNL A   1      33.119  23.579  24.125  1.00  0.00     0.095 C 
ATOM      8  C   UNL A   1      33.357  22.147  24.622  1.00  0.00     0.041 C 
ATOM      9  C   UNL A   1      34.512  22.068  25.582  1.00  0.00    -0.030 C 
ATOM     10  C   UNL A   1      34.597  24.553  25.903  1.00  0.00     0.041 C 
ATOM     11  C   UNL A   1      35.084  23.148  26.135  1.00  0.00    -0.030 C 
BRANCH   7  12
ATOM     12  C   UNL A   1      31.822  23.676  23.344  1.00  0.00     0.224 C 
ATOM     13  N   UNL A   1      31.687  24.566  22.331  1.00  0.00    -0.349 N 
ATOM     14  H   UNL A   1      30.767  24.634  21.986  1.00  0.00     0.164 HD
ATOM     15  O   UNL A   1      30.841  22.970  23.581  1.00  0.00    -0.275 OA
BRANCH  13  16
ATOM     16  C   UNL A   1      32.634  25.449  21.648  1.00  0.00     0.113 C 
ATOM     17  C   UNL A   1      32.152  25.575  20.196  1.00  0.00     0.036 C 
BRANCH  16  18
ATOM     18  C   UNL A   1      32.748  26.807  22.320  1.00  0.00     0.016 A 
ATOM     19  C   UNL A   1      31.612  27.525  22.741  1.00  0.00     0.124 A 
ATOM     20  C   UNL A   1      31.737  28.769  23.373  1.00  0.00     0.047 A 
ATOM     21  C   UNL A   1      32.996  29.330  23.581  1.00  0.00     0.004 A 
ATOM     22  C   UNL A   1      34.009  27.403  22.539  1.00  0.00     0.010 A 
ATOM     23  C   UNL A   1      34.130  28.654  23.148  1.00  0.00     0.001 A 
BRANCH  19  24
ATOM     24  O   UNL A   1      30.340  27.154  22.385  1.00  0.00    -0.496 OA
ATOM     25  C   UNL A   1      29.433  27.086  23.480  1.00  0.00     0.278 C 
ENDBRANCH  19  24
ENDBRANCH  16  18
ENDBRANCH  13  16
ENDBRANCH   7  12
ENDBRANCH   3   6
ENDBRANCH   1   2
BRANCH   1  26
ATOM     26  C   UNL A   1      32.255  27.824  27.445  1.00  0.00     0.042 C 
BRANCH  26  27
ATOM     27  C   UNL A   1      33.539  28.517  27.005  1.00  0.00     0.118 C 
BRANCH  27  28
ATOM     28  N   UNL A   1      33.442  29.970  27.029  1.00  0.00    -0.352 N 
ATOM     29  C   UNL A   1      34.260  30.904  27.622  1.00  0.00     0.251 C 
ATOM     30  H   UNL A   1      32.671  30.343  26.543  1.00  0.00     0.163 HD
ATOM     31  O   UNL A   1      33.904  32.076  27.663  1.00  0.00    -0.269 OA
BRANCH  29  32
ATOM     32  C   UNL A   1      35.542  30.491  28.238  1.00  0.00     0.039 A 
ATOM     33  C   UNL A   1      35.515  29.799  29.451  1.00  0.00     0.014 A 
ATOM     34  C   UNL A   1      36.765  30.779  27.628  1.00  0.00     0.014 A 
ATOM     35  C   UNL A   1      36.707  29.329  30.009  1.00  0.00     0.010 A 
ATOM     36  C   UNL A   1      37.940  30.233  28.136  1.00  0.00     0.010 A 
ATOM     37  C   UNL A   1      37.926  29.501  29.332  1.00  0.00    -0.014 A 
BRANCH  37  38
ATOM     38  C   UNL A   1      39.190  28.920  29.859  1.00  0.00     0.031 A 
ATOM     39  C   UNL A   1      39.855  29.525  31.067  1.00  0.00     0.074 A 
ATOM     40  C   UNL A   1      39.772  27.889  29.212  1.00  0.00     0.049 A 
ATOM     41  N   UNL A   1      40.994  29.210  31.629  1.00  0.00    -0.248 NA
ATOM     42  C   UNL A   1      39.163  30.653  31.708  1.00  0.00     0.031 C 
ATOM     43  C   UNL A   1      39.243  27.241  28.008  1.00  0.00     0.029 A 
ATOM     44  N   UNL A   1      40.936  27.206  29.467  1.00  0.00    -0.354 N 
ATOM     45  C   UNL A   1      41.162  30.108  32.678  1.00  0.00     0.074 A 
ATOM     46  C   UNL A   1      40.036  31.017  32.635  1.00  0.00     0.031 C 
ATOM     47  C   UNL A   1      40.065  26.242  27.649  1.00  0.00     0.029 A 
ATOM     48  C   UNL A   1      41.206  26.208  28.558  1.00  0.00     0.049 A 
ATOM     49  H   UNL A   1      41.523  27.411  30.230  1.00  0.00     0.167 HD
ATOM     50  C   UNL A   1      42.153  30.157  33.603  1.00  0.00     0.034 A 
ATOM     51  C   UNL A   1      42.261  25.374  28.455  1.00  0.00     0.034 A 
ATOM     52  C   UNL A   1      43.261  29.234  33.638  1.00  0.00     0.049 A 
ATOM     53  C   UNL A   1      43.366  25.471  29.478  1.00  0.00     0.074 A 
ATOM     54  C   UNL A   1      44.282  29.152  34.569  1.00  0.00     0.029 A 
ATOM     55  N   UNL A   1      43.504  28.241  32.698  1.00  0.00    -0.354 N 
ATOM     56  N   UNL A   1      43.476  26.287  30.501  1.00  0.00    -0.248 NA
ATOM     57  C   UNL A   1      44.482  24.528  29.339  1.00  0.00     0.031 C 
ATOM     58  C   UNL A   1      45.184  28.171  34.148  1.00  0.00     0.029 A 
ATOM     59  C   UNL A   1      44.680  27.573  33.004  1.00  0.00     0.049 A 
ATOM     60  H   UNL A   1      42.926  28.042  31.927  1.00  0.00     0.167 HD
ATOM     61  C   UNL A   1      44.657  25.927  31.147  1.00  0.00     0.074 A 
ATOM     62  C   UNL A   1      45.211  24.813  30.406  1.00  0.00     0.031 C 
ATOM     63  C   UNL A   1      45.229  26.466  32.254  1.00  0.00     0.034 A 
BRANCH  50  64
ATOM     64  C   UNL A   1      42.100  31.265  34.630  1.00  0.00     0.023 A 
ATOM     65  C   UNL A   1      42.560  32.563  34.347  1.00  0.00     0.031 A 
ATOM     66  C   UNL A   1      41.590  31.015  35.916  1.00  0.00     0.131 A 
ATOM     67  C   UNL A   1      42.564  33.540  35.355  1.00  0.00     0.055 A 
ATOM     68  C   UNL A   1      41.517  32.015  36.888  1.00  0.00     0.041 A 
ATOM     69  F   UNL A   1      41.156  29.790  36.254  1.00  0.00    -0.206 F 
ATOM     70  C   UNL A   1      42.021  33.283  36.615  1.00  0.00     0.022 A 
BRANCH  67  71
ATOM     71  S   UNL A   1      43.420  35.107  35.038  1.00  0.00     0.124 S 
ATOM     72  O   UNL A   1      44.285  34.750  33.915  1.00  0.00    -0.237 OA
ATOM     73  O   UNL A   1      42.318  36.013  34.734  1.00  0.00    -0.237 OA
ATOM     74  O   UNL A   1      44.120  35.375  36.293  1.00  0.00    -0.744 OA
ENDBRANCH  67  71
ENDBRANCH  50  64
BRANCH  51  75
ATOM     75  C   UNL A   1      42.343  24.386  27.338  1.00  0.00     0.023 A 
ATOM     76  C   UNL A   1      41.595  23.199  27.363  1.00  0.00     0.031 A 
ATOM     77  C   UNL A   1      43.221  24.586  26.256  1.00  0.00     0.131 A 
ATOM     78  C   UNL A   1      41.779  22.233  26.362  1.00  0.00     0.055 A 
ATOM     79  C   UNL A   1      43.353  23.651  25.228  1.00  0.00     0.041 A 
ATOM     80  F   UNL A   1      43.963  25.703  26.180  1.00  0.00    -0.206 F 
ATOM     81  C   UNL A   1      42.642  22.458  25.287  1.00  0.00     0.022 A 
BRANCH  78  82
ATOM     82  S   UNL A   1      40.958  20.625  26.544  1.00  0.00     0.124 S 
ATOM     83  O   UNL A   1      40.780  20.547  27.990  1.00  0.00    -0.237 OA
ATOM     84  O   UNL A   1      39.744  20.815  25.757  1.00  0.00    -0.237 OA
ATOM     85  O   UNL A   1      41.923  19.684  25.981  1.00  0.00    -0.744 OA
ENDBRANCH  78  82
ENDBRANCH  51  75
BRANCH  63  86
ATOM     86  C   UNL A   1      46.496  25.819  32.760  1.00  0.00     0.023 A 
ATOM     87  C   UNL A   1      46.471  24.738  33.660  1.00  0.00     0.031 A 
ATOM     88  C   UNL A   1      47.750  26.298  32.340  1.00  0.00     0.131 A 
ATOM     89  C   UNL A   1      47.675  24.214  34.156  1.00  0.00     0.055 A 
ATOM     90  C   UNL A   1      48.943  25.727  32.782  1.00  0.00     0.041 A 
ATOM     91  F   UNL A   1      47.836  27.331  31.486  1.00  0.00    -0.206 F 
ATOM     92  C   UNL A   1      48.911  24.687  33.707  1.00  0.00     0.022 A 
BRANCH  89  93
ATOM     93  S   UNL A   1      47.605  22.972  35.475  1.00  0.00     0.124 S 
ATOM     94  O   UNL A   1      46.353  22.283  35.178  1.00  0.00    -0.237 OA
ATOM     95  O   UNL A   1      48.825  22.204  35.248  1.00  0.00    -0.237 OA
ATOM     96  O   UNL A   1      47.597  23.772  36.699  1.00  0.00    -0.744 OA
ENDBRANCH  89  93
ENDBRANCH  63  86
ENDBRANCH  37  38
ENDBRANCH  29  32
ENDBRANCH  27  28
ENDBRANCH  26  27
ENDBRANCH   1  26
TORSDOF 17
ENDMDL
