MODEL 1
REMARK VINA RESULT:     -13.0      0.000      0.000
REMARK SMILES Cc1ccc(C(=O)N2C[C@H](C(=O)NCCCNC(=O)c3ccc(-c4c5nc(c(-c6cc(S(=O)(=O)[O-])ccc6F)c6ccc([nH]6)c(-c6cc(S(=O)(=O)[O-])ccc6F)c6nc(c(-c7cc(S(=O)(=O)[O-])ccc7F)c7ccc4[nH]7)C=C6)C=C5)cc3)Oc3ccccc32)o1
REMARK SMILES IDX 15 1 14 2 13 3 11 4 12 5 10 7 8 8 9 9 89 10 84 11 88 12
REMARK SMILES IDX 83 13 85 14 87 15 86 16 6 17 7 18 5 19 1 20 2 21 3 22 90 23
REMARK SMILES IDX 4 24 16 25 17 26 18 27 19 29 20 30 21 31 82 32 22 33 81 34
REMARK SMILES IDX 23 35 24 36 25 37 75 38 26 39 80 40 74 41 76 42 27 43 79 44
REMARK SMILES IDX 73 45 72 46 28 48 60 49 40 50 59 51 41 52 44 53 58 54 77 55
REMARK SMILES IDX 42 56 43 57 57 59 78 60 45 61 29 62 30 63 38 64 31 65 37 66
REMARK SMILES IDX 39 67 36 68 32 69 33 70 34 71 35 72 61 73 62 74 70 75 63 76
REMARK SMILES IDX 69 77 71 78 68 79 64 80 65 81 66 82 67 83 46 84 47 85 55 86
REMARK SMILES IDX 48 87 54 88 56 89 53 90 49 91 50 92 51 93 52 94
REMARK H PARENT 13 6 17 28 76 47 44 58
REMARK Flexibility Score: inf
ROOT
ATOM      1  C   UNL A   1      33.197  28.491  23.593  1.00  0.00     0.042 C 
ENDROOT
BRANCH   1   2
ATOM      2  C   UNL A   1      32.460  27.156  23.553  1.00  0.00     0.118 C 
BRANCH   2   3
ATOM      3  N   UNL A   1      32.613  26.478  22.274  1.00  0.00    -0.353 N 
ATOM      4  C   UNL A   1      33.014  25.204  21.988  1.00  0.00     0.262 C 
ATOM      5  O   UNL A   1      33.045  24.868  20.800  1.00  0.00    -0.271 OA
ATOM      6  H   UNL A   1      32.393  27.028  21.487  1.00  0.00     0.163 HD
BRANCH   4   7
ATOM      7  C   UNL A   1      33.466  24.236  23.084  1.00  0.00     0.281 C 
ATOM      8  N   UNL A   1      33.159  21.948  23.947  1.00  0.00    -0.298 N 
ATOM      9  C   UNL A   1      32.721  22.915  22.939  1.00  0.00     0.181 C 
ATOM     10  C   UNL A   1      34.557  21.975  24.244  1.00  0.00     0.087 A 
ATOM     11  C   UNL A   1      35.360  23.010  23.737  1.00  0.00     0.144 A 
ATOM     12  C   UNL A   1      35.184  20.931  24.938  1.00  0.00     0.030 A 
ATOM     13  O   UNL A   1      34.885  24.089  23.037  1.00  0.00    -0.477 OA
ATOM     14  C   UNL A   1      36.749  22.981  23.891  1.00  0.00     0.049 A 
ATOM     15  C   UNL A   1      36.573  20.908  25.098  1.00  0.00     0.002 A 
ATOM     16  C   UNL A   1      37.356  21.927  24.568  1.00  0.00     0.004 A 
BRANCH   8  17
ATOM     17  C   UNL A   1      32.272  21.071  24.584  1.00  0.00     0.294 C 
ATOM     18  O   UNL A   1      31.499  21.474  25.460  1.00  0.00    -0.265 OA
BRANCH  17  19
ATOM     19  C   UNL A   1      32.335  19.662  24.217  1.00  0.00     0.192 A 
ATOM     20  C   UNL A   1      32.697  16.384  25.621  1.00  0.00     0.087 C 
ATOM     21  C   UNL A   1      32.560  17.513  24.680  1.00  0.00     0.101 A 
ATOM     22  C   UNL A   1      32.608  17.615  23.309  1.00  0.00     0.046 A 
ATOM     23  O   UNL A   1      32.380  18.742  25.234  1.00  0.00    -0.456 OA
ATOM     24  C   UNL A   1      32.475  18.994  23.011  1.00  0.00     0.056 A 
ENDBRANCH  17  19
ENDBRANCH   8  17
ENDBRANCH   4   7
ENDBRANCH   2   3
ENDBRANCH   1   2
BRANCH   1  25
ATOM     25  C   UNL A   1      33.643  28.918  24.987  1.00  0.00     0.118 C 
BRANCH  25  26
ATOM     26  N   UNL A   1      32.912  30.078  25.475  1.00  0.00    -0.352 N 
ATOM     27  C   UNL A   1      33.109  30.838  26.603  1.00  0.00     0.251 C 
ATOM     28  H   UNL A   1      32.158  30.362  24.908  1.00  0.00     0.163 HD
ATOM     29  O   UNL A   1      32.255  31.662  26.920  1.00  0.00    -0.269 OA
BRANCH  27  30
ATOM     30  C   UNL A   1      34.316  30.658  27.442  1.00  0.00     0.039 A 
ATOM     31  C   UNL A   1      34.514  29.428  28.080  1.00  0.00     0.014 A 
ATOM     32  C   UNL A   1      35.233  31.695  27.636  1.00  0.00     0.014 A 
ATOM     33  C   UNL A   1      35.657  29.219  28.857  1.00  0.00     0.010 A 
ATOM     34  C   UNL A   1      36.403  31.465  28.357  1.00  0.00     0.010 A 
ATOM     35  C   UNL A   1      36.627  30.227  28.977  1.00  0.00    -0.014 A 
BRANCH  35  36
ATOM     36  C   UNL A   1      37.873  30.011  29.755  1.00  0.00     0.031 A 
ATOM     37  C   UNL A   1      38.942  29.094  29.229  1.00  0.00     0.074 A 
ATOM     38  C   UNL A   1      38.005  30.572  30.973  1.00  0.00     0.049 A 
ATOM     39  N   UNL A   1      40.047  28.690  29.804  1.00  0.00    -0.248 NA
ATOM     40  C   UNL A   1      38.717  28.530  27.890  1.00  0.00     0.031 C 
ATOM     41  C   UNL A   1      37.016  31.438  31.618  1.00  0.00     0.029 A 
ATOM     42  N   UNL A   1      39.017  30.479  31.895  1.00  0.00    -0.354 N 
ATOM     43  C   UNL A   1      40.637  27.803  28.910  1.00  0.00     0.074 A 
ATOM     44  C   UNL A   1      39.739  27.695  27.777  1.00  0.00     0.031 C 
ATOM     45  C   UNL A   1      37.473  31.800  32.827  1.00  0.00     0.029 A 
ATOM     46  C   UNL A   1      38.768  31.167  33.058  1.00  0.00     0.049 A 
ATOM     47  H   UNL A   1      39.843  29.967  31.737  1.00  0.00     0.167 HD
ATOM     48  C   UNL A   1      41.822  27.151  29.016  1.00  0.00     0.034 A 
ATOM     49  C   UNL A   1      39.493  31.268  34.188  1.00  0.00     0.034 A 
ATOM     50  C   UNL A   1      42.718  27.288  30.138  1.00  0.00     0.049 A 
ATOM     51  C   UNL A   1      40.816  30.559  34.276  1.00  0.00     0.074 A 
ATOM     52  C   UNL A   1      43.977  26.737  30.312  1.00  0.00     0.029 A 
ATOM     53  N   UNL A   1      42.448  28.025  31.283  1.00  0.00    -0.354 N 
ATOM     54  N   UNL A   1      41.384  29.762  33.403  1.00  0.00    -0.248 NA
ATOM     55  C   UNL A   1      41.600  30.775  35.500  1.00  0.00     0.031 C 
ATOM     56  C   UNL A   1      44.445  27.102  31.582  1.00  0.00     0.029 A 
ATOM     57  C   UNL A   1      43.503  27.924  32.177  1.00  0.00     0.049 A 
ATOM     58  H   UNL A   1      41.625  28.544  31.438  1.00  0.00     0.167 HD
ATOM     59  C   UNL A   1      42.602  29.392  33.965  1.00  0.00     0.074 A 
ATOM     60  C   UNL A   1      42.689  30.061  35.248  1.00  0.00     0.031 C 
ATOM     61  C   UNL A   1      43.564  28.577  33.463  1.00  0.00     0.034 A 
BRANCH  48  62
ATOM     62  C   UNL A   1      42.190  26.210  27.894  1.00  0.00     0.023 A 
ATOM     63  C   UNL A   1      41.670  24.905  27.825  1.00  0.00     0.031 A 
ATOM     64  C   UNL A   1      43.117  26.602  26.913  1.00  0.00     0.131 A 
ATOM     65  C   UNL A   1      42.150  24.011  26.855  1.00  0.00     0.055 A 
ATOM     66  C   UNL A   1      43.529  25.733  25.900  1.00  0.00     0.041 A 
ATOM     67  F   UNL A   1      43.660  27.829  26.938  1.00  0.00    -0.206 F 
ATOM     68  C   UNL A   1      43.058  24.422  25.879  1.00  0.00     0.022 A 
BRANCH  65  69
ATOM     69  S   UNL A   1      41.690  22.262  26.993  1.00  0.00     0.124 S 
ATOM     70  O   UNL A   1      41.936  21.785  25.635  1.00  0.00    -0.237 OA
ATOM     71  O   UNL A   1      42.605  21.776  28.018  1.00  0.00    -0.237 OA
ATOM     72  O   UNL A   1      40.282  22.308  27.383  1.00  0.00    -0.744 OA
ENDBRANCH  65  69
ENDBRANCH  48  62
BRANCH  49  73
ATOM     73  C   UNL A   1      38.974  32.059  35.333  1.00  0.00     0.023 A 
ATOM     74  C   UNL A   1      38.354  31.430  36.423  1.00  0.00     0.031 A 
ATOM     75  C   UNL A   1      39.089  33.459  35.349  1.00  0.00     0.131 A 
ATOM     76  C   UNL A   1      37.846  32.206  37.476  1.00  0.00     0.055 A 
ATOM     77  C   UNL A   1      38.609  34.224  36.412  1.00  0.00     0.041 A 
ATOM     78  F   UNL A   1      39.690  34.101  34.334  1.00  0.00    -0.206 F 
ATOM     79  C   UNL A   1      37.976  33.597  37.481  1.00  0.00     0.022 A 
BRANCH  76  80
ATOM     80  S   UNL A   1      36.982  31.368  38.832  1.00  0.00     0.124 S 
ATOM     81  O   UNL A   1      37.942  31.497  39.922  1.00  0.00    -0.237 OA
ATOM     82  O   UNL A   1      35.763  32.161  38.951  1.00  0.00    -0.237 OA
ATOM     83  O   UNL A   1      36.791  30.010  38.325  1.00  0.00    -0.744 OA
ENDBRANCH  76  80
ENDBRANCH  49  73
BRANCH  61  84
ATOM     84  C   UNL A   1      44.802  28.398  34.300  1.00  0.00     0.023 A 
ATOM     85  C   UNL A   1      44.868  27.426  35.313  1.00  0.00     0.031 A 
ATOM     86  C   UNL A   1      45.919  29.224  34.096  1.00  0.00     0.131 A 
ATOM     87  C   UNL A   1      46.016  27.334  36.116  1.00  0.00     0.055 A 
ATOM     88  C   UNL A   1      47.074  29.100  34.869  1.00  0.00     0.041 A 
ATOM     89  F   UNL A   1      45.903  30.169  33.142  1.00  0.00    -0.206 F 
ATOM     90  C   UNL A   1      47.122  28.157  35.892  1.00  0.00     0.022 A 
BRANCH  87  91
ATOM     91  S   UNL A   1      46.016  26.169  37.506  1.00  0.00     0.124 S 
ATOM     92  O   UNL A   1      45.810  24.891  36.832  1.00  0.00    -0.237 OA
ATOM     93  O   UNL A   1      47.337  26.376  38.088  1.00  0.00    -0.237 OA
ATOM     94  O   UNL A   1      44.899  26.621  38.333  1.00  0.00    -0.744 OA
ENDBRANCH  87  91
ENDBRANCH  61  84
ENDBRANCH  35  36
ENDBRANCH  27  30
ENDBRANCH  25  26
ENDBRANCH   1  25
TORSDOF 15
ENDMDL
MODEL 2
REMARK VINA RESULT:     -13.0      1.838      7.651
REMARK SMILES Cc1ccc(C(=O)N2C[C@H](C(=O)NCCCNC(=O)c3ccc(-c4c5nc(c(-c6cc(S(=O)(=O)[O-])ccc6F)c6ccc([nH]6)c(-c6cc(S(=O)(=O)[O-])ccc6F)c6nc(c(-c7cc(S(=O)(=O)[O-])ccc7F)c7ccc4[nH]7)C=C6)C=C5)cc3)Oc3ccccc32)o1
REMARK SMILES IDX 15 1 14 2 13 3 11 4 12 5 10 7 8 8 9 9 89 10 84 11 88 12
REMARK SMILES IDX 83 13 85 14 87 15 86 16 6 17 7 18 5 19 1 20 2 21 3 22 90 23
REMARK SMILES IDX 4 24 16 25 17 26 18 27 19 29 20 30 21 31 82 32 22 33 81 34
REMARK SMILES IDX 23 35 24 36 25 37 75 38 26 39 80 40 74 41 76 42 27 43 79 44
REMARK SMILES IDX 73 45 72 46 28 48 60 49 40 50 59 51 41 52 44 53 58 54 77 55
REMARK SMILES IDX 42 56 43 57 57 59 78 60 45 61 29 62 30 63 38 64 31 65 37 66
REMARK SMILES IDX 39 67 36 68 32 69 33 70 34 71 35 72 61 73 62 74 70 75 63 76
REMARK SMILES IDX 69 77 71 78 68 79 64 80 65 81 66 82 67 83 46 84 47 85 55 86
REMARK SMILES IDX 48 87 54 88 56 89 53 90 49 91 50 92 51 93 52 94
REMARK H PARENT 13 6 17 28 76 47 44 58
REMARK Flexibility Score: inf
ROOT
ATOM      1  C   UNL A   1      33.487  28.499  24.288  1.00  0.00     0.042 C 
ENDROOT
BRANCH   1   2
ATOM      2  C   UNL A   1      32.661  27.233  24.086  1.00  0.00     0.118 C 
BRANCH   2   3
ATOM      3  N   UNL A   1      32.812  26.682  22.747  1.00  0.00    -0.353 N 
ATOM      4  C   UNL A   1      33.182  25.431  22.340  1.00  0.00     0.262 C 
ATOM      5  O   UNL A   1      33.220  25.214  21.125  1.00  0.00    -0.271 OA
ATOM      6  H   UNL A   1      32.618  27.313  22.017  1.00  0.00     0.163 HD
BRANCH   4   7
ATOM      7  C   UNL A   1      33.593  24.346  23.339  1.00  0.00     0.281 C 
ATOM      8  N   UNL A   1      33.169  22.011  24.002  1.00  0.00    -0.298 N 
ATOM      9  C   UNL A   1      32.773  23.086  23.091  1.00  0.00     0.181 C 
ATOM     10  C   UNL A   1      34.569  21.935  24.277  1.00  0.00     0.087 A 
ATOM     11  C   UNL A   1      35.423  22.966  23.850  1.00  0.00     0.144 A 
ATOM     12  C   UNL A   1      35.145  20.802  24.867  1.00  0.00     0.030 A 
ATOM     13  O   UNL A   1      35.000  24.128  23.256  1.00  0.00    -0.477 OA
ATOM     14  C   UNL A   1      36.809  22.848  23.978  1.00  0.00     0.049 A 
ATOM     15  C   UNL A   1      36.532  20.688  25.001  1.00  0.00     0.002 A 
ATOM     16  C   UNL A   1      37.365  21.706  24.550  1.00  0.00     0.004 A 
BRANCH   8  17
ATOM     17  C   UNL A   1      32.242  21.130  24.575  1.00  0.00     0.294 C 
ATOM     18  O   UNL A   1      31.413  21.528  25.400  1.00  0.00    -0.265 OA
BRANCH  17  19
ATOM     19  C   UNL A   1      32.329  19.723  24.203  1.00  0.00     0.192 A 
ATOM     20  C   UNL A   1      32.631  16.439  25.607  1.00  0.00     0.087 C 
ATOM     21  C   UNL A   1      32.538  17.573  24.666  1.00  0.00     0.101 A 
ATOM     22  C   UNL A   1      32.655  17.682  23.300  1.00  0.00     0.046 A 
ATOM     23  O   UNL A   1      32.325  18.798  25.217  1.00  0.00    -0.456 OA
ATOM     24  C   UNL A   1      32.532  19.062  23.003  1.00  0.00     0.056 A 
ENDBRANCH  17  19
ENDBRANCH   8  17
ENDBRANCH   4   7
ENDBRANCH   2   3
ENDBRANCH   1   2
BRANCH   1  25
ATOM     25  C   UNL A   1      33.987  28.700  25.714  1.00  0.00     0.118 C 
BRANCH  25  26
ATOM     26  N   UNL A   1      33.694  30.031  26.225  1.00  0.00    -0.352 N 
ATOM     27  C   UNL A   1      34.296  30.744  27.234  1.00  0.00     0.251 C 
ATOM     28  H   UNL A   1      32.948  30.493  25.777  1.00  0.00     0.163 HD
ATOM     29  O   UNL A   1      33.766  31.780  27.627  1.00  0.00    -0.269 OA
BRANCH  27  30
ATOM     30  C   UNL A   1      35.550  30.266  27.861  1.00  0.00     0.039 A 
ATOM     31  C   UNL A   1      35.484  29.666  29.124  1.00  0.00     0.014 A 
ATOM     32  C   UNL A   1      36.789  30.435  27.237  1.00  0.00     0.014 A 
ATOM     33  C   UNL A   1      36.647  29.182  29.730  1.00  0.00     0.010 A 
ATOM     34  C   UNL A   1      37.938  29.894  27.812  1.00  0.00     0.010 A 
ATOM     35  C   UNL A   1      37.880  29.264  29.065  1.00  0.00    -0.014 A 
BRANCH  35  36
ATOM     36  C   UNL A   1      39.121  28.711  29.665  1.00  0.00     0.031 A 
ATOM     37  C   UNL A   1      39.703  29.334  30.903  1.00  0.00     0.074 A 
ATOM     38  C   UNL A   1      39.770  27.705  29.047  1.00  0.00     0.049 A 
ATOM     39  N   UNL A   1      40.830  29.072  31.514  1.00  0.00    -0.248 NA
ATOM     40  C   UNL A   1      38.926  30.424  31.513  1.00  0.00     0.031 C 
ATOM     41  C   UNL A   1      39.336  27.051  27.811  1.00  0.00     0.029 A 
ATOM     42  N   UNL A   1      40.944  27.072  29.364  1.00  0.00    -0.354 N 
ATOM     43  C   UNL A   1      40.914  29.979  32.564  1.00  0.00     0.074 A 
ATOM     44  C   UNL A   1      39.743  30.829  32.474  1.00  0.00     0.031 C 
ATOM     45  C   UNL A   1      40.230  26.106  27.478  1.00  0.00     0.029 A 
ATOM     46  C   UNL A   1      41.314  26.109  28.456  1.00  0.00     0.049 A 
ATOM     47  H   UNL A   1      41.472  27.286  30.167  1.00  0.00     0.167 HD
ATOM     48  C   UNL A   1      41.868  30.086  33.523  1.00  0.00     0.034 A 
ATOM     49  C   UNL A   1      42.409  25.326  28.407  1.00  0.00     0.034 A 
ATOM     50  C   UNL A   1      43.015  29.216  33.617  1.00  0.00     0.049 A 
ATOM     51  C   UNL A   1      43.442  25.440  29.493  1.00  0.00     0.074 A 
ATOM     52  C   UNL A   1      43.999  29.184  34.591  1.00  0.00     0.029 A 
ATOM     53  N   UNL A   1      43.337  28.227  32.697  1.00  0.00    -0.354 N 
ATOM     54  N   UNL A   1      43.483  26.271  30.508  1.00  0.00    -0.248 NA
ATOM     55  C   UNL A   1      44.570  24.502  29.431  1.00  0.00     0.031 C 
ATOM     56  C   UNL A   1      44.940  28.209  34.234  1.00  0.00     0.029 A 
ATOM     57  C   UNL A   1      44.515  27.595  33.066  1.00  0.00     0.049 A 
ATOM     58  H   UNL A   1      42.805  28.005  31.898  1.00  0.00     0.167 HD
ATOM     59  C   UNL A   1      44.635  25.945  31.216  1.00  0.00     0.074 A 
ATOM     60  C   UNL A   1      45.254  24.837  30.517  1.00  0.00     0.031 C 
ATOM     61  C   UNL A   1      45.132  26.508  32.346  1.00  0.00     0.034 A 
BRANCH  48  62
ATOM     62  C   UNL A   1      41.713  31.205  34.524  1.00  0.00     0.023 A 
ATOM     63  C   UNL A   1      40.716  31.177  35.514  1.00  0.00     0.031 A 
ATOM     64  C   UNL A   1      42.535  32.343  34.451  1.00  0.00     0.131 A 
ATOM     65  C   UNL A   1      40.505  32.300  36.329  1.00  0.00     0.055 A 
ATOM     66  C   UNL A   1      42.375  33.424  35.320  1.00  0.00     0.041 A 
ATOM     67  F   UNL A   1      43.493  32.435  33.515  1.00  0.00    -0.206 F 
ATOM     68  C   UNL A   1      41.342  33.414  36.254  1.00  0.00     0.022 A 
BRANCH  65  69
ATOM     69  S   UNL A   1      39.022  32.343  37.371  1.00  0.00     0.124 S 
ATOM     70  O   UNL A   1      38.376  31.081  37.018  1.00  0.00    -0.237 OA
ATOM     71  O   UNL A   1      39.582  32.420  38.715  1.00  0.00    -0.237 OA
ATOM     72  O   UNL A   1      38.319  33.541  36.917  1.00  0.00    -0.744 OA
ENDBRANCH  65  69
ENDBRANCH  48  62
BRANCH  49  73
ATOM     73  C   UNL A   1      42.589  24.375  27.280  1.00  0.00     0.023 A 
ATOM     74  C   UNL A   1      42.076  23.072  27.347  1.00  0.00     0.031 A 
ATOM     75  C   UNL A   1      43.284  24.759  26.121  1.00  0.00     0.131 A 
ATOM     76  C   UNL A   1      42.289  22.185  26.280  1.00  0.00     0.055 A 
ATOM     77  C   UNL A   1      43.467  23.884  25.050  1.00  0.00     0.041 A 
ATOM     78  F   UNL A   1      43.778  26.003  26.007  1.00  0.00    -0.206 F 
ATOM     79  C   UNL A   1      42.974  22.585  25.130  1.00  0.00     0.022 A 
BRANCH  76  80
ATOM     80  S   UNL A   1      41.680  20.484  26.431  1.00  0.00     0.124 S 
ATOM     81  O   UNL A   1      40.251  20.657  26.197  1.00  0.00    -0.237 OA
ATOM     82  O   UNL A   1      42.425  19.800  25.379  1.00  0.00    -0.237 OA
ATOM     83  O   UNL A   1      42.049  20.111  27.795  1.00  0.00    -0.744 OA
ENDBRANCH  76  80
ENDBRANCH  49  73
BRANCH  61  84
ATOM     84  C   UNL A   1      46.394  25.904  32.903  1.00  0.00     0.023 A 
ATOM     85  C   UNL A   1      46.361  24.768  33.730  1.00  0.00     0.031 A 
ATOM     86  C   UNL A   1      47.641  26.486  32.620  1.00  0.00     0.131 A 
ATOM     87  C   UNL A   1      47.552  24.275  34.284  1.00  0.00     0.055 A 
ATOM     88  C   UNL A   1      48.827  25.965  33.138  1.00  0.00     0.041 A 
ATOM     89  F   UNL A   1      47.723  27.573  31.837  1.00  0.00    -0.206 F 
ATOM     90  C   UNL A   1      48.785  24.859  33.984  1.00  0.00     0.022 A 
BRANCH  87  91
ATOM     91  S   UNL A   1      47.462  22.898  35.461  1.00  0.00     0.124 S 
ATOM     92  O   UNL A   1      46.505  22.005  34.812  1.00  0.00    -0.237 OA
ATOM     93  O   UNL A   1      48.843  22.429  35.502  1.00  0.00    -0.237 OA
ATOM     94  O   UNL A   1      46.986  23.528  36.691  1.00  0.00    -0.744 OA
ENDBRANCH  87  91
ENDBRANCH  61  84
ENDBRANCH  35  36
ENDBRANCH  27  30
ENDBRANCH  25  26
ENDBRANCH   1  25
TORSDOF 15
ENDMDL
MODEL 3
REMARK VINA RESULT:     -12.9      5.183     10.342
REMARK SMILES Cc1ccc(C(=O)N2C[C@H](C(=O)NCCCNC(=O)c3ccc(-c4c5nc(c(-c6cc(S(=O)(=O)[O-])ccc6F)c6ccc([nH]6)c(-c6cc(S(=O)(=O)[O-])ccc6F)c6nc(c(-c7cc(S(=O)(=O)[O-])ccc7F)c7ccc4[nH]7)C=C6)C=C5)cc3)Oc3ccccc32)o1
REMARK SMILES IDX 15 1 14 2 13 3 11 4 12 5 10 7 8 8 9 9 89 10 84 11 88 12
REMARK SMILES IDX 83 13 85 14 87 15 86 16 6 17 7 18 5 19 1 20 2 21 3 22 90 23
REMARK SMILES IDX 4 24 16 25 17 26 18 27 19 29 20 30 21 31 82 32 22 33 81 34
REMARK SMILES IDX 23 35 24 36 25 37 75 38 26 39 80 40 74 41 76 42 27 43 79 44
REMARK SMILES IDX 73 45 72 46 28 48 60 49 40 50 59 51 41 52 44 53 58 54 77 55
REMARK SMILES IDX 42 56 43 57 57 59 78 60 45 61 29 62 30 63 38 64 31 65 37 66
REMARK SMILES IDX 39 67 36 68 32 69 33 70 34 71 35 72 61 73 62 74 70 75 63 76
REMARK SMILES IDX 69 77 71 78 68 79 64 80 65 81 66 82 67 83 46 84 47 85 55 86
REMARK SMILES IDX 48 87 54 88 56 89 53 90 49 91 50 92 51 93 52 94
REMARK H PARENT 13 6 17 28 76 47 44 58
REMARK Flexibility Score: inf
ROOT
ATOM      1  C   UNL A   1      34.428  21.935  26.287  1.00  0.00     0.042 C 
ENDROOT
BRANCH   1   2
ATOM      2  C   UNL A   1      33.311  22.628  25.515  1.00  0.00     0.118 C 
BRANCH   2   3
ATOM      3  N   UNL A   1      32.096  22.767  26.303  1.00  0.00    -0.353 N 
ATOM      4  C   UNL A   1      31.278  23.846  26.491  1.00  0.00     0.262 C 
ATOM      5  O   UNL A   1      30.287  23.692  27.211  1.00  0.00    -0.271 OA
ATOM      6  H   UNL A   1      31.818  21.952  26.780  1.00  0.00     0.163 HD
BRANCH   4   7
ATOM      7  C   UNL A   1      31.600  25.215  25.887  1.00  0.00     0.281 C 
ATOM      8  N   UNL A   1      30.742  26.948  24.359  1.00  0.00    -0.298 N 
ATOM      9  C   UNL A   1      30.490  25.622  24.926  1.00  0.00     0.181 C 
ATOM     10  C   UNL A   1      31.315  27.894  25.264  1.00  0.00     0.087 A 
ATOM     11  C   UNL A   1      31.775  27.469  26.522  1.00  0.00     0.144 A 
ATOM     12  C   UNL A   1      31.332  29.267  24.983  1.00  0.00     0.030 A 
ATOM     13  O   UNL A   1      31.814  26.162  26.933  1.00  0.00    -0.477 OA
ATOM     14  C   UNL A   1      32.204  28.394  27.478  1.00  0.00     0.049 A 
ATOM     15  C   UNL A   1      31.768  30.190  25.938  1.00  0.00     0.002 A 
ATOM     16  C   UNL A   1      32.197  29.756  27.187  1.00  0.00     0.004 A 
BRANCH   8  17
ATOM     17  C   UNL A   1      30.458  27.262  23.023  1.00  0.00     0.294 C 
ATOM     18  O   UNL A   1      31.199  26.884  22.110  1.00  0.00    -0.265 OA
BRANCH  17  19
ATOM     19  C   UNL A   1      29.292  28.096  22.760  1.00  0.00     0.192 A 
ATOM     20  C   UNL A   1      28.291  31.134  21.142  1.00  0.00     0.087 C 
ATOM     21  C   UNL A   1      28.295  29.884  21.928  1.00  0.00     0.101 A 
ATOM     22  C   UNL A   1      27.357  29.255  22.712  1.00  0.00     0.046 A 
ATOM     23  O   UNL A   1      29.460  29.183  21.939  1.00  0.00    -0.456 OA
ATOM     24  C   UNL A   1      27.998  28.114  23.255  1.00  0.00     0.056 A 
ENDBRANCH  17  19
ENDBRANCH   8  17
ENDBRANCH   4   7
ENDBRANCH   2   3
ENDBRANCH   1   2
BRANCH   1  25
ATOM     25  C   UNL A   1      35.827  22.443  25.959  1.00  0.00     0.118 C 
BRANCH  25  26
ATOM     26  N   UNL A   1      36.780  21.363  25.756  1.00  0.00    -0.352 N 
ATOM     27  C   UNL A   1      38.153  21.375  25.790  1.00  0.00     0.251 C 
ATOM     28  H   UNL A   1      36.377  20.484  25.564  1.00  0.00     0.163 HD
ATOM     29  O   UNL A   1      38.767  20.384  25.404  1.00  0.00    -0.269 OA
BRANCH  27  30
ATOM     30  C   UNL A   1      38.893  22.570  26.260  1.00  0.00     0.039 A 
ATOM     31  C   UNL A   1      39.966  22.393  27.140  1.00  0.00     0.014 A 
ATOM     32  C   UNL A   1      38.518  23.860  25.872  1.00  0.00     0.014 A 
ATOM     33  C   UNL A   1      40.700  23.500  27.579  1.00  0.00     0.010 A 
ATOM     34  C   UNL A   1      39.289  24.955  26.259  1.00  0.00     0.010 A 
ATOM     35  C   UNL A   1      40.386  24.787  27.118  1.00  0.00    -0.014 A 
BRANCH  35  36
ATOM     36  C   UNL A   1      41.182  25.971  27.531  1.00  0.00     0.031 A 
ATOM     37  C   UNL A   1      40.539  27.071  28.329  1.00  0.00     0.074 A 
ATOM     38  C   UNL A   1      42.457  26.096  27.113  1.00  0.00     0.049 A 
ATOM     39  N   UNL A   1      41.029  28.231  28.689  1.00  0.00    -0.248 NA
ATOM     40  C   UNL A   1      39.147  26.849  28.745  1.00  0.00     0.031 C 
ATOM     41  C   UNL A   1      43.177  25.124  26.290  1.00  0.00     0.029 A 
ATOM     42  N   UNL A   1      43.365  27.105  27.307  1.00  0.00    -0.354 N 
ATOM     43  C   UNL A   1      39.998  28.889  29.351  1.00  0.00     0.074 A 
ATOM     44  C   UNL A   1      38.844  28.014  29.297  1.00  0.00     0.031 C 
ATOM     45  C   UNL A   1      44.417  25.582  26.054  1.00  0.00     0.029 A 
ATOM     46  C   UNL A   1      44.569  26.892  26.680  1.00  0.00     0.049 A 
ATOM     47  H   UNL A   1      43.173  27.906  27.846  1.00  0.00     0.167 HD
ATOM     48  C   UNL A   1      40.015  30.101  29.959  1.00  0.00     0.034 A 
ATOM     49  C   UNL A   1      45.667  27.668  26.604  1.00  0.00     0.034 A 
ATOM     50  C   UNL A   1      41.179  30.951  30.029  1.00  0.00     0.049 A 
ATOM     51  C   UNL A   1      45.676  28.996  27.307  1.00  0.00     0.074 A 
ATOM     52  C   UNL A   1      41.330  32.160  30.687  1.00  0.00     0.029 A 
ATOM     53  N   UNL A   1      42.393  30.683  29.411  1.00  0.00    -0.354 N 
ATOM     54  N   UNL A   1      44.709  29.585  27.971  1.00  0.00    -0.248 NA
ATOM     55  C   UNL A   1      46.930  29.760  27.259  1.00  0.00     0.031 C 
ATOM     56  C   UNL A   1      42.619  32.645  30.426  1.00  0.00     0.029 A 
ATOM     57  C   UNL A   1      43.290  31.713  29.651  1.00  0.00     0.049 A 
ATOM     58  H   UNL A   1      42.590  29.878  28.879  1.00  0.00     0.167 HD
ATOM     59  C   UNL A   1      45.243  30.783  28.434  1.00  0.00     0.074 A 
ATOM     60  C   UNL A   1      46.619  30.828  27.982  1.00  0.00     0.031 C 
ATOM     61  C   UNL A   1      44.651  31.755  29.172  1.00  0.00     0.034 A 
BRANCH  48  62
ATOM     62  C   UNL A   1      38.720  30.581  30.569  1.00  0.00     0.023 A 
ATOM     63  C   UNL A   1      37.764  31.282  29.813  1.00  0.00     0.031 A 
ATOM     64  C   UNL A   1      38.463  30.386  31.937  1.00  0.00     0.131 A 
ATOM     65  C   UNL A   1      36.644  31.843  30.447  1.00  0.00     0.055 A 
ATOM     66  C   UNL A   1      37.305  30.876  32.546  1.00  0.00     0.041 A 
ATOM     67  F   UNL A   1      39.347  29.740  32.713  1.00  0.00    -0.206 F 
ATOM     68  C   UNL A   1      36.396  31.625  31.803  1.00  0.00     0.022 A 
BRANCH  65  69
ATOM     69  S   UNL A   1      35.607  32.994  29.505  1.00  0.00     0.124 S 
ATOM     70  O   UNL A   1      36.506  33.381  28.420  1.00  0.00    -0.237 OA
ATOM     71  O   UNL A   1      34.472  32.160  29.128  1.00  0.00    -0.237 OA
ATOM     72  O   UNL A   1      35.311  34.054  30.466  1.00  0.00    -0.744 OA
ENDBRANCH  65  69
ENDBRANCH  48  62
BRANCH  49  73
ATOM     73  C   UNL A   1      46.843  27.213  25.819  1.00  0.00     0.023 A 
ATOM     74  C   UNL A   1      47.054  27.666  24.508  1.00  0.00     0.031 A 
ATOM     75  C   UNL A   1      47.770  26.313  26.371  1.00  0.00     0.131 A 
ATOM     76  C   UNL A   1      48.157  27.194  23.779  1.00  0.00     0.055 A 
ATOM     77  C   UNL A   1      48.882  25.871  25.654  1.00  0.00     0.041 A 
ATOM     78  F   UNL A   1      47.615  25.867  27.628  1.00  0.00    -0.206 F 
ATOM     79  C   UNL A   1      49.075  26.306  24.346  1.00  0.00     0.022 A 
BRANCH  76  80
ATOM     80  S   UNL A   1      48.359  27.739  22.062  1.00  0.00     0.124 S 
ATOM     81  O   UNL A   1      48.402  26.467  21.349  1.00  0.00    -0.237 OA
ATOM     82  O   UNL A   1      47.162  28.549  21.858  1.00  0.00    -0.237 OA
ATOM     83  O   UNL A   1      49.615  28.485  22.088  1.00  0.00    -0.744 OA
ENDBRANCH  76  80
ENDBRANCH  49  73
BRANCH  61  84
ATOM     84  C   UNL A   1      45.510  32.930  29.556  1.00  0.00     0.023 A 
ATOM     85  C   UNL A   1      45.578  34.082  28.753  1.00  0.00     0.031 A 
ATOM     86  C   UNL A   1      46.285  32.887  30.727  1.00  0.00     0.131 A 
ATOM     87  C   UNL A   1      46.442  35.129  29.111  1.00  0.00     0.055 A 
ATOM     88  C   UNL A   1      47.109  33.949  31.100  1.00  0.00     0.041 A 
ATOM     89  F   UNL A   1      46.255  31.807  31.524  1.00  0.00    -0.206 F 
ATOM     90  C   UNL A   1      47.198  35.074  30.284  1.00  0.00     0.022 A 
BRANCH  87  91
ATOM     91  S   UNL A   1      46.617  36.538  27.982  1.00  0.00     0.124 S 
ATOM     92  O   UNL A   1      45.813  36.114  26.839  1.00  0.00    -0.237 OA
ATOM     93  O   UNL A   1      46.074  37.640  28.769  1.00  0.00    -0.237 OA
ATOM     94  O   UNL A   1      48.056  36.604  27.736  1.00  0.00    -0.744 OA
ENDBRANCH  87  91
ENDBRANCH  61  84
ENDBRANCH  35  36
ENDBRANCH  27  30
ENDBRANCH  25  26
ENDBRANCH   1  25
TORSDOF 15
ENDMDL
