MODEL 1
REMARK VINA RESULT:     -12.1      0.000      0.000
REMARK SMILES Cc1nn(C)c(=O)c(C(=O)N2CCCC[C@H]2C(=O)NCCCNC(=O)c2ccc(-c3c4nc(c(-c5cc(S(=O)(=O)[O-])ccc5F)c5ccc([nH]5)c(-c5cc(S(=O)(=O)[O-])ccc5F)c5nc(c(-c6cc(S(=O)(=O)[O-])ccc6F)c6ccc3[nH]6)C=C5)C=C4)cc2)c1C
REMARK SMILES IDX 21 1 20 2 19 3 17 4 18 5 16 7 11 8 12 9 13 10 15 11 14 12
REMARK SMILES IDX 9 13 10 14 8 15 1 16 2 17 3 18 89 19 4 20 90 21 5 22 6 23
REMARK SMILES IDX 7 24 22 25 23 26 24 27 25 29 26 30 27 31 88 32 28 33 87 34
REMARK SMILES IDX 29 35 30 36 31 37 81 38 32 39 86 40 80 41 82 42 33 43 85 44
REMARK SMILES IDX 79 45 78 46 34 48 66 49 46 50 65 51 47 52 50 53 64 54 83 55
REMARK SMILES IDX 48 56 49 57 63 59 84 60 51 61 35 62 36 63 44 64 37 65 43 66
REMARK SMILES IDX 45 67 42 68 38 69 39 70 40 71 41 72 67 73 68 74 76 75 69 76
REMARK SMILES IDX 75 77 77 78 74 79 70 80 71 81 72 82 73 83 52 84 53 85 61 86
REMARK SMILES IDX 54 87 60 88 62 89 59 90 55 91 56 92 57 93 58 94
REMARK H PARENT 19 6 23 28 82 47 50 58
REMARK Flexibility Score: inf
ROOT
ATOM      1  C   UNL A   1      31.498  32.573  26.821  1.00  0.00     0.042 C 
ENDROOT
BRANCH   1   2
ATOM      2  C   UNL A   1      31.505  31.043  26.714  1.00  0.00     0.117 C 
BRANCH   2   3
ATOM      3  N   UNL A   1      32.380  30.617  25.641  1.00  0.00    -0.354 N 
ATOM      4  C   UNL A   1      32.587  29.384  25.103  1.00  0.00     0.242 C 
ATOM      5  O   UNL A   1      33.720  29.206  24.646  1.00  0.00    -0.273 OA
ATOM      6  H   UNL A   1      32.913  31.338  25.233  1.00  0.00     0.163 HD
BRANCH   4   7
ATOM      7  C   UNL A   1      31.455  28.314  24.995  1.00  0.00     0.174 C 
ATOM      8  N   UNL A   1      31.597  27.473  23.765  1.00  0.00    -0.326 N 
ATOM      9  C   UNL A   1      32.730  26.534  23.772  1.00  0.00     0.120 C 
ATOM     10  C   UNL A   1      32.749  25.645  25.008  1.00  0.00     0.022 C 
ATOM     11  C   UNL A   1      31.398  27.371  26.210  1.00  0.00     0.035 C 
ATOM     12  C   UNL A   1      32.626  26.465  26.283  1.00  0.00     0.004 C 
BRANCH   8  13
ATOM     13  C   UNL A   1      30.798  27.466  22.626  1.00  0.00     0.260 C 
ATOM     14  O   UNL A   1      31.217  27.017  21.553  1.00  0.00    -0.269 OA
BRANCH  13  15
ATOM     15  C   UNL A   1      29.437  28.086  22.594  1.00  0.00     0.111 A 
ATOM     16  C   UNL A   1      25.921  27.764  23.940  1.00  0.00     0.069 C 
ATOM     17  C   UNL A   1      27.208  28.402  23.466  1.00  0.00     0.062 A 
ATOM     18  N   UNL A   1      27.184  29.681  23.278  1.00  0.00    -0.175 NA
ATOM     19  C   UNL A   1      28.420  27.550  23.297  1.00  0.00    -0.010 A 
ATOM     20  N   UNL A   1      28.307  30.257  22.755  1.00  0.00    -0.232 N 
ATOM     21  C   UNL A   1      28.443  26.290  24.100  1.00  0.00     0.047 C 
ATOM     22  C   UNL A   1      28.306  31.709  22.730  1.00  0.00     0.178 C 
ATOM     23  C   UNL A   1      29.347  29.528  22.183  1.00  0.00     0.279 A 
ATOM     24  O   UNL A   1      30.179  30.024  21.425  1.00  0.00    -0.267 OA
ENDBRANCH  13  15
ENDBRANCH   8  13
ENDBRANCH   4   7
ENDBRANCH   2   3
ENDBRANCH   1   2
BRANCH   1  25
ATOM     25  C   UNL A   1      32.839  33.169  27.261  1.00  0.00     0.118 C 
BRANCH  25  26
ATOM     26  N   UNL A   1      32.669  34.439  27.949  1.00  0.00    -0.352 N 
ATOM     27  C   UNL A   1      33.228  34.870  29.127  1.00  0.00     0.251 C 
ATOM     28  H   UNL A   1      32.067  35.080  27.507  1.00  0.00     0.163 HD
ATOM     29  O   UNL A   1      32.762  35.855  29.688  1.00  0.00    -0.269 OA
BRANCH  27  30
ATOM     30  C   UNL A   1      34.379  34.147  29.710  1.00  0.00     0.039 A 
ATOM     31  C   UNL A   1      34.149  33.216  30.726  1.00  0.00     0.014 A 
ATOM     32  C   UNL A   1      35.684  34.422  29.290  1.00  0.00     0.014 A 
ATOM     33  C   UNL A   1      35.226  32.528  31.291  1.00  0.00     0.010 A 
ATOM     34  C   UNL A   1      36.751  33.694  29.815  1.00  0.00     0.010 A 
ATOM     35  C   UNL A   1      36.533  32.748  30.828  1.00  0.00    -0.014 A 
BRANCH  35  36
ATOM     36  C   UNL A   1      37.686  32.020  31.416  1.00  0.00     0.031 A 
ATOM     37  C   UNL A   1      38.202  32.406  32.775  1.00  0.00     0.074 A 
ATOM     38  C   UNL A   1      38.281  31.032  30.719  1.00  0.00     0.049 A 
ATOM     39  N   UNL A   1      39.230  31.936  33.433  1.00  0.00    -0.248 NA
ATOM     40  C   UNL A   1      37.477  33.475  33.480  1.00  0.00     0.031 C 
ATOM     41  C   UNL A   1      37.875  30.577  29.387  1.00  0.00     0.029 A 
ATOM     42  N   UNL A   1      39.348  30.229  31.033  1.00  0.00    -0.354 N 
ATOM     43  C   UNL A   1      39.277  32.650  34.624  1.00  0.00     0.074 A 
ATOM     44  C   UNL A   1      38.209  33.625  34.574  1.00  0.00     0.031 C 
ATOM     45  C   UNL A   1      38.661  29.554  29.015  1.00  0.00     0.029 A 
ATOM     46  C   UNL A   1      39.653  29.308  30.057  1.00  0.00     0.049 A 
ATOM     47  H   UNL A   1      39.849  30.305  31.876  1.00  0.00     0.167 HD
ATOM     48  C   UNL A   1      40.119  32.492  35.674  1.00  0.00     0.034 A 
ATOM     49  C   UNL A   1      40.624  28.375  30.008  1.00  0.00     0.034 A 
ATOM     50  C   UNL A   1      41.169  31.506  35.722  1.00  0.00     0.049 A 
ATOM     51  C   UNL A   1      41.575  28.247  31.167  1.00  0.00     0.074 A 
ATOM     52  C   UNL A   1      42.057  31.243  36.749  1.00  0.00     0.029 A 
ATOM     53  N   UNL A   1      41.469  30.618  34.698  1.00  0.00    -0.354 N 
ATOM     54  N   UNL A   1      41.607  28.935  32.285  1.00  0.00    -0.248 NA
ATOM     55  C   UNL A   1      42.622  27.222  31.060  1.00  0.00     0.031 C 
ATOM     56  C   UNL A   1      42.928  30.234  36.327  1.00  0.00     0.029 A 
ATOM     57  C   UNL A   1      42.545  29.824  35.060  1.00  0.00     0.049 A 
ATOM     58  H   UNL A   1      40.990  30.562  33.840  1.00  0.00     0.167 HD
ATOM     59  C   UNL A   1      42.666  28.413  33.021  1.00  0.00     0.074 A 
ATOM     60  C   UNL A   1      43.241  27.348  32.226  1.00  0.00     0.031 C 
ATOM     61  C   UNL A   1      43.116  28.778  34.247  1.00  0.00     0.034 A 
BRANCH  48  62
ATOM     62  C   UNL A   1      39.944  33.413  36.854  1.00  0.00     0.023 A 
ATOM     63  C   UNL A   1      40.773  34.532  37.037  1.00  0.00     0.031 A 
ATOM     64  C   UNL A   1      38.930  33.177  37.799  1.00  0.00     0.131 A 
ATOM     65  C   UNL A   1      40.606  35.347  38.167  1.00  0.00     0.055 A 
ATOM     66  C   UNL A   1      38.726  34.029  38.885  1.00  0.00     0.041 A 
ATOM     67  F   UNL A   1      38.121  32.112  37.682  1.00  0.00    -0.206 F 
ATOM     68  C   UNL A   1      39.573  35.118  39.079  1.00  0.00     0.022 A 
BRANCH  65  69
ATOM     69  S   UNL A   1      41.813  36.665  38.473  1.00  0.00     0.124 S 
ATOM     70  O   UNL A   1      42.725  36.015  39.411  1.00  0.00    -0.237 OA
ATOM     71  O   UNL A   1      42.346  36.924  37.141  1.00  0.00    -0.237 OA
ATOM     72  O   UNL A   1      41.006  37.742  39.042  1.00  0.00    -0.744 OA
ENDBRANCH  65  69
ENDBRANCH  48  62
BRANCH  49  73
ATOM     73  C   UNL A   1      40.745  27.487  28.818  1.00  0.00     0.023 A 
ATOM     74  C   UNL A   1      41.692  27.752  27.817  1.00  0.00     0.031 A 
ATOM     75  C   UNL A   1      39.918  26.360  28.668  1.00  0.00     0.131 A 
ATOM     76  C   UNL A   1      41.774  26.913  26.695  1.00  0.00     0.055 A 
ATOM     77  C   UNL A   1      40.030  25.507  27.570  1.00  0.00     0.041 A 
ATOM     78  F   UNL A   1      39.006  26.059  29.605  1.00  0.00    -0.206 F 
ATOM     79  C   UNL A   1      40.958  25.785  26.571  1.00  0.00     0.022 A 
BRANCH  76  80
ATOM     80  S   UNL A   1      42.951  27.330  25.380  1.00  0.00     0.124 S 
ATOM     81  O   UNL A   1      44.116  27.750  26.148  1.00  0.00    -0.237 OA
ATOM     82  O   UNL A   1      43.074  26.063  24.667  1.00  0.00    -0.237 OA
ATOM     83  O   UNL A   1      42.272  28.393  24.641  1.00  0.00    -0.744 OA
ENDBRANCH  76  80
ENDBRANCH  49  73
BRANCH  61  84
ATOM     84  C   UNL A   1      44.279  28.007  34.814  1.00  0.00     0.023 A 
ATOM     85  C   UNL A   1      44.090  26.792  35.491  1.00  0.00     0.031 A 
ATOM     86  C   UNL A   1      45.593  28.476  34.635  1.00  0.00     0.131 A 
ATOM     87  C   UNL A   1      45.201  26.096  35.992  1.00  0.00     0.055 A 
ATOM     88  C   UNL A   1      46.696  27.757  35.095  1.00  0.00     0.041 A 
ATOM     89  F   UNL A   1      45.823  29.632  33.992  1.00  0.00    -0.206 F 
ATOM     90  C   UNL A   1      46.502  26.562  35.783  1.00  0.00     0.022 A 
BRANCH  87  91
ATOM     91  S   UNL A   1      44.920  24.585  36.954  1.00  0.00     0.124 S 
ATOM     92  O   UNL A   1      46.282  24.103  37.163  1.00  0.00    -0.237 OA
ATOM     93  O   UNL A   1      44.234  25.089  38.140  1.00  0.00    -0.237 OA
ATOM     94  O   UNL A   1      44.099  23.762  36.068  1.00  0.00    -0.744 OA
ENDBRANCH  87  91
ENDBRANCH  61  84
ENDBRANCH  35  36
ENDBRANCH  27  30
ENDBRANCH  25  26
ENDBRANCH   1  25
TORSDOF 15
ENDMDL
MODEL 2
REMARK VINA RESULT:     -12.0      3.484      5.157
REMARK SMILES Cc1nn(C)c(=O)c(C(=O)N2CCCC[C@H]2C(=O)NCCCNC(=O)c2ccc(-c3c4nc(c(-c5cc(S(=O)(=O)[O-])ccc5F)c5ccc([nH]5)c(-c5cc(S(=O)(=O)[O-])ccc5F)c5nc(c(-c6cc(S(=O)(=O)[O-])ccc6F)c6ccc3[nH]6)C=C5)C=C4)cc2)c1C
REMARK SMILES IDX 21 1 20 2 19 3 17 4 18 5 16 7 11 8 12 9 13 10 15 11 14 12
REMARK SMILES IDX 9 13 10 14 8 15 1 16 2 17 3 18 89 19 4 20 90 21 5 22 6 23
REMARK SMILES IDX 7 24 22 25 23 26 24 27 25 29 26 30 27 31 88 32 28 33 87 34
REMARK SMILES IDX 29 35 30 36 31 37 81 38 32 39 86 40 80 41 82 42 33 43 85 44
REMARK SMILES IDX 79 45 78 46 34 48 66 49 46 50 65 51 47 52 50 53 64 54 83 55
REMARK SMILES IDX 48 56 49 57 63 59 84 60 51 61 35 62 36 63 44 64 37 65 43 66
REMARK SMILES IDX 45 67 42 68 38 69 39 70 40 71 41 72 67 73 68 74 76 75 69 76
REMARK SMILES IDX 75 77 77 78 74 79 70 80 71 81 72 82 73 83 52 84 53 85 61 86
REMARK SMILES IDX 54 87 60 88 62 89 59 90 55 91 56 92 57 93 58 94
REMARK H PARENT 19 6 23 28 82 47 50 58
REMARK Flexibility Score: inf
ROOT
ATOM      1  C   UNL A   1      31.917  29.059  26.207  1.00  0.00     0.042 C 
ENDROOT
BRANCH   1   2
ATOM      2  C   UNL A   1      31.777  28.027  27.332  1.00  0.00     0.117 C 
BRANCH   2   3
ATOM      3  N   UNL A   1      31.055  26.862  26.862  1.00  0.00    -0.354 N 
ATOM      4  C   UNL A   1      31.458  25.825  26.078  1.00  0.00     0.242 C 
ATOM      5  O   UNL A   1      30.564  25.319  25.394  1.00  0.00    -0.273 OA
ATOM      6  H   UNL A   1      30.117  26.812  27.159  1.00  0.00     0.163 HD
BRANCH   4   7
ATOM      7  C   UNL A   1      32.917  25.268  26.109  1.00  0.00     0.174 C 
ATOM      8  N   UNL A   1      33.017  23.927  25.450  1.00  0.00    -0.326 N 
ATOM      9  C   UNL A   1      32.857  23.931  23.987  1.00  0.00     0.120 C 
ATOM     10  C   UNL A   1      33.793  24.913  23.296  1.00  0.00     0.022 C 
ATOM     11  C   UNL A   1      33.935  26.204  25.432  1.00  0.00     0.035 C 
ATOM     12  C   UNL A   1      33.707  26.297  23.924  1.00  0.00     0.004 C 
BRANCH   8  13
ATOM     13  C   UNL A   1      33.241  22.689  26.043  1.00  0.00     0.260 C 
ATOM     14  O   UNL A   1      32.932  22.478  27.221  1.00  0.00    -0.269 OA
BRANCH  13  15
ATOM     15  C   UNL A   1      33.954  21.578  25.340  1.00  0.00     0.111 A 
ATOM     16  C   UNL A   1      37.370  20.118  24.653  1.00  0.00     0.069 C 
ATOM     17  C   UNL A   1      35.888  20.188  24.944  1.00  0.00     0.062 A 
ATOM     18  N   UNL A   1      35.223  19.085  24.831  1.00  0.00    -0.175 NA
ATOM     19  C   UNL A   1      35.297  21.483  25.389  1.00  0.00    -0.010 A 
ATOM     20  N   UNL A   1      33.868  19.152  24.992  1.00  0.00    -0.232 N 
ATOM     21  C   UNL A   1      36.247  22.443  26.028  1.00  0.00     0.047 C 
ATOM     22  C   UNL A   1      33.184  17.871  25.037  1.00  0.00     0.178 C 
ATOM     23  C   UNL A   1      33.156  20.349  25.008  1.00  0.00     0.279 A 
ATOM     24  O   UNL A   1      31.944  20.414  24.815  1.00  0.00    -0.267 OA
ENDBRANCH  13  15
ENDBRANCH   8  13
ENDBRANCH   4   7
ENDBRANCH   2   3
ENDBRANCH   1   2
BRANCH   1  25
ATOM     25  C   UNL A   1      33.254  29.806  26.215  1.00  0.00     0.118 C 
BRANCH  25  26
ATOM     26  N   UNL A   1      33.086  31.215  26.533  1.00  0.00    -0.352 N 
ATOM     27  C   UNL A   1      33.742  31.978  27.468  1.00  0.00     0.251 C 
ATOM     28  H   UNL A   1      32.406  31.688  26.003  1.00  0.00     0.163 HD
ATOM     29  O   UNL A   1      33.282  33.071  27.781  1.00  0.00    -0.269 OA
BRANCH  27  30
ATOM     30  C   UNL A   1      34.986  31.480  28.092  1.00  0.00     0.039 A 
ATOM     31  C   UNL A   1      34.979  30.227  28.711  1.00  0.00     0.014 A 
ATOM     32  C   UNL A   1      36.143  32.266  28.109  1.00  0.00     0.014 A 
ATOM     33  C   UNL A   1      36.145  29.744  29.310  1.00  0.00     0.010 A 
ATOM     34  C   UNL A   1      37.320  31.759  28.658  1.00  0.00     0.010 A 
ATOM     35  C   UNL A   1      37.329  30.497  29.272  1.00  0.00    -0.014 A 
BRANCH  35  36
ATOM     36  C   UNL A   1      38.577  29.994  29.900  1.00  0.00     0.031 A 
ATOM     37  C   UNL A   1      38.985  30.490  31.260  1.00  0.00     0.074 A 
ATOM     38  C   UNL A   1      39.352  29.113  29.237  1.00  0.00     0.049 A 
ATOM     39  N   UNL A   1      40.063  30.219  31.949  1.00  0.00    -0.248 NA
ATOM     40  C   UNL A   1      38.068  31.428  31.926  1.00  0.00     0.031 C 
ATOM     41  C   UNL A   1      39.064  28.569  27.908  1.00  0.00     0.029 A 
ATOM     42  N   UNL A   1      40.536  28.516  29.591  1.00  0.00    -0.354 N 
ATOM     43  C   UNL A   1      39.956  30.953  33.125  1.00  0.00     0.074 A 
ATOM     44  C   UNL A   1      38.736  31.724  33.031  1.00  0.00     0.031 C 
ATOM     45  C   UNL A   1      40.026  27.693  27.575  1.00  0.00     0.029 A 
ATOM     46  C   UNL A   1      41.020  27.644  28.643  1.00  0.00     0.049 A 
ATOM     47  H   UNL A   1      40.995  28.694  30.443  1.00  0.00     0.167 HD
ATOM     48  C   UNL A   1      40.787  30.964  34.195  1.00  0.00     0.034 A 
ATOM     49  C   UNL A   1      42.140  26.894  28.634  1.00  0.00     0.034 A 
ATOM     50  C   UNL A   1      41.992  30.179  34.286  1.00  0.00     0.049 A 
ATOM     51  C   UNL A   1      43.071  26.957  29.816  1.00  0.00     0.074 A 
ATOM     52  C   UNL A   1      42.887  30.094  35.338  1.00  0.00     0.029 A 
ATOM     53  N   UNL A   1      42.467  29.338  33.289  1.00  0.00    -0.354 N 
ATOM     54  N   UNL A   1      42.955  27.661  30.918  1.00  0.00    -0.248 NA
ATOM     55  C   UNL A   1      44.283  26.129  29.753  1.00  0.00     0.031 C 
ATOM     56  C   UNL A   1      43.931  29.246  34.956  1.00  0.00     0.029 A 
ATOM     57  C   UNL A   1      43.656  28.751  33.692  1.00  0.00     0.049 A 
ATOM     58  H   UNL A   1      42.026  29.183  32.423  1.00  0.00     0.167 HD
ATOM     59  C   UNL A   1      44.071  27.346  31.688  1.00  0.00     0.074 A 
ATOM     60  C   UNL A   1      44.843  26.383  30.929  1.00  0.00     0.031 C 
ATOM     61  C   UNL A   1      44.421  27.807  32.914  1.00  0.00     0.034 A 
BRANCH  48  62
ATOM     62  C   UNL A   1      40.425  31.862  35.350  1.00  0.00     0.023 A 
ATOM     63  C   UNL A   1      39.402  31.519  36.250  1.00  0.00     0.031 A 
ATOM     64  C   UNL A   1      41.117  33.066  35.562  1.00  0.00     0.131 A 
ATOM     65  C   UNL A   1      39.067  32.395  37.293  1.00  0.00     0.055 A 
ATOM     66  C   UNL A   1      40.823  33.903  36.639  1.00  0.00     0.041 A 
ATOM     67  F   UNL A   1      42.092  33.452  34.722  1.00  0.00    -0.206 F 
ATOM     68  C   UNL A   1      39.786  33.573  37.508  1.00  0.00     0.022 A 
BRANCH  65  69
ATOM     69  S   UNL A   1      37.618  32.015  38.315  1.00  0.00     0.124 S 
ATOM     70  O   UNL A   1      36.636  32.964  37.796  1.00  0.00    -0.237 OA
ATOM     71  O   UNL A   1      37.373  30.611  38.009  1.00  0.00    -0.237 OA
ATOM     72  O   UNL A   1      38.079  32.286  39.675  1.00  0.00    -0.744 OA
ENDBRANCH  65  69
ENDBRANCH  48  62
BRANCH  49  73
ATOM     73  C   UNL A   1      42.444  26.020  27.468  1.00  0.00     0.023 A 
ATOM     74  C   UNL A   1      42.024  24.681  27.444  1.00  0.00     0.031 A 
ATOM     75  C   UNL A   1      43.156  26.511  26.360  1.00  0.00     0.131 A 
ATOM     76  C   UNL A   1      42.341  23.870  26.343  1.00  0.00     0.055 A 
ATOM     77  C   UNL A   1      43.435  25.712  25.251  1.00  0.00     0.041 A 
ATOM     78  F   UNL A   1      43.568  27.788  26.332  1.00  0.00    -0.206 F 
ATOM     79  C   UNL A   1      43.032  24.380  25.241  1.00  0.00     0.022 A 
BRANCH  76  80
ATOM     80  S   UNL A   1      41.855  22.123  26.381  1.00  0.00     0.124 S 
ATOM     81  O   UNL A   1      42.509  21.608  25.184  1.00  0.00    -0.237 OA
ATOM     82  O   UNL A   1      42.407  21.680  27.656  1.00  0.00    -0.237 OA
ATOM     83  O   UNL A   1      40.395  22.176  26.323  1.00  0.00    -0.744 OA
ENDBRANCH  76  80
ENDBRANCH  49  73
BRANCH  61  84
ATOM     84  C   UNL A   1      45.687  27.263  33.522  1.00  0.00     0.023 A 
ATOM     85  C   UNL A   1      45.683  26.085  34.285  1.00  0.00     0.031 A 
ATOM     86  C   UNL A   1      46.915  27.909  33.295  1.00  0.00     0.131 A 
ATOM     87  C   UNL A   1      46.886  25.602  34.823  1.00  0.00     0.055 A 
ATOM     88  C   UNL A   1      48.113  27.399  33.794  1.00  0.00     0.041 A 
ATOM     89  F   UNL A   1      46.968  29.037  32.568  1.00  0.00    -0.206 F 
ATOM     90  C   UNL A   1      48.102  26.241  34.567  1.00  0.00     0.022 A 
BRANCH  87  91
ATOM     91  S   UNL A   1      46.836  24.140  35.894  1.00  0.00     0.124 S 
ATOM     92  O   UNL A   1      47.333  23.096  35.002  1.00  0.00    -0.237 OA
ATOM     93  O   UNL A   1      47.724  24.518  36.988  1.00  0.00    -0.237 OA
ATOM     94  O   UNL A   1      45.423  24.027  36.255  1.00  0.00    -0.744 OA
ENDBRANCH  87  91
ENDBRANCH  61  84
ENDBRANCH  35  36
ENDBRANCH  27  30
ENDBRANCH  25  26
ENDBRANCH   1  25
TORSDOF 15
ENDMDL
MODEL 3
REMARK VINA RESULT:     -12.0      5.515     10.664
REMARK SMILES Cc1nn(C)c(=O)c(C(=O)N2CCCC[C@H]2C(=O)NCCCNC(=O)c2ccc(-c3c4nc(c(-c5cc(S(=O)(=O)[O-])ccc5F)c5ccc([nH]5)c(-c5cc(S(=O)(=O)[O-])ccc5F)c5nc(c(-c6cc(S(=O)(=O)[O-])ccc6F)c6ccc3[nH]6)C=C5)C=C4)cc2)c1C
REMARK SMILES IDX 21 1 20 2 19 3 17 4 18 5 16 7 11 8 12 9 13 10 15 11 14 12
REMARK SMILES IDX 9 13 10 14 8 15 1 16 2 17 3 18 89 19 4 20 90 21 5 22 6 23
REMARK SMILES IDX 7 24 22 25 23 26 24 27 25 29 26 30 27 31 88 32 28 33 87 34
REMARK SMILES IDX 29 35 30 36 31 37 81 38 32 39 86 40 80 41 82 42 33 43 85 44
REMARK SMILES IDX 79 45 78 46 34 48 66 49 46 50 65 51 47 52 50 53 64 54 83 55
REMARK SMILES IDX 48 56 49 57 63 59 84 60 51 61 35 62 36 63 44 64 37 65 43 66
REMARK SMILES IDX 45 67 42 68 38 69 39 70 40 71 41 72 67 73 68 74 76 75 69 76
REMARK SMILES IDX 75 77 77 78 74 79 70 80 71 81 72 82 73 83 52 84 53 85 61 86
REMARK SMILES IDX 54 87 60 88 62 89 59 90 55 91 56 92 57 93 58 94
REMARK H PARENT 19 6 23 28 82 47 50 58
REMARK Flexibility Score: inf
ROOT
ATOM      1  C   UNL A   1      35.817  20.662  25.009  1.00  0.00     0.042 C 
ENDROOT
BRANCH   1   2
ATOM      2  C   UNL A   1      34.890  21.256  26.076  1.00  0.00     0.117 C 
BRANCH   2   3
ATOM      3  N   UNL A   1      35.162  22.669  26.251  1.00  0.00    -0.354 N 
ATOM      4  C   UNL A   1      34.562  23.762  25.706  1.00  0.00     0.242 C 
ATOM      5  O   UNL A   1      35.303  24.739  25.565  1.00  0.00    -0.273 OA
ATOM      6  H   UNL A   1      35.904  22.871  26.866  1.00  0.00     0.163 HD
BRANCH   4   7
ATOM      7  C   UNL A   1      33.038  23.801  25.368  1.00  0.00     0.174 C 
ATOM      8  N   UNL A   1      32.612  25.145  24.863  1.00  0.00    -0.326 N 
ATOM      9  C   UNL A   1      33.102  25.496  23.520  1.00  0.00     0.120 C 
ATOM     10  C   UNL A   1      32.782  24.431  22.480  1.00  0.00     0.022 C 
ATOM     11  C   UNL A   1      32.624  22.750  24.323  1.00  0.00     0.035 C 
ATOM     12  C   UNL A   1      33.218  23.050  22.948  1.00  0.00     0.004 C 
BRANCH   8  13
ATOM     13  C   UNL A   1      31.817  26.094  25.497  1.00  0.00     0.260 C 
ATOM     14  O   UNL A   1      31.126  25.797  26.477  1.00  0.00    -0.269 OA
BRANCH  13  15
ATOM     15  C   UNL A   1      31.666  27.490  24.982  1.00  0.00     0.111 A 
ATOM     16  C   UNL A   1      29.482  29.723  22.856  1.00  0.00     0.069 C 
ATOM     17  C   UNL A   1      30.385  29.277  23.984  1.00  0.00     0.062 A 
ATOM     18  N   UNL A   1      30.855  30.205  24.751  1.00  0.00    -0.175 NA
ATOM     19  C   UNL A   1      30.636  27.820  24.179  1.00  0.00    -0.010 A 
ATOM     20  N   UNL A   1      31.751  29.830  25.712  1.00  0.00    -0.232 N 
ATOM     21  C   UNL A   1      29.591  26.904  23.630  1.00  0.00     0.047 C 
ATOM     22  C   UNL A   1      32.112  30.867  26.663  1.00  0.00     0.178 C 
ATOM     23  C   UNL A   1      32.369  28.582  25.738  1.00  0.00     0.279 A 
ATOM     24  O   UNL A   1      33.397  28.353  26.371  1.00  0.00    -0.267 OA
ENDBRANCH  13  15
ENDBRANCH   8  13
ENDBRANCH   4   7
ENDBRANCH   2   3
ENDBRANCH   1   2
BRANCH   1  25
ATOM     25  C   UNL A   1      37.249  21.205  25.062  1.00  0.00     0.118 C 
BRANCH  25  26
ATOM     26  N   UNL A   1      38.195  20.195  25.509  1.00  0.00    -0.352 N 
ATOM     27  C   UNL A   1      39.497  20.346  25.918  1.00  0.00     0.251 C 
ATOM     28  H   UNL A   1      37.852  19.272  25.520  1.00  0.00     0.163 HD
ATOM     29  O   UNL A   1      40.219  19.359  25.999  1.00  0.00    -0.269 OA
BRANCH  27  30
ATOM     30  C   UNL A   1      40.019  21.689  26.251  1.00  0.00     0.039 A 
ATOM     31  C   UNL A   1      41.286  21.799  26.828  1.00  0.00     0.014 A 
ATOM     32  C   UNL A   1      39.241  22.832  26.040  1.00  0.00     0.014 A 
ATOM     33  C   UNL A   1      41.791  23.060  27.154  1.00  0.00     0.010 A 
ATOM     34  C   UNL A   1      39.769  24.093  26.313  1.00  0.00     0.010 A 
ATOM     35  C   UNL A   1      41.045  24.218  26.882  1.00  0.00    -0.014 A 
BRANCH  35  36
ATOM     36  C   UNL A   1      41.572  25.565  27.218  1.00  0.00     0.031 A 
ATOM     37  C   UNL A   1      42.930  25.984  26.723  1.00  0.00     0.074 A 
ATOM     38  C   UNL A   1      40.843  26.398  27.985  1.00  0.00     0.049 A 
ATOM     39  N   UNL A   1      43.590  27.088  26.956  1.00  0.00    -0.248 NA
ATOM     40  C   UNL A   1      43.647  25.025  25.867  1.00  0.00     0.031 C 
ATOM     41  C   UNL A   1      39.517  26.097  28.532  1.00  0.00     0.029 A 
ATOM     42  N   UNL A   1      41.107  27.667  28.435  1.00  0.00    -0.354 N 
ATOM     43  C   UNL A   1      44.798  26.958  26.281  1.00  0.00     0.074 A 
ATOM     44  C   UNL A   1      44.803  25.644  25.676  1.00  0.00     0.031 C 
ATOM     45  C   UNL A   1      39.072  27.166  29.213  1.00  0.00     0.029 A 
ATOM     46  C   UNL A   1      40.092  28.209  29.190  1.00  0.00     0.049 A 
ATOM     47  H   UNL A   1      41.943  28.145  28.236  1.00  0.00     0.167 HD
ATOM     48  C   UNL A   1      45.800  27.861  26.157  1.00  0.00     0.034 A 
ATOM     49  C   UNL A   1      39.998  29.408  29.798  1.00  0.00     0.034 A 
ATOM     50  C   UNL A   1      45.777  29.175  26.749  1.00  0.00     0.049 A 
ATOM     51  C   UNL A   1      41.144  30.378  29.683  1.00  0.00     0.074 A 
ATOM     52  C   UNL A   1      46.728  30.176  26.658  1.00  0.00     0.029 A 
ATOM     53  N   UNL A   1      44.749  29.671  27.538  1.00  0.00    -0.354 N 
ATOM     54  N   UNL A   1      42.281  30.235  29.042  1.00  0.00    -0.248 NA
ATOM     55  C   UNL A   1      40.996  31.667  30.372  1.00  0.00     0.031 C 
ATOM     56  C   UNL A   1      46.300  31.257  27.437  1.00  0.00     0.029 A 
ATOM     57  C   UNL A   1      45.054  30.954  27.962  1.00  0.00     0.049 A 
ATOM     58  H   UNL A   1      43.925  29.182  27.765  1.00  0.00     0.167 HD
ATOM     59  C   UNL A   1      42.977  31.424  29.238  1.00  0.00     0.074 A 
ATOM     60  C   UNL A   1      42.129  32.276  30.047  1.00  0.00     0.031 C 
ATOM     61  C   UNL A   1      44.203  31.781  28.783  1.00  0.00     0.034 A 
BRANCH  48  62
ATOM     62  C   UNL A   1      47.011  27.454  25.356  1.00  0.00     0.023 A 
ATOM     63  C   UNL A   1      47.162  27.837  24.013  1.00  0.00     0.031 A 
ATOM     64  C   UNL A   1      48.030  26.686  25.945  1.00  0.00     0.131 A 
ATOM     65  C   UNL A   1      48.283  27.410  23.287  1.00  0.00     0.055 A 
ATOM     66  C   UNL A   1      49.175  26.320  25.237  1.00  0.00     0.041 A 
ATOM     67  F   UNL A   1      47.928  26.278  27.220  1.00  0.00    -0.206 F 
ATOM     68  C   UNL A   1      49.303  26.675  23.896  1.00  0.00     0.022 A 
BRANCH  65  69
ATOM     69  S   UNL A   1      48.351  27.758  21.509  1.00  0.00     0.124 S 
ATOM     70  O   UNL A   1      49.391  28.782  21.449  1.00  0.00    -0.237 OA
ATOM     71  O   UNL A   1      48.700  26.460  20.944  1.00  0.00    -0.237 OA
ATOM     72  O   UNL A   1      47.003  28.229  21.201  1.00  0.00    -0.744 OA
ENDBRANCH  65  69
ENDBRANCH  48  62
BRANCH  49  73
ATOM     73  C   UNL A   1      38.774  29.759  30.570  1.00  0.00     0.023 A 
ATOM     74  C   UNL A   1      37.807  30.623  30.033  1.00  0.00     0.031 A 
ATOM     75  C   UNL A   1      38.554  29.234  31.856  1.00  0.00     0.131 A 
ATOM     76  C   UNL A   1      36.673  30.955  30.788  1.00  0.00     0.055 A 
ATOM     77  C   UNL A   1      37.405  29.537  32.587  1.00  0.00     0.041 A 
ATOM     78  F   UNL A   1      39.445  28.395  32.407  1.00  0.00    -0.206 F 
ATOM     79  C   UNL A   1      36.459  30.409  32.057  1.00  0.00     0.022 A 
BRANCH  76  80
ATOM     80  S   UNL A   1      35.484  32.138  30.098  1.00  0.00     0.124 S 
ATOM     81  O   UNL A   1      35.004  31.424  28.922  1.00  0.00    -0.237 OA
ATOM     82  O   UNL A   1      34.531  32.287  31.193  1.00  0.00    -0.237 OA
ATOM     83  O   UNL A   1      36.301  33.319  29.824  1.00  0.00    -0.744 OA
ENDBRANCH  76  80
ENDBRANCH  49  73
BRANCH  61  84
ATOM     84  C   UNL A   1      44.697  33.160  29.134  1.00  0.00     0.023 A 
ATOM     85  C   UNL A   1      44.336  34.282  28.372  1.00  0.00     0.031 A 
ATOM     86  C   UNL A   1      45.502  33.354  30.271  1.00  0.00     0.131 A 
ATOM     87  C   UNL A   1      44.805  35.552  28.740  1.00  0.00     0.055 A 
ATOM     88  C   UNL A   1      45.926  34.625  30.658  1.00  0.00     0.041 A 
ATOM     89  F   UNL A   1      45.870  32.311  31.033  1.00  0.00    -0.206 F 
ATOM     90  C   UNL A   1      45.582  35.733  29.887  1.00  0.00     0.022 A 
BRANCH  87  91
ATOM     91  S   UNL A   1      44.413  36.967  27.677  1.00  0.00     0.124 S 
ATOM     92  O   UNL A   1      45.711  37.264  27.078  1.00  0.00    -0.237 OA
ATOM     93  O   UNL A   1      43.407  36.415  26.775  1.00  0.00    -0.237 OA
ATOM     94  O   UNL A   1      43.917  37.974  28.614  1.00  0.00    -0.744 OA
ENDBRANCH  87  91
ENDBRANCH  61  84
ENDBRANCH  35  36
ENDBRANCH  27  30
ENDBRANCH  25  26
ENDBRANCH   1  25
TORSDOF 15
ENDMDL
