MODEL 1
REMARK VINA RESULT:     -12.2      0.000      0.000
REMARK SMILES CC(C)CSc1cc2c(cc1Cl)C=C(C(=O)NCCCNC(=O)c1ccc(-c3c4nc(c(-c5cc(S(=O)(=O)[O-])ccc5F)c5ccc([nH]5)c(-c5cc(S(=O)(=O)[O-])ccc5F)c5nc(c(-c6cc(S(=O)(=O)[O-])ccc6F)c6ccc3[nH]6)C=C5)C=C4)cc1)[C@@H](C(F)(F)F)O2
REMARK SMILES IDX 19 1 18 2 17 3 15 4 16 5 14 7 6 8 7 9 11 10 8 11 10 12 12 13
REMARK SMILES IDX 9 14 92 15 13 16 87 17 5 18 4 19 2 20 1 21 3 22 88 23 89 24
REMARK SMILES IDX 90 25 91 26 20 27 21 28 22 29 23 31 24 32 25 33 86 34 26 35
REMARK SMILES IDX 85 36 27 37 28 38 29 39 79 40 30 41 84 42 78 43 80 44 31 45
REMARK SMILES IDX 83 46 77 47 76 48 32 50 64 51 44 52 63 53 45 54 48 55 62 56
REMARK SMILES IDX 81 57 46 58 47 59 61 61 82 62 49 63 33 64 34 65 42 66 35 67
REMARK SMILES IDX 41 68 43 69 40 70 36 71 37 72 38 73 39 74 65 75 66 76 74 77
REMARK SMILES IDX 67 78 73 79 75 80 72 81 68 82 69 83 70 84 71 85 50 86 51 87
REMARK SMILES IDX 59 88 52 89 58 90 60 91 57 92 53 93 54 94 55 95 56 96
REMARK H PARENT 17 6 21 30 80 49 48 60
REMARK Flexibility Score: inf
ROOT
ATOM      1  C   UNL A   1      37.807  19.956  24.837  1.00  0.00     0.042 C 
ENDROOT
BRANCH   1   2
ATOM      2  C   UNL A   1      36.498  20.662  25.146  1.00  0.00     0.118 C 
BRANCH   2   3
ATOM      3  N   UNL A   1      35.345  19.783  24.985  1.00  0.00    -0.352 N 
ATOM      4  C   UNL A   1      34.001  19.908  24.878  1.00  0.00     0.251 C 
ATOM      5  O   UNL A   1      33.380  18.850  24.730  1.00  0.00    -0.270 OA
ATOM      6  H   UNL A   1      35.620  18.838  24.942  1.00  0.00     0.163 HD
BRANCH   4   7
ATOM      7  C   UNL A   1      33.255  21.199  24.923  1.00  0.00     0.067 C 
ATOM      8  C   UNL A   1      30.939  25.535  23.725  1.00  0.00     0.030 A 
ATOM      9  C   UNL A   1      31.055  24.740  24.862  1.00  0.00     0.063 A 
ATOM     10  C   UNL A   1      31.715  25.167  22.605  1.00  0.00     0.055 A 
ATOM     11  C   UNL A   1      31.787  23.559  24.853  1.00  0.00     0.129 A 
ATOM     12  C   UNL A   1      32.511  24.005  22.621  1.00  0.00     0.033 A 
ATOM     13  Cl  UNL A   1      31.737  26.101  21.145  1.00  0.00    -0.083 Cl
ATOM     14  C   UNL A   1      32.524  23.176  23.743  1.00  0.00     0.019 A 
ATOM     15  O   UNL A   1      31.641  22.797  25.968  1.00  0.00    -0.475 OA
ATOM     16  C   UNL A   1      33.243  21.910  23.779  1.00  0.00     0.025 C 
ATOM     17  C   UNL A   1      32.566  21.704  26.158  1.00  0.00     0.314 C 
BRANCH   8  18
ATOM     18  S   UNL A   1      29.784  26.913  23.675  1.00  0.00    -0.124 SA
BRANCH  18  19
ATOM     19  C   UNL A   1      30.765  28.414  24.095  1.00  0.00     0.078 C 
BRANCH  19  20
ATOM     20  C   UNL A   1      32.041  28.204  24.940  1.00  0.00    -0.007 C 
ATOM     21  C   UNL A   1      33.369  28.446  24.221  1.00  0.00     0.008 C 
ATOM     22  C   UNL A   1      31.981  29.134  26.160  1.00  0.00     0.008 C 
ENDBRANCH  19  20
ENDBRANCH  18  19
ENDBRANCH   8  18
BRANCH  17  23
ATOM     23  C   UNL A   1      33.535  22.125  27.276  1.00  0.00     0.429 C 
ATOM     24  F   UNL A   1      34.295  21.069  27.661  1.00  0.00    -0.167 F 
ATOM     25  F   UNL A   1      34.392  23.101  26.903  1.00  0.00    -0.167 F 
ATOM     26  F   UNL A   1      32.883  22.573  28.375  1.00  0.00    -0.167 F 
ENDBRANCH  17  23
ENDBRANCH   4   7
ENDBRANCH   2   3
ENDBRANCH   1   2
BRANCH   1  27
ATOM     27  C   UNL A   1      38.938  20.422  25.743  1.00  0.00     0.118 C 
BRANCH  27  28
ATOM     28  N   UNL A   1      39.969  19.398  25.905  1.00  0.00    -0.352 N 
ATOM     29  C   UNL A   1      41.329  19.518  26.090  1.00  0.00     0.251 C 
ATOM     30  H   UNL A   1      39.637  18.472  25.878  1.00  0.00     0.163 HD
ATOM     31  O   UNL A   1      42.043  18.533  25.968  1.00  0.00    -0.269 OA
BRANCH  29  32
ATOM     32  C   UNL A   1      41.914  20.839  26.405  1.00  0.00     0.039 A 
ATOM     33  C   UNL A   1      42.205  21.180  27.724  1.00  0.00     0.014 A 
ATOM     34  C   UNL A   1      42.162  21.752  25.376  1.00  0.00     0.014 A 
ATOM     35  C   UNL A   1      42.524  22.493  28.039  1.00  0.00     0.010 A 
ATOM     36  C   UNL A   1      42.606  23.041  25.686  1.00  0.00     0.010 A 
ATOM     37  C   UNL A   1      42.734  23.441  27.025  1.00  0.00    -0.014 A 
BRANCH  37  38
ATOM     38  C   UNL A   1      43.094  24.832  27.407  1.00  0.00     0.031 A 
ATOM     39  C   UNL A   1      44.431  25.415  27.037  1.00  0.00     0.074 A 
ATOM     40  C   UNL A   1      42.168  25.596  28.019  1.00  0.00     0.049 A 
ATOM     41  N   UNL A   1      44.886  26.624  27.248  1.00  0.00    -0.248 NA
ATOM     42  C   UNL A   1      45.385  24.532  26.346  1.00  0.00     0.031 C 
ATOM     43  C   UNL A   1      40.836  25.132  28.413  1.00  0.00     0.029 A 
ATOM     44  N   UNL A   1      42.178  26.920  28.380  1.00  0.00    -0.354 N 
ATOM     45  C   UNL A   1      46.178  26.641  26.737  1.00  0.00     0.074 A 
ATOM     46  C   UNL A   1      46.451  25.313  26.236  1.00  0.00     0.031 C 
ATOM     47  C   UNL A   1      40.130  26.169  28.883  1.00  0.00     0.029 A 
ATOM     48  C   UNL A   1      40.985  27.353  28.915  1.00  0.00     0.049 A 
ATOM     49  H   UNL A   1      42.962  27.504  28.269  1.00  0.00     0.167 HD
ATOM     50  C   UNL A   1      47.049  27.678  26.679  1.00  0.00     0.034 A 
ATOM     51  C   UNL A   1      40.616  28.559  29.390  1.00  0.00     0.034 A 
ATOM     52  C   UNL A   1      46.751  29.001  27.165  1.00  0.00     0.049 A 
ATOM     53  C   UNL A   1      41.611  29.687  29.337  1.00  0.00     0.074 A 
ATOM     54  C   UNL A   1      47.563  30.121  27.147  1.00  0.00     0.029 A 
ATOM     55  N   UNL A   1      45.550  29.389  27.744  1.00  0.00    -0.354 N 
ATOM     56  N   UNL A   1      42.825  29.688  28.837  1.00  0.00    -0.248 NA
ATOM     57  C   UNL A   1      41.198  30.973  29.913  1.00  0.00     0.031 C 
ATOM     58  C   UNL A   1      46.877  31.168  27.763  1.00  0.00     0.029 A 
ATOM     59  C   UNL A   1      45.609  30.725  28.104  1.00  0.00     0.049 A 
ATOM     60  H   UNL A   1      44.771  28.801  27.878  1.00  0.00     0.167 HD
ATOM     61  C   UNL A   1      43.319  30.974  29.032  1.00  0.00     0.074 A 
ATOM     62  C   UNL A   1      42.257  31.732  29.662  1.00  0.00     0.031 C 
ATOM     63  C   UNL A   1      44.542  31.474  28.725  1.00  0.00     0.034 A 
BRANCH  50  64
ATOM     64  C   UNL A   1      48.408  27.447  26.063  1.00  0.00     0.023 A 
ATOM     65  C   UNL A   1      48.585  27.590  24.674  1.00  0.00     0.031 A 
ATOM     66  C   UNL A   1      49.489  26.969  26.824  1.00  0.00     0.131 A 
ATOM     67  C   UNL A   1      49.804  27.228  24.085  1.00  0.00     0.055 A 
ATOM     68  C   UNL A   1      50.714  26.646  26.239  1.00  0.00     0.041 A 
ATOM     69  F   UNL A   1      49.372  26.817  28.153  1.00  0.00    -0.206 F 
ATOM     70  C   UNL A   1      50.871  26.763  24.861  1.00  0.00     0.022 A 
BRANCH  67  71
ATOM     71  S   UNL A   1      50.034  27.286  22.287  1.00  0.00     0.124 S 
ATOM     72  O   UNL A   1      48.954  26.418  21.820  1.00  0.00    -0.237 OA
ATOM     73  O   UNL A   1      49.860  28.706  22.002  1.00  0.00    -0.237 OA
ATOM     74  O   UNL A   1      51.380  26.761  22.088  1.00  0.00    -0.744 OA
ENDBRANCH  67  71
ENDBRANCH  50  64
BRANCH  51  75
ATOM     75  C   UNL A   1      39.229  28.740  29.910  1.00  0.00     0.023 A 
ATOM     76  C   UNL A   1      38.235  29.342  29.115  1.00  0.00     0.031 A 
ATOM     77  C   UNL A   1      38.914  28.442  31.245  1.00  0.00     0.131 A 
ATOM     78  C   UNL A   1      37.013  29.713  29.688  1.00  0.00     0.055 A 
ATOM     79  C   UNL A   1      37.663  28.739  31.791  1.00  0.00     0.041 A 
ATOM     80  F   UNL A   1      39.831  27.879  32.047  1.00  0.00    -0.206 F 
ATOM     81  C   UNL A   1      36.713  29.399  31.017  1.00  0.00     0.022 A 
BRANCH  78  82
ATOM     82  S   UNL A   1      35.843  30.760  28.776  1.00  0.00     0.124 S 
ATOM     83  O   UNL A   1      36.735  31.546  27.929  1.00  0.00    -0.237 OA
ATOM     84  O   UNL A   1      35.029  29.763  28.084  1.00  0.00    -0.237 OA
ATOM     85  O   UNL A   1      35.152  31.500  29.827  1.00  0.00    -0.744 OA
ENDBRANCH  78  82
ENDBRANCH  51  75
BRANCH  63  86
ATOM     86  C   UNL A   1      44.833  32.917  29.065  1.00  0.00     0.023 A 
ATOM     87  C   UNL A   1      44.524  33.933  28.141  1.00  0.00     0.031 A 
ATOM     88  C   UNL A   1      45.552  33.261  30.221  1.00  0.00     0.131 A 
ATOM     89  C   UNL A   1      44.972  35.239  28.369  1.00  0.00     0.055 A 
ATOM     90  C   UNL A   1      45.956  34.574  30.467  1.00  0.00     0.041 A 
ATOM     91  F   UNL A   1      45.878  32.324  31.126  1.00  0.00    -0.206 F 
ATOM     92  C   UNL A   1      45.679  35.566  29.531  1.00  0.00     0.022 A 
BRANCH  89  93
ATOM     93  S   UNL A   1      44.735  36.539  27.127  1.00  0.00     0.124 S 
ATOM     94  O   UNL A   1      44.629  37.735  27.958  1.00  0.00    -0.237 OA
ATOM     95  O   UNL A   1      45.960  36.435  26.336  1.00  0.00    -0.237 OA
ATOM     96  O   UNL A   1      43.510  36.150  26.438  1.00  0.00    -0.744 OA
ENDBRANCH  89  93
ENDBRANCH  63  86
ENDBRANCH  37  38
ENDBRANCH  29  32
ENDBRANCH  27  28
ENDBRANCH   1  27
TORSDOF 17
ENDMDL
MODEL 2
REMARK VINA RESULT:     -12.1      1.708      2.079
REMARK SMILES CC(C)CSc1cc2c(cc1Cl)C=C(C(=O)NCCCNC(=O)c1ccc(-c3c4nc(c(-c5cc(S(=O)(=O)[O-])ccc5F)c5ccc([nH]5)c(-c5cc(S(=O)(=O)[O-])ccc5F)c5nc(c(-c6cc(S(=O)(=O)[O-])ccc6F)c6ccc3[nH]6)C=C5)C=C4)cc1)[C@@H](C(F)(F)F)O2
REMARK SMILES IDX 19 1 18 2 17 3 15 4 16 5 14 7 6 8 7 9 11 10 8 11 10 12 12 13
REMARK SMILES IDX 9 14 92 15 13 16 87 17 5 18 4 19 2 20 1 21 3 22 88 23 89 24
REMARK SMILES IDX 90 25 91 26 20 27 21 28 22 29 23 31 24 32 25 33 86 34 26 35
REMARK SMILES IDX 85 36 27 37 28 38 29 39 79 40 30 41 84 42 78 43 80 44 31 45
REMARK SMILES IDX 83 46 77 47 76 48 32 50 64 51 44 52 63 53 45 54 48 55 62 56
REMARK SMILES IDX 81 57 46 58 47 59 61 61 82 62 49 63 33 64 34 65 42 66 35 67
REMARK SMILES IDX 41 68 43 69 40 70 36 71 37 72 38 73 39 74 65 75 66 76 74 77
REMARK SMILES IDX 67 78 73 79 75 80 72 81 68 82 69 83 70 84 71 85 50 86 51 87
REMARK SMILES IDX 59 88 52 89 58 90 60 91 57 92 53 93 54 94 55 95 56 96
REMARK H PARENT 17 6 21 30 80 49 48 60
REMARK Flexibility Score: inf
ROOT
ATOM      1  C   UNL A   1      38.206  20.295  25.020  1.00  0.00     0.042 C 
ENDROOT
BRANCH   1   2
ATOM      2  C   UNL A   1      36.930  21.010  25.429  1.00  0.00     0.118 C 
BRANCH   2   3
ATOM      3  N   UNL A   1      35.734  20.277  25.031  1.00  0.00    -0.352 N 
ATOM      4  C   UNL A   1      34.423  20.542  24.823  1.00  0.00     0.251 C 
ATOM      5  O   UNL A   1      33.737  19.581  24.458  1.00  0.00    -0.270 OA
ATOM      6  H   UNL A   1      35.936  19.327  24.869  1.00  0.00     0.163 HD
BRANCH   4   7
ATOM      7  C   UNL A   1      33.782  21.878  24.998  1.00  0.00     0.067 C 
ATOM      8  C   UNL A   1      32.132  26.617  24.346  1.00  0.00     0.030 A 
ATOM      9  C   UNL A   1      31.918  25.597  25.270  1.00  0.00     0.063 A 
ATOM     10  C   UNL A   1      33.124  26.394  23.367  1.00  0.00     0.055 A 
ATOM     11  C   UNL A   1      32.544  24.363  25.151  1.00  0.00     0.129 A 
ATOM     12  C   UNL A   1      33.808  25.166  23.290  1.00  0.00     0.033 A 
ATOM     13  Cl  UNL A   1      33.559  27.598  22.198  1.00  0.00    -0.083 Cl
ATOM     14  C   UNL A   1      33.495  24.129  24.170  1.00  0.00     0.019 A 
ATOM     15  O   UNL A   1      32.083  23.413  26.005  1.00  0.00    -0.475 OA
ATOM     16  C   UNL A   1      34.092  22.805  24.071  1.00  0.00     0.025 C 
ATOM     17  C   UNL A   1      32.856  22.200  26.137  1.00  0.00     0.314 C 
BRANCH   8  18
ATOM     18  S   UNL A   1      31.123  28.106  24.363  1.00  0.00    -0.124 SA
BRANCH  18  19
ATOM     19  C   UNL A   1      32.211  29.451  24.994  1.00  0.00     0.078 C 
BRANCH  19  20
ATOM     20  C   UNL A   1      32.720  29.317  26.447  1.00  0.00    -0.007 C 
ATOM     21  C   UNL A   1      31.777  28.616  27.426  1.00  0.00     0.008 C 
ATOM     22  C   UNL A   1      34.050  28.550  26.433  1.00  0.00     0.008 C 
ENDBRANCH  19  20
ENDBRANCH  18  19
ENDBRANCH   8  18
BRANCH  17  23
ATOM     23  C   UNL A   1      33.559  22.261  27.504  1.00  0.00     0.429 C 
ATOM     24  F   UNL A   1      34.515  23.224  27.497  1.00  0.00    -0.167 F 
ATOM     25  F   UNL A   1      32.723  22.557  28.523  1.00  0.00    -0.167 F 
ATOM     26  F   UNL A   1      34.167  21.093  27.819  1.00  0.00    -0.167 F 
ENDBRANCH  17  23
ENDBRANCH   4   7
ENDBRANCH   2   3
ENDBRANCH   1   2
BRANCH   1  27
ATOM     27  C   UNL A   1      39.359  20.591  25.968  1.00  0.00     0.118 C 
BRANCH  27  28
ATOM     28  N   UNL A   1      40.330  19.499  26.010  1.00  0.00    -0.352 N 
ATOM     29  C   UNL A   1      41.706  19.524  26.070  1.00  0.00     0.251 C 
ATOM     30  H   UNL A   1      39.935  18.597  25.995  1.00  0.00     0.163 HD
ATOM     31  O   UNL A   1      42.338  18.499  25.860  1.00  0.00    -0.269 OA
BRANCH  29  32
ATOM     32  C   UNL A   1      42.405  20.795  26.357  1.00  0.00     0.039 A 
ATOM     33  C   UNL A   1      42.688  21.158  27.672  1.00  0.00     0.014 A 
ATOM     34  C   UNL A   1      42.770  21.640  25.305  1.00  0.00     0.014 A 
ATOM     35  C   UNL A   1      43.121  22.445  27.951  1.00  0.00     0.010 A 
ATOM     36  C   UNL A   1      43.326  22.892  25.584  1.00  0.00     0.010 A 
ATOM     37  C   UNL A   1      43.452  23.330  26.912  1.00  0.00    -0.014 A 
BRANCH  37  38
ATOM     38  C   UNL A   1      43.932  24.695  27.255  1.00  0.00     0.031 A 
ATOM     39  C   UNL A   1      45.352  25.108  26.977  1.00  0.00     0.074 A 
ATOM     40  C   UNL A   1      43.049  25.587  27.745  1.00  0.00     0.049 A 
ATOM     41  N   UNL A   1      45.920  26.271  27.169  1.00  0.00    -0.248 NA
ATOM     42  C   UNL A   1      46.256  24.089  26.418  1.00  0.00     0.031 C 
ATOM     43  C   UNL A   1      41.646  25.293  28.040  1.00  0.00     0.029 A 
ATOM     44  N   UNL A   1      43.177  26.921  28.040  1.00  0.00    -0.354 N 
ATOM     45  C   UNL A   1      47.244  26.120  26.775  1.00  0.00     0.074 A 
ATOM     46  C   UNL A   1      47.408  24.744  26.365  1.00  0.00     0.031 C 
ATOM     47  C   UNL A   1      41.024  26.424  28.395  1.00  0.00     0.029 A 
ATOM     48  C   UNL A   1      41.999  27.510  28.444  1.00  0.00     0.049 A 
ATOM     49  H   UNL A   1      44.028  27.410  27.971  1.00  0.00     0.167 HD
ATOM     50  C   UNL A   1      48.227  27.053  26.744  1.00  0.00     0.034 A 
ATOM     51  C   UNL A   1      41.730  28.774  28.825  1.00  0.00     0.034 A 
ATOM     52  C   UNL A   1      48.039  28.427  27.136  1.00  0.00     0.049 A 
ATOM     53  C   UNL A   1      42.846  29.784  28.806  1.00  0.00     0.074 A 
ATOM     54  C   UNL A   1      48.970  29.450  27.136  1.00  0.00     0.029 A 
ATOM     55  N   UNL A   1      46.845  28.974  27.586  1.00  0.00    -0.354 N 
ATOM     56  N   UNL A   1      44.089  29.626  28.416  1.00  0.00    -0.248 NA
ATOM     57  C   UNL A   1      42.532  31.138  29.279  1.00  0.00     0.031 C 
ATOM     58  C   UNL A   1      48.356  30.599  27.636  1.00  0.00     0.029 A 
ATOM     59  C   UNL A   1      47.022  30.315  27.884  1.00  0.00     0.049 A 
ATOM     60  H   UNL A   1      45.997  28.481  27.679  1.00  0.00     0.167 HD
ATOM     61  C   UNL A   1      44.705  30.861  28.591  1.00  0.00     0.074 A 
ATOM     62  C   UNL A   1      43.687  31.764  29.087  1.00  0.00     0.031 C 
ATOM     63  C   UNL A   1      45.998  31.209  28.371  1.00  0.00     0.034 A 
BRANCH  50  64
ATOM     64  C   UNL A   1      49.598  26.642  26.263  1.00  0.00     0.023 A 
ATOM     65  C   UNL A   1      50.069  27.087  25.013  1.00  0.00     0.031 A 
ATOM     66  C   UNL A   1      50.382  25.719  26.977  1.00  0.00     0.131 A 
ATOM     67  C   UNL A   1      51.272  26.584  24.502  1.00  0.00     0.055 A 
ATOM     68  C   UNL A   1      51.599  25.250  26.481  1.00  0.00     0.041 A 
ATOM     69  F   UNL A   1      49.978  25.266  28.176  1.00  0.00    -0.206 F 
ATOM     70  C   UNL A   1      52.042  25.673  25.232  1.00  0.00     0.022 A 
BRANCH  67  71
ATOM     71  S   UNL A   1      51.855  27.042  22.846  1.00  0.00     0.124 S 
ATOM     72  O   UNL A   1      52.879  26.028  22.600  1.00  0.00    -0.237 OA
ATOM     73  O   UNL A   1      50.641  26.909  22.047  1.00  0.00    -0.237 OA
ATOM     74  O   UNL A   1      52.357  28.401  23.014  1.00  0.00    -0.744 OA
ENDBRANCH  67  71
ENDBRANCH  50  64
BRANCH  51  75
ATOM     75  C   UNL A   1      40.333  29.132  29.210  1.00  0.00     0.023 A 
ATOM     76  C   UNL A   1      39.928  29.101  30.557  1.00  0.00     0.031 A 
ATOM     77  C   UNL A   1      39.354  29.374  28.233  1.00  0.00     0.131 A 
ATOM     78  C   UNL A   1      38.570  29.212  30.881  1.00  0.00     0.055 A 
ATOM     79  C   UNL A   1      38.012  29.566  28.567  1.00  0.00     0.041 A 
ATOM     80  F   UNL A   1      39.687  29.401  26.933  1.00  0.00    -0.206 F 
ATOM     81  C   UNL A   1      37.611  29.462  29.896  1.00  0.00     0.022 A 
BRANCH  78  82
ATOM     82  S   UNL A   1      37.989  28.868  32.567  1.00  0.00     0.124 S 
ATOM     83  O   UNL A   1      38.893  29.684  33.372  1.00  0.00    -0.237 OA
ATOM     84  O   UNL A   1      36.605  29.332  32.504  1.00  0.00    -0.237 OA
ATOM     85  O   UNL A   1      38.152  27.424  32.699  1.00  0.00    -0.744 OA
ENDBRANCH  78  82
ENDBRANCH  51  75
BRANCH  63  86
ATOM     86  C   UNL A   1      46.419  32.629  28.664  1.00  0.00     0.023 A 
ATOM     87  C   UNL A   1      46.509  33.566  27.618  1.00  0.00     0.031 A 
ATOM     88  C   UNL A   1      46.876  33.004  29.938  1.00  0.00     0.131 A 
ATOM     89  C   UNL A   1      47.086  34.819  27.854  1.00  0.00     0.055 A 
ATOM     90  C   UNL A   1      47.408  34.271  30.180  1.00  0.00     0.041 A 
ATOM     91  F   UNL A   1      46.820  32.140  30.964  1.00  0.00    -0.206 F 
ATOM     92  C   UNL A   1      47.529  35.179  29.132  1.00  0.00     0.022 A 
BRANCH  89  93
ATOM     93  S   UNL A   1      47.369  35.990  26.499  1.00  0.00     0.124 S 
ATOM     94  O   UNL A   1      48.551  36.711  26.963  1.00  0.00    -0.237 OA
ATOM     95  O   UNL A   1      47.589  35.098  25.363  1.00  0.00    -0.237 OA
ATOM     96  O   UNL A   1      46.141  36.776  26.450  1.00  0.00    -0.744 OA
ENDBRANCH  89  93
ENDBRANCH  63  86
ENDBRANCH  37  38
ENDBRANCH  29  32
ENDBRANCH  27  28
ENDBRANCH   1  27
TORSDOF 17
ENDMDL
MODEL 3
REMARK VINA RESULT:     -12.1      5.605     10.851
REMARK SMILES CC(C)CSc1cc2c(cc1Cl)C=C(C(=O)NCCCNC(=O)c1ccc(-c3c4nc(c(-c5cc(S(=O)(=O)[O-])ccc5F)c5ccc([nH]5)c(-c5cc(S(=O)(=O)[O-])ccc5F)c5nc(c(-c6cc(S(=O)(=O)[O-])ccc6F)c6ccc3[nH]6)C=C5)C=C4)cc1)[C@@H](C(F)(F)F)O2
REMARK SMILES IDX 19 1 18 2 17 3 15 4 16 5 14 7 6 8 7 9 11 10 8 11 10 12 12 13
REMARK SMILES IDX 9 14 92 15 13 16 87 17 5 18 4 19 2 20 1 21 3 22 88 23 89 24
REMARK SMILES IDX 90 25 91 26 20 27 21 28 22 29 23 31 24 32 25 33 86 34 26 35
REMARK SMILES IDX 85 36 27 37 28 38 29 39 79 40 30 41 84 42 78 43 80 44 31 45
REMARK SMILES IDX 83 46 77 47 76 48 32 50 64 51 44 52 63 53 45 54 48 55 62 56
REMARK SMILES IDX 81 57 46 58 47 59 61 61 82 62 49 63 33 64 34 65 42 66 35 67
REMARK SMILES IDX 41 68 43 69 40 70 36 71 37 72 38 73 39 74 65 75 66 76 74 77
REMARK SMILES IDX 67 78 73 79 75 80 72 81 68 82 69 83 70 84 71 85 50 86 51 87
REMARK SMILES IDX 59 88 52 89 58 90 60 91 57 92 53 93 54 94 55 95 56 96
REMARK H PARENT 17 6 21 30 80 49 48 60
REMARK Flexibility Score: inf
ROOT
ATOM      1  C   UNL A   1      32.099  30.088  25.401  1.00  0.00     0.042 C 
ENDROOT
BRANCH   1   2
ATOM      2  C   UNL A   1      30.750  30.407  24.780  1.00  0.00     0.118 C 
BRANCH   2   3
ATOM      3  N   UNL A   1      30.584  29.785  23.472  1.00  0.00    -0.352 N 
ATOM      4  C   UNL A   1      30.783  28.568  22.912  1.00  0.00     0.251 C 
ATOM      5  O   UNL A   1      30.474  28.475  21.720  1.00  0.00    -0.270 OA
ATOM      6  H   UNL A   1      30.228  30.426  22.815  1.00  0.00     0.163 HD
BRANCH   4   7
ATOM      7  C   UNL A   1      31.330  27.377  23.625  1.00  0.00     0.067 C 
ATOM      8  C   UNL A   1      34.235  23.544  25.194  1.00  0.00     0.030 A 
ATOM      9  C   UNL A   1      33.061  24.155  25.625  1.00  0.00     0.063 A 
ATOM     10  C   UNL A   1      34.762  23.971  23.957  1.00  0.00     0.055 A 
ATOM     11  C   UNL A   1      32.510  25.234  24.945  1.00  0.00     0.129 A 
ATOM     12  C   UNL A   1      34.162  25.021  23.234  1.00  0.00     0.033 A 
ATOM     13  Cl  UNL A   1      36.172  23.252  23.250  1.00  0.00    -0.083 Cl
ATOM     14  C   UNL A   1      33.044  25.679  23.746  1.00  0.00     0.019 A 
ATOM     15  O   UNL A   1      31.486  25.845  25.596  1.00  0.00    -0.475 OA
ATOM     16  C   UNL A   1      32.446  26.837  23.097  1.00  0.00     0.025 C 
ATOM     17  C   UNL A   1      30.686  26.788  24.848  1.00  0.00     0.314 C 
BRANCH   8  18
ATOM     18  S   UNL A   1      35.074  22.327  26.220  1.00  0.00    -0.124 SA
BRANCH  18  19
ATOM     19  C   UNL A   1      34.091  20.776  26.077  1.00  0.00     0.078 C 
BRANCH  19  20
ATOM     20  C   UNL A   1      33.947  20.166  24.665  1.00  0.00    -0.007 C 
ATOM     21  C   UNL A   1      34.232  18.668  24.548  1.00  0.00     0.008 C 
ATOM     22  C   UNL A   1      32.518  20.420  24.164  1.00  0.00     0.008 C 
ENDBRANCH  19  20
ENDBRANCH  18  19
ENDBRANCH   8  18
BRANCH  17  23
ATOM     23  C   UNL A   1      29.336  26.108  24.567  1.00  0.00     0.429 C 
ATOM     24  F   UNL A   1      28.853  25.537  25.700  1.00  0.00    -0.167 F 
ATOM     25  F   UNL A   1      28.385  26.964  24.132  1.00  0.00    -0.167 F 
ATOM     26  F   UNL A   1      29.440  25.130  23.637  1.00  0.00    -0.167 F 
ENDBRANCH  17  23
ENDBRANCH   4   7
ENDBRANCH   2   3
ENDBRANCH   1   2
BRANCH   1  27
ATOM     27  C   UNL A   1      32.193  30.561  26.845  1.00  0.00     0.118 C 
BRANCH  27  28
ATOM     28  N   UNL A   1      32.224  32.019  26.944  1.00  0.00    -0.352 N 
ATOM     29  C   UNL A   1      33.128  32.857  27.558  1.00  0.00     0.251 C 
ATOM     30  H   UNL A   1      31.475  32.478  26.498  1.00  0.00     0.163 HD
ATOM     31  O   UNL A   1      32.843  34.034  27.725  1.00  0.00    -0.269 OA
BRANCH  29  32
ATOM     32  C   UNL A   1      34.420  32.319  28.036  1.00  0.00     0.039 A 
ATOM     33  C   UNL A   1      34.536  30.973  28.377  1.00  0.00     0.014 A 
ATOM     34  C   UNL A   1      35.523  33.169  28.159  1.00  0.00     0.014 A 
ATOM     35  C   UNL A   1      35.667  30.531  29.046  1.00  0.00     0.010 A 
ATOM     36  C   UNL A   1      36.710  32.687  28.719  1.00  0.00     0.010 A 
ATOM     37  C   UNL A   1      36.773  31.378  29.222  1.00  0.00    -0.014 A 
BRANCH  37  38
ATOM     38  C   UNL A   1      37.973  30.856  29.927  1.00  0.00     0.031 A 
ATOM     39  C   UNL A   1      38.216  31.170  31.379  1.00  0.00     0.074 A 
ATOM     40  C   UNL A   1      38.802  30.024  29.266  1.00  0.00     0.049 A 
ATOM     41  N   UNL A   1      39.184  30.757  32.156  1.00  0.00    -0.248 NA
ATOM     42  C   UNL A   1      37.257  32.065  32.046  1.00  0.00     0.031 C 
ATOM     43  C   UNL A   1      38.651  29.645  27.859  1.00  0.00     0.029 A 
ATOM     44  N   UNL A   1      39.900  29.315  29.684  1.00  0.00    -0.354 N 
ATOM     45  C   UNL A   1      38.964  31.354  33.392  1.00  0.00     0.074 A 
ATOM     46  C   UNL A   1      37.790  32.186  33.255  1.00  0.00     0.031 C 
ATOM     47  C   UNL A   1      39.565  28.716  27.554  1.00  0.00     0.029 A 
ATOM     48  C   UNL A   1      40.429  28.498  28.710  1.00  0.00     0.049 A 
ATOM     49  H   UNL A   1      40.274  29.386  30.591  1.00  0.00     0.167 HD
ATOM     50  C   UNL A   1      39.669  31.205  34.539  1.00  0.00     0.034 A 
ATOM     51  C   UNL A   1      41.495  27.673  28.734  1.00  0.00     0.034 A 
ATOM     52  C   UNL A   1      40.825  30.353  34.663  1.00  0.00     0.049 A 
ATOM     53  C   UNL A   1      42.277  27.546  30.014  1.00  0.00     0.074 A 
ATOM     54  C   UNL A   1      41.606  30.130  35.783  1.00  0.00     0.029 A 
ATOM     55  N   UNL A   1      41.360  29.578  33.643  1.00  0.00    -0.354 N 
ATOM     56  N   UNL A   1      42.045  28.108  31.177  1.00  0.00    -0.248 NA
ATOM     57  C   UNL A   1      43.465  26.683  29.990  1.00  0.00     0.031 C 
ATOM     58  C   UNL A   1      42.642  29.265  35.427  1.00  0.00     0.029 A 
ATOM     59  C   UNL A   1      42.472  28.892  34.104  1.00  0.00     0.049 A 
ATOM     60  H   UNL A   1      41.002  29.524  32.727  1.00  0.00     0.167 HD
ATOM     61  C   UNL A   1      43.052  27.662  32.026  1.00  0.00     0.074 A 
ATOM     62  C   UNL A   1      43.874  26.755  31.251  1.00  0.00     0.031 C 
ATOM     63  C   UNL A   1      43.280  27.983  33.324  1.00  0.00     0.034 A 
BRANCH  50  64
ATOM     64  C   UNL A   1      39.222  31.962  35.767  1.00  0.00     0.023 A 
ATOM     65  C   UNL A   1      38.448  31.317  36.749  1.00  0.00     0.031 A 
ATOM     66  C   UNL A   1      39.453  33.342  35.904  1.00  0.00     0.131 A 
ATOM     67  C   UNL A   1      37.906  32.057  37.808  1.00  0.00     0.055 A 
ATOM     68  C   UNL A   1      38.944  34.068  36.981  1.00  0.00     0.041 A 
ATOM     69  F   UNL A   1      40.188  34.004  34.996  1.00  0.00    -0.206 F 
ATOM     70  C   UNL A   1      38.156  33.428  37.933  1.00  0.00     0.022 A 
BRANCH  67  71
ATOM     71  S   UNL A   1      36.807  31.288  39.029  1.00  0.00     0.124 S 
ATOM     72  O   UNL A   1      37.615  31.360  40.245  1.00  0.00    -0.237 OA
ATOM     73  O   UNL A   1      35.648  32.174  38.997  1.00  0.00    -0.237 OA
ATOM     74  O   UNL A   1      36.590  29.943  38.508  1.00  0.00    -0.744 OA
ENDBRANCH  67  71
ENDBRANCH  50  64
BRANCH  51  75
ATOM     75  C   UNL A   1      41.833  26.891  27.509  1.00  0.00     0.023 A 
ATOM     76  C   UNL A   1      41.541  25.516  27.429  1.00  0.00     0.031 A 
ATOM     77  C   UNL A   1      42.571  27.469  26.463  1.00  0.00     0.131 A 
ATOM     78  C   UNL A   1      42.065  24.750  26.381  1.00  0.00     0.055 A 
ATOM     79  C   UNL A   1      43.021  26.718  25.377  1.00  0.00     0.041 A 
ATOM     80  F   UNL A   1      42.885  28.774  26.498  1.00  0.00    -0.206 F 
ATOM     81  C   UNL A   1      42.788  25.345  25.343  1.00  0.00     0.022 A 
BRANCH  78  82
ATOM     82  S   UNL A   1      41.966  22.938  26.418  1.00  0.00     0.124 S 
ATOM     83  O   UNL A   1      42.897  22.605  27.492  1.00  0.00    -0.237 OA
ATOM     84  O   UNL A   1      40.552  22.724  26.718  1.00  0.00    -0.237 OA
ATOM     85  O   UNL A   1      42.380  22.543  25.076  1.00  0.00    -0.744 OA
ENDBRANCH  78  82
ENDBRANCH  51  75
BRANCH  63  86
ATOM     86  C   UNL A   1      44.470  27.367  34.019  1.00  0.00     0.023 A 
ATOM     87  C   UNL A   1      44.341  26.125  34.667  1.00  0.00     0.031 A 
ATOM     88  C   UNL A   1      45.673  28.077  34.170  1.00  0.00     0.131 A 
ATOM     89  C   UNL A   1      45.381  25.650  35.475  1.00  0.00     0.055 A 
ATOM     90  C   UNL A   1      46.725  27.578  34.939  1.00  0.00     0.041 A 
ATOM     91  F   UNL A   1      45.838  29.271  33.579  1.00  0.00    -0.206 F 
ATOM     92  C   UNL A   1      46.575  26.367  35.607  1.00  0.00     0.022 A 
BRANCH  89  93
ATOM     93  S   UNL A   1      45.188  24.136  36.454  1.00  0.00     0.124 S 
ATOM     94  O   UNL A   1      46.499  23.509  36.303  1.00  0.00    -0.237 OA
ATOM     95  O   UNL A   1      44.900  24.665  37.785  1.00  0.00    -0.237 OA
ATOM     96  O   UNL A   1      44.085  23.434  35.806  1.00  0.00    -0.744 OA
ENDBRANCH  89  93
ENDBRANCH  63  86
ENDBRANCH  37  38
ENDBRANCH  29  32
ENDBRANCH  27  28
ENDBRANCH   1  27
TORSDOF 17
ENDMDL
