MODEL 1
REMARK VINA RESULT:     -11.8      0.000      0.000
REMARK SMILES COc1ccc(CNC(=O)[C@H]2CC(C)=C(C)C[C@@H]2C(=O)NCCCNC(=O)c2ccc(-c3c4nc(c(-c5cc(S(=O)(=O)[O-])ccc5F)c5ccc([nH]5)c(-c5cc(S(=O)(=O)[O-])ccc5F)c5nc(c(-c6cc(S(=O)(=O)[O-])ccc6F)c6ccc3[nH]6)C=C5)C=C4)cc2)cc1OC
REMARK SMILES IDX 22 1 21 2 19 3 20 4 18 6 11 7 12 8 13 9 17 10 14 11 15 12
REMARK SMILES IDX 16 13 9 14 8 15 10 17 7 18 6 19 3 20 4 21 92 22 5 23 91 24
REMARK SMILES IDX 2 25 1 26 93 27 94 28 23 29 24 30 25 31 26 32 27 34 28 35
REMARK SMILES IDX 29 36 90 37 30 38 89 39 31 40 32 41 33 42 83 43 34 44 88 45
REMARK SMILES IDX 82 46 84 47 35 48 87 49 81 50 80 51 36 53 68 54 48 55 67 56
REMARK SMILES IDX 49 57 52 58 66 59 85 60 50 61 51 62 65 64 86 65 53 66 37 67
REMARK SMILES IDX 38 68 46 69 39 70 45 71 47 72 44 73 40 74 41 75 42 76 43 77
REMARK SMILES IDX 69 78 70 79 78 80 71 81 77 82 79 83 76 84 72 85 73 86 74 87
REMARK SMILES IDX 75 88 54 89 55 90 63 91 56 92 62 93 64 94 61 95 57 96 58 97
REMARK SMILES IDX 59 98 60 99
REMARK H PARENT 21 5 8 16 25 33 84 52 52 63
REMARK Flexibility Score: inf
ROOT
ATOM      1  C   UNL A   1      34.152  22.127  25.407  1.00  0.00     0.117 C 
ENDROOT
BRANCH   1   2
ATOM      2  N   UNL A   1      34.225  22.610  24.036  1.00  0.00    -0.356 N 
ATOM      3  C   UNL A   1      33.926  23.836  23.508  1.00  0.00     0.224 C 
ATOM      4  O   UNL A   1      34.068  23.976  22.292  1.00  0.00    -0.275 OA
ATOM      5  H   UNL A   1      34.541  21.946  23.382  1.00  0.00     0.163 HD
BRANCH   3   6
ATOM      6  C   UNL A   1      33.456  24.978  24.421  1.00  0.00     0.095 C 
ATOM      7  C   UNL A   1      31.942  24.895  24.656  1.00  0.00     0.095 C 
ATOM      8  C   UNL A   1      31.060  25.684  23.696  1.00  0.00     0.045 C 
ATOM      9  C   UNL A   1      31.638  26.932  23.092  1.00  0.00    -0.074 C 
ATOM     10  C   UNL A   1      33.943  26.344  23.898  1.00  0.00     0.045 C 
ATOM     11  C   UNL A   1      30.596  27.821  22.461  1.00  0.00     0.039 C 
ATOM     12  C   UNL A   1      32.954  27.216  23.158  1.00  0.00    -0.074 C 
ATOM     13  C   UNL A   1      33.552  28.450  22.530  1.00  0.00     0.039 C 
BRANCH   7  14
ATOM     14  C   UNL A   1      31.591  24.943  26.142  1.00  0.00     0.224 C 
ATOM     15  N   UNL A   1      31.303  26.059  26.840  1.00  0.00    -0.352 N 
ATOM     16  H   UNL A   1      31.296  25.924  27.815  1.00  0.00     0.163 HD
ATOM     17  O   UNL A   1      31.630  23.902  26.808  1.00  0.00    -0.275 OA
BRANCH  15  18
ATOM     18  C   UNL A   1      31.005  27.412  26.442  1.00  0.00     0.151 C 
BRANCH  18  19
ATOM     19  C   UNL A   1      32.166  28.341  26.709  1.00  0.00    -0.025 A 
ATOM     20  C   UNL A   1      34.266  30.120  27.308  1.00  0.00     0.160 A 
ATOM     21  C   UNL A   1      34.521  28.756  27.142  1.00  0.00     0.051 A 
ATOM     22  C   UNL A   1      32.970  30.619  27.135  1.00  0.00     0.161 A 
ATOM     23  C   UNL A   1      33.480  27.877  26.844  1.00  0.00     0.009 A 
ATOM     24  C   UNL A   1      31.931  29.716  26.861  1.00  0.00     0.056 A 
BRANCH  20  25
ATOM     25  O   UNL A   1      35.331  30.939  27.572  1.00  0.00    -0.493 OA
ATOM     26  C   UNL A   1      36.555  30.204  27.580  1.00  0.00     0.278 C 
ENDBRANCH  20  25
BRANCH  22  27
ATOM     27  O   UNL A   1      32.537  31.915  27.206  1.00  0.00    -0.493 OA
ATOM     28  C   UNL A   1      31.308  32.251  26.582  1.00  0.00     0.278 C 
ENDBRANCH  22  27
ENDBRANCH  18  19
ENDBRANCH  15  18
ENDBRANCH   7  14
ENDBRANCH   3   6
ENDBRANCH   1   2
BRANCH   1  29
ATOM     29  C   UNL A   1      35.430  22.415  26.196  1.00  0.00     0.042 C 
BRANCH  29  30
ATOM     30  C   UNL A   1      36.689  22.446  25.340  1.00  0.00     0.118 C 
BRANCH  30  31
ATOM     31  N   UNL A   1      37.591  21.355  25.668  1.00  0.00    -0.352 N 
ATOM     32  C   UNL A   1      38.899  21.397  26.077  1.00  0.00     0.251 C 
ATOM     33  H   UNL A   1      37.208  20.453  25.584  1.00  0.00     0.163 HD
ATOM     34  O   UNL A   1      39.557  20.353  26.066  1.00  0.00    -0.269 OA
BRANCH  32  35
ATOM     35  C   UNL A   1      39.528  22.664  26.514  1.00  0.00     0.039 A 
ATOM     36  C   UNL A   1      39.039  23.869  25.998  1.00  0.00     0.014 A 
ATOM     37  C   UNL A   1      40.626  22.680  27.380  1.00  0.00     0.014 A 
ATOM     38  C   UNL A   1      39.626  25.081  26.372  1.00  0.00     0.010 A 
ATOM     39  C   UNL A   1      41.161  23.891  27.813  1.00  0.00     0.010 A 
ATOM     40  C   UNL A   1      40.681  25.104  27.299  1.00  0.00    -0.014 A 
BRANCH  40  41
ATOM     41  C   UNL A   1      41.310  26.388  27.707  1.00  0.00     0.031 A 
ATOM     42  C   UNL A   1      42.733  26.691  27.312  1.00  0.00     0.074 A 
ATOM     43  C   UNL A   1      40.617  27.263  28.463  1.00  0.00     0.049 A 
ATOM     44  N   UNL A   1      43.471  27.732  27.603  1.00  0.00    -0.248 NA
ATOM     45  C   UNL A   1      43.424  25.674  26.506  1.00  0.00     0.031 C 
ATOM     46  C   UNL A   1      39.247  27.062  28.942  1.00  0.00     0.029 A 
ATOM     47  N   UNL A   1      40.965  28.492  28.963  1.00  0.00    -0.354 N 
ATOM     48  C   UNL A   1      44.715  27.488  27.030  1.00  0.00     0.074 A 
ATOM     49  C   UNL A   1      44.648  26.173  26.430  1.00  0.00     0.031 C 
ATOM     50  C   UNL A   1      38.864  28.141  29.642  1.00  0.00     0.029 A 
ATOM     51  C   UNL A   1      39.969  29.092  29.699  1.00  0.00     0.049 A 
ATOM     52  H   UNL A   1      41.845  28.905  28.810  1.00  0.00     0.167 HD
ATOM     53  C   UNL A   1      45.804  28.296  26.986  1.00  0.00     0.034 A 
ATOM     54  C   UNL A   1      39.952  30.272  30.351  1.00  0.00     0.034 A 
ATOM     55  C   UNL A   1      45.848  29.612  27.578  1.00  0.00     0.049 A 
ATOM     56  C   UNL A   1      41.175  31.150  30.296  1.00  0.00     0.074 A 
ATOM     57  C   UNL A   1      46.877  30.538  27.550  1.00  0.00     0.029 A 
ATOM     58  N   UNL A   1      44.818  30.189  28.310  1.00  0.00    -0.354 N 
ATOM     59  N   UNL A   1      42.327  30.926  29.705  1.00  0.00    -0.248 NA
ATOM     60  C   UNL A   1      41.091  32.445  30.980  1.00  0.00     0.031 C 
ATOM     61  C   UNL A   1      46.496  31.643  28.319  1.00  0.00     0.029 A 
ATOM     62  C   UNL A   1      45.198  31.445  28.762  1.00  0.00     0.049 A 
ATOM     63  H   UNL A   1      43.944  29.769  28.483  1.00  0.00     0.167 HD
ATOM     64  C   UNL A   1      43.093  32.068  29.923  1.00  0.00     0.074 A 
ATOM     65  C   UNL A   1      42.264  32.983  30.683  1.00  0.00     0.031 C 
ATOM     66  C   UNL A   1      44.364  32.339  29.531  1.00  0.00     0.034 A 
BRANCH  53  67
ATOM     67  C   UNL A   1      47.040  27.762  26.299  1.00  0.00     0.023 A 
ATOM     68  C   UNL A   1      47.307  28.029  24.943  1.00  0.00     0.031 A 
ATOM     69  C   UNL A   1      47.951  26.949  26.997  1.00  0.00     0.131 A 
ATOM     70  C   UNL A   1      48.404  27.424  24.311  1.00  0.00     0.055 A 
ATOM     71  C   UNL A   1      49.089  26.420  26.384  1.00  0.00     0.041 A 
ATOM     72  F   UNL A   1      47.743  26.642  28.287  1.00  0.00    -0.206 F 
ATOM     73  C   UNL A   1      49.312  26.642  25.028  1.00  0.00     0.022 A 
BRANCH  70  74
ATOM     74  S   UNL A   1      48.545  27.554  22.507  1.00  0.00     0.124 S 
ATOM     75  O   UNL A   1      49.737  28.386  22.364  1.00  0.00    -0.237 OA
ATOM     76  O   UNL A   1      48.684  26.162  22.099  1.00  0.00    -0.237 OA
ATOM     77  O   UNL A   1      47.294  28.198  22.111  1.00  0.00    -0.744 OA
ENDBRANCH  70  74
ENDBRANCH  53  67
BRANCH  54  78
ATOM     78  C   UNL A   1      38.742  30.694  31.114  1.00  0.00     0.023 A 
ATOM     79  C   UNL A   1      37.798  31.568  30.551  1.00  0.00     0.031 A 
ATOM     80  C   UNL A   1      38.533  30.261  32.435  1.00  0.00     0.131 A 
ATOM     81  C   UNL A   1      36.715  32.018  31.321  1.00  0.00     0.055 A 
ATOM     82  C   UNL A   1      37.424  30.669  33.179  1.00  0.00     0.041 A 
ATOM     83  F   UNL A   1      39.401  29.420  33.021  1.00  0.00    -0.206 F 
ATOM     84  C   UNL A   1      36.514  31.564  32.626  1.00  0.00     0.022 A 
BRANCH  81  85
ATOM     85  S   UNL A   1      35.612  33.276  30.619  1.00  0.00     0.124 S 
ATOM     86  O   UNL A   1      34.394  32.508  30.390  1.00  0.00    -0.237 OA
ATOM     87  O   UNL A   1      35.557  34.264  31.691  1.00  0.00    -0.237 OA
ATOM     88  O   UNL A   1      36.314  33.708  29.412  1.00  0.00    -0.744 OA
ENDBRANCH  81  85
ENDBRANCH  54  78
BRANCH  66  89
ATOM     89  C   UNL A   1      44.912  33.701  29.885  1.00  0.00     0.023 A 
ATOM     90  C   UNL A   1      44.709  34.819  29.058  1.00  0.00     0.031 A 
ATOM     91  C   UNL A   1      45.669  33.875  31.058  1.00  0.00     0.131 A 
ATOM     92  C   UNL A   1      45.309  36.046  29.380  1.00  0.00     0.055 A 
ATOM     93  C   UNL A   1      46.210  35.113  31.407  1.00  0.00     0.041 A 
ATOM     94  F   UNL A   1      45.896  32.842  31.885  1.00  0.00    -0.206 F 
ATOM     95  C   UNL A   1      46.044  36.204  30.557  1.00  0.00     0.022 A 
BRANCH  92  96
ATOM     96  S   UNL A   1      45.203  37.407  28.185  1.00  0.00     0.124 S 
ATOM     97  O   UNL A   1      44.893  36.700  26.947  1.00  0.00    -0.237 OA
ATOM     98  O   UNL A   1      44.129  38.225  28.738  1.00  0.00    -0.237 OA
ATOM     99  O   UNL A   1      46.533  38.012  28.236  1.00  0.00    -0.744 OA
ENDBRANCH  92  96
ENDBRANCH  66  89
ENDBRANCH  40  41
ENDBRANCH  32  35
ENDBRANCH  30  31
ENDBRANCH  29  30
ENDBRANCH   1  29
TORSDOF 18
ENDMDL
MODEL 2
REMARK VINA RESULT:     -11.8      2.628      4.399
REMARK SMILES COc1ccc(CNC(=O)[C@H]2CC(C)=C(C)C[C@@H]2C(=O)NCCCNC(=O)c2ccc(-c3c4nc(c(-c5cc(S(=O)(=O)[O-])ccc5F)c5ccc([nH]5)c(-c5cc(S(=O)(=O)[O-])ccc5F)c5nc(c(-c6cc(S(=O)(=O)[O-])ccc6F)c6ccc3[nH]6)C=C5)C=C4)cc2)cc1OC
REMARK SMILES IDX 22 1 21 2 19 3 20 4 18 6 11 7 12 8 13 9 17 10 14 11 15 12
REMARK SMILES IDX 16 13 9 14 8 15 10 17 7 18 6 19 3 20 4 21 92 22 5 23 91 24
REMARK SMILES IDX 2 25 1 26 93 27 94 28 23 29 24 30 25 31 26 32 27 34 28 35
REMARK SMILES IDX 29 36 90 37 30 38 89 39 31 40 32 41 33 42 83 43 34 44 88 45
REMARK SMILES IDX 82 46 84 47 35 48 87 49 81 50 80 51 36 53 68 54 48 55 67 56
REMARK SMILES IDX 49 57 52 58 66 59 85 60 50 61 51 62 65 64 86 65 53 66 37 67
REMARK SMILES IDX 38 68 46 69 39 70 45 71 47 72 44 73 40 74 41 75 42 76 43 77
REMARK SMILES IDX 69 78 70 79 78 80 71 81 77 82 79 83 76 84 72 85 73 86 74 87
REMARK SMILES IDX 75 88 54 89 55 90 63 91 56 92 62 93 64 94 61 95 57 96 58 97
REMARK SMILES IDX 59 98 60 99
REMARK H PARENT 21 5 8 16 25 33 84 52 52 63
REMARK Flexibility Score: inf
ROOT
ATOM      1  C   UNL A   1      35.017  23.650  23.858  1.00  0.00     0.117 C 
ENDROOT
BRANCH   1   2
ATOM      2  N   UNL A   1      34.630  24.865  23.154  1.00  0.00    -0.356 N 
ATOM      3  C   UNL A   1      33.838  25.907  23.549  1.00  0.00     0.224 C 
ATOM      4  O   UNL A   1      33.661  26.819  22.740  1.00  0.00    -0.275 OA
ATOM      5  H   UNL A   1      35.001  24.950  22.246  1.00  0.00     0.163 HD
BRANCH   3   6
ATOM      6  C   UNL A   1      33.224  25.922  24.957  1.00  0.00     0.095 C 
ATOM      7  C   UNL A   1      31.748  26.334  24.899  1.00  0.00     0.095 C 
ATOM      8  C   UNL A   1      31.448  27.819  25.064  1.00  0.00     0.045 C 
ATOM      9  C   UNL A   1      32.400  28.629  25.898  1.00  0.00    -0.074 C 
ATOM     10  C   UNL A   1      34.080  26.761  25.927  1.00  0.00     0.045 C 
ATOM     11  C   UNL A   1      31.841  29.971  26.299  1.00  0.00     0.039 C 
ATOM     12  C   UNL A   1      33.609  28.159  26.263  1.00  0.00    -0.074 C 
ATOM     13  C   UNL A   1      34.586  28.972  27.074  1.00  0.00     0.039 C 
BRANCH   7  14
ATOM     14  C   UNL A   1      30.849  25.344  25.639  1.00  0.00     0.224 C 
ATOM     15  N   UNL A   1      30.360  24.199  25.125  1.00  0.00    -0.352 N 
ATOM     16  H   UNL A   1      29.650  23.792  25.672  1.00  0.00     0.163 HD
ATOM     17  O   UNL A   1      30.463  25.615  26.783  1.00  0.00    -0.275 OA
BRANCH  15  18
ATOM     18  C   UNL A   1      30.672  23.451  23.933  1.00  0.00     0.151 C 
BRANCH  18  19
ATOM     19  C   UNL A   1      31.685  22.364  24.205  1.00  0.00    -0.025 A 
ATOM     20  C   UNL A   1      33.507  20.304  24.815  1.00  0.00     0.160 A 
ATOM     21  C   UNL A   1      32.941  20.392  23.540  1.00  0.00     0.051 A 
ATOM     22  C   UNL A   1      33.205  21.265  25.786  1.00  0.00     0.161 A 
ATOM     23  C   UNL A   1      32.040  21.414  23.240  1.00  0.00     0.009 A 
ATOM     24  C   UNL A   1      32.277  22.271  25.474  1.00  0.00     0.056 A 
BRANCH  20  25
ATOM     25  O   UNL A   1      34.406  19.297  25.044  1.00  0.00    -0.493 OA
ATOM     26  C   UNL A   1      34.003  18.092  24.392  1.00  0.00     0.278 C 
ENDBRANCH  20  25
BRANCH  22  27
ATOM     27  O   UNL A   1      33.692  21.375  27.060  1.00  0.00    -0.493 OA
ATOM     28  C   UNL A   1      33.087  22.312  27.936  1.00  0.00     0.278 C 
ENDBRANCH  22  27
ENDBRANCH  18  19
ENDBRANCH  15  18
ENDBRANCH   7  14
ENDBRANCH   3   6
ENDBRANCH   1   2
BRANCH   1  29
ATOM     29  C   UNL A   1      36.431  23.737  24.436  1.00  0.00     0.042 C 
BRANCH  29  30
ATOM     30  C   UNL A   1      36.525  23.317  25.897  1.00  0.00     0.118 C 
BRANCH  30  31
ATOM     31  N   UNL A   1      37.606  22.371  26.118  1.00  0.00    -0.352 N 
ATOM     32  C   UNL A   1      38.920  22.604  26.429  1.00  0.00     0.251 C 
ATOM     33  H   UNL A   1      37.357  21.423  26.031  1.00  0.00     0.163 HD
ATOM     34  O   UNL A   1      39.726  21.673  26.333  1.00  0.00    -0.269 OA
BRANCH  32  35
ATOM     35  C   UNL A   1      39.382  23.942  26.863  1.00  0.00     0.039 A 
ATOM     36  C   UNL A   1      39.210  24.310  28.202  1.00  0.00     0.014 A 
ATOM     37  C   UNL A   1      39.930  24.859  25.960  1.00  0.00     0.014 A 
ATOM     38  C   UNL A   1      39.613  25.575  28.637  1.00  0.00     0.010 A 
ATOM     39  C   UNL A   1      40.403  26.090  26.410  1.00  0.00     0.010 A 
ATOM     40  C   UNL A   1      40.233  26.470  27.749  1.00  0.00    -0.014 A 
BRANCH  40  41
ATOM     41  C   UNL A   1      40.669  27.817  28.203  1.00  0.00     0.031 A 
ATOM     42  C   UNL A   1      42.131  28.183  28.184  1.00  0.00     0.074 A 
ATOM     43  C   UNL A   1      39.757  28.695  28.665  1.00  0.00     0.049 A 
ATOM     44  N   UNL A   1      42.715  29.287  28.576  1.00  0.00    -0.248 NA
ATOM     45  C   UNL A   1      43.061  27.158  27.685  1.00  0.00     0.031 C 
ATOM     46  C   UNL A   1      38.319  28.440  28.770  1.00  0.00     0.029 A 
ATOM     47  N   UNL A   1      39.901  29.976  29.136  1.00  0.00    -0.354 N 
ATOM     48  C   UNL A   1      44.078  29.084  28.385  1.00  0.00     0.074 A 
ATOM     49  C   UNL A   1      44.236  27.729  27.902  1.00  0.00     0.031 C 
ATOM     50  C   UNL A   1      37.712  29.538  29.246  1.00  0.00     0.029 A 
ATOM     51  C   UNL A   1      38.717  30.560  29.521  1.00  0.00     0.049 A 
ATOM     52  H   UNL A   1      40.771  30.433  29.193  1.00  0.00     0.167 HD
ATOM     53  C   UNL A   1      45.102  29.956  28.570  1.00  0.00     0.034 A 
ATOM     54  C   UNL A   1      38.469  31.778  30.042  1.00  0.00     0.034 A 
ATOM     55  C   UNL A   1      44.924  31.309  29.039  1.00  0.00     0.049 A 
ATOM     56  C   UNL A   1      39.622  32.728  30.247  1.00  0.00     0.074 A 
ATOM     57  C   UNL A   1      45.880  32.295  29.213  1.00  0.00     0.029 A 
ATOM     58  N   UNL A   1      43.708  31.868  29.412  1.00  0.00    -0.354 N 
ATOM     59  N   UNL A   1      40.901  32.538  30.012  1.00  0.00    -0.248 NA
ATOM     60  C   UNL A   1      39.297  34.059  30.771  1.00  0.00     0.031 C 
ATOM     61  C   UNL A   1      45.255  33.424  29.753  1.00  0.00     0.029 A 
ATOM     62  C   UNL A   1      43.895  33.174  29.844  1.00  0.00     0.049 A 
ATOM     63  H   UNL A   1      42.840  31.406  29.377  1.00  0.00     0.167 HD
ATOM     64  C   UNL A   1      41.527  33.740  30.333  1.00  0.00     0.074 A 
ATOM     65  C   UNL A   1      40.482  34.650  30.759  1.00  0.00     0.031 C 
ATOM     66  C   UNL A   1      42.844  34.064  30.279  1.00  0.00     0.034 A 
BRANCH  53  67
ATOM     67  C   UNL A   1      46.501  29.456  28.292  1.00  0.00     0.023 A 
ATOM     68  C   UNL A   1      47.278  28.836  29.289  1.00  0.00     0.031 A 
ATOM     69  C   UNL A   1      47.081  29.627  27.022  1.00  0.00     0.131 A 
ATOM     70  C   UNL A   1      48.611  28.487  29.024  1.00  0.00     0.055 A 
ATOM     71  C   UNL A   1      48.381  29.199  26.741  1.00  0.00     0.041 A 
ATOM     72  F   UNL A   1      46.400  30.228  26.035  1.00  0.00    -0.206 F 
ATOM     73  C   UNL A   1      49.160  28.640  27.750  1.00  0.00     0.022 A 
BRANCH  70  74
ATOM     74  S   UNL A   1      49.661  27.967  30.409  1.00  0.00     0.124 S 
ATOM     75  O   UNL A   1      50.616  27.086  29.740  1.00  0.00    -0.237 OA
ATOM     76  O   UNL A   1      50.193  29.234  30.896  1.00  0.00    -0.237 OA
ATOM     77  O   UNL A   1      48.730  27.293  31.311  1.00  0.00    -0.744 OA
ENDBRANCH  70  74
ENDBRANCH  53  67
BRANCH  54  78
ATOM     78  C   UNL A   1      37.080  32.174  30.410  1.00  0.00     0.023 A 
ATOM     79  C   UNL A   1      36.199  32.705  29.453  1.00  0.00     0.031 A 
ATOM     80  C   UNL A   1      36.623  32.064  31.735  1.00  0.00     0.131 A 
ATOM     81  C   UNL A   1      34.927  33.150  29.843  1.00  0.00     0.055 A 
ATOM     82  C   UNL A   1      35.336  32.457  32.108  1.00  0.00     0.041 A 
ATOM     83  F   UNL A   1      37.421  31.557  32.689  1.00  0.00    -0.206 F 
ATOM     84  C   UNL A   1      34.485  33.017  31.161  1.00  0.00     0.022 A 
BRANCH  81  85
ATOM     85  S   UNL A   1      33.883  33.984  28.616  1.00  0.00     0.124 S 
ATOM     86  O   UNL A   1      33.489  32.873  27.757  1.00  0.00    -0.237 OA
ATOM     87  O   UNL A   1      32.832  34.556  29.450  1.00  0.00    -0.237 OA
ATOM     88  O   UNL A   1      34.788  34.955  28.004  1.00  0.00    -0.744 OA
ENDBRANCH  81  85
ENDBRANCH  54  78
BRANCH  66  89
ATOM     89  C   UNL A   1      43.214  35.480  30.652  1.00  0.00     0.023 A 
ATOM     90  C   UNL A   1      43.276  36.506  29.694  1.00  0.00     0.031 A 
ATOM     91  C   UNL A   1      43.531  35.799  31.985  1.00  0.00     0.131 A 
ATOM     92  C   UNL A   1      43.709  37.787  30.068  1.00  0.00     0.055 A 
ATOM     93  C   UNL A   1      43.899  37.091  32.363  1.00  0.00     0.041 A 
ATOM     94  F   UNL A   1      43.490  34.859  32.942  1.00  0.00    -0.206 F 
ATOM     95  C   UNL A   1      44.005  38.090  31.400  1.00  0.00     0.022 A 
BRANCH  92  96
ATOM     96  S   UNL A   1      43.982  39.027  28.773  1.00  0.00     0.124 S 
ATOM     97  O   UNL A   1      45.402  39.325  28.932  1.00  0.00    -0.237 OA
ATOM     98  O   UNL A   1      43.615  38.300  27.562  1.00  0.00    -0.237 OA
ATOM     99  O   UNL A   1      43.076  40.114  29.142  1.00  0.00    -0.744 OA
ENDBRANCH  92  96
ENDBRANCH  66  89
ENDBRANCH  40  41
ENDBRANCH  32  35
ENDBRANCH  30  31
ENDBRANCH  29  30
ENDBRANCH   1  29
TORSDOF 18
ENDMDL
MODEL 3
REMARK VINA RESULT:     -11.7      2.497      4.246
REMARK SMILES COc1ccc(CNC(=O)[C@H]2CC(C)=C(C)C[C@@H]2C(=O)NCCCNC(=O)c2ccc(-c3c4nc(c(-c5cc(S(=O)(=O)[O-])ccc5F)c5ccc([nH]5)c(-c5cc(S(=O)(=O)[O-])ccc5F)c5nc(c(-c6cc(S(=O)(=O)[O-])ccc6F)c6ccc3[nH]6)C=C5)C=C4)cc2)cc1OC
REMARK SMILES IDX 22 1 21 2 19 3 20 4 18 6 11 7 12 8 13 9 17 10 14 11 15 12
REMARK SMILES IDX 16 13 9 14 8 15 10 17 7 18 6 19 3 20 4 21 92 22 5 23 91 24
REMARK SMILES IDX 2 25 1 26 93 27 94 28 23 29 24 30 25 31 26 32 27 34 28 35
REMARK SMILES IDX 29 36 90 37 30 38 89 39 31 40 32 41 33 42 83 43 34 44 88 45
REMARK SMILES IDX 82 46 84 47 35 48 87 49 81 50 80 51 36 53 68 54 48 55 67 56
REMARK SMILES IDX 49 57 52 58 66 59 85 60 50 61 51 62 65 64 86 65 53 66 37 67
REMARK SMILES IDX 38 68 46 69 39 70 45 71 47 72 44 73 40 74 41 75 42 76 43 77
REMARK SMILES IDX 69 78 70 79 78 80 71 81 77 82 79 83 76 84 72 85 73 86 74 87
REMARK SMILES IDX 75 88 54 89 55 90 63 91 56 92 62 93 64 94 61 95 57 96 58 97
REMARK SMILES IDX 59 98 60 99
REMARK H PARENT 21 5 8 16 25 33 84 52 52 63
REMARK Flexibility Score: inf
ROOT
ATOM      1  C   UNL A   1      34.644  24.271  24.532  1.00  0.00     0.117 C 
ENDROOT
BRANCH   1   2
ATOM      2  N   UNL A   1      34.613  25.535  23.811  1.00  0.00    -0.356 N 
ATOM      3  C   UNL A   1      33.970  26.707  24.098  1.00  0.00     0.224 C 
ATOM      4  O   UNL A   1      34.104  27.634  23.298  1.00  0.00    -0.275 OA
ATOM      5  H   UNL A   1      35.141  25.548  22.980  1.00  0.00     0.163 HD
BRANCH   3   6
ATOM      6  C   UNL A   1      33.140  26.839  25.384  1.00  0.00     0.095 C 
ATOM      7  C   UNL A   1      31.692  27.227  25.055  1.00  0.00     0.095 C 
ATOM      8  C   UNL A   1      31.373  28.717  25.037  1.00  0.00     0.045 C 
ATOM      9  C   UNL A   1      32.182  29.608  25.936  1.00  0.00    -0.074 C 
ATOM     10  C   UNL A   1      33.831  27.771  26.398  1.00  0.00     0.045 C 
ATOM     11  C   UNL A   1      31.569  30.973  26.123  1.00  0.00     0.039 C 
ATOM     12  C   UNL A   1      33.316  29.187  26.530  1.00  0.00    -0.074 C 
ATOM     13  C   UNL A   1      34.153  30.080  27.410  1.00  0.00     0.039 C 
BRANCH   7  14
ATOM     14  C   UNL A   1      30.685  26.295  25.728  1.00  0.00     0.224 C 
ATOM     15  N   UNL A   1      30.056  25.264  25.131  1.00  0.00    -0.352 N 
ATOM     16  H   UNL A   1      29.304  24.902  25.655  1.00  0.00     0.163 HD
ATOM     17  O   UNL A   1      30.343  26.515  26.896  1.00  0.00    -0.275 OA
BRANCH  15  18
ATOM     18  C   UNL A   1      30.264  24.586  23.876  1.00  0.00     0.151 C 
BRANCH  18  19
ATOM     19  C   UNL A   1      31.169  23.386  24.034  1.00  0.00    -0.025 A 
ATOM     20  C   UNL A   1      32.770  21.099  24.406  1.00  0.00     0.160 A 
ATOM     21  C   UNL A   1      32.456  21.540  23.117  1.00  0.00     0.051 A 
ATOM     22  C   UNL A   1      32.326  21.816  25.522  1.00  0.00     0.161 A 
ATOM     23  C   UNL A   1      31.664  22.674  22.935  1.00  0.00     0.009 A 
ATOM     24  C   UNL A   1      31.509  22.940  25.320  1.00  0.00     0.056 A 
BRANCH  20  25
ATOM     25  O   UNL A   1      33.573  19.996  24.523  1.00  0.00    -0.493 OA
ATOM     26  C   UNL A   1      34.902  20.366  24.892  1.00  0.00     0.278 C 
ENDBRANCH  20  25
BRANCH  22  27
ATOM     27  O   UNL A   1      32.569  21.573  26.846  1.00  0.00    -0.493 OA
ATOM     28  C   UNL A   1      33.024  22.644  27.657  1.00  0.00     0.278 C 
ENDBRANCH  22  27
ENDBRANCH  18  19
ENDBRANCH  15  18
ENDBRANCH   7  14
ENDBRANCH   3   6
ENDBRANCH   1   2
BRANCH   1  29
ATOM     29  C   UNL A   1      35.898  24.124  25.396  1.00  0.00     0.042 C 
BRANCH  29  30
ATOM     30  C   UNL A   1      37.120  23.632  24.631  1.00  0.00     0.118 C 
BRANCH  30  31
ATOM     31  N   UNL A   1      37.825  22.588  25.354  1.00  0.00    -0.352 N 
ATOM     32  C   UNL A   1      38.912  22.682  26.184  1.00  0.00     0.251 C 
ATOM     33  H   UNL A   1      37.472  21.678  25.229  1.00  0.00     0.163 HD
ATOM     34  O   UNL A   1      39.507  21.648  26.502  1.00  0.00    -0.269 OA
BRANCH  32  35
ATOM     35  C   UNL A   1      39.383  23.993  26.689  1.00  0.00     0.039 A 
ATOM     36  C   UNL A   1      39.083  24.350  28.008  1.00  0.00     0.014 A 
ATOM     37  C   UNL A   1      40.064  24.895  25.867  1.00  0.00     0.014 A 
ATOM     38  C   UNL A   1      39.491  25.590  28.507  1.00  0.00     0.010 A 
ATOM     39  C   UNL A   1      40.539  26.098  26.388  1.00  0.00     0.010 A 
ATOM     40  C   UNL A   1      40.241  26.468  27.707  1.00  0.00    -0.014 A 
BRANCH  40  41
ATOM     41  C   UNL A   1      40.685  27.787  28.230  1.00  0.00     0.031 A 
ATOM     42  C   UNL A   1      42.155  28.100  28.341  1.00  0.00     0.074 A 
ATOM     43  C   UNL A   1      39.768  28.688  28.637  1.00  0.00     0.049 A 
ATOM     44  N   UNL A   1      42.741  29.173  28.808  1.00  0.00    -0.248 NA
ATOM     45  C   UNL A   1      43.087  27.054  27.894  1.00  0.00     0.031 C 
ATOM     46  C   UNL A   1      38.318  28.482  28.616  1.00  0.00     0.029 A 
ATOM     47  N   UNL A   1      39.916  29.951  29.150  1.00  0.00    -0.354 N 
ATOM     48  C   UNL A   1      44.108  28.925  28.724  1.00  0.00     0.074 A 
ATOM     49  C   UNL A   1      44.259  27.576  28.222  1.00  0.00     0.031 C 
ATOM     50  C   UNL A   1      37.711  29.591  29.069  1.00  0.00     0.029 A 
ATOM     51  C   UNL A   1      38.724  30.569  29.451  1.00  0.00     0.049 A 
ATOM     52  H   UNL A   1      40.793  30.375  29.291  1.00  0.00     0.167 HD
ATOM     53  C   UNL A   1      45.141  29.755  29.015  1.00  0.00     0.034 A 
ATOM     54  C   UNL A   1      38.476  31.784  29.981  1.00  0.00     0.034 A 
ATOM     55  C   UNL A   1      44.972  31.103  29.502  1.00  0.00     0.049 A 
ATOM     56  C   UNL A   1      39.639  32.685  30.304  1.00  0.00     0.074 A 
ATOM     57  C   UNL A   1      45.944  32.050  29.780  1.00  0.00     0.029 A 
ATOM     58  N   UNL A   1      43.749  31.698  29.788  1.00  0.00    -0.354 N 
ATOM     59  N   UNL A   1      40.926  32.455  30.171  1.00  0.00    -0.248 NA
ATOM     60  C   UNL A   1      39.317  34.016  30.833  1.00  0.00     0.031 C 
ATOM     61  C   UNL A   1      45.315  33.188  30.295  1.00  0.00     0.029 A 
ATOM     62  C   UNL A   1      43.944  32.986  30.266  1.00  0.00     0.049 A 
ATOM     63  H   UNL A   1      42.872  31.268  29.669  1.00  0.00     0.167 HD
ATOM     64  C   UNL A   1      41.564  33.626  30.573  1.00  0.00     0.074 A 
ATOM     65  C   UNL A   1      40.520  34.563  30.934  1.00  0.00     0.031 C 
ATOM     66  C   UNL A   1      42.892  33.903  30.636  1.00  0.00     0.034 A 
BRANCH  53  67
ATOM     67  C   UNL A   1      46.542  29.211  28.841  1.00  0.00     0.023 A 
ATOM     68  C   UNL A   1      47.116  29.040  27.567  1.00  0.00     0.031 A 
ATOM     69  C   UNL A   1      47.304  28.828  29.959  1.00  0.00     0.131 A 
ATOM     70  C   UNL A   1      48.372  28.429  27.440  1.00  0.00     0.055 A 
ATOM     71  C   UNL A   1      48.590  28.300  29.829  1.00  0.00     0.041 A 
ATOM     72  F   UNL A   1      46.805  28.948  31.199  1.00  0.00    -0.206 F 
ATOM     73  C   UNL A   1      49.125  28.081  28.563  1.00  0.00     0.022 A 
BRANCH  70  74
ATOM     74  S   UNL A   1      48.943  27.961  25.783  1.00  0.00     0.124 S 
ATOM     75  O   UNL A   1      50.179  28.732  25.668  1.00  0.00    -0.237 OA
ATOM     76  O   UNL A   1      49.100  26.516  25.898  1.00  0.00    -0.237 OA
ATOM     77  O   UNL A   1      47.859  28.403  24.908  1.00  0.00    -0.744 OA
ENDBRANCH  70  74
ENDBRANCH  53  67
BRANCH  54  78
ATOM     78  C   UNL A   1      37.075  32.221  30.243  1.00  0.00     0.023 A 
ATOM     79  C   UNL A   1      36.333  32.903  29.265  1.00  0.00     0.031 A 
ATOM     80  C   UNL A   1      36.469  31.998  31.492  1.00  0.00     0.131 A 
ATOM     81  C   UNL A   1      35.048  33.379  29.567  1.00  0.00     0.055 A 
ATOM     82  C   UNL A   1      35.170  32.427  31.770  1.00  0.00     0.041 A 
ATOM     83  F   UNL A   1      37.131  31.347  32.462  1.00  0.00    -0.206 F 
ATOM     84  C   UNL A   1      34.457  33.134  30.807  1.00  0.00     0.022 A 
BRANCH  81  85
ATOM     85  S   UNL A   1      34.189  34.400  28.337  1.00  0.00     0.124 S 
ATOM     86  O   UNL A   1      33.969  35.636  29.080  1.00  0.00    -0.237 OA
ATOM     87  O   UNL A   1      35.168  34.464  27.258  1.00  0.00    -0.237 OA
ATOM     88  O   UNL A   1      32.984  33.630  28.038  1.00  0.00    -0.744 OA
ENDBRANCH  81  85
ENDBRANCH  54  78
BRANCH  66  89
ATOM     89  C   UNL A   1      43.278  35.296  31.074  1.00  0.00     0.023 A 
ATOM     90  C   UNL A   1      43.319  35.660  32.431  1.00  0.00     0.031 A 
ATOM     91  C   UNL A   1      43.585  36.278  30.116  1.00  0.00     0.131 A 
ATOM     92  C   UNL A   1      43.598  36.987  32.790  1.00  0.00     0.055 A 
ATOM     93  C   UNL A   1      43.924  37.582  30.482  1.00  0.00     0.041 A 
ATOM     94  F   UNL A   1      43.560  35.988  28.805  1.00  0.00    -0.206 F 
ATOM     95  C   UNL A   1      43.916  37.946  31.825  1.00  0.00     0.022 A 
BRANCH  92  96
ATOM     96  S   UNL A   1      43.435  37.471  34.531  1.00  0.00     0.124 S 
ATOM     97  O   UNL A   1      44.630  36.878  35.124  1.00  0.00    -0.237 OA
ATOM     98  O   UNL A   1      43.419  38.927  34.451  1.00  0.00    -0.237 OA
ATOM     99  O   UNL A   1      42.172  36.859  34.941  1.00  0.00    -0.744 OA
ENDBRANCH  92  96
ENDBRANCH  66  89
ENDBRANCH  40  41
ENDBRANCH  32  35
ENDBRANCH  30  31
ENDBRANCH  29  30
ENDBRANCH   1  29
TORSDOF 18
ENDMDL
