MODEL 1
REMARK VINA RESULT:     -12.9      0.000      0.000
REMARK SMILES O=C(CCC(=O)N1CCC[C@@]2(CCC(=O)N(Cc3ccncc3)C2)C1)NCCCNC(=O)c1ccc(-c2c3nc(c(-c4cc(S(=O)(=O)[O-])ccc4F)c4ccc([nH]4)c(-c4cc(S(=O)(=O)[O-])ccc4F)c4nc(c(-c5cc(S(=O)(=O)[O-])ccc5F)c5ccc2[nH]5)C=C4)C=C3)cc1
REMARK SMILES IDX 27 1 26 2 1 3 2 4 3 6 4 7 5 8 6 9 7 10 8 11 25 12 9 13 11 14
REMARK SMILES IDX 10 15 12 16 24 17 13 18 16 19 14 20 15 21 17 22 18 23 19 24
REMARK SMILES IDX 23 25 20 26 22 27 21 28 28 29 29 30 30 31 31 32 32 34 33 35
REMARK SMILES IDX 34 36 95 37 35 38 94 39 36 40 37 41 38 42 88 43 39 44 93 45
REMARK SMILES IDX 87 46 89 47 40 48 92 49 86 50 85 51 41 53 73 54 53 55 72 56
REMARK SMILES IDX 54 57 57 58 71 59 90 60 55 61 56 62 70 64 91 65 58 66 42 67
REMARK SMILES IDX 43 68 51 69 44 70 50 71 52 72 49 73 45 74 46 75 47 76 48 77
REMARK SMILES IDX 74 78 75 79 83 80 76 81 82 82 84 83 81 84 77 85 78 86 79 87
REMARK SMILES IDX 80 88 59 89 60 90 68 91 61 92 67 93 69 94 66 95 62 96 63 97
REMARK SMILES IDX 64 98 65 99
REMARK H PARENT 26 5 30 33 89 52 57 63
REMARK Flexibility Score: inf
ROOT
ATOM      1  C   UNL A   1      38.595  22.007  25.834  1.00  0.00     0.117 C 
ENDROOT
BRANCH   1   2
ATOM      2  N   UNL A   1      37.342  22.642  26.187  1.00  0.00    -0.356 N 
ATOM      3  O   UNL A   1      36.131  21.480  24.616  1.00  0.00    -0.275 OA
ATOM      4  C   UNL A   1      36.180  22.304  25.526  1.00  0.00     0.220 C 
ATOM      5  H   UNL A   1      37.320  23.318  26.901  1.00  0.00     0.163 HD
BRANCH   4   6
ATOM      6  C   UNL A   1      34.931  22.977  26.043  1.00  0.00     0.110 C 
BRANCH   6   7
ATOM      7  C   UNL A   1      33.958  21.919  26.557  1.00  0.00     0.110 C 
BRANCH   7   8
ATOM      8  C   UNL A   1      32.697  22.604  27.039  1.00  0.00     0.223 C 
ATOM      9  O   UNL A   1      32.444  22.555  28.249  1.00  0.00    -0.275 OA
BRANCH   8  10
ATOM     10  N   UNL A   1      31.824  23.198  26.140  1.00  0.00    -0.342 N 
ATOM     11  C   UNL A   1      31.554  22.436  24.913  1.00  0.00     0.119 C 
ATOM     12  C   UNL A   1      30.982  24.387  26.365  1.00  0.00     0.128 C 
ATOM     13  C   UNL A   1      31.117  23.308  23.744  1.00  0.00     0.022 C 
ATOM     14  C   UNL A   1      30.983  25.396  25.174  1.00  0.00     0.006 C 
ATOM     15  C   UNL A   1      31.621  24.729  23.932  1.00  0.00     0.012 C 
ATOM     16  C   UNL A   1      29.549  25.880  24.887  1.00  0.00     0.020 C 
ATOM     17  C   UNL A   1      31.753  26.678  25.551  1.00  0.00     0.128 C 
ATOM     18  C   UNL A   1      29.489  26.911  23.766  1.00  0.00     0.101 C 
ATOM     19  N   UNL A   1      31.748  27.676  24.486  1.00  0.00    -0.338 N 
ATOM     20  C   UNL A   1      30.664  27.869  23.645  1.00  0.00     0.222 C 
ATOM     21  O   UNL A   1      30.643  28.739  22.774  1.00  0.00    -0.275 OA
BRANCH  19  22
ATOM     22  C   UNL A   1      32.925  28.528  24.323  1.00  0.00     0.155 C 
BRANCH  22  23
ATOM     23  C   UNL A   1      33.303  29.308  25.555  1.00  0.00    -0.026 A 
ATOM     24  C   UNL A   1      32.527  30.373  26.016  1.00  0.00     0.025 A 
ATOM     25  C   UNL A   1      34.443  28.956  26.286  1.00  0.00     0.025 A 
ATOM     26  C   UNL A   1      32.923  31.031  27.172  1.00  0.00     0.111 A 
ATOM     27  C   UNL A   1      34.756  29.674  27.430  1.00  0.00     0.111 A 
ATOM     28  N   UNL A   1      34.019  30.706  27.892  1.00  0.00    -0.265 NA
ENDBRANCH  22  23
ENDBRANCH  19  22
ENDBRANCH   8  10
ENDBRANCH   7   8
ENDBRANCH   6   7
ENDBRANCH   4   6
ENDBRANCH   1   2
BRANCH   1  29
ATOM     29  C   UNL A   1      39.813  22.490  26.603  1.00  0.00     0.042 C 
BRANCH  29  30
ATOM     30  C   UNL A   1      40.630  21.417  27.319  1.00  0.00     0.118 C 
BRANCH  30  31
ATOM     31  N   UNL A   1      41.137  20.349  26.469  1.00  0.00    -0.352 N 
ATOM     32  C   UNL A   1      42.349  20.205  25.831  1.00  0.00     0.251 C 
ATOM     33  H   UNL A   1      40.507  19.606  26.326  1.00  0.00     0.163 HD
ATOM     34  O   UNL A   1      42.596  19.161  25.230  1.00  0.00    -0.269 OA
BRANCH  32  35
ATOM     35  C   UNL A   1      43.287  21.345  25.768  1.00  0.00     0.039 A 
ATOM     36  C   UNL A   1      43.192  22.204  24.669  1.00  0.00     0.014 A 
ATOM     37  C   UNL A   1      44.108  21.666  26.846  1.00  0.00     0.014 A 
ATOM     38  C   UNL A   1      43.763  23.474  24.741  1.00  0.00     0.010 A 
ATOM     39  C   UNL A   1      44.594  22.964  26.958  1.00  0.00     0.010 A 
ATOM     40  C   UNL A   1      44.359  23.899  25.938  1.00  0.00    -0.014 A 
BRANCH  40  41
ATOM     41  C   UNL A   1      44.592  25.341  26.219  1.00  0.00     0.031 A 
ATOM     42  C   UNL A   1      45.951  25.945  26.033  1.00  0.00     0.074 A 
ATOM     43  C   UNL A   1      43.610  26.052  26.812  1.00  0.00     0.049 A 
ATOM     44  N   UNL A   1      46.407  27.099  26.444  1.00  0.00    -0.248 NA
ATOM     45  C   UNL A   1      46.942  25.112  25.339  1.00  0.00     0.031 C 
ATOM     46  C   UNL A   1      42.268  25.552  27.131  1.00  0.00     0.029 A 
ATOM     47  N   UNL A   1      43.594  27.342  27.278  1.00  0.00    -0.354 N 
ATOM     48  C   UNL A   1      47.756  27.113  26.108  1.00  0.00     0.074 A 
ATOM     49  C   UNL A   1      48.042  25.837  25.481  1.00  0.00     0.031 C 
ATOM     50  C   UNL A   1      41.557  26.526  27.717  1.00  0.00     0.029 A 
ATOM     51  C   UNL A   1      42.403  27.702  27.864  1.00  0.00     0.049 A 
ATOM     52  H   UNL A   1      44.363  27.952  27.200  1.00  0.00     0.167 HD
ATOM     53  C   UNL A   1      48.668  28.098  26.307  1.00  0.00     0.034 A 
ATOM     54  C   UNL A   1      42.036  28.843  28.477  1.00  0.00     0.034 A 
ATOM     55  C   UNL A   1      48.357  29.376  26.899  1.00  0.00     0.049 A 
ATOM     56  C   UNL A   1      43.034  29.956  28.597  1.00  0.00     0.074 A 
ATOM     57  C   UNL A   1      49.187  30.469  27.091  1.00  0.00     0.029 A 
ATOM     58  N   UNL A   1      47.109  29.738  27.392  1.00  0.00    -0.354 N 
ATOM     59  N   UNL A   1      44.301  29.962  28.258  1.00  0.00    -0.248 NA
ATOM     60  C   UNL A   1      42.554  31.214  29.182  1.00  0.00     0.031 C 
ATOM     61  C   UNL A   1      48.448  31.479  27.722  1.00  0.00     0.029 A 
ATOM     62  C   UNL A   1      47.147  31.032  27.890  1.00  0.00     0.049 A 
ATOM     63  H   UNL A   1      46.313  29.159  27.387  1.00  0.00     0.167 HD
ATOM     64  C   UNL A   1      44.772  31.226  28.588  1.00  0.00     0.074 A 
ATOM     65  C   UNL A   1      43.649  31.960  29.138  1.00  0.00     0.031 C 
ATOM     66  C   UNL A   1      46.021  31.735  28.449  1.00  0.00     0.034 A 
BRANCH  53  67
ATOM     67  C   UNL A   1      50.089  27.797  25.908  1.00  0.00     0.023 A 
ATOM     68  C   UNL A   1      50.517  27.905  24.574  1.00  0.00     0.031 A 
ATOM     69  C   UNL A   1      51.007  27.316  26.859  1.00  0.00     0.131 A 
ATOM     70  C   UNL A   1      51.791  27.447  24.209  1.00  0.00     0.055 A 
ATOM     71  C   UNL A   1      52.304  26.939  26.503  1.00  0.00     0.041 A 
ATOM     72  F   UNL A   1      50.647  27.173  28.144  1.00  0.00    -0.206 F 
ATOM     73  C   UNL A   1      52.696  26.984  25.167  1.00  0.00     0.022 A 
BRANCH  70  74
ATOM     74  S   UNL A   1      52.184  27.308  22.444  1.00  0.00     0.124 S 
ATOM     75  O   UNL A   1      52.802  28.604  22.178  1.00  0.00    -0.237 OA
ATOM     76  O   UNL A   1      53.078  26.155  22.409  1.00  0.00    -0.237 OA
ATOM     77  O   UNL A   1      50.880  27.107  21.817  1.00  0.00    -0.744 OA
ENDBRANCH  70  74
ENDBRANCH  53  67
BRANCH  54  78
ATOM     78  C   UNL A   1      40.668  28.982  29.036  1.00  0.00     0.023 A 
ATOM     79  C   UNL A   1      40.447  28.892  30.419  1.00  0.00     0.031 A 
ATOM     80  C   UNL A   1      39.565  29.207  28.196  1.00  0.00     0.131 A 
ATOM     81  C   UNL A   1      39.142  28.999  30.923  1.00  0.00     0.055 A 
ATOM     82  C   UNL A   1      38.272  29.339  28.705  1.00  0.00     0.041 A 
ATOM     83  F   UNL A   1      39.735  29.321  26.869  1.00  0.00    -0.206 F 
ATOM     84  C   UNL A   1      38.054  29.228  30.076  1.00  0.00     0.022 A 
BRANCH  81  85
ATOM     85  S   UNL A   1      38.884  28.797  32.707  1.00  0.00     0.124 S 
ATOM     86  O   UNL A   1      40.065  28.033  33.097  1.00  0.00    -0.237 OA
ATOM     87  O   UNL A   1      38.836  30.181  33.165  1.00  0.00    -0.237 OA
ATOM     88  O   UNL A   1      37.619  28.072  32.788  1.00  0.00    -0.744 OA
ENDBRANCH  81  85
ENDBRANCH  54  78
BRANCH  66  89
ATOM     89  C   UNL A   1      46.206  33.162  28.880  1.00  0.00     0.023 A 
ATOM     90  C   UNL A   1      45.941  34.228  28.004  1.00  0.00     0.031 A 
ATOM     91  C   UNL A   1      46.690  33.452  30.165  1.00  0.00     0.131 A 
ATOM     92  C   UNL A   1      46.201  35.542  28.414  1.00  0.00     0.055 A 
ATOM     93  C   UNL A   1      46.917  34.764  30.579  1.00  0.00     0.041 A 
ATOM     94  F   UNL A   1      46.962  32.462  31.030  1.00  0.00    -0.206 F 
ATOM     95  C   UNL A   1      46.680  35.818  29.699  1.00  0.00     0.022 A 
BRANCH  92  96
ATOM     96  S   UNL A   1      45.954  36.893  27.227  1.00  0.00     0.124 S 
ATOM     97  O   UNL A   1      46.863  36.519  26.149  1.00  0.00    -0.237 OA
ATOM     98  O   UNL A   1      44.530  36.788  26.925  1.00  0.00    -0.237 OA
ATOM     99  O   UNL A   1      46.340  38.085  27.978  1.00  0.00    -0.744 OA
ENDBRANCH  92  96
ENDBRANCH  66  89
ENDBRANCH  40  41
ENDBRANCH  32  35
ENDBRANCH  30  31
ENDBRANCH  29  30
ENDBRANCH   1  29
TORSDOF 18
ENDMDL
MODEL 2
REMARK VINA RESULT:     -12.9      2.655      8.720
REMARK SMILES O=C(CCC(=O)N1CCC[C@@]2(CCC(=O)N(Cc3ccncc3)C2)C1)NCCCNC(=O)c1ccc(-c2c3nc(c(-c4cc(S(=O)(=O)[O-])ccc4F)c4ccc([nH]4)c(-c4cc(S(=O)(=O)[O-])ccc4F)c4nc(c(-c5cc(S(=O)(=O)[O-])ccc5F)c5ccc2[nH]5)C=C4)C=C3)cc1
REMARK SMILES IDX 27 1 26 2 1 3 2 4 3 6 4 7 5 8 6 9 7 10 8 11 25 12 9 13 11 14
REMARK SMILES IDX 10 15 12 16 24 17 13 18 16 19 14 20 15 21 17 22 18 23 19 24
REMARK SMILES IDX 23 25 20 26 22 27 21 28 28 29 29 30 30 31 31 32 32 34 33 35
REMARK SMILES IDX 34 36 95 37 35 38 94 39 36 40 37 41 38 42 88 43 39 44 93 45
REMARK SMILES IDX 87 46 89 47 40 48 92 49 86 50 85 51 41 53 73 54 53 55 72 56
REMARK SMILES IDX 54 57 57 58 71 59 90 60 55 61 56 62 70 64 91 65 58 66 42 67
REMARK SMILES IDX 43 68 51 69 44 70 50 71 52 72 49 73 45 74 46 75 47 76 48 77
REMARK SMILES IDX 74 78 75 79 83 80 76 81 82 82 84 83 81 84 77 85 78 86 79 87
REMARK SMILES IDX 80 88 59 89 60 90 68 91 61 92 67 93 69 94 66 95 62 96 63 97
REMARK SMILES IDX 64 98 65 99
REMARK H PARENT 26 5 30 33 89 52 57 63
REMARK Flexibility Score: inf
ROOT
ATOM      1  C   UNL A   1      34.943  33.873  29.277  1.00  0.00     0.117 C 
ENDROOT
BRANCH   1   2
ATOM      2  N   UNL A   1      33.984  33.076  28.542  1.00  0.00    -0.356 N 
ATOM      3  O   UNL A   1      35.528  31.478  27.953  1.00  0.00    -0.275 OA
ATOM      4  C   UNL A   1      34.376  31.904  27.929  1.00  0.00     0.220 C 
ATOM      5  H   UNL A   1      33.047  33.372  28.477  1.00  0.00     0.163 HD
BRANCH   4   6
ATOM      6  C   UNL A   1      33.265  31.127  27.265  1.00  0.00     0.110 C 
BRANCH   6   7
ATOM      7  C   UNL A   1      33.663  29.656  27.165  1.00  0.00     0.110 C 
BRANCH   7   8
ATOM      8  C   UNL A   1      32.446  28.844  26.775  1.00  0.00     0.223 C 
ATOM      9  O   UNL A   1      31.658  28.524  27.673  1.00  0.00    -0.275 OA
BRANCH   8  10
ATOM     10  N   UNL A   1      32.269  28.415  25.468  1.00  0.00    -0.342 N 
ATOM     11  C   UNL A   1      30.905  28.533  24.936  1.00  0.00     0.119 C 
ATOM     12  C   UNL A   1      33.317  28.060  24.495  1.00  0.00     0.128 C 
ATOM     13  C   UNL A   1      30.611  27.560  23.803  1.00  0.00     0.022 C 
ATOM     14  C   UNL A   1      33.013  26.760  23.685  1.00  0.00     0.006 C 
ATOM     15  C   UNL A   1      31.534  26.355  23.893  1.00  0.00     0.012 C 
ATOM     16  C   UNL A   1      33.341  26.973  22.195  1.00  0.00     0.020 C 
ATOM     17  C   UNL A   1      33.950  25.616  24.125  1.00  0.00     0.128 C 
ATOM     18  C   UNL A   1      33.115  25.720  21.357  1.00  0.00     0.101 C 
ATOM     19  N   UNL A   1      33.738  24.387  23.367  1.00  0.00    -0.338 N 
ATOM     20  C   UNL A   1      33.398  24.383  22.024  1.00  0.00     0.222 C 
ATOM     21  O   UNL A   1      33.260  23.346  21.375  1.00  0.00    -0.275 OA
BRANCH  19  22
ATOM     22  C   UNL A   1      33.923  23.107  24.049  1.00  0.00     0.155 C 
BRANCH  22  23
ATOM     23  C   UNL A   1      33.155  22.973  25.339  1.00  0.00    -0.026 A 
ATOM     24  C   UNL A   1      31.760  23.020  25.370  1.00  0.00     0.025 A 
ATOM     25  C   UNL A   1      33.837  22.768  26.544  1.00  0.00     0.025 A 
ATOM     26  C   UNL A   1      31.118  22.864  26.591  1.00  0.00     0.111 A 
ATOM     27  C   UNL A   1      33.107  22.622  27.712  1.00  0.00     0.111 A 
ATOM     28  N   UNL A   1      31.758  22.665  27.764  1.00  0.00    -0.265 NA
ENDBRANCH  22  23
ENDBRANCH  19  22
ENDBRANCH   8  10
ENDBRANCH   7   8
ENDBRANCH   6   7
ENDBRANCH   4   6
ENDBRANCH   1   2
BRANCH   1  29
ATOM     29  C   UNL A   1      34.681  34.003  30.769  1.00  0.00     0.042 C 
BRANCH  29  30
ATOM     30  C   UNL A   1      34.579  32.698  31.554  1.00  0.00     0.118 C 
BRANCH  30  31
ATOM     31  N   UNL A   1      35.253  32.695  32.845  1.00  0.00    -0.352 N 
ATOM     32  C   UNL A   1      36.422  32.086  33.248  1.00  0.00     0.251 C 
ATOM     33  H   UNL A   1      34.797  33.213  33.547  1.00  0.00     0.163 HD
ATOM     34  O   UNL A   1      36.855  32.298  34.379  1.00  0.00    -0.269 OA
BRANCH  32  35
ATOM     35  C   UNL A   1      37.074  31.093  32.370  1.00  0.00     0.039 A 
ATOM     36  C   UNL A   1      37.161  31.388  31.006  1.00  0.00     0.014 A 
ATOM     37  C   UNL A   1      37.745  29.992  32.898  1.00  0.00     0.014 A 
ATOM     38  C   UNL A   1      38.078  30.699  30.214  1.00  0.00     0.010 A 
ATOM     39  C   UNL A   1      38.726  29.372  32.133  1.00  0.00     0.010 A 
ATOM     40  C   UNL A   1      38.949  29.774  30.806  1.00  0.00    -0.014 A 
BRANCH  40  41
ATOM     41  C   UNL A   1      40.198  29.339  30.126  1.00  0.00     0.031 A 
ATOM     42  C   UNL A   1      41.358  30.278  29.989  1.00  0.00     0.074 A 
ATOM     43  C   UNL A   1      40.205  28.154  29.481  1.00  0.00     0.049 A 
ATOM     44  N   UNL A   1      42.422  30.175  29.235  1.00  0.00    -0.248 NA
ATOM     45  C   UNL A   1      41.281  31.524  30.762  1.00  0.00     0.031 C 
ATOM     46  C   UNL A   1      39.102  27.186  29.461  1.00  0.00     0.029 A 
ATOM     47  N   UNL A   1      41.163  27.569  28.692  1.00  0.00    -0.354 N 
ATOM     48  C   UNL A   1      43.118  31.366  29.399  1.00  0.00     0.074 A 
ATOM     49  C   UNL A   1      42.337  32.183  30.308  1.00  0.00     0.031 C 
ATOM     50  C   UNL A   1      39.454  26.124  28.722  1.00  0.00     0.029 A 
ATOM     51  C   UNL A   1      40.782  26.354  28.170  1.00  0.00     0.049 A 
ATOM     52  H   UNL A   1      42.040  27.979  28.516  1.00  0.00     0.167 HD
ATOM     53  C   UNL A   1      44.297  31.742  28.842  1.00  0.00     0.034 A 
ATOM     54  C   UNL A   1      41.417  25.525  27.321  1.00  0.00     0.034 A 
ATOM     55  C   UNL A   1      45.080  30.901  27.969  1.00  0.00     0.049 A 
ATOM     56  C   UNL A   1      42.766  25.919  26.796  1.00  0.00     0.074 A 
ATOM     57  C   UNL A   1      46.317  31.154  27.400  1.00  0.00     0.029 A 
ATOM     58  N   UNL A   1      44.702  29.633  27.543  1.00  0.00    -0.354 N 
ATOM     59  N   UNL A   1      43.420  27.042  26.974  1.00  0.00    -0.248 NA
ATOM     60  C   UNL A   1      43.459  24.936  25.955  1.00  0.00     0.031 C 
ATOM     61  C   UNL A   1      46.674  30.052  26.610  1.00  0.00     0.029 A 
ATOM     62  C   UNL A   1      45.677  29.095  26.717  1.00  0.00     0.049 A 
ATOM     63  H   UNL A   1      43.864  29.182  27.793  1.00  0.00     0.167 HD
ATOM     64  C   UNL A   1      44.607  26.900  26.267  1.00  0.00     0.074 A 
ATOM     65  C   UNL A   1      44.585  25.578  25.672  1.00  0.00     0.031 C 
ATOM     66  C   UNL A   1      45.625  27.783  26.122  1.00  0.00     0.034 A 
BRANCH  53  67
ATOM     67  C   UNL A   1      44.774  33.139  29.143  1.00  0.00     0.023 A 
ATOM     68  C   UNL A   1      44.442  34.223  28.314  1.00  0.00     0.031 A 
ATOM     69  C   UNL A   1      45.639  33.376  30.227  1.00  0.00     0.131 A 
ATOM     70  C   UNL A   1      45.047  35.472  28.520  1.00  0.00     0.055 A 
ATOM     71  C   UNL A   1      46.173  34.642  30.477  1.00  0.00     0.041 A 
ATOM     72  F   UNL A   1      46.006  32.373  31.040  1.00  0.00    -0.206 F 
ATOM     73  C   UNL A   1      45.894  35.695  29.609  1.00  0.00     0.022 A 
BRANCH  70  74
ATOM     74  S   UNL A   1      44.842  36.750  27.250  1.00  0.00     0.124 S 
ATOM     75  O   UNL A   1      43.539  36.400  26.690  1.00  0.00    -0.237 OA
ATOM     76  O   UNL A   1      44.892  37.981  28.030  1.00  0.00    -0.237 OA
ATOM     77  O   UNL A   1      45.977  36.529  26.356  1.00  0.00    -0.744 OA
ENDBRANCH  70  74
ENDBRANCH  53  67
BRANCH  54  78
ATOM     78  C   UNL A   1      40.778  24.252  26.904  1.00  0.00     0.023 A 
ATOM     79  C   UNL A   1      41.507  23.054  26.898  1.00  0.00     0.031 A 
ATOM     80  C   UNL A   1      39.431  24.218  26.507  1.00  0.00     0.131 A 
ATOM     81  C   UNL A   1      40.890  21.867  26.474  1.00  0.00     0.055 A 
ATOM     82  C   UNL A   1      38.814  23.030  26.111  1.00  0.00     0.041 A 
ATOM     83  F   UNL A   1      38.691  25.339  26.519  1.00  0.00    -0.206 F 
ATOM     84  C   UNL A   1      39.548  21.846  26.086  1.00  0.00     0.022 A 
BRANCH  81  85
ATOM     85  S   UNL A   1      41.885  20.352  26.401  1.00  0.00     0.124 S 
ATOM     86  O   UNL A   1      42.382  20.253  27.770  1.00  0.00    -0.237 OA
ATOM     87  O   UNL A   1      40.894  19.357  26.005  1.00  0.00    -0.237 OA
ATOM     88  O   UNL A   1      42.896  20.657  25.392  1.00  0.00    -0.744 OA
ENDBRANCH  81  85
ENDBRANCH  54  78
BRANCH  66  89
ATOM     89  C   UNL A   1      46.797  27.316  25.308  1.00  0.00     0.023 A 
ATOM     90  C   UNL A   1      46.995  27.765  23.992  1.00  0.00     0.031 A 
ATOM     91  C   UNL A   1      47.699  26.383  25.844  1.00  0.00     0.131 A 
ATOM     92  C   UNL A   1      48.055  27.247  23.236  1.00  0.00     0.055 A 
ATOM     93  C   UNL A   1      48.771  25.895  25.098  1.00  0.00     0.041 A 
ATOM     94  F   UNL A   1      47.542  25.924  27.095  1.00  0.00    -0.206 F 
ATOM     95  C   UNL A   1      48.949  26.320  23.783  1.00  0.00     0.022 A 
BRANCH  92  96
ATOM     96  S   UNL A   1      48.226  27.760  21.503  1.00  0.00     0.124 S 
ATOM     97  O   UNL A   1      48.585  26.506  20.849  1.00  0.00    -0.237 OA
ATOM     98  O   UNL A   1      46.896  28.279  21.198  1.00  0.00    -0.237 OA
ATOM     99  O   UNL A   1      49.286  28.764  21.545  1.00  0.00    -0.744 OA
ENDBRANCH  92  96
ENDBRANCH  66  89
ENDBRANCH  40  41
ENDBRANCH  32  35
ENDBRANCH  30  31
ENDBRANCH  29  30
ENDBRANCH   1  29
TORSDOF 18
ENDMDL
MODEL 3
REMARK VINA RESULT:     -12.9      5.094      7.890
REMARK SMILES O=C(CCC(=O)N1CCC[C@@]2(CCC(=O)N(Cc3ccncc3)C2)C1)NCCCNC(=O)c1ccc(-c2c3nc(c(-c4cc(S(=O)(=O)[O-])ccc4F)c4ccc([nH]4)c(-c4cc(S(=O)(=O)[O-])ccc4F)c4nc(c(-c5cc(S(=O)(=O)[O-])ccc5F)c5ccc2[nH]5)C=C4)C=C3)cc1
REMARK SMILES IDX 27 1 26 2 1 3 2 4 3 6 4 7 5 8 6 9 7 10 8 11 25 12 9 13 11 14
REMARK SMILES IDX 10 15 12 16 24 17 13 18 16 19 14 20 15 21 17 22 18 23 19 24
REMARK SMILES IDX 23 25 20 26 22 27 21 28 28 29 29 30 30 31 31 32 32 34 33 35
REMARK SMILES IDX 34 36 95 37 35 38 94 39 36 40 37 41 38 42 88 43 39 44 93 45
REMARK SMILES IDX 87 46 89 47 40 48 92 49 86 50 85 51 41 53 73 54 53 55 72 56
REMARK SMILES IDX 54 57 57 58 71 59 90 60 55 61 56 62 70 64 91 65 58 66 42 67
REMARK SMILES IDX 43 68 51 69 44 70 50 71 52 72 49 73 45 74 46 75 47 76 48 77
REMARK SMILES IDX 74 78 75 79 83 80 76 81 82 82 84 83 81 84 77 85 78 86 79 87
REMARK SMILES IDX 80 88 59 89 60 90 68 91 61 92 67 93 69 94 66 95 62 96 63 97
REMARK SMILES IDX 64 98 65 99
REMARK H PARENT 26 5 30 33 89 52 57 63
REMARK Flexibility Score: inf
ROOT
ATOM      1  C   UNL A   1      42.465  20.960  26.116  1.00  0.00     0.117 C 
ENDROOT
BRANCH   1   2
ATOM      2  N   UNL A   1      41.228  21.661  25.843  1.00  0.00    -0.356 N 
ATOM      3  O   UNL A   1      40.456  21.458  27.998  1.00  0.00    -0.275 OA
ATOM      4  C   UNL A   1      40.304  21.860  26.847  1.00  0.00     0.220 C 
ATOM      5  H   UNL A   1      41.045  21.997  24.936  1.00  0.00     0.163 HD
BRANCH   4   6
ATOM      6  C   UNL A   1      39.095  22.674  26.452  1.00  0.00     0.110 C 
BRANCH   6   7
ATOM      7  C   UNL A   1      38.062  21.763  25.793  1.00  0.00     0.110 C 
BRANCH   7   8
ATOM      8  C   UNL A   1      36.962  22.616  25.200  1.00  0.00     0.223 C 
ATOM      9  O   UNL A   1      37.296  23.588  24.512  1.00  0.00    -0.275 OA
BRANCH   8  10
ATOM     10  N   UNL A   1      35.630  22.355  25.485  1.00  0.00    -0.342 N 
ATOM     11  C   UNL A   1      35.021  21.247  24.739  1.00  0.00     0.119 C 
ATOM     12  C   UNL A   1      34.826  22.913  26.588  1.00  0.00     0.128 C 
ATOM     13  C   UNL A   1      33.508  21.358  24.614  1.00  0.00     0.022 C 
ATOM     14  C   UNL A   1      33.393  23.363  26.161  1.00  0.00     0.006 C 
ATOM     15  C   UNL A   1      33.077  22.810  24.751  1.00  0.00     0.012 C 
ATOM     16  C   UNL A   1      32.358  22.896  27.202  1.00  0.00     0.020 C 
ATOM     17  C   UNL A   1      33.282  24.901  26.173  1.00  0.00     0.128 C 
ATOM     18  C   UNL A   1      30.942  23.350  26.869  1.00  0.00     0.101 C 
ATOM     19  N   UNL A   1      31.946  25.375  25.823  1.00  0.00    -0.338 N 
ATOM     20  C   UNL A   1      30.793  24.701  26.187  1.00  0.00     0.222 C 
ATOM     21  O   UNL A   1      29.665  25.122  25.929  1.00  0.00    -0.275 OA
BRANCH  19  22
ATOM     22  C   UNL A   1      31.824  26.631  25.084  1.00  0.00     0.155 C 
BRANCH  22  23
ATOM     23  C   UNL A   1      32.335  26.572  23.668  1.00  0.00    -0.026 A 
ATOM     24  C   UNL A   1      33.319  27.448  23.206  1.00  0.00     0.025 A 
ATOM     25  C   UNL A   1      31.843  25.605  22.784  1.00  0.00     0.025 A 
ATOM     26  C   UNL A   1      33.759  27.320  21.897  1.00  0.00     0.111 A 
ATOM     27  C   UNL A   1      32.347  25.556  21.494  1.00  0.00     0.111 A 
ATOM     28  N   UNL A   1      33.298  26.393  21.028  1.00  0.00    -0.265 NA
ENDBRANCH  22  23
ENDBRANCH  19  22
ENDBRANCH   8  10
ENDBRANCH   7   8
ENDBRANCH   6   7
ENDBRANCH   4   6
ENDBRANCH   1   2
BRANCH   1  29
ATOM     29  C   UNL A   1      43.712  21.565  25.492  1.00  0.00     0.042 C 
BRANCH  29  30
ATOM     30  C   UNL A   1      43.494  22.744  24.547  1.00  0.00     0.118 C 
BRANCH  30  31
ATOM     31  N   UNL A   1      44.623  23.655  24.417  1.00  0.00    -0.352 N 
ATOM     32  C   UNL A   1      44.850  24.892  24.979  1.00  0.00     0.251 C 
ATOM     33  H   UNL A   1      45.344  23.333  23.829  1.00  0.00     0.163 HD
ATOM     34  O   UNL A   1      45.931  25.449  24.798  1.00  0.00    -0.269 OA
BRANCH  32  35
ATOM     35  C   UNL A   1      43.756  25.591  25.684  1.00  0.00     0.039 A 
ATOM     36  C   UNL A   1      43.148  24.932  26.758  1.00  0.00     0.014 A 
ATOM     37  C   UNL A   1      43.461  26.926  25.417  1.00  0.00     0.014 A 
ATOM     38  C   UNL A   1      42.403  25.667  27.679  1.00  0.00     0.010 A 
ATOM     39  C   UNL A   1      42.801  27.675  26.385  1.00  0.00     0.010 A 
ATOM     40  C   UNL A   1      42.333  27.063  27.559  1.00  0.00    -0.014 A 
BRANCH  40  41
ATOM     41  C   UNL A   1      41.936  27.921  28.706  1.00  0.00     0.031 A 
ATOM     42  C   UNL A   1      42.669  27.838  30.011  1.00  0.00     0.074 A 
ATOM     43  C   UNL A   1      40.799  28.643  28.613  1.00  0.00     0.049 A 
ATOM     44  N   UNL A   1      42.333  28.315  31.181  1.00  0.00    -0.248 NA
ATOM     45  C   UNL A   1      43.919  27.066  30.005  1.00  0.00     0.031 C 
ATOM     46  C   UNL A   1      39.943  28.735  27.424  1.00  0.00     0.029 A 
ATOM     47  N   UNL A   1      40.149  29.415  29.541  1.00  0.00    -0.354 N 
ATOM     48  C   UNL A   1      43.301  27.857  32.067  1.00  0.00     0.074 A 
ATOM     49  C   UNL A   1      44.221  27.044  31.295  1.00  0.00     0.031 C 
ATOM     50  C   UNL A   1      38.899  29.535  27.689  1.00  0.00     0.029 A 
ATOM     51  C   UNL A   1      38.979  29.970  29.076  1.00  0.00     0.049 A 
ATOM     52  H   UNL A   1      40.488  29.559  30.454  1.00  0.00     0.167 HD
ATOM     53  C   UNL A   1      43.409  28.093  33.399  1.00  0.00     0.034 A 
ATOM     54  C   UNL A   1      38.056  30.724  29.701  1.00  0.00     0.034 A 
ATOM     55  C   UNL A   1      42.505  28.935  34.144  1.00  0.00     0.049 A 
ATOM     56  C   UNL A   1      38.249  31.053  31.151  1.00  0.00     0.074 A 
ATOM     57  C   UNL A   1      42.556  29.294  35.481  1.00  0.00     0.029 A 
ATOM     58  N   UNL A   1      41.384  29.560  33.611  1.00  0.00    -0.354 N 
ATOM     59  N   UNL A   1      39.179  30.628  31.973  1.00  0.00    -0.248 NA
ATOM     60  C   UNL A   1      37.269  31.962  31.759  1.00  0.00     0.031 C 
ATOM     61  C   UNL A   1      41.452  30.113  35.761  1.00  0.00     0.029 A 
ATOM     62  C   UNL A   1      40.734  30.296  34.590  1.00  0.00     0.049 A 
ATOM     63  H   UNL A   1      41.094  29.490  32.673  1.00  0.00     0.167 HD
ATOM     64  C   UNL A   1      38.898  31.219  33.197  1.00  0.00     0.074 A 
ATOM     65  C   UNL A   1      37.720  32.043  33.003  1.00  0.00     0.031 C 
ATOM     66  C   UNL A   1      39.553  31.094  34.377  1.00  0.00     0.034 A 
BRANCH  53  67
ATOM     67  C   UNL A   1      44.529  27.391  34.123  1.00  0.00     0.023 A 
ATOM     68  C   UNL A   1      45.688  28.076  34.524  1.00  0.00     0.031 A 
ATOM     69  C   UNL A   1      44.471  26.003  34.343  1.00  0.00     0.131 A 
ATOM     70  C   UNL A   1      46.782  27.361  35.033  1.00  0.00     0.055 A 
ATOM     71  C   UNL A   1      45.533  25.308  34.927  1.00  0.00     0.041 A 
ATOM     72  F   UNL A   1      43.397  25.294  33.962  1.00  0.00    -0.206 F 
ATOM     73  C   UNL A   1      46.705  25.984  35.257  1.00  0.00     0.022 A 
BRANCH  70  74
ATOM     74  S   UNL A   1      48.360  28.230  35.237  1.00  0.00     0.124 S 
ATOM     75  O   UNL A   1      48.566  28.129  36.680  1.00  0.00    -0.237 OA
ATOM     76  O   UNL A   1      49.264  27.443  34.406  1.00  0.00    -0.237 OA
ATOM     77  O   UNL A   1      48.075  29.577  34.748  1.00  0.00    -0.744 OA
ENDBRANCH  70  74
ENDBRANCH  53  67
BRANCH  54  78
ATOM     78  C   UNL A   1      36.861  31.204  28.963  1.00  0.00     0.023 A 
ATOM     79  C   UNL A   1      35.896  30.299  28.497  1.00  0.00     0.031 A 
ATOM     80  C   UNL A   1      36.671  32.574  28.713  1.00  0.00     0.131 A 
ATOM     81  C   UNL A   1      34.788  30.774  27.778  1.00  0.00     0.055 A 
ATOM     82  C   UNL A   1      35.553  33.043  28.020  1.00  0.00     0.041 A 
ATOM     83  F   UNL A   1      37.559  33.475  29.160  1.00  0.00    -0.206 F 
ATOM     84  C   UNL A   1      34.608  32.139  27.541  1.00  0.00     0.022 A 
BRANCH  81  85
ATOM     85  S   UNL A   1      33.602  29.568  27.121  1.00  0.00     0.124 S 
ATOM     86  O   UNL A   1      32.429  30.401  26.879  1.00  0.00    -0.237 OA
ATOM     87  O   UNL A   1      34.295  29.076  25.935  1.00  0.00    -0.237 OA
ATOM     88  O   UNL A   1      33.466  28.599  28.206  1.00  0.00    -0.744 OA
ENDBRANCH  81  85
ENDBRANCH  54  78
BRANCH  66  89
ATOM     89  C   UNL A   1      39.009  31.894  35.526  1.00  0.00     0.023 A 
ATOM     90  C   UNL A   1      38.348  31.272  36.598  1.00  0.00     0.031 A 
ATOM     91  C   UNL A   1      39.122  33.293  35.524  1.00  0.00     0.131 A 
ATOM     92  C   UNL A   1      37.784  32.058  37.613  1.00  0.00     0.055 A 
ATOM     93  C   UNL A   1      38.587  34.068  36.553  1.00  0.00     0.041 A 
ATOM     94  F   UNL A   1      39.741  33.926  34.516  1.00  0.00    -0.206 F 
ATOM     95  C   UNL A   1      37.906  33.451  37.601  1.00  0.00     0.022 A 
BRANCH  92  96
ATOM     96  S   UNL A   1      36.841  31.239  38.929  1.00  0.00     0.124 S 
ATOM     97  O   UNL A   1      35.615  32.029  38.961  1.00  0.00    -0.237 OA
ATOM     98  O   UNL A   1      36.708  29.877  38.419  1.00  0.00    -0.237 OA
ATOM     99  O   UNL A   1      37.699  31.377  40.104  1.00  0.00    -0.744 OA
ENDBRANCH  92  96
ENDBRANCH  66  89
ENDBRANCH  40  41
ENDBRANCH  32  35
ENDBRANCH  30  31
ENDBRANCH  29  30
ENDBRANCH   1  29
TORSDOF 18
ENDMDL
