MODEL 1
REMARK VINA RESULT:     -11.5      0.000      0.000
REMARK SMILES CC[C@H](C)NS(=O)(=O)c1ccc(C(=O)NCCCNC(=O)c2ccc(-c3c4nc(c(-c5cc(S(=O)(=O)[O-])ccc5F)c5ccc([nH]5)c(-c5cc(S(=O)(=O)[O-])ccc5F)c5nc(c(-c6cc(S(=O)(=O)[O-])ccc6F)c6ccc3[nH]6)C=C5)C=C4)cc2)cc1F
REMARK SMILES IDX 16 1 15 2 13 3 14 4 12 6 9 7 10 8 86 9 11 10 85 11 87 12
REMARK SMILES IDX 6 13 7 14 8 15 5 16 3 18 4 19 2 20 1 21 17 22 18 23 19 24
REMARK SMILES IDX 20 25 21 27 22 28 23 29 84 30 24 31 83 32 25 33 26 34 27 35
REMARK SMILES IDX 77 36 28 37 82 38 76 39 78 40 29 41 81 42 75 43 74 44 30 46
REMARK SMILES IDX 62 47 42 48 61 49 43 50 46 51 60 52 79 53 44 54 45 55 59 57
REMARK SMILES IDX 80 58 47 59 31 60 32 61 40 62 33 63 39 64 41 65 38 66 34 67
REMARK SMILES IDX 35 68 36 69 37 70 63 71 64 72 72 73 65 74 71 75 73 76 70 77
REMARK SMILES IDX 66 78 67 79 68 80 69 81 48 82 49 83 57 84 50 85 56 86 58 87
REMARK SMILES IDX 55 88 51 89 52 90 53 91 54 92
REMARK H PARENT 15 5 5 17 19 26 78 45 46 56
REMARK Flexibility Score: inf
ROOT
ATOM      1  C   UNL A   1      32.418  28.330  22.795  1.00  0.00     0.118 C 
ENDROOT
BRANCH   1   2
ATOM      2  N   UNL A   1      32.781  27.387  21.747  1.00  0.00    -0.352 N 
ATOM      3  C   UNL A   1      32.918  26.023  21.759  1.00  0.00     0.251 C 
ATOM      4  O   UNL A   1      33.084  25.436  20.692  1.00  0.00    -0.269 OA
ATOM      5  H   UNL A   1      32.960  27.804  20.873  1.00  0.00     0.163 HD
BRANCH   3   6
ATOM      6  C   UNL A   1      32.819  25.225  23.007  1.00  0.00     0.042 A 
ATOM      7  C   UNL A   1      32.765  23.744  25.384  1.00  0.00     0.118 A 
ATOM      8  C   UNL A   1      33.916  24.459  25.041  1.00  0.00     0.026 A 
ATOM      9  C   UNL A   1      31.637  23.826  24.579  1.00  0.00     0.144 A 
ATOM     10  C   UNL A   1      33.940  25.197  23.853  1.00  0.00     0.015 A 
ATOM     11  C   UNL A   1      31.654  24.568  23.402  1.00  0.00     0.054 A 
ATOM     12  F   UNL A   1      30.511  23.173  24.889  1.00  0.00    -0.205 F 
BRANCH   7  13
ATOM     13  S   UNL A   1      32.701  22.817  26.878  1.00  0.00     0.243 S 
ATOM     14  O   UNL A   1      31.623  23.314  27.704  1.00  0.00    -0.207 OA
ATOM     15  O   UNL A   1      34.047  22.757  27.405  1.00  0.00    -0.207 OA
BRANCH  13  16
ATOM     16  N   UNL A   1      32.380  21.252  26.387  1.00  0.00    -0.208 NA
ATOM     17  H   UNL A   1      32.116  20.753  27.237  1.00  0.00     0.141 HD
BRANCH  16  18
ATOM     18  C   UNL A   1      33.321  20.361  25.691  1.00  0.00     0.066 C 
ATOM     19  C   UNL A   1      32.764  18.939  25.819  1.00  0.00     0.025 C 
BRANCH  18  20
ATOM     20  C   UNL A   1      33.520  20.766  24.226  1.00  0.00     0.016 C 
ATOM     21  C   UNL A   1      32.415  20.273  23.300  1.00  0.00     0.005 C 
ENDBRANCH  18  20
ENDBRANCH  16  18
ENDBRANCH  13  16
ENDBRANCH   7  13
ENDBRANCH   3   6
ENDBRANCH   1   2
BRANCH   1  22
ATOM     22  C   UNL A   1      33.647  28.947  23.459  1.00  0.00     0.042 C 
BRANCH  22  23
ATOM     23  C   UNL A   1      33.566  29.002  24.983  1.00  0.00     0.118 C 
BRANCH  23  24
ATOM     24  N   UNL A   1      32.812  30.154  25.454  1.00  0.00    -0.352 N 
ATOM     25  C   UNL A   1      32.975  30.908  26.592  1.00  0.00     0.251 C 
ATOM     26  H   UNL A   1      32.073  30.436  24.868  1.00  0.00     0.163 HD
ATOM     27  O   UNL A   1      32.095  31.704  26.910  1.00  0.00    -0.269 OA
BRANCH  25  28
ATOM     28  C   UNL A   1      34.181  30.755  27.439  1.00  0.00     0.039 A 
ATOM     29  C   UNL A   1      34.419  29.523  28.057  1.00  0.00     0.014 A 
ATOM     30  C   UNL A   1      35.058  31.822  27.653  1.00  0.00     0.014 A 
ATOM     31  C   UNL A   1      35.571  29.341  28.828  1.00  0.00     0.010 A 
ATOM     32  C   UNL A   1      36.234  31.622  28.376  1.00  0.00     0.010 A 
ATOM     33  C   UNL A   1      36.508  30.378  28.963  1.00  0.00    -0.014 A 
BRANCH  33  34
ATOM     34  C   UNL A   1      37.788  30.177  29.689  1.00  0.00     0.031 A 
ATOM     35  C   UNL A   1      38.879  29.334  29.087  1.00  0.00     0.074 A 
ATOM     36  C   UNL A   1      37.942  30.696  30.923  1.00  0.00     0.049 A 
ATOM     37  N   UNL A   1      40.002  28.929  29.623  1.00  0.00    -0.248 NA
ATOM     38  C   UNL A   1      38.667  28.869  27.708  1.00  0.00     0.031 C 
ATOM     39  C   UNL A   1      36.953  31.520  31.622  1.00  0.00     0.029 A 
ATOM     40  N   UNL A   1      38.982  30.600  31.814  1.00  0.00    -0.354 N 
ATOM     41  C   UNL A   1      40.626  28.149  28.656  1.00  0.00     0.074 A 
ATOM     42  C   UNL A   1      39.738  28.111  27.511  1.00  0.00     0.031 C 
ATOM     43  C   UNL A   1      37.444  31.871  32.822  1.00  0.00     0.029 A 
ATOM     44  C   UNL A   1      38.756  31.258  33.000  1.00  0.00     0.049 A 
ATOM     45  H   UNL A   1      39.812  30.107  31.621  1.00  0.00     0.167 HD
ATOM     46  C   UNL A   1      41.831  27.532  28.713  1.00  0.00     0.034 A 
ATOM     47  C   UNL A   1      39.509  31.343  34.114  1.00  0.00     0.034 A 
ATOM     48  C   UNL A   1      42.717  27.591  29.850  1.00  0.00     0.049 A 
ATOM     49  C   UNL A   1      40.833  30.632  34.164  1.00  0.00     0.074 A 
ATOM     50  C   UNL A   1      43.971  27.022  29.995  1.00  0.00     0.029 A 
ATOM     51  N   UNL A   1      42.446  28.260  31.036  1.00  0.00    -0.354 N 
ATOM     52  N   UNL A   1      41.396  29.878  33.249  1.00  0.00    -0.248 NA
ATOM     53  C   UNL A   1      41.621  30.780  35.394  1.00  0.00     0.031 C 
ATOM     54  C   UNL A   1      44.436  27.306  31.283  1.00  0.00     0.029 A 
ATOM     55  C   UNL A   1      43.501  28.103  31.921  1.00  0.00     0.049 A 
ATOM     56  H   UNL A   1      41.625  28.770  31.221  1.00  0.00     0.167 HD
ATOM     57  C   UNL A   1      42.614  29.476  33.788  1.00  0.00     0.074 A 
ATOM     58  C   UNL A   1      42.706  30.075  35.104  1.00  0.00     0.031 C 
ATOM     59  C   UNL A   1      43.573  28.690  33.237  1.00  0.00     0.034 A 
BRANCH  46  60
ATOM     60  C   UNL A   1      42.253  26.719  27.518  1.00  0.00     0.023 A 
ATOM     61  C   UNL A   1      41.966  25.347  27.423  1.00  0.00     0.031 A 
ATOM     62  C   UNL A   1      42.943  27.328  26.454  1.00  0.00     0.131 A 
ATOM     63  C   UNL A   1      42.411  24.617  26.310  1.00  0.00     0.055 A 
ATOM     64  C   UNL A   1      43.327  26.609  25.321  1.00  0.00     0.041 A 
ATOM     65  F   UNL A   1      43.258  28.632  26.502  1.00  0.00    -0.206 F 
ATOM     66  C   UNL A   1      43.067  25.244  25.247  1.00  0.00     0.022 A 
BRANCH  63  67
ATOM     67  S   UNL A   1      42.188  22.818  26.304  1.00  0.00     0.124 S 
ATOM     68  O   UNL A   1      42.711  22.463  24.986  1.00  0.00    -0.237 OA
ATOM     69  O   UNL A   1      42.990  22.392  27.444  1.00  0.00    -0.237 OA
ATOM     70  O   UNL A   1      40.745  22.651  26.461  1.00  0.00    -0.744 OA
ENDBRANCH  63  67
ENDBRANCH  46  60
BRANCH  47  71
ATOM     71  C   UNL A   1      39.019  32.123  35.281  1.00  0.00     0.023 A 
ATOM     72  C   UNL A   1      38.391  31.483  36.361  1.00  0.00     0.031 A 
ATOM     73  C   UNL A   1      39.180  33.519  35.337  1.00  0.00     0.131 A 
ATOM     74  C   UNL A   1      37.927  32.243  37.445  1.00  0.00     0.055 A 
ATOM     75  C   UNL A   1      38.746  34.265  36.433  1.00  0.00     0.041 A 
ATOM     76  F   UNL A   1      39.786  34.171  34.332  1.00  0.00    -0.206 F 
ATOM     77  C   UNL A   1      38.110  33.627  37.495  1.00  0.00     0.022 A 
BRANCH  74  78
ATOM     78  S   UNL A   1      37.064  31.394  38.796  1.00  0.00     0.124 S 
ATOM     79  O   UNL A   1      35.844  32.185  38.911  1.00  0.00    -0.237 OA
ATOM     80  O   UNL A   1      36.906  30.046  38.259  1.00  0.00    -0.237 OA
ATOM     81  O   UNL A   1      37.994  31.508  39.918  1.00  0.00    -0.744 OA
ENDBRANCH  74  78
ENDBRANCH  47  71
BRANCH  59  82
ATOM     82  C   UNL A   1      44.821  28.460  34.046  1.00  0.00     0.023 A 
ATOM     83  C   UNL A   1      44.951  27.354  34.902  1.00  0.00     0.031 A 
ATOM     84  C   UNL A   1      45.902  29.352  33.939  1.00  0.00     0.131 A 
ATOM     85  C   UNL A   1      46.129  27.185  35.645  1.00  0.00     0.055 A 
ATOM     86  C   UNL A   1      47.087  29.155  34.647  1.00  0.00     0.041 A 
ATOM     87  F   UNL A   1      45.826  30.424  33.133  1.00  0.00    -0.206 F 
ATOM     88  C   UNL A   1      47.203  28.070  35.511  1.00  0.00     0.022 A 
BRANCH  85  89
ATOM     89  S   UNL A   1      46.227  25.811  36.824  1.00  0.00     0.124 S 
ATOM     90  O   UNL A   1      47.329  26.230  37.685  1.00  0.00    -0.237 OA
ATOM     91  O   UNL A   1      44.901  25.823  37.435  1.00  0.00    -0.237 OA
ATOM     92  O   UNL A   1      46.507  24.652  35.978  1.00  0.00    -0.744 OA
ENDBRANCH  85  89
ENDBRANCH  59  82
ENDBRANCH  33  34
ENDBRANCH  25  28
ENDBRANCH  23  24
ENDBRANCH  22  23
ENDBRANCH   1  22
TORSDOF 17
ENDMDL
MODEL 2
REMARK VINA RESULT:     -11.0      5.128      7.651
REMARK SMILES CC[C@H](C)NS(=O)(=O)c1ccc(C(=O)NCCCNC(=O)c2ccc(-c3c4nc(c(-c5cc(S(=O)(=O)[O-])ccc5F)c5ccc([nH]5)c(-c5cc(S(=O)(=O)[O-])ccc5F)c5nc(c(-c6cc(S(=O)(=O)[O-])ccc6F)c6ccc3[nH]6)C=C5)C=C4)cc2)cc1F
REMARK SMILES IDX 16 1 15 2 13 3 14 4 12 6 9 7 10 8 86 9 11 10 85 11 87 12
REMARK SMILES IDX 6 13 7 14 8 15 5 16 3 18 4 19 2 20 1 21 17 22 18 23 19 24
REMARK SMILES IDX 20 25 21 27 22 28 23 29 84 30 24 31 83 32 25 33 26 34 27 35
REMARK SMILES IDX 77 36 28 37 82 38 76 39 78 40 29 41 81 42 75 43 74 44 30 46
REMARK SMILES IDX 62 47 42 48 61 49 43 50 46 51 60 52 79 53 44 54 45 55 59 57
REMARK SMILES IDX 80 58 47 59 31 60 32 61 40 62 33 63 39 64 41 65 38 66 34 67
REMARK SMILES IDX 35 68 36 69 37 70 63 71 64 72 72 73 65 74 71 75 73 76 70 77
REMARK SMILES IDX 66 78 67 79 68 80 69 81 48 82 49 83 57 84 50 85 56 86 58 87
REMARK SMILES IDX 55 88 51 89 52 90 53 91 54 92
REMARK H PARENT 15 5 5 17 19 26 78 45 46 56
REMARK Flexibility Score: inf
ROOT
ATOM      1  C   UNL A   1      35.215  21.382  26.040  1.00  0.00     0.118 C 
ENDROOT
BRANCH   1   2
ATOM      2  N   UNL A   1      33.896  20.774  25.955  1.00  0.00    -0.352 N 
ATOM      3  C   UNL A   1      32.796  21.090  25.201  1.00  0.00     0.251 C 
ATOM      4  O   UNL A   1      31.840  20.316  25.195  1.00  0.00    -0.269 OA
ATOM      5  H   UNL A   1      33.772  19.995  26.545  1.00  0.00     0.163 HD
BRANCH   3   6
ATOM      6  C   UNL A   1      32.739  22.305  24.349  1.00  0.00     0.042 A 
ATOM      7  C   UNL A   1      32.574  24.662  22.846  1.00  0.00     0.118 A 
ATOM      8  C   UNL A   1      32.242  24.684  24.204  1.00  0.00     0.026 A 
ATOM      9  C   UNL A   1      33.043  23.491  22.269  1.00  0.00     0.144 A 
ATOM     10  C   UNL A   1      32.325  23.504  24.951  1.00  0.00     0.015 A 
ATOM     11  C   UNL A   1      33.138  22.318  23.013  1.00  0.00     0.054 A 
ATOM     12  F   UNL A   1      33.392  23.440  20.978  1.00  0.00    -0.205 F 
BRANCH   7  13
ATOM     13  S   UNL A   1      32.491  26.134  21.884  1.00  0.00     0.243 S 
ATOM     14  O   UNL A   1      31.548  25.946  20.803  1.00  0.00    -0.207 OA
ATOM     15  O   UNL A   1      33.850  26.536  21.596  1.00  0.00    -0.207 OA
BRANCH  13  16
ATOM     16  N   UNL A   1      31.932  27.297  22.945  1.00  0.00    -0.208 NA
ATOM     17  H   UNL A   1      31.160  27.755  22.459  1.00  0.00     0.141 HD
BRANCH  16  18
ATOM     18  C   UNL A   1      32.731  28.390  23.519  1.00  0.00     0.066 C 
ATOM     19  C   UNL A   1      31.778  29.240  24.367  1.00  0.00     0.025 C 
BRANCH  18  20
ATOM     20  C   UNL A   1      33.915  27.868  24.341  1.00  0.00     0.016 C 
ATOM     21  C   UNL A   1      33.633  27.789  25.837  1.00  0.00     0.005 C 
ENDBRANCH  18  20
ENDBRANCH  16  18
ENDBRANCH  13  16
ENDBRANCH   7  13
ENDBRANCH   3   6
ENDBRANCH   1   2
BRANCH   1  22
ATOM     22  C   UNL A   1      36.175  20.812  24.997  1.00  0.00     0.042 C 
BRANCH  22  23
ATOM     23  C   UNL A   1      37.587  21.390  25.073  1.00  0.00     0.118 C 
BRANCH  23  24
ATOM     24  N   UNL A   1      38.535  20.453  25.659  1.00  0.00    -0.352 N 
ATOM     25  C   UNL A   1      39.741  20.691  26.274  1.00  0.00     0.251 C 
ATOM     26  H   UNL A   1      38.272  19.506  25.605  1.00  0.00     0.163 HD
ATOM     27  O   UNL A   1      40.489  19.743  26.505  1.00  0.00    -0.269 OA
BRANCH  25  28
ATOM     28  C   UNL A   1      40.150  22.067  26.639  1.00  0.00     0.039 A 
ATOM     29  C   UNL A   1      41.186  22.240  27.563  1.00  0.00     0.014 A 
ATOM     30  C   UNL A   1      39.502  23.184  26.103  1.00  0.00     0.014 A 
ATOM     31  C   UNL A   1      41.618  23.528  27.892  1.00  0.00     0.010 A 
ATOM     32  C   UNL A   1      39.971  24.466  26.390  1.00  0.00     0.010 A 
ATOM     33  C   UNL A   1      41.039  24.651  27.279  1.00  0.00    -0.014 A 
BRANCH  33  34
ATOM     34  C   UNL A   1      41.551  26.023  27.534  1.00  0.00     0.031 A 
ATOM     35  C   UNL A   1      42.922  26.422  27.065  1.00  0.00     0.074 A 
ATOM     36  C   UNL A   1      40.806  26.888  28.250  1.00  0.00     0.049 A 
ATOM     37  N   UNL A   1      43.594  27.517  27.312  1.00  0.00    -0.248 NA
ATOM     38  C   UNL A   1      43.640  25.451  26.225  1.00  0.00     0.031 C 
ATOM     39  C   UNL A   1      39.464  26.618  28.773  1.00  0.00     0.029 A 
ATOM     40  N   UNL A   1      41.073  28.167  28.672  1.00  0.00    -0.354 N 
ATOM     41  C   UNL A   1      44.820  27.364  26.672  1.00  0.00     0.074 A 
ATOM     42  C   UNL A   1      44.809  26.053  26.054  1.00  0.00     0.031 C 
ATOM     43  C   UNL A   1      39.020  27.704  29.425  1.00  0.00     0.029 A 
ATOM     44  C   UNL A   1      40.059  28.728  29.412  1.00  0.00     0.049 A 
ATOM     45  H   UNL A   1      41.912  28.639  28.463  1.00  0.00     0.167 HD
ATOM     46  C   UNL A   1      45.852  28.239  26.599  1.00  0.00     0.034 A 
ATOM     47  C   UNL A   1      39.980  29.923  30.029  1.00  0.00     0.034 A 
ATOM     48  C   UNL A   1      45.846  29.550  27.202  1.00  0.00     0.049 A 
ATOM     49  C   UNL A   1      41.146  30.870  29.952  1.00  0.00     0.074 A 
ATOM     50  C   UNL A   1      46.833  30.520  27.161  1.00  0.00     0.029 A 
ATOM     51  N   UNL A   1      44.804  30.076  27.952  1.00  0.00    -0.354 N 
ATOM     52  N   UNL A   1      42.307  30.698  29.365  1.00  0.00    -0.248 NA
ATOM     53  C   UNL A   1      40.994  32.167  30.623  1.00  0.00     0.031 C 
ATOM     54  C   UNL A   1      46.407  31.612  27.925  1.00  0.00     0.029 A 
ATOM     55  C   UNL A   1      45.130  31.348  28.392  1.00  0.00     0.049 A 
ATOM     56  H   UNL A   1      43.957  29.612  28.144  1.00  0.00     0.167 HD
ATOM     57  C   UNL A   1      43.017  31.875  29.580  1.00  0.00     0.074 A 
ATOM     58  C   UNL A   1      42.153  32.750  30.347  1.00  0.00     0.031 C 
ATOM     59  C   UNL A   1      44.268  32.203  29.171  1.00  0.00     0.034 A 
BRANCH  46  60
ATOM     60  C   UNL A   1      47.086  27.797  25.857  1.00  0.00     0.023 A 
ATOM     61  C   UNL A   1      47.227  28.003  24.475  1.00  0.00     0.031 A 
ATOM     62  C   UNL A   1      48.141  27.171  26.545  1.00  0.00     0.131 A 
ATOM     63  C   UNL A   1      48.376  27.541  23.814  1.00  0.00     0.055 A 
ATOM     64  C   UNL A   1      49.308  26.771  25.893  1.00  0.00     0.041 A 
ATOM     65  F   UNL A   1      48.050  26.934  27.863  1.00  0.00    -0.206 F 
ATOM     66  C   UNL A   1      49.428  26.950  24.518  1.00  0.00     0.022 A 
BRANCH  63  67
ATOM     67  S   UNL A   1      48.445  27.655  22.006  1.00  0.00     0.124 S 
ATOM     68  O   UNL A   1      49.561  28.580  21.814  1.00  0.00    -0.237 OA
ATOM     69  O   UNL A   1      48.687  26.274  21.607  1.00  0.00    -0.237 OA
ATOM     70  O   UNL A   1      47.133  28.187  21.646  1.00  0.00    -0.744 OA
ENDBRANCH  63  67
ENDBRANCH  46  60
BRANCH  47  71
ATOM     71  C   UNL A   1      38.753  30.286  30.787  1.00  0.00     0.023 A 
ATOM     72  C   UNL A   1      37.741  31.054  30.193  1.00  0.00     0.031 A 
ATOM     73  C   UNL A   1      38.573  29.859  32.114  1.00  0.00     0.131 A 
ATOM     74  C   UNL A   1      36.598  31.392  30.933  1.00  0.00     0.055 A 
ATOM     75  C   UNL A   1      37.419  30.169  32.835  1.00  0.00     0.041 A 
ATOM     76  F   UNL A   1      39.509  29.110  32.718  1.00  0.00    -0.206 F 
ATOM     77  C   UNL A   1      36.425  30.946  32.246  1.00  0.00     0.022 A 
BRANCH  74  78
ATOM     78  S   UNL A   1      35.337  32.440  30.158  1.00  0.00     0.124 S 
ATOM     79  O   UNL A   1      34.925  31.619  29.026  1.00  0.00    -0.237 OA
ATOM     80  O   UNL A   1      34.361  32.591  31.232  1.00  0.00    -0.237 OA
ATOM     81  O   UNL A   1      36.072  33.657  29.814  1.00  0.00    -0.744 OA
ENDBRANCH  74  78
ENDBRANCH  47  71
BRANCH  59  82
ATOM     82  C   UNL A   1      44.764  33.581  29.518  1.00  0.00     0.023 A 
ATOM     83  C   UNL A   1      44.588  34.669  28.647  1.00  0.00     0.031 A 
ATOM     84  C   UNL A   1      45.403  33.809  30.749  1.00  0.00     0.131 A 
ATOM     85  C   UNL A   1      45.077  35.934  29.006  1.00  0.00     0.055 A 
ATOM     86  C   UNL A   1      45.849  35.078  31.120  1.00  0.00     0.041 A 
ATOM     87  F   UNL A   1      45.595  32.801  31.616  1.00  0.00    -0.206 F 
ATOM     88  C   UNL A   1      45.692  36.148  30.244  1.00  0.00     0.022 A 
BRANCH  85  89
ATOM     89  S   UNL A   1      44.935  37.295  27.817  1.00  0.00     0.124 S 
ATOM     90  O   UNL A   1      43.494  37.348  27.589  1.00  0.00    -0.237 OA
ATOM     91  O   UNL A   1      45.507  38.419  28.552  1.00  0.00    -0.237 OA
ATOM     92  O   UNL A   1      45.726  36.837  26.675  1.00  0.00    -0.744 OA
ENDBRANCH  85  89
ENDBRANCH  59  82
ENDBRANCH  33  34
ENDBRANCH  25  28
ENDBRANCH  23  24
ENDBRANCH  22  23
ENDBRANCH   1  22
TORSDOF 17
ENDMDL
MODEL 3
REMARK VINA RESULT:     -11.0      2.572      3.711
REMARK SMILES CC[C@H](C)NS(=O)(=O)c1ccc(C(=O)NCCCNC(=O)c2ccc(-c3c4nc(c(-c5cc(S(=O)(=O)[O-])ccc5F)c5ccc([nH]5)c(-c5cc(S(=O)(=O)[O-])ccc5F)c5nc(c(-c6cc(S(=O)(=O)[O-])ccc6F)c6ccc3[nH]6)C=C5)C=C4)cc2)cc1F
REMARK SMILES IDX 16 1 15 2 13 3 14 4 12 6 9 7 10 8 86 9 11 10 85 11 87 12
REMARK SMILES IDX 6 13 7 14 8 15 5 16 3 18 4 19 2 20 1 21 17 22 18 23 19 24
REMARK SMILES IDX 20 25 21 27 22 28 23 29 84 30 24 31 83 32 25 33 26 34 27 35
REMARK SMILES IDX 77 36 28 37 82 38 76 39 78 40 29 41 81 42 75 43 74 44 30 46
REMARK SMILES IDX 62 47 42 48 61 49 43 50 46 51 60 52 79 53 44 54 45 55 59 57
REMARK SMILES IDX 80 58 47 59 31 60 32 61 40 62 33 63 39 64 41 65 38 66 34 67
REMARK SMILES IDX 35 68 36 69 37 70 63 71 64 72 72 73 65 74 71 75 73 76 70 77
REMARK SMILES IDX 66 78 67 79 68 80 69 81 48 82 49 83 57 84 50 85 56 86 58 87
REMARK SMILES IDX 55 88 51 89 52 90 53 91 54 92
REMARK H PARENT 15 5 5 17 19 26 78 45 46 56
REMARK Flexibility Score: inf
ROOT
ATOM      1  C   UNL A   1      31.798  30.333  26.951  1.00  0.00     0.118 C 
ENDROOT
BRANCH   1   2
ATOM      2  N   UNL A   1      33.133  29.987  27.416  1.00  0.00    -0.352 N 
ATOM      3  C   UNL A   1      34.052  29.083  26.951  1.00  0.00     0.251 C 
ATOM      4  O   UNL A   1      35.184  29.089  27.431  1.00  0.00    -0.269 OA
ATOM      5  H   UNL A   1      33.429  30.494  28.207  1.00  0.00     0.163 HD
BRANCH   3   6
ATOM      6  C   UNL A   1      33.745  28.132  25.853  1.00  0.00     0.042 A 
ATOM      7  C   UNL A   1      33.129  26.247  23.875  1.00  0.00     0.118 A 
ATOM      8  C   UNL A   1      32.809  25.979  25.208  1.00  0.00     0.026 A 
ATOM      9  C   UNL A   1      33.689  27.470  23.532  1.00  0.00     0.144 A 
ATOM     10  C   UNL A   1      33.119  26.922  26.194  1.00  0.00     0.015 A 
ATOM     11  C   UNL A   1      33.988  28.415  24.510  1.00  0.00     0.054 A 
ATOM     12  F   UNL A   1      33.987  27.769  22.262  1.00  0.00    -0.205 F 
BRANCH   7  13
ATOM     13  S   UNL A   1      32.739  25.085  22.612  1.00  0.00     0.243 S 
ATOM     14  O   UNL A   1      33.677  25.232  21.521  1.00  0.00    -0.207 OA
ATOM     15  O   UNL A   1      31.318  25.182  22.361  1.00  0.00    -0.207 OA
BRANCH  13  16
ATOM     16  N   UNL A   1      32.928  23.594  23.342  1.00  0.00    -0.208 NA
ATOM     17  H   UNL A   1      32.169  23.530  24.022  1.00  0.00     0.141 HD
BRANCH  16  18
ATOM     18  C   UNL A   1      34.129  23.135  24.057  1.00  0.00     0.066 C 
ATOM     19  C   UNL A   1      33.852  21.698  24.514  1.00  0.00     0.025 C 
BRANCH  18  20
ATOM     20  C   UNL A   1      35.387  23.225  23.187  1.00  0.00     0.016 C 
ATOM     21  C   UNL A   1      36.684  23.229  23.988  1.00  0.00     0.005 C 
ENDBRANCH  18  20
ENDBRANCH  16  18
ENDBRANCH  13  16
ENDBRANCH   7  13
ENDBRANCH   3   6
ENDBRANCH   1   2
BRANCH   1  22
ATOM     22  C   UNL A   1      31.612  31.844  26.822  1.00  0.00     0.042 C 
BRANCH  22  23
ATOM     23  C   UNL A   1      32.865  32.653  27.151  1.00  0.00     0.118 C 
BRANCH  23  24
ATOM     24  N   UNL A   1      32.550  34.008  27.576  1.00  0.00    -0.352 N 
ATOM     25  C   UNL A   1      33.060  34.744  28.619  1.00  0.00     0.251 C 
ATOM     26  H   UNL A   1      31.868  34.467  27.035  1.00  0.00     0.163 HD
ATOM     27  O   UNL A   1      32.502  35.792  28.938  1.00  0.00    -0.269 OA
BRANCH  25  28
ATOM     28  C   UNL A   1      34.253  34.280  29.365  1.00  0.00     0.039 A 
ATOM     29  C   UNL A   1      34.069  33.530  30.532  1.00  0.00     0.014 A 
ATOM     30  C   UNL A   1      35.546  34.606  28.944  1.00  0.00     0.014 A 
ATOM     31  C   UNL A   1      35.178  33.046  31.231  1.00  0.00     0.010 A 
ATOM     32  C   UNL A   1      36.650  34.075  29.611  1.00  0.00     0.010 A 
ATOM     33  C   UNL A   1      36.478  33.283  30.755  1.00  0.00    -0.014 A 
BRANCH  33  34
ATOM     34  C   UNL A   1      37.667  32.691  31.422  1.00  0.00     0.031 A 
ATOM     35  C   UNL A   1      38.409  31.552  30.781  1.00  0.00     0.074 A 
ATOM     36  C   UNL A   1      38.036  33.135  32.640  1.00  0.00     0.049 A 
ATOM     37  N   UNL A   1      39.376  30.817  31.269  1.00  0.00    -0.248 NA
ATOM     38  C   UNL A   1      37.994  31.177  29.421  1.00  0.00     0.031 C 
ATOM     39  C   UNL A   1      37.390  34.226  33.373  1.00  0.00     0.029 A 
ATOM     40  N   UNL A   1      39.038  32.719  33.481  1.00  0.00    -0.354 N 
ATOM     41  C   UNL A   1      39.677  29.882  30.284  1.00  0.00     0.074 A 
ATOM     42  C   UNL A   1      38.765  30.123  29.184  1.00  0.00     0.031 C 
ATOM     43  C   UNL A   1      38.025  34.406  34.543  1.00  0.00     0.029 A 
ATOM     44  C   UNL A   1      39.088  33.415  34.666  1.00  0.00     0.049 A 
ATOM     45  H   UNL A   1      39.663  31.993  33.256  1.00  0.00     0.167 HD
ATOM     46  C   UNL A   1      40.632  28.920  30.292  1.00  0.00     0.034 A 
ATOM     47  C   UNL A   1      39.886  33.260  35.741  1.00  0.00     0.034 A 
ATOM     48  C   UNL A   1      41.548  28.699  31.385  1.00  0.00     0.049 A 
ATOM     49  C   UNL A   1      40.924  32.172  35.738  1.00  0.00     0.074 A 
ATOM     50  C   UNL A   1      42.568  27.767  31.477  1.00  0.00     0.029 A 
ATOM     51  N   UNL A   1      41.559  29.418  32.572  1.00  0.00    -0.354 N 
ATOM     52  N   UNL A   1      41.177  31.280  34.809  1.00  0.00    -0.248 NA
ATOM     53  C   UNL A   1      41.779  32.066  36.927  1.00  0.00     0.031 C 
ATOM     54  C   UNL A   1      43.163  27.891  32.738  1.00  0.00     0.029 A 
ATOM     55  C   UNL A   1      42.555  28.940  33.408  1.00  0.00     0.049 A 
ATOM     56  H   UNL A   1      40.947  30.158  32.788  1.00  0.00     0.167 HD
ATOM     57  C   UNL A   1      42.235  30.519  35.294  1.00  0.00     0.074 A 
ATOM     58  C   UNL A   1      42.575  31.058  36.596  1.00  0.00     0.031 C 
ATOM     59  C   UNL A   1      42.873  29.474  34.710  1.00  0.00     0.034 A 
BRANCH  46  60
ATOM     60  C   UNL A   1      40.719  28.016  29.090  1.00  0.00     0.023 A 
ATOM     61  C   UNL A   1      41.665  28.232  28.075  1.00  0.00     0.031 A 
ATOM     62  C   UNL A   1      39.849  26.918  28.965  1.00  0.00     0.131 A 
ATOM     63  C   UNL A   1      41.687  27.390  26.952  1.00  0.00     0.055 A 
ATOM     64  C   UNL A   1      39.919  26.047  27.877  1.00  0.00     0.041 A 
ATOM     65  F   UNL A   1      38.915  26.677  29.898  1.00  0.00    -0.206 F 
ATOM     66  C   UNL A   1      40.838  26.285  26.859  1.00  0.00     0.022 A 
BRANCH  63  67
ATOM     67  S   UNL A   1      42.792  27.804  25.576  1.00  0.00     0.124 S 
ATOM     68  O   UNL A   1      43.148  26.477  25.077  1.00  0.00    -0.237 OA
ATOM     69  O   UNL A   1      41.936  28.603  24.708  1.00  0.00    -0.237 OA
ATOM     70  O   UNL A   1      43.882  28.534  26.219  1.00  0.00    -0.744 OA
ENDBRANCH  63  67
ENDBRANCH  46  60
BRANCH  47  71
ATOM     71  C   UNL A   1      39.722  34.153  36.919  1.00  0.00     0.023 A 
ATOM     72  C   UNL A   1      39.112  33.688  38.095  1.00  0.00     0.031 A 
ATOM     73  C   UNL A   1      40.181  35.481  36.888  1.00  0.00     0.131 A 
ATOM     74  C   UNL A   1      38.959  34.553  39.188  1.00  0.00     0.055 A 
ATOM     75  C   UNL A   1      40.056  36.327  37.990  1.00  0.00     0.041 A 
ATOM     76  F   UNL A   1      40.782  35.964  35.790  1.00  0.00    -0.206 F 
ATOM     77  C   UNL A   1      39.436  35.865  39.149  1.00  0.00     0.022 A 
BRANCH  74  78
ATOM     78  S   UNL A   1      38.110  33.941  40.669  1.00  0.00     0.124 S 
ATOM     79  O   UNL A   1      37.485  35.157  41.176  1.00  0.00    -0.237 OA
ATOM     80  O   UNL A   1      37.207  32.938  40.113  1.00  0.00    -0.237 OA
ATOM     81  O   UNL A   1      39.197  33.407  41.488  1.00  0.00    -0.744 OA
ENDBRANCH  74  78
ENDBRANCH  47  71
BRANCH  59  82
ATOM     82  C   UNL A   1      44.026  28.866  35.461  1.00  0.00     0.023 A 
ATOM     83  C   UNL A   1      43.836  27.831  36.392  1.00  0.00     0.031 A 
ATOM     84  C   UNL A   1      45.336  29.317  35.222  1.00  0.00     0.131 A 
ATOM     85  C   UNL A   1      44.940  27.301  37.077  1.00  0.00     0.055 A 
ATOM     86  C   UNL A   1      46.434  28.757  35.875  1.00  0.00     0.041 A 
ATOM     87  F   UNL A   1      45.569  30.303  34.342  1.00  0.00    -0.206 F 
ATOM     88  C   UNL A   1      46.239  27.747  36.813  1.00  0.00     0.022 A 
BRANCH  85  89
ATOM     89  S   UNL A   1      44.654  26.045  38.352  1.00  0.00     0.124 S 
ATOM     90  O   UNL A   1      44.602  24.818  37.563  1.00  0.00    -0.237 OA
ATOM     91  O   UNL A   1      45.821  26.198  39.216  1.00  0.00    -0.237 OA
ATOM     92  O   UNL A   1      43.383  26.448  38.954  1.00  0.00    -0.744 OA
ENDBRANCH  85  89
ENDBRANCH  59  82
ENDBRANCH  33  34
ENDBRANCH  25  28
ENDBRANCH  23  24
ENDBRANCH  22  23
ENDBRANCH   1  22
TORSDOF 17
ENDMDL
