MODEL 1
REMARK VINA RESULT:     -12.0      0.000      0.000
REMARK SMILES COc1ccc(C2=NN=C[C@@H]2C(=O)NCCCNC(=O)c2ccc(-c3c4nc(c(-c5cc(S(=O)(=O)[O-])ccc5F)c5ccc([nH]5)c(-c5cc(S(=O)(=O)[O-])ccc5F)c5nc(c(-c6cc(S(=O)(=O)[O-])ccc6F)c6ccc3[nH]6)C=C5)C=C4)cc2)cc1OC
REMARK SMILES IDX 16 1 15 2 14 3 12 4 13 5 11 7 7 8 8 9 9 10 10 11 6 12 3 13
REMARK SMILES IDX 4 14 85 15 5 16 84 17 2 18 1 19 86 20 87 21 17 22 18 23
REMARK SMILES IDX 19 24 20 26 21 27 22 28 83 29 23 30 82 31 24 32 25 33 26 34
REMARK SMILES IDX 76 35 27 36 81 37 75 38 77 39 28 40 80 41 74 42 73 43 29 45
REMARK SMILES IDX 61 46 41 47 60 48 42 49 45 50 59 51 78 52 43 53 44 54 58 56
REMARK SMILES IDX 79 57 46 58 30 59 31 60 39 61 32 62 38 63 40 64 37 65 33 66
REMARK SMILES IDX 34 67 35 68 36 69 62 70 63 71 71 72 64 73 70 74 72 75 69 76
REMARK SMILES IDX 65 77 66 78 67 79 68 80 47 81 48 82 56 83 49 84 55 85 57 86
REMARK SMILES IDX 54 87 50 88 51 89 52 90 53 91
REMARK H PARENT 14 6 18 25 77 44 45 55
REMARK Flexibility Score: inf
ROOT
ATOM      1  C   UNL A   1      37.975  20.340  24.918  1.00  0.00     0.042 C 
ENDROOT
BRANCH   1   2
ATOM      2  C   UNL A   1      37.080  21.575  24.787  1.00  0.00     0.117 C 
BRANCH   2   3
ATOM      3  N   UNL A   1      36.284  21.827  25.981  1.00  0.00    -0.355 N 
ATOM      4  C   UNL A   1      34.940  21.788  26.192  1.00  0.00     0.234 C 
ATOM      5  O   UNL A   1      34.535  22.009  27.337  1.00  0.00    -0.274 OA
ATOM      6  H   UNL A   1      36.812  22.069  26.777  1.00  0.00     0.163 HD
BRANCH   4   7
ATOM      7  C   UNL A   1      33.952  21.461  25.114  1.00  0.00     0.173 C 
ATOM      8  C   UNL A   1      32.873  22.460  24.891  1.00  0.00     0.088 C 
ATOM      9  N   UNL A   1      31.681  21.949  24.965  1.00  0.00    -0.154 NA
ATOM     10  N   UNL A   1      31.819  20.550  25.251  1.00  0.00    -0.162 NA
ATOM     11  C   UNL A   1      33.082  20.285  25.354  1.00  0.00     0.128 C 
BRANCH   8  12
ATOM     12  C   UNL A   1      33.164  23.875  24.657  1.00  0.00     0.003 A 
ATOM     13  C   UNL A   1      33.699  26.561  24.142  1.00  0.00     0.160 A 
ATOM     14  C   UNL A   1      33.534  26.110  25.462  1.00  0.00     0.051 A 
ATOM     15  C   UNL A   1      33.611  25.660  23.071  1.00  0.00     0.161 A 
ATOM     16  C   UNL A   1      33.249  24.767  25.723  1.00  0.00     0.014 A 
ATOM     17  C   UNL A   1      33.350  24.312  23.344  1.00  0.00     0.060 A 
BRANCH  13  18
ATOM     18  O   UNL A   1      34.072  27.865  23.953  1.00  0.00    -0.493 OA
ATOM     19  C   UNL A   1      32.997  28.773  24.203  1.00  0.00     0.278 C 
ENDBRANCH  13  18
BRANCH  15  20
ATOM     20  O   UNL A   1      33.776  25.904  21.735  1.00  0.00    -0.493 OA
ATOM     21  C   UNL A   1      32.682  25.665  20.864  1.00  0.00     0.278 C 
ENDBRANCH  15  20
ENDBRANCH   8  12
ENDBRANCH   4   7
ENDBRANCH   2   3
ENDBRANCH   1   2
BRANCH   1  22
ATOM     22  C   UNL A   1      39.028  20.491  26.010  1.00  0.00     0.118 C 
BRANCH  22  23
ATOM     23  N   UNL A   1      40.074  19.468  25.933  1.00  0.00    -0.352 N 
ATOM     24  C   UNL A   1      41.444  19.644  25.997  1.00  0.00     0.251 C 
ATOM     25  H   UNL A   1      39.764  18.540  25.822  1.00  0.00     0.163 HD
ATOM     26  O   UNL A   1      42.203  18.778  25.565  1.00  0.00    -0.269 OA
BRANCH  24  27
ATOM     27  C   UNL A   1      41.973  20.888  26.582  1.00  0.00     0.039 A 
ATOM     28  C   UNL A   1      42.399  21.951  25.779  1.00  0.00     0.014 A 
ATOM     29  C   UNL A   1      41.973  20.999  27.968  1.00  0.00     0.014 A 
ATOM     30  C   UNL A   1      42.720  23.165  26.386  1.00  0.00     0.010 A 
ATOM     31  C   UNL A   1      42.141  22.232  28.547  1.00  0.00     0.010 A 
ATOM     32  C   UNL A   1      42.558  23.313  27.773  1.00  0.00    -0.014 A 
BRANCH  32  33
ATOM     33  C   UNL A   1      42.659  24.627  28.415  1.00  0.00     0.031 A 
ATOM     34  C   UNL A   1      41.504  25.531  28.153  1.00  0.00     0.074 A 
ATOM     35  C   UNL A   1      43.563  24.905  29.382  1.00  0.00     0.049 A 
ATOM     36  N   UNL A   1      41.491  26.634  27.481  1.00  0.00    -0.248 NA
ATOM     37  C   UNL A   1      40.162  25.070  28.548  1.00  0.00     0.031 C 
ATOM     38  C   UNL A   1      44.565  23.992  29.951  1.00  0.00     0.029 A 
ATOM     39  N   UNL A   1      43.695  26.013  30.166  1.00  0.00    -0.354 N 
ATOM     40  C   UNL A   1      40.199  27.143  27.609  1.00  0.00     0.074 A 
ATOM     41  C   UNL A   1      39.393  26.039  28.047  1.00  0.00     0.031 C 
ATOM     42  C   UNL A   1      45.013  24.481  31.126  1.00  0.00     0.029 A 
ATOM     43  C   UNL A   1      44.484  25.820  31.301  1.00  0.00     0.049 A 
ATOM     44  H   UNL A   1      43.272  26.875  29.949  1.00  0.00     0.167 HD
ATOM     45  C   UNL A   1      39.977  28.489  27.629  1.00  0.00     0.034 A 
ATOM     46  C   UNL A   1      44.699  26.687  32.325  1.00  0.00     0.034 A 
ATOM     47  C   UNL A   1      41.144  29.199  27.145  1.00  0.00     0.049 A 
ATOM     48  C   UNL A   1      44.417  28.038  31.794  1.00  0.00     0.074 A 
ATOM     49  C   UNL A   1      41.859  29.235  25.964  1.00  0.00     0.029 A 
ATOM     50  N   UNL A   1      41.966  29.755  28.100  1.00  0.00    -0.354 N 
ATOM     51  N   UNL A   1      45.110  28.586  30.833  1.00  0.00    -0.248 NA
ATOM     52  C   UNL A   1      43.106  28.623  32.019  1.00  0.00     0.031 C 
ATOM     53  C   UNL A   1      43.222  29.404  26.357  1.00  0.00     0.029 A 
ATOM     54  C   UNL A   1      43.271  29.537  27.746  1.00  0.00     0.049 A 
ATOM     55  H   UNL A   1      41.664  30.234  28.906  1.00  0.00     0.167 HD
ATOM     56  C   UNL A   1      44.175  29.249  30.058  1.00  0.00     0.074 A 
ATOM     57  C   UNL A   1      43.000  29.371  30.915  1.00  0.00     0.031 C 
ATOM     58  C   UNL A   1      44.349  29.371  28.707  1.00  0.00     0.034 A 
BRANCH  45  59
ATOM     59  C   UNL A   1      38.936  29.190  28.499  1.00  0.00     0.023 A 
ATOM     60  C   UNL A   1      39.192  29.214  29.887  1.00  0.00     0.031 A 
ATOM     61  C   UNL A   1      37.617  29.533  28.128  1.00  0.00     0.131 A 
ATOM     62  C   UNL A   1      38.154  29.384  30.819  1.00  0.00     0.055 A 
ATOM     63  C   UNL A   1      36.599  29.766  29.059  1.00  0.00     0.041 A 
ATOM     64  F   UNL A   1      37.207  29.602  26.858  1.00  0.00    -0.206 F 
ATOM     65  C   UNL A   1      36.852  29.647  30.413  1.00  0.00     0.022 A 
BRANCH  62  66
ATOM     66  S   UNL A   1      38.506  29.041  32.561  1.00  0.00     0.124 S 
ATOM     67  O   UNL A   1      37.401  28.155  32.907  1.00  0.00    -0.237 OA
ATOM     68  O   UNL A   1      39.828  28.428  32.483  1.00  0.00    -0.237 OA
ATOM     69  O   UNL A   1      38.467  30.364  33.180  1.00  0.00    -0.744 OA
ENDBRANCH  62  66
ENDBRANCH  45  59
BRANCH  46  70
ATOM     70  C   UNL A   1      44.854  26.376  33.772  1.00  0.00     0.023 A 
ATOM     71  C   UNL A   1      43.825  26.573  34.718  1.00  0.00     0.031 A 
ATOM     72  C   UNL A   1      45.973  25.627  34.201  1.00  0.00     0.131 A 
ATOM     73  C   UNL A   1      43.938  26.025  36.019  1.00  0.00     0.055 A 
ATOM     74  C   UNL A   1      46.079  25.088  35.486  1.00  0.00     0.041 A 
ATOM     75  F   UNL A   1      46.968  25.319  33.353  1.00  0.00    -0.206 F 
ATOM     76  C   UNL A   1      45.054  25.276  36.398  1.00  0.00     0.022 A 
BRANCH  73  77
ATOM     77  S   UNL A   1      42.577  26.204  37.222  1.00  0.00     0.124 S 
ATOM     78  O   UNL A   1      41.795  24.997  36.988  1.00  0.00    -0.237 OA
ATOM     79  O   UNL A   1      43.288  26.284  38.492  1.00  0.00    -0.237 OA
ATOM     80  O   UNL A   1      41.921  27.447  36.811  1.00  0.00    -0.744 OA
ENDBRANCH  73  77
ENDBRANCH  46  70
BRANCH  58  81
ATOM     81  C   UNL A   1      45.739  29.140  28.150  1.00  0.00     0.023 A 
ATOM     82  C   UNL A   1      46.280  27.885  27.790  1.00  0.00     0.031 A 
ATOM     83  C   UNL A   1      46.515  30.284  27.889  1.00  0.00     0.131 A 
ATOM     84  C   UNL A   1      47.559  27.811  27.202  1.00  0.00     0.055 A 
ATOM     85  C   UNL A   1      47.769  30.210  27.287  1.00  0.00     0.041 A 
ATOM     86  F   UNL A   1      46.045  31.507  28.186  1.00  0.00    -0.206 F 
ATOM     87  C   UNL A   1      48.299  28.971  26.946  1.00  0.00     0.022 A 
BRANCH  84  88
ATOM     88  S   UNL A   1      48.295  26.201  26.765  1.00  0.00     0.124 S 
ATOM     89  O   UNL A   1      49.674  26.320  27.223  1.00  0.00    -0.237 OA
ATOM     90  O   UNL A   1      47.457  25.257  27.500  1.00  0.00    -0.237 OA
ATOM     91  O   UNL A   1      48.141  26.140  25.310  1.00  0.00    -0.744 OA
ENDBRANCH  84  88
ENDBRANCH  58  81
ENDBRANCH  32  33
ENDBRANCH  24  27
ENDBRANCH  22  23
ENDBRANCH   1  22
TORSDOF 16
ENDMDL
MODEL 2
REMARK VINA RESULT:     -12.0      3.436      8.452
REMARK SMILES COc1ccc(C2=NN=C[C@@H]2C(=O)NCCCNC(=O)c2ccc(-c3c4nc(c(-c5cc(S(=O)(=O)[O-])ccc5F)c5ccc([nH]5)c(-c5cc(S(=O)(=O)[O-])ccc5F)c5nc(c(-c6cc(S(=O)(=O)[O-])ccc6F)c6ccc3[nH]6)C=C5)C=C4)cc2)cc1OC
REMARK SMILES IDX 16 1 15 2 14 3 12 4 13 5 11 7 7 8 8 9 9 10 10 11 6 12 3 13
REMARK SMILES IDX 4 14 85 15 5 16 84 17 2 18 1 19 86 20 87 21 17 22 18 23
REMARK SMILES IDX 19 24 20 26 21 27 22 28 83 29 23 30 82 31 24 32 25 33 26 34
REMARK SMILES IDX 76 35 27 36 81 37 75 38 77 39 28 40 80 41 74 42 73 43 29 45
REMARK SMILES IDX 61 46 41 47 60 48 42 49 45 50 59 51 78 52 43 53 44 54 58 56
REMARK SMILES IDX 79 57 46 58 30 59 31 60 39 61 32 62 38 63 40 64 37 65 33 66
REMARK SMILES IDX 34 67 35 68 36 69 62 70 63 71 71 72 64 73 70 74 72 75 69 76
REMARK SMILES IDX 65 77 66 78 67 79 68 80 47 81 48 82 56 83 49 84 55 85 57 86
REMARK SMILES IDX 54 87 50 88 51 89 52 90 53 91
REMARK H PARENT 14 6 18 25 77 44 45 55
REMARK Flexibility Score: inf
ROOT
ATOM      1  C   UNL A   1      33.680  28.868  27.479  1.00  0.00     0.042 C 
ENDROOT
BRANCH   1   2
ATOM      2  C   UNL A   1      32.822  29.591  26.439  1.00  0.00     0.117 C 
BRANCH   2   3
ATOM      3  N   UNL A   1      33.421  29.589  25.110  1.00  0.00    -0.355 N 
ATOM      4  C   UNL A   1      32.946  29.160  23.909  1.00  0.00     0.234 C 
ATOM      5  O   UNL A   1      33.665  29.321  22.919  1.00  0.00    -0.274 OA
ATOM      6  H   UNL A   1      34.332  29.963  25.076  1.00  0.00     0.163 HD
BRANCH   4   7
ATOM      7  C   UNL A   1      31.592  28.540  23.739  1.00  0.00     0.173 C 
ATOM      8  C   UNL A   1      31.563  27.199  23.095  1.00  0.00     0.088 C 
ATOM      9  N   UNL A   1      30.782  27.148  22.058  1.00  0.00    -0.154 NA
ATOM     10  N   UNL A   1      30.199  28.447  21.882  1.00  0.00    -0.162 NA
ATOM     11  C   UNL A   1      30.667  29.225  22.806  1.00  0.00     0.128 C 
BRANCH   8  12
ATOM     12  C   UNL A   1      32.379  26.087  23.584  1.00  0.00     0.003 A 
ATOM     13  C   UNL A   1      33.882  23.955  24.564  1.00  0.00     0.160 A 
ATOM     14  C   UNL A   1      34.161  24.500  23.300  1.00  0.00     0.051 A 
ATOM     15  C   UNL A   1      32.852  24.490  25.352  1.00  0.00     0.161 A 
ATOM     16  C   UNL A   1      33.399  25.558  22.797  1.00  0.00     0.014 A 
ATOM     17  C   UNL A   1      32.111  25.567  24.851  1.00  0.00     0.060 A 
BRANCH  13  18
ATOM     18  O   UNL A   1      34.722  22.986  25.044  1.00  0.00    -0.493 OA
ATOM     19  C   UNL A   1      36.095  23.296  24.798  1.00  0.00     0.278 C 
ENDBRANCH  13  18
BRANCH  15  20
ATOM     20  O   UNL A   1      32.461  24.120  26.609  1.00  0.00    -0.493 OA
ATOM     21  C   UNL A   1      31.184  23.523  26.770  1.00  0.00     0.278 C 
ENDBRANCH  15  20
ENDBRANCH   8  12
ENDBRANCH   4   7
ENDBRANCH   2   3
ENDBRANCH   1   2
BRANCH   1  22
ATOM     22  C   UNL A   1      35.117  29.376  27.510  1.00  0.00     0.118 C 
BRANCH  22  23
ATOM     23  N   UNL A   1      35.412  30.170  28.706  1.00  0.00    -0.352 N 
ATOM     24  C   UNL A   1      36.475  30.031  29.580  1.00  0.00     0.251 C 
ATOM     25  H   UNL A   1      34.775  30.891  28.914  1.00  0.00     0.163 HD
ATOM     26  O   UNL A   1      36.413  30.504  30.714  1.00  0.00    -0.269 OA
BRANCH  24  27
ATOM     27  C   UNL A   1      37.672  29.299  29.132  1.00  0.00     0.039 A 
ATOM     28  C   UNL A   1      38.370  29.673  27.980  1.00  0.00     0.014 A 
ATOM     29  C   UNL A   1      38.128  28.259  29.934  1.00  0.00     0.014 A 
ATOM     30  C   UNL A   1      39.593  29.059  27.705  1.00  0.00     0.010 A 
ATOM     31  C   UNL A   1      39.395  27.767  29.747  1.00  0.00     0.010 A 
ATOM     32  C   UNL A   1      40.120  28.126  28.613  1.00  0.00    -0.014 A 
BRANCH  32  33
ATOM     33  C   UNL A   1      41.495  27.634  28.483  1.00  0.00     0.031 A 
ATOM     34  C   UNL A   1      41.622  26.351  27.736  1.00  0.00     0.074 A 
ATOM     35  C   UNL A   1      42.578  28.397  28.759  1.00  0.00     0.049 A 
ATOM     36  N   UNL A   1      41.992  25.198  28.186  1.00  0.00    -0.248 NA
ATOM     37  C   UNL A   1      41.121  26.305  26.351  1.00  0.00     0.031 C 
ATOM     38  C   UNL A   1      42.588  29.794  29.214  1.00  0.00     0.029 A 
ATOM     39  N   UNL A   1      43.903  28.141  28.561  1.00  0.00    -0.354 N 
ATOM     40  C   UNL A   1      42.035  24.353  27.079  1.00  0.00     0.074 A 
ATOM     41  C   UNL A   1      41.265  25.011  26.062  1.00  0.00     0.031 C 
ATOM     42  C   UNL A   1      43.810  30.330  29.016  1.00  0.00     0.029 A 
ATOM     43  C   UNL A   1      44.716  29.274  28.605  1.00  0.00     0.049 A 
ATOM     44  H   UNL A   1      44.255  27.236  28.401  1.00  0.00     0.167 HD
ATOM     45  C   UNL A   1      42.945  23.339  27.009  1.00  0.00     0.034 A 
ATOM     46  C   UNL A   1      46.043  29.360  28.326  1.00  0.00     0.034 A 
ATOM     47  C   UNL A   1      43.516  23.085  28.317  1.00  0.00     0.049 A 
ATOM     48  C   UNL A   1      46.595  28.000  28.499  1.00  0.00     0.074 A 
ATOM     49  C   UNL A   1      43.029  22.695  29.549  1.00  0.00     0.029 A 
ATOM     50  N   UNL A   1      44.766  23.611  28.556  1.00  0.00    -0.354 N 
ATOM     51  N   UNL A   1      46.605  27.374  29.645  1.00  0.00    -0.248 NA
ATOM     52  C   UNL A   1      46.749  27.149  27.331  1.00  0.00     0.031 C 
ATOM     53  C   UNL A   1      43.818  23.404  30.505  1.00  0.00     0.029 A 
ATOM     54  C   UNL A   1      44.794  24.133  29.822  1.00  0.00     0.049 A 
ATOM     55  H   UNL A   1      45.518  23.612  27.921  1.00  0.00     0.167 HD
ATOM     56  C   UNL A   1      46.308  26.059  29.331  1.00  0.00     0.074 A 
ATOM     57  C   UNL A   1      46.565  25.952  27.898  1.00  0.00     0.031 C 
ATOM     58  C   UNL A   1      45.608  25.274  30.205  1.00  0.00     0.034 A 
BRANCH  45  59
ATOM     59  C   UNL A   1      43.668  22.898  25.738  1.00  0.00     0.023 A 
ATOM     60  C   UNL A   1      43.784  21.507  25.532  1.00  0.00     0.031 A 
ATOM     61  C   UNL A   1      44.498  23.695  24.919  1.00  0.00     0.131 A 
ATOM     62  C   UNL A   1      44.787  20.971  24.707  1.00  0.00     0.055 A 
ATOM     63  C   UNL A   1      45.453  23.158  24.048  1.00  0.00     0.041 A 
ATOM     64  F   UNL A   1      44.492  25.031  24.948  1.00  0.00    -0.206 F 
ATOM     65  C   UNL A   1      45.635  21.789  23.972  1.00  0.00     0.022 A 
BRANCH  62  66
ATOM     66  S   UNL A   1      45.095  19.188  24.784  1.00  0.00     0.124 S 
ATOM     67  O   UNL A   1      46.467  19.156  25.276  1.00  0.00    -0.237 OA
ATOM     68  O   UNL A   1      44.062  18.748  25.715  1.00  0.00    -0.237 OA
ATOM     69  O   UNL A   1      44.915  18.755  23.401  1.00  0.00    -0.744 OA
ENDBRANCH  62  66
ENDBRANCH  45  59
BRANCH  46  70
ATOM     70  C   UNL A   1      46.770  30.476  27.660  1.00  0.00     0.023 A 
ATOM     71  C   UNL A   1      46.115  31.537  26.998  1.00  0.00     0.031 A 
ATOM     72  C   UNL A   1      48.154  30.634  27.894  1.00  0.00     0.131 A 
ATOM     73  C   UNL A   1      46.838  32.691  26.611  1.00  0.00     0.055 A 
ATOM     74  C   UNL A   1      48.863  31.776  27.509  1.00  0.00     0.041 A 
ATOM     75  F   UNL A   1      48.851  29.717  28.583  1.00  0.00    -0.206 F 
ATOM     76  C   UNL A   1      48.203  32.815  26.876  1.00  0.00     0.022 A 
BRANCH  73  77
ATOM     77  S   UNL A   1      45.984  34.102  25.830  1.00  0.00     0.124 S 
ATOM     78  O   UNL A   1      47.074  34.782  25.141  1.00  0.00    -0.237 OA
ATOM     79  O   UNL A   1      44.993  33.443  24.989  1.00  0.00    -0.237 OA
ATOM     80  O   UNL A   1      45.427  34.836  26.968  1.00  0.00    -0.744 OA
ENDBRANCH  73  77
ENDBRANCH  46  70
BRANCH  58  81
ATOM     81  C   UNL A   1      45.527  25.725  31.650  1.00  0.00     0.023 A 
ATOM     82  C   UNL A   1      46.552  25.578  32.613  1.00  0.00     0.031 A 
ATOM     83  C   UNL A   1      44.369  26.426  32.031  1.00  0.00     0.131 A 
ATOM     84  C   UNL A   1      46.387  26.117  33.905  1.00  0.00     0.055 A 
ATOM     85  C   UNL A   1      44.218  26.975  33.302  1.00  0.00     0.041 A 
ATOM     86  F   UNL A   1      43.371  26.619  31.153  1.00  0.00    -0.206 F 
ATOM     87  C   UNL A   1      45.225  26.818  34.247  1.00  0.00     0.022 A 
BRANCH  84  88
ATOM     88  S   UNL A   1      47.676  25.907  35.176  1.00  0.00     0.124 S 
ATOM     89  O   UNL A   1      48.358  27.195  35.189  1.00  0.00    -0.237 OA
ATOM     90  O   UNL A   1      46.899  25.583  36.370  1.00  0.00    -0.237 OA
ATOM     91  O   UNL A   1      48.484  24.798  34.663  1.00  0.00    -0.744 OA
ENDBRANCH  84  88
ENDBRANCH  58  81
ENDBRANCH  32  33
ENDBRANCH  24  27
ENDBRANCH  22  23
ENDBRANCH   1  22
TORSDOF 16
ENDMDL
MODEL 3
REMARK VINA RESULT:     -12.0      4.190      5.496
REMARK SMILES COc1ccc(C2=NN=C[C@@H]2C(=O)NCCCNC(=O)c2ccc(-c3c4nc(c(-c5cc(S(=O)(=O)[O-])ccc5F)c5ccc([nH]5)c(-c5cc(S(=O)(=O)[O-])ccc5F)c5nc(c(-c6cc(S(=O)(=O)[O-])ccc6F)c6ccc3[nH]6)C=C5)C=C4)cc2)cc1OC
REMARK SMILES IDX 16 1 15 2 14 3 12 4 13 5 11 7 7 8 8 9 9 10 10 11 6 12 3 13
REMARK SMILES IDX 4 14 85 15 5 16 84 17 2 18 1 19 86 20 87 21 17 22 18 23
REMARK SMILES IDX 19 24 20 26 21 27 22 28 83 29 23 30 82 31 24 32 25 33 26 34
REMARK SMILES IDX 76 35 27 36 81 37 75 38 77 39 28 40 80 41 74 42 73 43 29 45
REMARK SMILES IDX 61 46 41 47 60 48 42 49 45 50 59 51 78 52 43 53 44 54 58 56
REMARK SMILES IDX 79 57 46 58 30 59 31 60 39 61 32 62 38 63 40 64 37 65 33 66
REMARK SMILES IDX 34 67 35 68 36 69 62 70 63 71 71 72 64 73 70 74 72 75 69 76
REMARK SMILES IDX 65 77 66 78 67 79 68 80 47 81 48 82 56 83 49 84 55 85 57 86
REMARK SMILES IDX 54 87 50 88 51 89 52 90 53 91
REMARK H PARENT 14 6 18 25 77 44 45 55
REMARK Flexibility Score: inf
ROOT
ATOM      1  C   UNL A   1      37.130  23.756  25.276  1.00  0.00     0.042 C 
ENDROOT
BRANCH   1   2
ATOM      2  C   UNL A   1      36.594  22.323  25.313  1.00  0.00     0.117 C 
BRANCH   2   3
ATOM      3  N   UNL A   1      35.620  22.110  26.377  1.00  0.00    -0.355 N 
ATOM      4  C   UNL A   1      34.504  21.334  26.434  1.00  0.00     0.234 C 
ATOM      5  O   UNL A   1      33.876  21.312  27.497  1.00  0.00    -0.274 OA
ATOM      6  H   UNL A   1      35.802  22.620  27.201  1.00  0.00     0.163 HD
BRANCH   4   7
ATOM      7  C   UNL A   1      34.033  20.494  25.286  1.00  0.00     0.173 C 
ATOM      8  C   UNL A   1      32.799  20.960  24.598  1.00  0.00     0.088 C 
ATOM      9  N   UNL A   1      31.872  20.051  24.541  1.00  0.00    -0.154 NA
ATOM     10  N   UNL A   1      32.373  18.872  25.188  1.00  0.00    -0.162 NA
ATOM     11  C   UNL A   1      33.566  19.128  25.619  1.00  0.00     0.128 C 
BRANCH   8  12
ATOM     12  C   UNL A   1      32.665  22.325  24.088  1.00  0.00     0.003 A 
ATOM     13  C   UNL A   1      32.365  24.940  23.174  1.00  0.00     0.160 A 
ATOM     14  C   UNL A   1      33.420  24.140  22.705  1.00  0.00     0.051 A 
ATOM     15  C   UNL A   1      31.443  24.425  24.096  1.00  0.00     0.161 A 
ATOM     16  C   UNL A   1      33.584  22.833  23.174  1.00  0.00     0.014 A 
ATOM     17  C   UNL A   1      31.600  23.107  24.541  1.00  0.00     0.060 A 
BRANCH  13  18
ATOM     18  O   UNL A   1      32.199  26.175  22.607  1.00  0.00    -0.493 OA
ATOM     19  C   UNL A   1      33.410  26.671  22.033  1.00  0.00     0.278 C 
ENDBRANCH  13  18
BRANCH  15  20
ATOM     20  O   UNL A   1      30.344  25.034  24.634  1.00  0.00    -0.493 OA
ATOM     21  C   UNL A   1      30.509  25.814  25.808  1.00  0.00     0.278 C 
ENDBRANCH  15  20
ENDBRANCH   8  12
ENDBRANCH   4   7
ENDBRANCH   2   3
ENDBRANCH   1   2
BRANCH   1  22
ATOM     22  C   UNL A   1      38.003  24.089  26.480  1.00  0.00     0.118 C 
BRANCH  22  23
ATOM     23  N   UNL A   1      39.434  24.067  26.165  1.00  0.00    -0.352 N 
ATOM     24  C   UNL A   1      40.358  25.083  26.331  1.00  0.00     0.251 C 
ATOM     25  H   UNL A   1      39.781  23.227  25.789  1.00  0.00     0.163 HD
ATOM     26  O   UNL A   1      41.417  25.067  25.707  1.00  0.00    -0.269 OA
BRANCH  24  27
ATOM     27  C   UNL A   1      40.044  26.184  27.259  1.00  0.00     0.039 A 
ATOM     28  C   UNL A   1      39.597  25.940  28.560  1.00  0.00     0.014 A 
ATOM     29  C   UNL A   1      40.274  27.482  26.816  1.00  0.00     0.014 A 
ATOM     30  C   UNL A   1      39.489  27.012  29.446  1.00  0.00     0.010 A 
ATOM     31  C   UNL A   1      40.314  28.508  27.727  1.00  0.00     0.010 A 
ATOM     32  C   UNL A   1      39.882  28.295  29.034  1.00  0.00    -0.014 A 
BRANCH  32  33
ATOM     33  C   UNL A   1      40.004  29.398  29.993  1.00  0.00     0.031 A 
ATOM     34  C   UNL A   1      38.748  30.169  30.208  1.00  0.00     0.074 A 
ATOM     35  C   UNL A   1      41.064  29.537  30.822  1.00  0.00     0.049 A 
ATOM     36  N   UNL A   1      38.500  31.396  29.890  1.00  0.00    -0.248 NA
ATOM     37  C   UNL A   1      37.562  29.439  30.690  1.00  0.00     0.031 C 
ATOM     38  C   UNL A   1      42.237  28.656  30.920  1.00  0.00     0.029 A 
ATOM     39  N   UNL A   1      41.264  30.410  31.850  1.00  0.00    -0.354 N 
ATOM     40  C   UNL A   1      37.226  31.668  30.385  1.00  0.00     0.074 A 
ATOM     41  C   UNL A   1      36.626  30.387  30.629  1.00  0.00     0.031 C 
ATOM     42  C   UNL A   1      42.879  28.879  32.086  1.00  0.00     0.029 A 
ATOM     43  C   UNL A   1      42.287  30.039  32.724  1.00  0.00     0.049 A 
ATOM     44  H   UNL A   1      40.733  31.230  31.966  1.00  0.00     0.167 HD
ATOM     45  C   UNL A   1      36.899  32.918  30.825  1.00  0.00     0.034 A 
ATOM     46  C   UNL A   1      42.638  30.631  33.896  1.00  0.00     0.034 A 
ATOM     47  C   UNL A   1      37.875  33.885  30.362  1.00  0.00     0.049 A 
ATOM     48  C   UNL A   1      42.138  32.020  33.829  1.00  0.00     0.074 A 
ATOM     49  C   UNL A   1      38.320  34.327  29.132  1.00  0.00     0.029 A 
ATOM     50  N   UNL A   1      38.828  34.282  31.272  1.00  0.00    -0.354 N 
ATOM     51  N   UNL A   1      42.564  32.891  32.955  1.00  0.00    -0.248 NA
ATOM     52  C   UNL A   1      40.858  32.338  34.441  1.00  0.00     0.031 C 
ATOM     53  C   UNL A   1      39.715  34.577  29.306  1.00  0.00     0.029 A 
ATOM     54  C   UNL A   1      40.043  34.348  30.644  1.00  0.00     0.049 A 
ATOM     55  H   UNL A   1      38.663  34.487  32.221  1.00  0.00     0.167 HD
ATOM     56  C   UNL A   1      41.434  33.596  32.579  1.00  0.00     0.074 A 
ATOM     57  C   UNL A   1      40.459  33.325  33.632  1.00  0.00     0.031 C 
ATOM     58  C   UNL A   1      41.309  34.089  31.310  1.00  0.00     0.034 A 
BRANCH  45  59
ATOM     59  C   UNL A   1      36.009  33.216  32.030  1.00  0.00     0.023 A 
ATOM     60  C   UNL A   1      34.885  34.035  31.792  1.00  0.00     0.031 A 
ATOM     61  C   UNL A   1      36.343  33.037  33.391  1.00  0.00     0.131 A 
ATOM     62  C   UNL A   1      34.275  34.759  32.831  1.00  0.00     0.055 A 
ATOM     63  C   UNL A   1      35.690  33.710  34.431  1.00  0.00     0.041 A 
ATOM     64  F   UNL A   1      37.350  32.263  33.804  1.00  0.00    -0.206 F 
ATOM     65  C   UNL A   1      34.680  34.612  34.152  1.00  0.00     0.022 A 
BRANCH  62  66
ATOM     66  S   UNL A   1      33.087  36.051  32.389  1.00  0.00     0.124 S 
ATOM     67  O   UNL A   1      31.831  35.312  32.434  1.00  0.00    -0.237 OA
ATOM     68  O   UNL A   1      33.302  37.029  33.450  1.00  0.00    -0.237 OA
ATOM     69  O   UNL A   1      33.521  36.468  31.058  1.00  0.00    -0.744 OA
ENDBRANCH  62  66
ENDBRANCH  45  59
BRANCH  46  70
ATOM     70  C   UNL A   1      43.119  29.978  35.144  1.00  0.00     0.023 A 
ATOM     71  C   UNL A   1      42.586  28.766  35.636  1.00  0.00     0.031 A 
ATOM     72  C   UNL A   1      44.315  30.433  35.744  1.00  0.00     0.131 A 
ATOM     73  C   UNL A   1      43.249  28.065  36.673  1.00  0.00     0.055 A 
ATOM     74  C   UNL A   1      44.964  29.737  36.768  1.00  0.00     0.041 A 
ATOM     75  F   UNL A   1      44.940  31.533  35.295  1.00  0.00    -0.206 F 
ATOM     76  C   UNL A   1      44.438  28.542  37.228  1.00  0.00     0.022 A 
BRANCH  73  77
ATOM     77  S   UNL A   1      42.613  26.458  37.258  1.00  0.00     0.124 S 
ATOM     78  O   UNL A   1      41.178  26.702  37.337  1.00  0.00    -0.237 OA
ATOM     79  O   UNL A   1      43.061  25.544  36.215  1.00  0.00    -0.237 OA
ATOM     80  O   UNL A   1      43.275  26.279  38.552  1.00  0.00    -0.744 OA
ENDBRANCH  73  77
ENDBRANCH  46  70
BRANCH  58  81
ATOM     81  C   UNL A   1      42.566  34.208  30.472  1.00  0.00     0.023 A 
ATOM     82  C   UNL A   1      42.972  33.297  29.470  1.00  0.00     0.031 A 
ATOM     83  C   UNL A   1      43.339  35.369  30.649  1.00  0.00     0.131 A 
ATOM     84  C   UNL A   1      44.121  33.564  28.699  1.00  0.00     0.055 A 
ATOM     85  C   UNL A   1      44.461  35.641  29.871  1.00  0.00     0.041 A 
ATOM     86  F   UNL A   1      42.989  36.285  31.568  1.00  0.00    -0.206 F 
ATOM     87  C   UNL A   1      44.861  34.735  28.895  1.00  0.00     0.022 A 
BRANCH  84  88
ATOM     88  S   UNL A   1      44.688  32.385  27.428  1.00  0.00     0.124 S 
ATOM     89  O   UNL A   1      44.152  31.108  27.883  1.00  0.00    -0.237 OA
ATOM     90  O   UNL A   1      44.100  32.926  26.206  1.00  0.00    -0.237 OA
ATOM     91  O   UNL A   1      46.148  32.489  27.494  1.00  0.00    -0.744 OA
ENDBRANCH  84  88
ENDBRANCH  58  81
ENDBRANCH  32  33
ENDBRANCH  24  27
ENDBRANCH  22  23
ENDBRANCH   1  22
TORSDOF 16
ENDMDL
