MODEL 1
REMARK VINA RESULT:     -13.3      0.000      0.000
REMARK SMILES COc1ccc(NC(=O)N[C@@H]2C=C[C@H](C(=O)NCCCNC(=O)c3ccc(-c4c5nc(c(-c6cc(S(=O)(=O)[O-])ccc6F)c6ccc([nH]6)c(-c6cc(S(=O)(=O)[O-])ccc6F)c6nc(c(-c7cc(S(=O)(=O)[O-])ccc7F)c7ccc4[nH]7)C=C6)C=C5)cc3)C2)c(C)c1
REMARK SMILES IDX 19 1 18 2 17 3 15 4 16 5 14 7 11 8 12 9 87 10 13 11 10 12
REMARK SMILES IDX 7 13 8 14 9 16 6 18 3 19 4 20 90 21 5 22 88 23 89 24 2 25
REMARK SMILES IDX 1 26 20 27 21 28 22 29 23 31 24 32 25 33 86 34 26 35 85 36
REMARK SMILES IDX 27 37 28 38 29 39 79 40 30 41 84 42 78 43 80 44 31 45 83 46
REMARK SMILES IDX 77 47 76 48 32 50 64 51 44 52 63 53 45 54 48 55 62 56 81 57
REMARK SMILES IDX 46 58 47 59 61 61 82 62 49 63 33 64 34 65 42 66 35 67 41 68
REMARK SMILES IDX 43 69 40 70 36 71 37 72 38 73 39 74 65 75 66 76 74 77 67 78
REMARK SMILES IDX 73 79 75 80 72 81 68 82 69 83 70 84 71 85 50 86 51 87 59 88
REMARK SMILES IDX 52 89 58 90 60 91 57 92 53 93 54 94 55 95 56 96
REMARK H PARENT 17 6 7 15 10 17 21 30 80 49 48 60
REMARK Flexibility Score: inf
ROOT
ATOM      1  C   UNL A   1      38.469  21.605  25.751  1.00  0.00     0.042 C 
ENDROOT
BRANCH   1   2
ATOM      2  C   UNL A   1      37.008  21.674  25.319  1.00  0.00     0.117 C 
BRANCH   2   3
ATOM      3  N   UNL A   1      36.396  20.359  25.220  1.00  0.00    -0.356 N 
ATOM      4  C   UNL A   1      35.120  19.992  24.908  1.00  0.00     0.227 C 
ATOM      5  O   UNL A   1      34.801  18.806  25.001  1.00  0.00    -0.274 OA
ATOM      6  H   UNL A   1      37.004  19.609  25.410  1.00  0.00     0.163 HD
BRANCH   4   7
ATOM      7  C   UNL A   1      34.126  21.055  24.422  1.00  0.00     0.103 C 
ATOM      8  C   UNL A   1      32.062  22.186  25.087  1.00  0.00     0.107 C 
ATOM      9  C   UNL A   1      31.779  20.955  24.286  1.00  0.00    -0.006 C 
ATOM     10  C   UNL A   1      33.503  21.904  25.550  1.00  0.00     0.047 C 
ATOM     11  C   UNL A   1      32.904  20.375  23.863  1.00  0.00    -0.016 C 
BRANCH   8  12
ATOM     12  N   UNL A   1      31.068  22.293  26.124  1.00  0.00    -0.332 N 
ATOM     13  N   UNL A   1      30.731  24.608  26.729  1.00  0.00    -0.308 N 
ATOM     14  C   UNL A   1      30.473  23.289  26.788  1.00  0.00     0.319 C 
ATOM     15  H   UNL A   1      30.206  25.090  27.409  1.00  0.00     0.171 HD
ATOM     16  O   UNL A   1      29.624  22.953  27.626  1.00  0.00    -0.248 OA
ATOM     17  H   UNL A   1      30.745  21.410  26.416  1.00  0.00     0.165 HD
BRANCH  13  18
ATOM     18  C   UNL A   1      31.521  25.508  25.991  1.00  0.00     0.046 A 
ATOM     19  C   UNL A   1      33.038  27.590  24.812  1.00  0.00     0.119 A 
ATOM     20  C   UNL A   1      33.652  26.630  25.594  1.00  0.00     0.048 A 
ATOM     21  C   UNL A   1      31.697  27.407  24.476  1.00  0.00     0.052 A 
ATOM     22  C   UNL A   1      32.898  25.584  26.127  1.00  0.00     0.030 A 
ATOM     23  C   UNL A   1      30.929  26.357  25.035  1.00  0.00    -0.024 A 
ATOM     24  C   UNL A   1      29.545  26.156  24.475  1.00  0.00     0.047 C 
BRANCH  19  25
ATOM     25  O   UNL A   1      33.652  28.688  24.280  1.00  0.00    -0.497 OA
ATOM     26  C   UNL A   1      33.358  28.952  22.910  1.00  0.00     0.278 C 
ENDBRANCH  19  25
ENDBRANCH  13  18
ENDBRANCH   8  12
ENDBRANCH   4   7
ENDBRANCH   2   3
ENDBRANCH   1   2
BRANCH   1  27
ATOM     27  C   UNL A   1      38.961  22.870  26.444  1.00  0.00     0.118 C 
BRANCH  27  28
ATOM     28  N   UNL A   1      40.406  23.048  26.418  1.00  0.00    -0.352 N 
ATOM     29  C   UNL A   1      41.136  24.221  26.548  1.00  0.00     0.251 C 
ATOM     30  H   UNL A   1      40.935  22.228  26.293  1.00  0.00     0.163 HD
ATOM     31  O   UNL A   1      42.347  24.233  26.414  1.00  0.00    -0.269 OA
BRANCH  29  32
ATOM     32  C   UNL A   1      40.430  25.447  26.996  1.00  0.00     0.039 A 
ATOM     33  C   UNL A   1      40.686  26.624  26.282  1.00  0.00     0.014 A 
ATOM     34  C   UNL A   1      39.742  25.493  28.205  1.00  0.00     0.014 A 
ATOM     35  C   UNL A   1      40.463  27.858  26.890  1.00  0.00     0.010 A 
ATOM     36  C   UNL A   1      39.609  26.710  28.848  1.00  0.00     0.010 A 
ATOM     37  C   UNL A   1      40.025  27.886  28.214  1.00  0.00    -0.014 A 
BRANCH  37  38
ATOM     38  C   UNL A   1      40.112  29.077  29.053  1.00  0.00     0.031 A 
ATOM     39  C   UNL A   1      39.022  30.070  29.078  1.00  0.00     0.074 A 
ATOM     40  C   UNL A   1      41.185  29.247  29.855  1.00  0.00     0.049 A 
ATOM     41  N   UNL A   1      39.183  31.315  29.376  1.00  0.00    -0.248 NA
ATOM     42  C   UNL A   1      37.647  29.738  28.725  1.00  0.00     0.031 C 
ATOM     43  C   UNL A   1      41.348  30.224  30.927  1.00  0.00     0.029 A 
ATOM     44  N   UNL A   1      42.458  28.704  29.684  1.00  0.00    -0.354 N 
ATOM     45  C   UNL A   1      37.937  31.873  29.535  1.00  0.00     0.074 A 
ATOM     46  C   UNL A   1      37.015  30.868  29.056  1.00  0.00     0.031 C 
ATOM     47  C   UNL A   1      42.659  30.421  31.136  1.00  0.00     0.029 A 
ATOM     48  C   UNL A   1      43.377  29.678  30.118  1.00  0.00     0.049 A 
ATOM     49  H   UNL A   1      42.672  27.811  29.326  1.00  0.00     0.167 HD
ATOM     50  C   UNL A   1      37.807  33.066  30.181  1.00  0.00     0.034 A 
ATOM     51  C   UNL A   1      44.316  30.190  29.269  1.00  0.00     0.034 A 
ATOM     52  C   UNL A   1      39.101  33.604  30.588  1.00  0.00     0.049 A 
ATOM     53  C   UNL A   1      44.198  31.689  29.083  1.00  0.00     0.074 A 
ATOM     54  C   UNL A   1      39.792  33.581  31.789  1.00  0.00     0.029 A 
ATOM     55  N   UNL A   1      40.006  34.027  29.622  1.00  0.00    -0.354 N 
ATOM     56  N   UNL A   1      43.150  32.384  29.431  1.00  0.00    -0.248 NA
ATOM     57  C   UNL A   1      45.237  32.523  28.485  1.00  0.00     0.031 C 
ATOM     58  C   UNL A   1      41.142  33.927  31.524  1.00  0.00     0.029 A 
ATOM     59  C   UNL A   1      41.261  34.197  30.172  1.00  0.00     0.049 A 
ATOM     60  H   UNL A   1      39.783  34.184  28.675  1.00  0.00     0.167 HD
ATOM     61  C   UNL A   1      43.338  33.706  29.114  1.00  0.00     0.074 A 
ATOM     62  C   UNL A   1      44.673  33.743  28.540  1.00  0.00     0.031 C 
ATOM     63  C   UNL A   1      42.373  34.647  29.347  1.00  0.00     0.034 A 
BRANCH  50  64
ATOM     64  C   UNL A   1      36.492  33.588  30.711  1.00  0.00     0.023 A 
ATOM     65  C   UNL A   1      35.587  34.213  29.826  1.00  0.00     0.031 A 
ATOM     66  C   UNL A   1      36.087  33.538  32.056  1.00  0.00     0.131 A 
ATOM     67  C   UNL A   1      34.419  34.840  30.293  1.00  0.00     0.055 A 
ATOM     68  C   UNL A   1      34.956  34.216  32.534  1.00  0.00     0.041 A 
ATOM     69  F   UNL A   1      36.742  32.792  32.957  1.00  0.00    -0.206 F 
ATOM     70  C   UNL A   1      34.122  34.887  31.652  1.00  0.00     0.022 A 
BRANCH  67  71
ATOM     71  S   UNL A   1      33.280  35.589  29.095  1.00  0.00     0.124 S 
ATOM     72  O   UNL A   1      34.188  36.295  28.199  1.00  0.00    -0.237 OA
ATOM     73  O   UNL A   1      32.603  34.421  28.541  1.00  0.00    -0.237 OA
ATOM     74  O   UNL A   1      32.438  36.452  29.922  1.00  0.00    -0.744 OA
ENDBRANCH  67  71
ENDBRANCH  50  64
BRANCH  51  75
ATOM     75  C   UNL A   1      44.774  29.195  28.253  1.00  0.00     0.023 A 
ATOM     76  C   UNL A   1      45.678  28.200  28.700  1.00  0.00     0.031 A 
ATOM     77  C   UNL A   1      44.066  28.949  27.072  1.00  0.00     0.131 A 
ATOM     78  C   UNL A   1      45.698  26.936  28.095  1.00  0.00     0.055 A 
ATOM     79  C   UNL A   1      44.165  27.715  26.411  1.00  0.00     0.041 A 
ATOM     80  F   UNL A   1      43.173  29.836  26.611  1.00  0.00    -0.206 F 
ATOM     81  C   UNL A   1      44.945  26.686  26.948  1.00  0.00     0.022 A 
BRANCH  78  82
ATOM     82  S   UNL A   1      46.464  25.555  29.004  1.00  0.00     0.124 S 
ATOM     83  O   UNL A   1      47.786  26.085  29.313  1.00  0.00    -0.237 OA
ATOM     84  O   UNL A   1      45.564  25.368  30.143  1.00  0.00    -0.237 OA
ATOM     85  O   UNL A   1      46.439  24.446  28.053  1.00  0.00    -0.744 OA
ENDBRANCH  78  82
ENDBRANCH  51  75
BRANCH  63  86
ATOM     86  C   UNL A   1      42.392  36.092  28.891  1.00  0.00     0.023 A 
ATOM     87  C   UNL A   1      43.030  37.122  29.596  1.00  0.00     0.031 A 
ATOM     88  C   UNL A   1      41.827  36.463  27.643  1.00  0.00     0.131 A 
ATOM     89  C   UNL A   1      43.035  38.444  29.107  1.00  0.00     0.055 A 
ATOM     90  C   UNL A   1      41.903  37.758  27.122  1.00  0.00     0.041 A 
ATOM     91  F   UNL A   1      41.179  35.580  26.868  1.00  0.00    -0.206 F 
ATOM     92  C   UNL A   1      42.499  38.764  27.861  1.00  0.00     0.022 A 
BRANCH  89  93
ATOM     93  S   UNL A   1      43.711  39.751  30.163  1.00  0.00     0.124 S 
ATOM     94  O   UNL A   1      42.668  40.771  30.082  1.00  0.00    -0.237 OA
ATOM     95  O   UNL A   1      43.841  39.080  31.452  1.00  0.00    -0.237 OA
ATOM     96  O   UNL A   1      44.973  40.103  29.516  1.00  0.00    -0.744 OA
ENDBRANCH  89  93
ENDBRANCH  63  86
ENDBRANCH  37  38
ENDBRANCH  29  32
ENDBRANCH  27  28
ENDBRANCH   1  27
TORSDOF 16
ENDMDL
MODEL 2
REMARK VINA RESULT:     -13.1      4.266     10.783
REMARK SMILES COc1ccc(NC(=O)N[C@@H]2C=C[C@H](C(=O)NCCCNC(=O)c3ccc(-c4c5nc(c(-c6cc(S(=O)(=O)[O-])ccc6F)c6ccc([nH]6)c(-c6cc(S(=O)(=O)[O-])ccc6F)c6nc(c(-c7cc(S(=O)(=O)[O-])ccc7F)c7ccc4[nH]7)C=C6)C=C5)cc3)C2)c(C)c1
REMARK SMILES IDX 19 1 18 2 17 3 15 4 16 5 14 7 11 8 12 9 87 10 13 11 10 12
REMARK SMILES IDX 7 13 8 14 9 16 6 18 3 19 4 20 90 21 5 22 88 23 89 24 2 25
REMARK SMILES IDX 1 26 20 27 21 28 22 29 23 31 24 32 25 33 86 34 26 35 85 36
REMARK SMILES IDX 27 37 28 38 29 39 79 40 30 41 84 42 78 43 80 44 31 45 83 46
REMARK SMILES IDX 77 47 76 48 32 50 64 51 44 52 63 53 45 54 48 55 62 56 81 57
REMARK SMILES IDX 46 58 47 59 61 61 82 62 49 63 33 64 34 65 42 66 35 67 41 68
REMARK SMILES IDX 43 69 40 70 36 71 37 72 38 73 39 74 65 75 66 76 74 77 67 78
REMARK SMILES IDX 73 79 75 80 72 81 68 82 69 83 70 84 71 85 50 86 51 87 59 88
REMARK SMILES IDX 52 89 58 90 60 91 57 92 53 93 54 94 55 95 56 96
REMARK H PARENT 17 6 7 15 10 17 21 30 80 49 48 60
REMARK Flexibility Score: inf
ROOT
ATOM      1  C   UNL A   1      33.174  31.116  27.289  1.00  0.00     0.042 C 
ENDROOT
BRANCH   1   2
ATOM      2  C   UNL A   1      32.258  29.910  27.120  1.00  0.00     0.117 C 
BRANCH   2   3
ATOM      3  N   UNL A   1      31.408  30.019  25.946  1.00  0.00    -0.356 N 
ATOM      4  C   UNL A   1      31.303  29.220  24.846  1.00  0.00     0.227 C 
ATOM      5  O   UNL A   1      30.586  29.581  23.912  1.00  0.00    -0.274 OA
ATOM      6  H   UNL A   1      30.809  30.800  25.945  1.00  0.00     0.163 HD
BRANCH   4   7
ATOM      7  C   UNL A   1      32.055  27.882  24.809  1.00  0.00     0.103 C 
ATOM      8  C   UNL A   1      32.860  26.185  23.243  1.00  0.00     0.107 C 
ATOM      9  C   UNL A   1      31.480  25.874  23.725  1.00  0.00    -0.006 C 
ATOM     10  C   UNL A   1      32.946  27.689  23.565  1.00  0.00     0.047 C 
ATOM     11  C   UNL A   1      31.065  26.760  24.633  1.00  0.00    -0.016 C 
BRANCH   8  12
ATOM     12  N   UNL A   1      32.948  25.825  21.851  1.00  0.00    -0.332 N 
ATOM     13  N   UNL A   1      33.235  23.437  21.617  1.00  0.00    -0.308 N 
ATOM     14  C   UNL A   1      33.062  24.689  21.156  1.00  0.00     0.319 C 
ATOM     15  H   UNL A   1      33.392  22.815  20.871  1.00  0.00     0.171 HD
ATOM     16  O   UNL A   1      33.088  24.806  19.922  1.00  0.00    -0.248 OA
ATOM     17  H   UNL A   1      32.915  26.615  21.263  1.00  0.00     0.165 HD
BRANCH  13  18
ATOM     18  C   UNL A   1      33.261  22.747  22.843  1.00  0.00     0.046 A 
ATOM     19  C   UNL A   1      33.176  21.714  25.480  1.00  0.00     0.119 A 
ATOM     20  C   UNL A   1      32.110  21.530  24.619  1.00  0.00     0.048 A 
ATOM     21  C   UNL A   1      34.352  22.259  24.965  1.00  0.00     0.052 A 
ATOM     22  C   UNL A   1      32.188  22.003  23.309  1.00  0.00     0.030 A 
ATOM     23  C   UNL A   1      34.422  22.757  23.642  1.00  0.00    -0.024 A 
ATOM     24  C   UNL A   1      35.782  23.167  23.141  1.00  0.00     0.047 C 
BRANCH  19  25
ATOM     25  O   UNL A   1      33.202  21.348  26.796  1.00  0.00    -0.497 OA
ATOM     26  C   UNL A   1      33.131  22.420  27.733  1.00  0.00     0.278 C 
ENDBRANCH  19  25
ENDBRANCH  13  18
ENDBRANCH   8  12
ENDBRANCH   4   7
ENDBRANCH   2   3
ENDBRANCH   1   2
BRANCH   1  27
ATOM     27  C   UNL A   1      34.614  30.747  27.627  1.00  0.00     0.118 C 
BRANCH  27  28
ATOM     28  N   UNL A   1      35.208  31.545  28.691  1.00  0.00    -0.352 N 
ATOM     29  C   UNL A   1      36.282  31.231  29.510  1.00  0.00     0.251 C 
ATOM     30  H   UNL A   1      34.792  32.422  28.849  1.00  0.00     0.163 HD
ATOM     31  O   UNL A   1      36.615  31.962  30.427  1.00  0.00    -0.269 OA
BRANCH  29  32
ATOM     32  C   UNL A   1      37.116  30.053  29.164  1.00  0.00     0.039 A 
ATOM     33  C   UNL A   1      37.301  29.090  30.164  1.00  0.00     0.014 A 
ATOM     34  C   UNL A   1      37.879  30.016  28.001  1.00  0.00     0.014 A 
ATOM     35  C   UNL A   1      38.402  28.239  30.101  1.00  0.00     0.010 A 
ATOM     36  C   UNL A   1      39.024  29.240  27.982  1.00  0.00     0.010 A 
ATOM     37  C   UNL A   1      39.316  28.397  29.059  1.00  0.00    -0.014 A 
BRANCH  37  38
ATOM     38  C   UNL A   1      40.661  27.833  29.093  1.00  0.00     0.031 A 
ATOM     39  C   UNL A   1      40.922  26.461  28.617  1.00  0.00     0.074 A 
ATOM     40  C   UNL A   1      41.691  28.596  29.519  1.00  0.00     0.049 A 
ATOM     41  N   UNL A   1      41.903  25.727  29.024  1.00  0.00    -0.248 NA
ATOM     42  C   UNL A   1      40.059  25.783  27.658  1.00  0.00     0.031 C 
ATOM     43  C   UNL A   1      43.117  28.309  29.404  1.00  0.00     0.029 A 
ATOM     44  N   UNL A   1      41.625  29.695  30.374  1.00  0.00    -0.354 N 
ATOM     45  C   UNL A   1      41.975  24.630  28.201  1.00  0.00     0.074 A 
ATOM     46  C   UNL A   1      40.767  24.677  27.409  1.00  0.00     0.031 C 
ATOM     47  C   UNL A   1      43.775  29.004  30.345  1.00  0.00     0.029 A 
ATOM     48  C   UNL A   1      42.781  29.654  31.178  1.00  0.00     0.049 A 
ATOM     49  H   UNL A   1      40.908  30.369  30.409  1.00  0.00     0.167 HD
ATOM     50  C   UNL A   1      43.110  23.874  28.178  1.00  0.00     0.034 A 
ATOM     51  C   UNL A   1      42.691  29.557  32.537  1.00  0.00     0.034 A 
ATOM     52  C   UNL A   1      44.107  24.369  29.122  1.00  0.00     0.049 A 
ATOM     53  C   UNL A   1      43.361  28.317  33.092  1.00  0.00     0.074 A 
ATOM     54  C   UNL A   1      45.223  25.176  28.970  1.00  0.00     0.029 A 
ATOM     55  N   UNL A   1      43.867  24.281  30.487  1.00  0.00    -0.354 N 
ATOM     56  N   UNL A   1      43.714  27.293  32.364  1.00  0.00    -0.248 NA
ATOM     57  C   UNL A   1      43.676  28.120  34.505  1.00  0.00     0.031 C 
ATOM     58  C   UNL A   1      45.610  25.633  30.257  1.00  0.00     0.029 A 
ATOM     59  C   UNL A   1      44.756  25.071  31.189  1.00  0.00     0.049 A 
ATOM     60  H   UNL A   1      43.161  23.730  30.898  1.00  0.00     0.167 HD
ATOM     61  C   UNL A   1      44.272  26.323  33.157  1.00  0.00     0.074 A 
ATOM     62  C   UNL A   1      44.243  26.900  34.491  1.00  0.00     0.031 C 
ATOM     63  C   UNL A   1      44.700  25.130  32.643  1.00  0.00     0.034 A 
BRANCH  50  64
ATOM     64  C   UNL A   1      43.427  22.880  27.086  1.00  0.00     0.023 A 
ATOM     65  C   UNL A   1      42.821  21.606  27.110  1.00  0.00     0.031 A 
ATOM     66  C   UNL A   1      44.328  23.102  26.029  1.00  0.00     0.131 A 
ATOM     67  C   UNL A   1      43.191  20.599  26.201  1.00  0.00     0.055 A 
ATOM     68  C   UNL A   1      44.746  22.083  25.161  1.00  0.00     0.041 A 
ATOM     69  F   UNL A   1      44.807  24.326  25.763  1.00  0.00    -0.206 F 
ATOM     70  C   UNL A   1      44.187  20.816  25.255  1.00  0.00     0.022 A 
BRANCH  67  71
ATOM     71  S   UNL A   1      42.341  18.997  26.264  1.00  0.00     0.124 S 
ATOM     72  O   UNL A   1      42.404  18.665  27.683  1.00  0.00    -0.237 OA
ATOM     73  O   UNL A   1      41.022  19.327  25.735  1.00  0.00    -0.237 OA
ATOM     74  O   UNL A   1      43.156  18.147  25.397  1.00  0.00    -0.744 OA
ENDBRANCH  67  71
ENDBRANCH  50  64
BRANCH  51  75
ATOM     75  C   UNL A   1      41.480  30.241  33.082  1.00  0.00     0.023 A 
ATOM     76  C   UNL A   1      41.506  31.657  33.106  1.00  0.00     0.031 A 
ATOM     77  C   UNL A   1      40.234  29.611  33.159  1.00  0.00     0.131 A 
ATOM     78  C   UNL A   1      40.317  32.391  32.995  1.00  0.00     0.055 A 
ATOM     79  C   UNL A   1      39.043  30.354  33.149  1.00  0.00     0.041 A 
ATOM     80  F   UNL A   1      40.137  28.274  33.111  1.00  0.00    -0.206 F 
ATOM     81  C   UNL A   1      39.081  31.746  33.017  1.00  0.00     0.022 A 
BRANCH  78  82
ATOM     82  S   UNL A   1      40.425  34.142  32.506  1.00  0.00     0.124 S 
ATOM     83  O   UNL A   1      40.025  34.097  31.105  1.00  0.00    -0.237 OA
ATOM     84  O   UNL A   1      39.490  34.801  33.420  1.00  0.00    -0.237 OA
ATOM     85  O   UNL A   1      41.823  34.494  32.749  1.00  0.00    -0.744 OA
ENDBRANCH  78  82
ENDBRANCH  51  75
BRANCH  63  86
ATOM     86  C   UNL A   1      45.172  23.924  33.431  1.00  0.00     0.023 A 
ATOM     87  C   UNL A   1      46.468  23.790  33.948  1.00  0.00     0.031 A 
ATOM     88  C   UNL A   1      44.266  22.885  33.772  1.00  0.00     0.131 A 
ATOM     89  C   UNL A   1      46.839  22.655  34.695  1.00  0.00     0.055 A 
ATOM     90  C   UNL A   1      44.614  21.800  34.580  1.00  0.00     0.041 A 
ATOM     91  F   UNL A   1      42.997  22.881  33.338  1.00  0.00    -0.206 F 
ATOM     92  C   UNL A   1      45.914  21.672  35.038  1.00  0.00     0.022 A 
BRANCH  89  93
ATOM     93  S   UNL A   1      48.578  22.463  35.165  1.00  0.00     0.124 S 
ATOM     94  O   UNL A   1      49.179  23.662  34.588  1.00  0.00    -0.237 OA
ATOM     95  O   UNL A   1      48.508  22.429  36.623  1.00  0.00    -0.237 OA
ATOM     96  O   UNL A   1      48.973  21.206  34.533  1.00  0.00    -0.744 OA
ENDBRANCH  89  93
ENDBRANCH  63  86
ENDBRANCH  37  38
ENDBRANCH  29  32
ENDBRANCH  27  28
ENDBRANCH   1  27
TORSDOF 16
ENDMDL
MODEL 3
REMARK VINA RESULT:     -12.8      1.419      2.079
REMARK SMILES COc1ccc(NC(=O)N[C@@H]2C=C[C@H](C(=O)NCCCNC(=O)c3ccc(-c4c5nc(c(-c6cc(S(=O)(=O)[O-])ccc6F)c6ccc([nH]6)c(-c6cc(S(=O)(=O)[O-])ccc6F)c6nc(c(-c7cc(S(=O)(=O)[O-])ccc7F)c7ccc4[nH]7)C=C6)C=C5)cc3)C2)c(C)c1
REMARK SMILES IDX 19 1 18 2 17 3 15 4 16 5 14 7 11 8 12 9 87 10 13 11 10 12
REMARK SMILES IDX 7 13 8 14 9 16 6 18 3 19 4 20 90 21 5 22 88 23 89 24 2 25
REMARK SMILES IDX 1 26 20 27 21 28 22 29 23 31 24 32 25 33 86 34 26 35 85 36
REMARK SMILES IDX 27 37 28 38 29 39 79 40 30 41 84 42 78 43 80 44 31 45 83 46
REMARK SMILES IDX 77 47 76 48 32 50 64 51 44 52 63 53 45 54 48 55 62 56 81 57
REMARK SMILES IDX 46 58 47 59 61 61 82 62 49 63 33 64 34 65 42 66 35 67 41 68
REMARK SMILES IDX 43 69 40 70 36 71 37 72 38 73 39 74 65 75 66 76 74 77 67 78
REMARK SMILES IDX 73 79 75 80 72 81 68 82 69 83 70 84 71 85 50 86 51 87 59 88
REMARK SMILES IDX 52 89 58 90 60 91 57 92 53 93 54 94 55 95 56 96
REMARK H PARENT 17 6 7 15 10 17 21 30 80 49 48 60
REMARK Flexibility Score: inf
ROOT
ATOM      1  C   UNL A   1      37.792  21.791  25.548  1.00  0.00     0.042 C 
ENDROOT
BRANCH   1   2
ATOM      2  C   UNL A   1      36.332  21.736  25.983  1.00  0.00     0.117 C 
BRANCH   2   3
ATOM      3  N   UNL A   1      35.573  20.734  25.255  1.00  0.00    -0.356 N 
ATOM      4  C   UNL A   1      34.331  20.790  24.694  1.00  0.00     0.227 C 
ATOM      5  O   UNL A   1      33.842  19.763  24.222  1.00  0.00    -0.274 OA
ATOM      6  H   UNL A   1      36.032  19.869  25.149  1.00  0.00     0.163 HD
BRANCH   4   7
ATOM      7  C   UNL A   1      33.588  22.132  24.637  1.00  0.00     0.103 C 
ATOM      8  C   UNL A   1      32.901  23.870  23.060  1.00  0.00     0.107 C 
ATOM      9  C   UNL A   1      34.245  24.163  23.647  1.00  0.00    -0.006 C 
ATOM     10  C   UNL A   1      32.788  22.359  23.338  1.00  0.00     0.047 C 
ATOM     11  C   UNL A   1      34.592  23.253  24.560  1.00  0.00    -0.016 C 
BRANCH   8  12
ATOM     12  N   UNL A   1      32.914  24.265  21.675  1.00  0.00    -0.332 N 
ATOM     13  N   UNL A   1      32.480  26.634  21.473  1.00  0.00    -0.308 N 
ATOM     14  C   UNL A   1      32.783  25.411  21.000  1.00  0.00     0.319 C 
ATOM     15  H   UNL A   1      32.348  27.266  20.729  1.00  0.00     0.171 HD
ATOM     16  O   UNL A   1      32.876  25.330  19.766  1.00  0.00    -0.248 OA
ATOM     17  H   UNL A   1      33.055  23.497  21.075  1.00  0.00     0.165 HD
BRANCH  13  18
ATOM     18  C   UNL A   1      32.296  27.284  22.707  1.00  0.00     0.046 A 
ATOM     19  C   UNL A   1      31.698  28.868  24.977  1.00  0.00     0.119 A 
ATOM     20  C   UNL A   1      30.931  27.759  24.673  1.00  0.00     0.048 A 
ATOM     21  C   UNL A   1      32.867  29.080  24.248  1.00  0.00     0.052 A 
ATOM     22  C   UNL A   1      31.269  26.962  23.580  1.00  0.00     0.030 A 
ATOM     23  C   UNL A   1      33.197  28.284  23.126  1.00  0.00    -0.024 A 
ATOM     24  C   UNL A   1      34.559  28.495  22.519  1.00  0.00     0.047 C 
BRANCH  19  25
ATOM     25  O   UNL A   1      31.441  29.755  25.985  1.00  0.00    -0.497 OA
ATOM     26  C   UNL A   1      32.590  30.336  26.599  1.00  0.00     0.278 C 
ENDBRANCH  19  25
ENDBRANCH  13  18
ENDBRANCH   8  12
ENDBRANCH   4   7
ENDBRANCH   2   3
ENDBRANCH   1   2
BRANCH   1  27
ATOM     27  C   UNL A   1      38.471  23.121  25.853  1.00  0.00     0.118 C 
BRANCH  27  28
ATOM     28  N   UNL A   1      39.841  23.002  26.333  1.00  0.00    -0.352 N 
ATOM     29  C   UNL A   1      40.658  23.986  26.869  1.00  0.00     0.251 C 
ATOM     30  H   UNL A   1      40.239  22.105  26.270  1.00  0.00     0.163 HD
ATOM     31  O   UNL A   1      41.823  23.762  27.147  1.00  0.00    -0.269 OA
BRANCH  29  32
ATOM     32  C   UNL A   1      40.049  25.290  27.235  1.00  0.00     0.039 A 
ATOM     33  C   UNL A   1      40.465  26.412  26.506  1.00  0.00     0.014 A 
ATOM     34  C   UNL A   1      39.295  25.443  28.394  1.00  0.00     0.014 A 
ATOM     35  C   UNL A   1      40.325  27.681  27.064  1.00  0.00     0.010 A 
ATOM     36  C   UNL A   1      39.241  26.688  28.992  1.00  0.00     0.010 A 
ATOM     37  C   UNL A   1      39.810  27.796  28.355  1.00  0.00    -0.014 A 
BRANCH  37  38
ATOM     38  C   UNL A   1      39.960  29.002  29.163  1.00  0.00     0.031 A 
ATOM     39  C   UNL A   1      38.909  30.037  29.188  1.00  0.00     0.074 A 
ATOM     40  C   UNL A   1      41.056  29.148  29.940  1.00  0.00     0.049 A 
ATOM     41  N   UNL A   1      39.124  31.282  29.453  1.00  0.00    -0.248 NA
ATOM     42  C   UNL A   1      37.516  29.750  28.871  1.00  0.00     0.031 C 
ATOM     43  C   UNL A   1      41.278  30.142  30.985  1.00  0.00     0.029 A 
ATOM     44  N   UNL A   1      42.302  28.552  29.756  1.00  0.00    -0.354 N 
ATOM     45  C   UNL A   1      37.905  31.890  29.625  1.00  0.00     0.074 A 
ATOM     46  C   UNL A   1      36.935  30.912  29.187  1.00  0.00     0.031 C 
ATOM     47  C   UNL A   1      42.600  30.292  31.163  1.00  0.00     0.029 A 
ATOM     48  C   UNL A   1      43.267  29.499  30.149  1.00  0.00     0.049 A 
ATOM     49  H   UNL A   1      42.474  27.644  29.415  1.00  0.00     0.167 HD
ATOM     50  C   UNL A   1      37.834  33.102  30.245  1.00  0.00     0.034 A 
ATOM     51  C   UNL A   1      44.207  29.955  29.270  1.00  0.00     0.034 A 
ATOM     52  C   UNL A   1      39.156  33.598  30.613  1.00  0.00     0.049 A 
ATOM     53  C   UNL A   1      44.143  31.453  29.051  1.00  0.00     0.074 A 
ATOM     54  C   UNL A   1      39.870  33.575  31.800  1.00  0.00     0.029 A 
ATOM     55  N   UNL A   1      40.056  33.964  29.619  1.00  0.00    -0.354 N 
ATOM     56  N   UNL A   1      43.130  32.196  29.404  1.00  0.00    -0.248 NA
ATOM     57  C   UNL A   1      45.201  32.232  28.413  1.00  0.00     0.031 C 
ATOM     58  C   UNL A   1      41.227  33.862  31.500  1.00  0.00     0.029 A 
ATOM     59  C   UNL A   1      41.328  34.097  30.140  1.00  0.00     0.049 A 
ATOM     60  H   UNL A   1      39.819  34.108  28.674  1.00  0.00     0.167 HD
ATOM     61  C   UNL A   1      43.362  33.502  29.052  1.00  0.00     0.074 A 
ATOM     62  C   UNL A   1      44.685  33.474  28.451  1.00  0.00     0.031 C 
ATOM     63  C   UNL A   1      42.439  34.485  29.282  1.00  0.00     0.034 A 
BRANCH  50  64
ATOM     64  C   UNL A   1      36.551  33.687  30.789  1.00  0.00     0.023 A 
ATOM     65  C   UNL A   1      35.601  34.224  29.895  1.00  0.00     0.031 A 
ATOM     66  C   UNL A   1      36.221  33.779  32.153  1.00  0.00     0.131 A 
ATOM     67  C   UNL A   1      34.461  34.905  30.358  1.00  0.00     0.055 A 
ATOM     68  C   UNL A   1      35.121  34.512  32.618  1.00  0.00     0.041 A 
ATOM     69  F   UNL A   1      36.924  33.125  33.089  1.00  0.00    -0.206 F 
ATOM     70  C   UNL A   1      34.240  35.095  31.718  1.00  0.00     0.022 A 
BRANCH  67  71
ATOM     71  S   UNL A   1      33.259  35.535  29.153  1.00  0.00     0.124 S 
ATOM     72  O   UNL A   1      32.884  34.328  28.424  1.00  0.00    -0.237 OA
ATOM     73  O   UNL A   1      32.234  36.115  30.014  1.00  0.00    -0.237 OA
ATOM     74  O   UNL A   1      34.032  36.505  28.379  1.00  0.00    -0.744 OA
ENDBRANCH  67  71
ENDBRANCH  50  64
BRANCH  51  75
ATOM     75  C   UNL A   1      44.605  28.920  28.268  1.00  0.00     0.023 A 
ATOM     76  C   UNL A   1      45.428  27.867  28.735  1.00  0.00     0.031 A 
ATOM     77  C   UNL A   1      43.897  28.716  27.079  1.00  0.00     0.131 A 
ATOM     78  C   UNL A   1      45.365  26.599  28.140  1.00  0.00     0.055 A 
ATOM     79  C   UNL A   1      43.915  27.472  26.429  1.00  0.00     0.041 A 
ATOM     80  F   UNL A   1      43.077  29.662  26.598  1.00  0.00    -0.206 F 
ATOM     81  C   UNL A   1      44.610  26.395  26.985  1.00  0.00     0.022 A 
BRANCH  78  82
ATOM     82  S   UNL A   1      46.016  25.175  29.071  1.00  0.00     0.124 S 
ATOM     83  O   UNL A   1      45.052  25.049  30.157  1.00  0.00    -0.237 OA
ATOM     84  O   UNL A   1      46.010  24.098  28.079  1.00  0.00    -0.237 OA
ATOM     85  O   UNL A   1      47.359  25.593  29.468  1.00  0.00    -0.744 OA
ENDBRANCH  78  82
ENDBRANCH  51  75
BRANCH  63  86
ATOM     86  C   UNL A   1      42.504  35.917  28.793  1.00  0.00     0.023 A 
ATOM     87  C   UNL A   1      43.046  36.972  29.541  1.00  0.00     0.031 A 
ATOM     88  C   UNL A   1      42.091  36.250  27.476  1.00  0.00     0.131 A 
ATOM     89  C   UNL A   1      43.102  38.280  29.021  1.00  0.00     0.055 A 
ATOM     90  C   UNL A   1      42.221  37.531  26.933  1.00  0.00     0.041 A 
ATOM     91  F   UNL A   1      41.546  35.341  26.653  1.00  0.00    -0.206 F 
ATOM     92  C   UNL A   1      42.718  38.562  27.711  1.00  0.00     0.022 A 
BRANCH  89  93
ATOM     93  S   UNL A   1      43.639  39.621  30.114  1.00  0.00     0.124 S 
ATOM     94  O   UNL A   1      42.509  40.543  30.033  1.00  0.00    -0.237 OA
ATOM     95  O   UNL A   1      43.808  38.937  31.391  1.00  0.00    -0.237 OA
ATOM     96  O   UNL A   1      44.874  40.100  29.496  1.00  0.00    -0.744 OA
ENDBRANCH  89  93
ENDBRANCH  63  86
ENDBRANCH  37  38
ENDBRANCH  29  32
ENDBRANCH  27  28
ENDBRANCH   1  27
TORSDOF 16
ENDMDL
