MODEL 1
REMARK VINA RESULT:     -11.7      0.000      0.000
REMARK SMILES C[C@@H](C(=O)NCCCNC(=O)c1ccc(-c2c3nc(c(-c4cc(S(=O)(=O)[O-])ccc4F)c4ccc([nH]4)c(-c4cc(S(=O)(=O)[O-])ccc4F)c4nc(c(-c5cc(S(=O)(=O)[O-])ccc5F)c5ccc2[nH]5)C=C4)C=C3)cc1)[C@H](C)[N@@H+]1C[C@H]2C[NH2+]C[C@@H]2[C@@H]1C
REMARK SMILES IDX 7 1 6 2 5 3 3 4 4 5 2 7 1 8 75 9 76 10 77 11 78 12 84 13
REMARK SMILES IDX 79 15 83 16 85 17 80 18 82 19 81 20 8 23 9 24 10 25 11 27
REMARK SMILES IDX 12 28 13 29 74 30 14 31 73 32 15 33 16 34 17 35 67 36 18 37
REMARK SMILES IDX 72 38 66 39 68 40 19 41 71 42 65 43 64 44 20 46 52 47 32 48
REMARK SMILES IDX 51 49 33 50 36 51 50 52 69 53 34 54 35 55 49 57 70 58 37 59
REMARK SMILES IDX 21 60 22 61 30 62 23 63 29 64 31 65 28 66 24 67 25 68 26 69
REMARK SMILES IDX 27 70 53 71 54 72 62 73 55 74 61 75 63 76 60 77 56 78 57 79
REMARK SMILES IDX 58 80 59 81 38 82 39 83 47 84 40 85 46 86 48 87 45 88 41 89
REMARK SMILES IDX 42 90 43 91 44 92
REMARK H PARENT 5 6 77 14 81 21 81 22 9 26 68 45 36 56
REMARK Flexibility Score: inf
ROOT
ATOM      1  C   UNL A   1      31.039  30.776  25.367  1.00  0.00     0.042 C 
ENDROOT
BRANCH   1   2
ATOM      2  C   UNL A   1      31.300  29.409  24.731  1.00  0.00     0.117 C 
BRANCH   2   3
ATOM      3  N   UNL A   1      32.538  29.365  23.968  1.00  0.00    -0.356 N 
ATOM      4  C   UNL A   1      33.347  28.314  23.629  1.00  0.00     0.228 C 
ATOM      5  O   UNL A   1      34.305  28.576  22.899  1.00  0.00    -0.275 OA
ATOM      6  H   UNL A   1      32.847  30.241  23.641  1.00  0.00     0.163 HD
BRANCH   4   7
ATOM      7  C   UNL A   1      33.028  26.892  24.128  1.00  0.00     0.133 C 
ATOM      8  C   UNL A   1      34.039  26.484  25.193  1.00  0.00     0.024 C 
BRANCH   7   9
ATOM      9  C   UNL A   1      32.893  25.866  22.933  1.00  0.00     0.193 C 
ATOM     10  C   UNL A   1      31.973  26.462  21.848  1.00  0.00     0.076 C 
BRANCH   9  11
ATOM     11  N   UNL A   1      32.578  24.463  23.238  1.00  0.00    -0.329 N 
ATOM     12  C   UNL A   1      31.708  24.231  24.419  1.00  0.00     0.272 C 
ATOM     13  C   UNL A   1      33.469  23.305  23.010  1.00  0.00     0.190 C 
ATOM     14  H   UNL A   1      32.099  24.432  22.338  1.00  0.00     0.348 HD
ATOM     15  C   UNL A   1      32.248  22.941  24.982  1.00  0.00     0.114 C 
ATOM     16  C   UNL A   1      32.680  22.233  23.730  1.00  0.00     0.116 C 
ATOM     17  C   UNL A   1      34.915  23.461  23.460  1.00  0.00     0.076 C 
ATOM     18  C   UNL A   1      31.426  21.862  25.631  1.00  0.00     0.270 C 
ATOM     19  C   UNL A   1      33.195  20.935  24.277  1.00  0.00     0.271 C 
ATOM     20  N   UNL A   1      32.222  20.626  25.365  1.00  0.00    -0.345 N 
ATOM     21  H   UNL A   1      31.602  19.871  25.072  1.00  0.00     0.346 HD
ATOM     22  H   UNL A   1      32.714  20.331  26.208  1.00  0.00     0.346 HD
ENDBRANCH   9  11
ENDBRANCH   7   9
ENDBRANCH   4   7
ENDBRANCH   2   3
ENDBRANCH   1   2
BRANCH   1  23
ATOM     23  C   UNL A   1      31.964  31.129  26.525  1.00  0.00     0.118 C 
BRANCH  23  24
ATOM     24  N   UNL A   1      31.982  32.555  26.805  1.00  0.00    -0.352 N 
ATOM     25  C   UNL A   1      32.845  33.295  27.574  1.00  0.00     0.251 C 
ATOM     26  H   UNL A   1      31.263  33.071  26.376  1.00  0.00     0.163 HD
ATOM     27  O   UNL A   1      32.542  34.457  27.853  1.00  0.00    -0.269 OA
BRANCH  25  28
ATOM     28  C   UNL A   1      34.107  32.715  28.093  1.00  0.00     0.039 A 
ATOM     29  C   UNL A   1      35.247  33.524  28.135  1.00  0.00     0.014 A 
ATOM     30  C   UNL A   1      34.188  31.385  28.515  1.00  0.00     0.014 A 
ATOM     31  C   UNL A   1      36.435  33.029  28.680  1.00  0.00     0.010 A 
ATOM     32  C   UNL A   1      35.352  30.915  29.126  1.00  0.00     0.010 A 
ATOM     33  C   UNL A   1      36.484  31.738  29.231  1.00  0.00    -0.014 A 
BRANCH  33  34
ATOM     34  C   UNL A   1      37.684  31.262  29.973  1.00  0.00     0.031 A 
ATOM     35  C   UNL A   1      38.602  30.230  29.375  1.00  0.00     0.074 A 
ATOM     36  C   UNL A   1      37.905  31.719  31.224  1.00  0.00     0.049 A 
ATOM     37  N   UNL A   1      39.644  29.646  29.908  1.00  0.00    -0.248 NA
ATOM     38  C   UNL A   1      38.301  29.784  28.005  1.00  0.00     0.031 C 
ATOM     39  C   UNL A   1      37.067  32.697  31.924  1.00  0.00     0.029 A 
ATOM     40  N   UNL A   1      38.885  31.417  32.138  1.00  0.00    -0.354 N 
ATOM     41  C   UNL A   1      40.118  28.756  28.950  1.00  0.00     0.074 A 
ATOM     42  C   UNL A   1      39.226  28.851  27.814  1.00  0.00     0.031 C 
ATOM     43  C   UNL A   1      37.576  32.925  33.143  1.00  0.00     0.029 A 
ATOM     44  C   UNL A   1      38.740  32.068  33.343  1.00  0.00     0.049 A 
ATOM     45  H   UNL A   1      39.622  30.793  31.950  1.00  0.00     0.167 HD
ATOM     46  C   UNL A   1      41.201  27.944  29.013  1.00  0.00     0.034 A 
ATOM     47  C   UNL A   1      39.442  31.966  34.491  1.00  0.00     0.034 A 
ATOM     48  C   UNL A   1      42.090  27.871  30.148  1.00  0.00     0.049 A 
ATOM     49  C   UNL A   1      40.612  31.014  34.543  1.00  0.00     0.074 A 
ATOM     50  C   UNL A   1      43.262  27.144  30.274  1.00  0.00     0.029 A 
ATOM     51  N   UNL A   1      41.900  28.528  31.356  1.00  0.00    -0.354 N 
ATOM     52  N   UNL A   1      41.091  30.241  33.594  1.00  0.00    -0.248 NA
ATOM     53  C   UNL A   1      41.339  30.922  35.816  1.00  0.00     0.031 C 
ATOM     54  C   UNL A   1      43.730  27.290  31.583  1.00  0.00     0.029 A 
ATOM     55  C   UNL A   1      42.901  28.177  32.249  1.00  0.00     0.049 A 
ATOM     56  H   UNL A   1      41.162  29.151  31.549  1.00  0.00     0.167 HD
ATOM     57  C   UNL A   1      42.188  29.592  34.154  1.00  0.00     0.074 A 
ATOM     58  C   UNL A   1      42.319  30.088  35.508  1.00  0.00     0.031 C 
ATOM     59  C   UNL A   1      43.013  28.667  33.602  1.00  0.00     0.034 A 
BRANCH  46  60
ATOM     60  C   UNL A   1      41.483  27.038  27.839  1.00  0.00     0.023 A 
ATOM     61  C   UNL A   1      41.114  25.682  27.840  1.00  0.00     0.031 A 
ATOM     62  C   UNL A   1      42.086  27.557  26.679  1.00  0.00     0.131 A 
ATOM     63  C   UNL A   1      41.383  24.884  26.718  1.00  0.00     0.055 A 
ATOM     64  C   UNL A   1      42.291  26.774  25.541  1.00  0.00     0.041 A 
ATOM     65  F   UNL A   1      42.477  28.840  26.629  1.00  0.00    -0.206 F 
ATOM     66  C   UNL A   1      41.945  25.426  25.558  1.00  0.00     0.022 A 
BRANCH  63  67
ATOM     67  S   UNL A   1      41.073  23.100  26.822  1.00  0.00     0.124 S 
ATOM     68  O   UNL A   1      39.631  23.038  26.602  1.00  0.00    -0.237 OA
ATOM     69  O   UNL A   1      41.905  22.572  25.747  1.00  0.00    -0.237 OA
ATOM     70  O   UNL A   1      41.507  22.754  28.173  1.00  0.00    -0.744 OA
ENDBRANCH  63  67
ENDBRANCH  46  60
BRANCH  47  71
ATOM     71  C   UNL A   1      39.043  32.737  35.707  1.00  0.00     0.023 A 
ATOM     72  C   UNL A   1      39.483  34.056  35.902  1.00  0.00     0.031 A 
ATOM     73  C   UNL A   1      38.293  32.137  36.735  1.00  0.00     0.131 A 
ATOM     74  C   UNL A   1      39.237  34.702  37.124  1.00  0.00     0.055 A 
ATOM     75  C   UNL A   1      37.987  32.812  37.918  1.00  0.00     0.041 A 
ATOM     76  F   UNL A   1      37.847  30.877  36.606  1.00  0.00    -0.206 F 
ATOM     77  C   UNL A   1      38.477  34.096  38.126  1.00  0.00     0.022 A 
BRANCH  74  78
ATOM     78  S   UNL A   1      40.047  36.295  37.438  1.00  0.00     0.124 S 
ATOM     79  O   UNL A   1      40.013  36.909  36.115  1.00  0.00    -0.237 OA
ATOM     80  O   UNL A   1      39.168  36.887  38.442  1.00  0.00    -0.237 OA
ATOM     81  O   UNL A   1      41.373  35.914  37.917  1.00  0.00    -0.744 OA
ENDBRANCH  74  78
ENDBRANCH  47  71
BRANCH  59  82
ATOM     82  C   UNL A   1      44.143  28.155  34.461  1.00  0.00     0.023 A 
ATOM     83  C   UNL A   1      43.937  27.154  35.427  1.00  0.00     0.031 A 
ATOM     84  C   UNL A   1      45.439  28.681  34.319  1.00  0.00     0.131 A 
ATOM     85  C   UNL A   1      44.998  26.750  36.251  1.00  0.00     0.055 A 
ATOM     86  C   UNL A   1      46.505  28.227  35.097  1.00  0.00     0.041 A 
ATOM     87  F   UNL A   1      45.693  29.642  33.416  1.00  0.00    -0.206 F 
ATOM     88  C   UNL A   1      46.285  27.265  36.079  1.00  0.00     0.022 A 
BRANCH  85  89
ATOM     89  S   UNL A   1      44.652  25.605  37.614  1.00  0.00     0.124 S 
ATOM     90  O   UNL A   1      43.734  24.658  36.988  1.00  0.00    -0.237 OA
ATOM     91  O   UNL A   1      45.978  25.090  37.935  1.00  0.00    -0.237 OA
ATOM     92  O   UNL A   1      44.057  26.461  38.639  1.00  0.00    -0.744 OA
ENDBRANCH  85  89
ENDBRANCH  59  82
ENDBRANCH  33  34
ENDBRANCH  25  28
ENDBRANCH  23  24
ENDBRANCH   1  23
TORSDOF 15
ENDMDL
MODEL 2
REMARK VINA RESULT:     -11.7      5.061      8.344
REMARK SMILES C[C@@H](C(=O)NCCCNC(=O)c1ccc(-c2c3nc(c(-c4cc(S(=O)(=O)[O-])ccc4F)c4ccc([nH]4)c(-c4cc(S(=O)(=O)[O-])ccc4F)c4nc(c(-c5cc(S(=O)(=O)[O-])ccc5F)c5ccc2[nH]5)C=C4)C=C3)cc1)[C@H](C)[N@@H+]1C[C@H]2C[NH2+]C[C@@H]2[C@@H]1C
REMARK SMILES IDX 7 1 6 2 5 3 3 4 4 5 2 7 1 8 75 9 76 10 77 11 78 12 84 13
REMARK SMILES IDX 79 15 83 16 85 17 80 18 82 19 81 20 8 23 9 24 10 25 11 27
REMARK SMILES IDX 12 28 13 29 74 30 14 31 73 32 15 33 16 34 17 35 67 36 18 37
REMARK SMILES IDX 72 38 66 39 68 40 19 41 71 42 65 43 64 44 20 46 52 47 32 48
REMARK SMILES IDX 51 49 33 50 36 51 50 52 69 53 34 54 35 55 49 57 70 58 37 59
REMARK SMILES IDX 21 60 22 61 30 62 23 63 29 64 31 65 28 66 24 67 25 68 26 69
REMARK SMILES IDX 27 70 53 71 54 72 62 73 55 74 61 75 63 76 60 77 56 78 57 79
REMARK SMILES IDX 58 80 59 81 38 82 39 83 47 84 40 85 46 86 48 87 45 88 41 89
REMARK SMILES IDX 42 90 43 91 44 92
REMARK H PARENT 5 6 77 14 81 21 81 22 9 26 68 45 36 56
REMARK Flexibility Score: inf
ROOT
ATOM      1  C   UNL A   1      35.983  21.285  25.338  1.00  0.00     0.042 C 
ENDROOT
BRANCH   1   2
ATOM      2  C   UNL A   1      34.859  21.740  24.404  1.00  0.00     0.117 C 
BRANCH   2   3
ATOM      3  N   UNL A   1      33.583  21.111  24.703  1.00  0.00    -0.356 N 
ATOM      4  C   UNL A   1      32.410  21.638  25.174  1.00  0.00     0.228 C 
ATOM      5  O   UNL A   1      31.457  20.861  25.259  1.00  0.00    -0.275 OA
ATOM      6  H   UNL A   1      33.558  20.141  24.539  1.00  0.00     0.163 HD
BRANCH   4   7
ATOM      7  C   UNL A   1      32.318  23.132  25.541  1.00  0.00     0.133 C 
ATOM      8  C   UNL A   1      32.100  23.278  27.042  1.00  0.00     0.024 C 
BRANCH   7   9
ATOM      9  C   UNL A   1      31.254  23.891  24.653  1.00  0.00     0.193 C 
ATOM     10  C   UNL A   1      31.341  23.379  23.201  1.00  0.00     0.076 C 
BRANCH   9  11
ATOM     11  N   UNL A   1      31.180  25.356  24.736  1.00  0.00    -0.329 N 
ATOM     12  C   UNL A   1      30.049  25.995  24.016  1.00  0.00     0.272 C 
ATOM     13  C   UNL A   1      32.333  26.279  24.820  1.00  0.00     0.190 C 
ATOM     14  H   UNL A   1      31.040  25.238  25.739  1.00  0.00     0.348 HD
ATOM     15  C   UNL A   1      30.652  27.288  23.529  1.00  0.00     0.114 C 
ATOM     16  C   UNL A   1      31.615  27.598  24.638  1.00  0.00     0.116 C 
ATOM     17  C   UNL A   1      33.480  26.023  23.850  1.00  0.00     0.076 C 
ATOM     18  C   UNL A   1      29.929  28.602  23.426  1.00  0.00     0.270 C 
ATOM     19  C   UNL A   1      32.203  28.899  24.176  1.00  0.00     0.271 C 
ATOM     20  N   UNL A   1      31.025  29.604  23.592  1.00  0.00    -0.345 N 
ATOM     21  H   UNL A   1      30.721  30.348  24.220  1.00  0.00     0.346 HD
ATOM     22  H   UNL A   1      31.268  30.018  22.693  1.00  0.00     0.346 HD
ENDBRANCH   9  11
ENDBRANCH   7   9
ENDBRANCH   4   7
ENDBRANCH   2   3
ENDBRANCH   1   2
BRANCH   1  23
ATOM     23  C   UNL A   1      37.375  21.311  24.722  1.00  0.00     0.118 C 
BRANCH  23  24
ATOM     24  N   UNL A   1      38.280  20.366  25.354  1.00  0.00    -0.352 N 
ATOM     25  C   UNL A   1      39.439  20.583  26.056  1.00  0.00     0.251 C 
ATOM     26  H   UNL A   1      38.020  19.421  25.265  1.00  0.00     0.163 HD
ATOM     27  O   UNL A   1      40.165  19.621  26.313  1.00  0.00    -0.269 OA
BRANCH  25  28
ATOM     28  C   UNL A   1      39.841  21.946  26.479  1.00  0.00     0.039 A 
ATOM     29  C   UNL A   1      40.979  22.091  27.277  1.00  0.00     0.014 A 
ATOM     30  C   UNL A   1      39.102  23.077  26.119  1.00  0.00     0.014 A 
ATOM     31  C   UNL A   1      41.423  23.366  27.637  1.00  0.00     0.010 A 
ATOM     32  C   UNL A   1      39.586  24.352  26.416  1.00  0.00     0.010 A 
ATOM     33  C   UNL A   1      40.762  24.512  27.164  1.00  0.00    -0.014 A 
BRANCH  33  34
ATOM     34  C   UNL A   1      41.323  25.872  27.389  1.00  0.00     0.031 A 
ATOM     35  C   UNL A   1      42.680  26.245  26.857  1.00  0.00     0.074 A 
ATOM     36  C   UNL A   1      40.627  26.753  28.139  1.00  0.00     0.049 A 
ATOM     37  N   UNL A   1      43.356  27.353  27.024  1.00  0.00    -0.248 NA
ATOM     38  C   UNL A   1      43.378  25.236  26.043  1.00  0.00     0.031 C 
ATOM     39  C   UNL A   1      39.313  26.495  28.737  1.00  0.00     0.029 A 
ATOM     40  N   UNL A   1      40.923  28.031  28.542  1.00  0.00    -0.354 N 
ATOM     41  C   UNL A   1      44.560  27.174  26.350  1.00  0.00     0.074 A 
ATOM     42  C   UNL A   1      44.537  25.835  25.802  1.00  0.00     0.031 C 
ATOM     43  C   UNL A   1      38.913  27.583  29.413  1.00  0.00     0.029 A 
ATOM     44  C   UNL A   1      39.962  28.595  29.352  1.00  0.00     0.049 A 
ATOM     45  H   UNL A   1      41.746  28.502  28.277  1.00  0.00     0.167 HD
ATOM     46  C   UNL A   1      45.582  28.052  26.199  1.00  0.00     0.034 A 
ATOM     47  C   UNL A   1      39.938  29.779  30.000  1.00  0.00     0.034 A 
ATOM     48  C   UNL A   1      45.583  29.390  26.741  1.00  0.00     0.049 A 
ATOM     49  C   UNL A   1      41.115  30.712  29.851  1.00  0.00     0.074 A 
ATOM     50  C   UNL A   1      46.533  30.383  26.570  1.00  0.00     0.029 A 
ATOM     51  N   UNL A   1      44.604  29.918  27.572  1.00  0.00    -0.354 N 
ATOM     52  N   UNL A   1      42.209  30.553  29.141  1.00  0.00    -0.248 NA
ATOM     53  C   UNL A   1      41.055  31.982  30.585  1.00  0.00     0.031 C 
ATOM     54  C   UNL A   1      46.175  31.475  27.367  1.00  0.00     0.029 A 
ATOM     55  C   UNL A   1      44.957  31.200  27.966  1.00  0.00     0.049 A 
ATOM     56  H   UNL A   1      43.781  29.450  27.841  1.00  0.00     0.167 HD
ATOM     57  C   UNL A   1      42.952  31.716  29.328  1.00  0.00     0.074 A 
ATOM     58  C   UNL A   1      42.169  32.577  30.188  1.00  0.00     0.031 C 
ATOM     59  C   UNL A   1      44.174  32.043  28.837  1.00  0.00     0.034 A 
BRANCH  46  60
ATOM     60  C   UNL A   1      46.807  27.596  25.445  1.00  0.00     0.023 A 
ATOM     61  C   UNL A   1      47.015  27.927  24.095  1.00  0.00     0.031 A 
ATOM     62  C   UNL A   1      47.808  26.861  26.106  1.00  0.00     0.131 A 
ATOM     63  C   UNL A   1      48.179  27.492  23.441  1.00  0.00     0.055 A 
ATOM     64  C   UNL A   1      48.993  26.489  25.469  1.00  0.00     0.041 A 
ATOM     65  F   UNL A   1      47.653  26.501  27.390  1.00  0.00    -0.206 F 
ATOM     66  C   UNL A   1      49.181  26.799  24.126  1.00  0.00     0.022 A 
BRANCH  63  67
ATOM     67  S   UNL A   1      48.329  27.767  21.654  1.00  0.00     0.124 S 
ATOM     68  O   UNL A   1      48.670  26.430  21.178  1.00  0.00    -0.237 OA
ATOM     69  O   UNL A   1      47.000  28.252  21.298  1.00  0.00    -0.237 OA
ATOM     70  O   UNL A   1      49.401  28.753  21.547  1.00  0.00    -0.744 OA
ENDBRANCH  63  67
ENDBRANCH  46  60
BRANCH  47  71
ATOM     71  C   UNL A   1      38.795  30.144  30.891  1.00  0.00     0.023 A 
ATOM     72  C   UNL A   1      37.692  30.857  30.396  1.00  0.00     0.031 A 
ATOM     73  C   UNL A   1      38.832  29.867  32.270  1.00  0.00     0.131 A 
ATOM     74  C   UNL A   1      36.712  31.334  31.281  1.00  0.00     0.055 A 
ATOM     75  C   UNL A   1      37.816  30.279  33.135  1.00  0.00     0.041 A 
ATOM     76  F   UNL A   1      39.863  29.191  32.802  1.00  0.00    -0.206 F 
ATOM     77  C   UNL A   1      36.758  31.035  32.644  1.00  0.00     0.022 A 
BRANCH  74  78
ATOM     78  S   UNL A   1      35.451  32.472  30.643  1.00  0.00     0.124 S 
ATOM     79  O   UNL A   1      36.202  33.719  30.544  1.00  0.00    -0.237 OA
ATOM     80  O   UNL A   1      35.087  31.840  29.379  1.00  0.00    -0.237 OA
ATOM     81  O   UNL A   1      34.417  32.445  31.674  1.00  0.00    -0.744 OA
ENDBRANCH  74  78
ENDBRANCH  47  71
BRANCH  59  82
ATOM     82  C   UNL A   1      44.720  33.401  29.202  1.00  0.00     0.023 A 
ATOM     83  C   UNL A   1      44.391  34.550  28.461  1.00  0.00     0.031 A 
ATOM     84  C   UNL A   1      45.587  33.549  30.299  1.00  0.00     0.131 A 
ATOM     85  C   UNL A   1      44.970  35.784  28.791  1.00  0.00     0.055 A 
ATOM     86  C   UNL A   1      46.107  34.791  30.663  1.00  0.00     0.041 A 
ATOM     87  F   UNL A   1      45.940  32.485  31.040  1.00  0.00    -0.206 F 
ATOM     88  C   UNL A   1      45.810  35.917  29.900  1.00  0.00     0.022 A 
BRANCH  85  89
ATOM     89  S   UNL A   1      44.681  37.201  27.696  1.00  0.00     0.124 S 
ATOM     90  O   UNL A   1      45.977  37.345  27.039  1.00  0.00    -0.237 OA
ATOM     91  O   UNL A   1      43.588  36.728  26.853  1.00  0.00    -0.237 OA
ATOM     92  O   UNL A   1      44.329  38.280  28.617  1.00  0.00    -0.744 OA
ENDBRANCH  85  89
ENDBRANCH  59  82
ENDBRANCH  33  34
ENDBRANCH  25  28
ENDBRANCH  23  24
ENDBRANCH   1  23
TORSDOF 15
ENDMDL
MODEL 3
REMARK VINA RESULT:     -11.6      2.116      2.570
REMARK SMILES C[C@@H](C(=O)NCCCNC(=O)c1ccc(-c2c3nc(c(-c4cc(S(=O)(=O)[O-])ccc4F)c4ccc([nH]4)c(-c4cc(S(=O)(=O)[O-])ccc4F)c4nc(c(-c5cc(S(=O)(=O)[O-])ccc5F)c5ccc2[nH]5)C=C4)C=C3)cc1)[C@H](C)[N@@H+]1C[C@H]2C[NH2+]C[C@@H]2[C@@H]1C
REMARK SMILES IDX 7 1 6 2 5 3 3 4 4 5 2 7 1 8 75 9 76 10 77 11 78 12 84 13
REMARK SMILES IDX 79 15 83 16 85 17 80 18 82 19 81 20 8 23 9 24 10 25 11 27
REMARK SMILES IDX 12 28 13 29 74 30 14 31 73 32 15 33 16 34 17 35 67 36 18 37
REMARK SMILES IDX 72 38 66 39 68 40 19 41 71 42 65 43 64 44 20 46 52 47 32 48
REMARK SMILES IDX 51 49 33 50 36 51 50 52 69 53 34 54 35 55 49 57 70 58 37 59
REMARK SMILES IDX 21 60 22 61 30 62 23 63 29 64 31 65 28 66 24 67 25 68 26 69
REMARK SMILES IDX 27 70 53 71 54 72 62 73 55 74 61 75 63 76 60 77 56 78 57 79
REMARK SMILES IDX 58 80 59 81 38 82 39 83 47 84 40 85 46 86 48 87 45 88 41 89
REMARK SMILES IDX 42 90 43 91 44 92
REMARK H PARENT 5 6 77 14 81 21 81 22 9 26 68 45 36 56
REMARK Flexibility Score: inf
ROOT
ATOM      1  C   UNL A   1      31.710  31.480  26.562  1.00  0.00     0.042 C 
ENDROOT
BRANCH   1   2
ATOM      2  C   UNL A   1      32.028  30.093  25.997  1.00  0.00     0.117 C 
BRANCH   2   3
ATOM      3  N   UNL A   1      31.704  29.968  24.584  1.00  0.00    -0.356 N 
ATOM      4  C   UNL A   1      31.630  28.867  23.775  1.00  0.00     0.228 C 
ATOM      5  O   UNL A   1      31.251  29.064  22.619  1.00  0.00    -0.275 OA
ATOM      6  H   UNL A   1      31.505  30.820  24.134  1.00  0.00     0.163 HD
BRANCH   4   7
ATOM      7  C   UNL A   1      31.981  27.470  24.322  1.00  0.00     0.133 C 
ATOM      8  C   UNL A   1      33.402  27.102  23.912  1.00  0.00     0.024 C 
BRANCH   7   9
ATOM      9  C   UNL A   1      30.892  26.394  23.932  1.00  0.00     0.193 C 
ATOM     10  C   UNL A   1      29.493  27.041  23.977  1.00  0.00     0.076 C 
BRANCH   9  11
ATOM     11  N   UNL A   1      30.931  25.079  24.586  1.00  0.00    -0.329 N 
ATOM     12  C   UNL A   1      31.513  25.046  25.953  1.00  0.00     0.272 C 
ATOM     13  C   UNL A   1      31.118  23.777  23.908  1.00  0.00     0.190 C 
ATOM     14  H   UNL A   1      29.912  25.093  24.553  1.00  0.00     0.348 HD
ATOM     15  C   UNL A   1      32.205  23.707  25.988  1.00  0.00     0.114 C 
ATOM     16  C   UNL A   1      31.298  22.886  25.117  1.00  0.00     0.116 C 
ATOM     17  C   UNL A   1      32.233  23.704  22.873  1.00  0.00     0.076 C 
ATOM     18  C   UNL A   1      32.308  22.810  27.190  1.00  0.00     0.270 C 
ATOM     19  C   UNL A   1      31.965  21.542  25.167  1.00  0.00     0.271 C 
ATOM     20  N   UNL A   1      32.411  21.448  26.587  1.00  0.00    -0.345 N 
ATOM     21  H   UNL A   1      31.812  20.798  27.096  1.00  0.00     0.346 HD
ATOM     22  H   UNL A   1      33.371  21.109  26.636  1.00  0.00     0.346 HD
ENDBRANCH   9  11
ENDBRANCH   7   9
ENDBRANCH   4   7
ENDBRANCH   2   3
ENDBRANCH   1   2
BRANCH   1  23
ATOM     23  C   UNL A   1      32.865  32.152  27.293  1.00  0.00     0.118 C 
BRANCH  23  24
ATOM     24  N   UNL A   1      32.602  33.553  27.575  1.00  0.00    -0.352 N 
ATOM     25  C   UNL A   1      33.163  34.389  28.508  1.00  0.00     0.251 C 
ATOM     26  H   UNL A   1      31.913  33.968  27.008  1.00  0.00     0.163 HD
ATOM     27  O   UNL A   1      32.631  35.480  28.722  1.00  0.00    -0.269 OA
BRANCH  25  28
ATOM     28  C   UNL A   1      34.368  33.991  29.274  1.00  0.00     0.039 A 
ATOM     29  C   UNL A   1      34.200  33.240  30.442  1.00  0.00     0.014 A 
ATOM     30  C   UNL A   1      35.654  34.363  28.873  1.00  0.00     0.014 A 
ATOM     31  C   UNL A   1      35.317  32.791  31.151  1.00  0.00     0.010 A 
ATOM     32  C   UNL A   1      36.770  33.854  29.539  1.00  0.00     0.010 A 
ATOM     33  C   UNL A   1      36.614  33.047  30.677  1.00  0.00    -0.014 A 
BRANCH  33  34
ATOM     34  C   UNL A   1      37.806  32.428  31.319  1.00  0.00     0.031 A 
ATOM     35  C   UNL A   1      38.528  31.283  30.662  1.00  0.00     0.074 A 
ATOM     36  C   UNL A   1      38.193  32.861  32.538  1.00  0.00     0.049 A 
ATOM     37  N   UNL A   1      39.532  30.574  31.114  1.00  0.00    -0.248 NA
ATOM     38  C   UNL A   1      38.053  30.868  29.333  1.00  0.00     0.031 C 
ATOM     39  C   UNL A   1      37.550  33.944  33.290  1.00  0.00     0.029 A 
ATOM     40  N   UNL A   1      39.203  32.443  33.368  1.00  0.00    -0.354 N 
ATOM     41  C   UNL A   1      39.802  29.624  30.134  1.00  0.00     0.074 A 
ATOM     42  C   UNL A   1      38.831  29.825  29.079  1.00  0.00     0.031 C 
ATOM     43  C   UNL A   1      38.191  34.113  34.456  1.00  0.00     0.029 A 
ATOM     44  C   UNL A   1      39.250  33.116  34.569  1.00  0.00     0.049 A 
ATOM     45  H   UNL A   1      39.836  31.729  33.128  1.00  0.00     0.167 HD
ATOM     46  C   UNL A   1      40.775  28.681  30.117  1.00  0.00     0.034 A 
ATOM     47  C   UNL A   1      40.032  32.933  35.653  1.00  0.00     0.034 A 
ATOM     48  C   UNL A   1      41.744  28.503  31.172  1.00  0.00     0.049 A 
ATOM     49  C   UNL A   1      41.073  31.840  35.621  1.00  0.00     0.074 A 
ATOM     50  C   UNL A   1      42.821  27.633  31.209  1.00  0.00     0.029 A 
ATOM     51  N   UNL A   1      41.747  29.187  32.380  1.00  0.00    -0.354 N 
ATOM     52  N   UNL A   1      41.363  31.006  34.648  1.00  0.00    -0.248 NA
ATOM     53  C   UNL A   1      41.893  31.665  36.827  1.00  0.00     0.031 C 
ATOM     54  C   UNL A   1      43.419  27.727  32.469  1.00  0.00     0.029 A 
ATOM     55  C   UNL A   1      42.772  28.718  33.188  1.00  0.00     0.049 A 
ATOM     56  H   UNL A   1      41.115  29.901  32.625  1.00  0.00     0.167 HD
ATOM     57  C   UNL A   1      42.415  30.226  35.122  1.00  0.00     0.074 A 
ATOM     58  C   UNL A   1      42.728  30.710  36.450  1.00  0.00     0.031 C 
ATOM     59  C   UNL A   1      43.064  29.199  34.517  1.00  0.00     0.034 A 
BRANCH  46  60
ATOM     60  C   UNL A   1      40.834  27.738  28.940  1.00  0.00     0.023 A 
ATOM     61  C   UNL A   1      41.800  27.870  27.929  1.00  0.00     0.031 A 
ATOM     62  C   UNL A   1      39.936  26.657  28.859  1.00  0.00     0.131 A 
ATOM     63  C   UNL A   1      41.824  26.958  26.862  1.00  0.00     0.055 A 
ATOM     64  C   UNL A   1      40.007  25.716  27.831  1.00  0.00     0.041 A 
ATOM     65  F   UNL A   1      38.981  26.493  29.786  1.00  0.00    -0.206 F 
ATOM     66  C   UNL A   1      40.952  25.867  26.820  1.00  0.00     0.022 A 
BRANCH  63  67
ATOM     67  S   UNL A   1      42.953  27.267  25.476  1.00  0.00     0.124 S 
ATOM     68  O   UNL A   1      44.133  27.782  26.166  1.00  0.00    -0.237 OA
ATOM     69  O   UNL A   1      43.090  25.942  24.880  1.00  0.00    -0.237 OA
ATOM     70  O   UNL A   1      42.239  28.246  24.662  1.00  0.00    -0.744 OA
ENDBRANCH  63  67
ENDBRANCH  46  60
BRANCH  47  71
ATOM     71  C   UNL A   1      39.844  33.758  36.885  1.00  0.00     0.023 A 
ATOM     72  C   UNL A   1      39.207  33.229  38.018  1.00  0.00     0.031 A 
ATOM     73  C   UNL A   1      40.215  35.114  36.915  1.00  0.00     0.131 A 
ATOM     74  C   UNL A   1      38.891  34.067  39.099  1.00  0.00     0.055 A 
ATOM     75  C   UNL A   1      39.966  35.926  38.024  1.00  0.00     0.041 A 
ATOM     76  F   UNL A   1      40.826  35.677  35.860  1.00  0.00    -0.206 F 
ATOM     77  C   UNL A   1      39.282  35.408  39.117  1.00  0.00     0.022 A 
BRANCH  74  78
ATOM     78  S   UNL A   1      37.836  33.413  40.422  1.00  0.00     0.124 S 
ATOM     79  O   UNL A   1      37.619  34.600  41.241  1.00  0.00    -0.237 OA
ATOM     80  O   UNL A   1      36.680  32.929  39.674  1.00  0.00    -0.237 OA
ATOM     81  O   UNL A   1      38.662  32.375  41.033  1.00  0.00    -0.744 OA
ENDBRANCH  74  78
ENDBRANCH  47  71
BRANCH  59  82
ATOM     82  C   UNL A   1      44.191  28.553  35.283  1.00  0.00     0.023 A 
ATOM     83  C   UNL A   1      43.955  27.529  36.218  1.00  0.00     0.031 A 
ATOM     84  C   UNL A   1      45.519  28.972  35.085  1.00  0.00     0.131 A 
ATOM     85  C   UNL A   1      45.021  26.998  36.958  1.00  0.00     0.055 A 
ATOM     86  C   UNL A   1      46.584  28.393  35.776  1.00  0.00     0.041 A 
ATOM     87  F   UNL A   1      45.804  29.950  34.209  1.00  0.00    -0.206 F 
ATOM     88  C   UNL A   1      46.337  27.409  36.730  1.00  0.00     0.022 A 
BRANCH  85  89
ATOM     89  S   UNL A   1      44.654  25.825  38.292  1.00  0.00     0.124 S 
ATOM     90  O   UNL A   1      44.146  24.674  37.551  1.00  0.00    -0.237 OA
ATOM     91  O   UNL A   1      45.957  25.651  38.924  1.00  0.00    -0.237 OA
ATOM     92  O   UNL A   1      43.662  26.527  39.104  1.00  0.00    -0.744 OA
ENDBRANCH  85  89
ENDBRANCH  59  82
ENDBRANCH  33  34
ENDBRANCH  25  28
ENDBRANCH  23  24
ENDBRANCH   1  23
TORSDOF 15
ENDMDL
