MODEL 1
REMARK VINA RESULT:     -11.8      0.000      0.000
REMARK SMILES O=C(NCCCNC(=O)[C@H]1CC[C@@H](C[NH2+][C@H]2CCC[C@H](C3CC3)C2)CC1)c1ccc(-c2c3nc(c(-c4cc(S(=O)(=O)[O-])ccc4F)c4ccc([nH]4)c(-c4cc(S(=O)(=O)[O-])ccc4F)c4nc(c(-c5cc(S(=O)(=O)[O-])ccc5F)c5ccc2[nH]5)C=C4)C=C3)cc1
REMARK SMILES IDX 5 1 4 2 3 3 1 4 2 5 27 7 28 8 89 9 29 10 88 11 30 12 31 13
REMARK SMILES IDX 32 14 82 15 33 16 87 17 81 18 83 19 34 20 86 21 80 22 79 23
REMARK SMILES IDX 35 25 67 26 47 27 66 28 48 29 51 30 65 31 84 32 49 33 50 34
REMARK SMILES IDX 64 36 85 37 52 38 36 39 37 40 45 41 38 42 44 43 46 44 43 45
REMARK SMILES IDX 39 46 40 47 41 48 42 49 68 50 69 51 77 52 70 53 76 54 78 55
REMARK SMILES IDX 75 56 71 57 72 58 73 59 74 60 53 61 54 62 62 63 55 64 61 65
REMARK SMILES IDX 63 66 60 67 56 68 57 69 58 70 59 71 6 72 7 73 8 74 9 76
REMARK SMILES IDX 10 77 26 78 11 79 25 80 12 81 13 82 14 83 15 84 16 87 17 88
REMARK SMILES IDX 24 89 18 90 20 91 19 92 21 93 22 94 23 95
REMARK H PARENT 3 6 83 24 51 35 7 75 15 85 15 86
REMARK Flexibility Score: inf
ROOT
ATOM      1  C   UNL A   1      35.890  22.379  24.846  1.00  0.00     0.042 C 
ENDROOT
BRANCH   1   2
ATOM      2  C   UNL A   1      37.377  22.226  24.558  1.00  0.00     0.118 C 
BRANCH   2   3
ATOM      3  N   UNL A   1      37.975  21.129  25.317  1.00  0.00    -0.352 N 
ATOM      4  O   UNL A   1      39.561  20.030  26.473  1.00  0.00    -0.269 OA
ATOM      5  C   UNL A   1      39.076  21.106  26.141  1.00  0.00     0.251 C 
ATOM      6  H   UNL A   1      37.515  20.263  25.222  1.00  0.00     0.163 HD
BRANCH   5   7
ATOM      7  C   UNL A   1      39.670  22.372  26.618  1.00  0.00     0.039 A 
ATOM      8  C   UNL A   1      39.146  23.592  26.198  1.00  0.00     0.014 A 
ATOM      9  C   UNL A   1      40.746  22.346  27.510  1.00  0.00     0.014 A 
ATOM     10  C   UNL A   1      39.812  24.770  26.499  1.00  0.00     0.010 A 
ATOM     11  C   UNL A   1      41.339  23.546  27.918  1.00  0.00     0.010 A 
ATOM     12  C   UNL A   1      40.906  24.768  27.378  1.00  0.00    -0.014 A 
BRANCH  12  13
ATOM     13  C   UNL A   1      41.540  26.066  27.727  1.00  0.00     0.031 A 
ATOM     14  C   UNL A   1      42.877  26.454  27.159  1.00  0.00     0.074 A 
ATOM     15  C   UNL A   1      40.859  26.924  28.513  1.00  0.00     0.049 A 
ATOM     16  N   UNL A   1      43.549  27.568  27.316  1.00  0.00    -0.248 NA
ATOM     17  C   UNL A   1      43.557  25.462  26.313  1.00  0.00     0.031 C 
ATOM     18  C   UNL A   1      39.553  26.651  29.122  1.00  0.00     0.029 A 
ATOM     19  N   UNL A   1      41.140  28.207  28.905  1.00  0.00    -0.354 N 
ATOM     20  C   UNL A   1      44.740  27.401  26.616  1.00  0.00     0.074 A 
ATOM     21  C   UNL A   1      44.711  26.063  26.061  1.00  0.00     0.031 C 
ATOM     22  C   UNL A   1      39.114  27.755  29.741  1.00  0.00     0.029 A 
ATOM     23  C   UNL A   1      40.140  28.786  29.652  1.00  0.00     0.049 A 
ATOM     24  H   UNL A   1      41.978  28.670  28.675  1.00  0.00     0.167 HD
ATOM     25  C   UNL A   1      45.755  28.284  26.449  1.00  0.00     0.034 A 
ATOM     26  C   UNL A   1      40.060  30.005  30.218  1.00  0.00     0.034 A 
ATOM     27  C   UNL A   1      45.755  29.620  27.002  1.00  0.00     0.049 A 
ATOM     28  C   UNL A   1      41.212  30.956  30.037  1.00  0.00     0.074 A 
ATOM     29  C   UNL A   1      46.717  30.607  26.874  1.00  0.00     0.029 A 
ATOM     30  N   UNL A   1      44.746  30.155  27.796  1.00  0.00    -0.354 N 
ATOM     31  N   UNL A   1      42.326  30.784  29.363  1.00  0.00    -0.248 NA
ATOM     32  C   UNL A   1      41.091  32.265  30.687  1.00  0.00     0.031 C 
ATOM     33  C   UNL A   1      46.325  31.708  27.645  1.00  0.00     0.029 A 
ATOM     34  C   UNL A   1      45.078  31.445  28.186  1.00  0.00     0.049 A 
ATOM     35  H   UNL A   1      43.917  29.686  28.044  1.00  0.00     0.167 HD
ATOM     36  C   UNL A   1      43.028  31.978  29.487  1.00  0.00     0.074 A 
ATOM     37  C   UNL A   1      42.200  32.864  30.281  1.00  0.00     0.031 C 
ATOM     38  C   UNL A   1      44.246  32.313  28.988  1.00  0.00     0.034 A 
BRANCH  25  39
ATOM     39  C   UNL A   1      46.972  27.813  25.682  1.00  0.00     0.023 A 
ATOM     40  C   UNL A   1      47.166  28.121  24.325  1.00  0.00     0.031 A 
ATOM     41  C   UNL A   1      47.941  27.015  26.318  1.00  0.00     0.131 A 
ATOM     42  C   UNL A   1      48.256  27.573  23.629  1.00  0.00     0.055 A 
ATOM     43  C   UNL A   1      49.069  26.543  25.642  1.00  0.00     0.041 A 
ATOM     44  F   UNL A   1      47.803  26.668  27.607  1.00  0.00    -0.206 F 
ATOM     45  C   UNL A   1      49.222  26.807  24.284  1.00  0.00     0.022 A 
BRANCH  42  46
ATOM     46  S   UNL A   1      48.309  27.747  21.824  1.00  0.00     0.124 S 
ATOM     47  O   UNL A   1      46.966  28.242  21.532  1.00  0.00    -0.237 OA
ATOM     48  O   UNL A   1      49.397  28.699  21.630  1.00  0.00    -0.237 OA
ATOM     49  O   UNL A   1      48.579  26.389  21.355  1.00  0.00    -0.744 OA
ENDBRANCH  42  46
ENDBRANCH  25  39
BRANCH  26  50
ATOM     50  C   UNL A   1      38.865  30.385  31.025  1.00  0.00     0.023 A 
ATOM     51  C   UNL A   1      37.893  31.258  30.515  1.00  0.00     0.031 A 
ATOM     52  C   UNL A   1      38.694  29.902  32.335  1.00  0.00     0.131 A 
ATOM     53  C   UNL A   1      36.817  31.655  31.323  1.00  0.00     0.055 A 
ATOM     54  C   UNL A   1      37.591  30.252  33.114  1.00  0.00     0.041 A 
ATOM     55  F   UNL A   1      39.592  29.060  32.872  1.00  0.00    -0.206 F 
ATOM     56  C   UNL A   1      36.651  31.146  32.612  1.00  0.00     0.022 A 
BRANCH  53  57
ATOM     57  S   UNL A   1      35.680  32.920  30.694  1.00  0.00     0.124 S 
ATOM     58  O   UNL A   1      34.407  32.481  31.257  1.00  0.00    -0.237 OA
ATOM     59  O   UNL A   1      36.243  34.141  31.258  1.00  0.00    -0.237 OA
ATOM     60  O   UNL A   1      35.798  32.793  29.243  1.00  0.00    -0.744 OA
ENDBRANCH  53  57
ENDBRANCH  26  50
BRANCH  38  61
ATOM     61  C   UNL A   1      44.720  33.723  29.247  1.00  0.00     0.023 A 
ATOM     62  C   UNL A   1      44.215  34.821  28.527  1.00  0.00     0.031 A 
ATOM     63  C   UNL A   1      45.723  33.964  30.202  1.00  0.00     0.131 A 
ATOM     64  C   UNL A   1      44.768  36.096  28.721  1.00  0.00     0.055 A 
ATOM     65  C   UNL A   1      46.218  35.246  30.440  1.00  0.00     0.041 A 
ATOM     66  F   UNL A   1      46.244  32.953  30.916  1.00  0.00    -0.206 F 
ATOM     67  C   UNL A   1      45.754  36.319  29.685  1.00  0.00     0.022 A 
BRANCH  64  68
ATOM     68  S   UNL A   1      44.265  37.439  27.610  1.00  0.00     0.124 S 
ATOM     69  O   UNL A   1      43.484  36.725  26.604  1.00  0.00    -0.237 OA
ATOM     70  O   UNL A   1      43.509  38.314  28.501  1.00  0.00    -0.237 OA
ATOM     71  O   UNL A   1      45.535  37.986  27.136  1.00  0.00    -0.744 OA
ENDBRANCH  64  68
ENDBRANCH  38  61
ENDBRANCH  12  13
ENDBRANCH   5   7
ENDBRANCH   2   3
ENDBRANCH   1   2
BRANCH   1  72
ATOM     72  C   UNL A   1      35.425  21.458  25.960  1.00  0.00     0.117 C 
BRANCH  72  73
ATOM     73  N   UNL A   1      34.665  20.329  25.449  1.00  0.00    -0.356 N 
ATOM     74  C   UNL A   1      33.397  20.138  25.022  1.00  0.00     0.223 C 
ATOM     75  H   UNL A   1      35.203  19.506  25.404  1.00  0.00     0.163 HD
ATOM     76  O   UNL A   1      33.135  18.970  24.700  1.00  0.00    -0.275 OA
BRANCH  74  77
ATOM     77  C   UNL A   1      32.297  21.215  24.951  1.00  0.00     0.078 C 
ATOM     78  C   UNL A   1      32.219  22.203  26.115  1.00  0.00     0.014 C 
ATOM     79  C   UNL A   1      32.475  21.925  23.586  1.00  0.00     0.014 C 
ATOM     80  C   UNL A   1      31.408  23.468  25.853  1.00  0.00     0.010 C 
ATOM     81  C   UNL A   1      31.654  23.198  23.416  1.00  0.00     0.010 C 
ATOM     82  C   UNL A   1      31.856  24.184  24.575  1.00  0.00     0.044 C 
BRANCH  82  83
ATOM     83  C   UNL A   1      33.307  24.711  24.722  1.00  0.00     0.264 C 
BRANCH  83  84
ATOM     84  N   UNL A   1      33.403  25.817  25.673  1.00  0.00    -0.344 N 
ATOM     85  H   UNL A   1      34.374  25.901  25.976  1.00  0.00     0.346 HD
ATOM     86  H   UNL A   1      32.778  25.604  26.450  1.00  0.00     0.346 HD
BRANCH  84  87
ATOM     87  C   UNL A   1      32.976  27.107  25.106  1.00  0.00     0.182 C 
ATOM     88  C   UNL A   1      31.511  27.464  25.411  1.00  0.00     0.065 C 
ATOM     89  C   UNL A   1      33.885  28.212  25.670  1.00  0.00     0.069 C 
ATOM     90  C   UNL A   1      31.258  27.680  26.900  1.00  0.00     0.006 C 
ATOM     91  C   UNL A   1      33.673  28.481  27.177  1.00  0.00    -0.002 C 
ATOM     92  C   UNL A   1      32.187  28.747  27.473  1.00  0.00     0.004 C 
BRANCH  91  93
ATOM     93  C   UNL A   1      34.599  29.596  27.633  1.00  0.00    -0.008 C 
ATOM     94  C   UNL A   1      35.767  29.404  28.574  1.00  0.00     0.004 C 
ATOM     95  C   UNL A   1      36.015  29.646  27.113  1.00  0.00     0.004 C 
ENDBRANCH  91  93
ENDBRANCH  84  87
ENDBRANCH  83  84
ENDBRANCH  82  83
ENDBRANCH  74  77
ENDBRANCH  72  73
ENDBRANCH   1  72
TORSDOF 17
ENDMDL
MODEL 2
REMARK VINA RESULT:     -11.7      5.541      9.148
REMARK SMILES O=C(NCCCNC(=O)[C@H]1CC[C@@H](C[NH2+][C@H]2CCC[C@H](C3CC3)C2)CC1)c1ccc(-c2c3nc(c(-c4cc(S(=O)(=O)[O-])ccc4F)c4ccc([nH]4)c(-c4cc(S(=O)(=O)[O-])ccc4F)c4nc(c(-c5cc(S(=O)(=O)[O-])ccc5F)c5ccc2[nH]5)C=C4)C=C3)cc1
REMARK SMILES IDX 5 1 4 2 3 3 1 4 2 5 27 7 28 8 89 9 29 10 88 11 30 12 31 13
REMARK SMILES IDX 32 14 82 15 33 16 87 17 81 18 83 19 34 20 86 21 80 22 79 23
REMARK SMILES IDX 35 25 67 26 47 27 66 28 48 29 51 30 65 31 84 32 49 33 50 34
REMARK SMILES IDX 64 36 85 37 52 38 36 39 37 40 45 41 38 42 44 43 46 44 43 45
REMARK SMILES IDX 39 46 40 47 41 48 42 49 68 50 69 51 77 52 70 53 76 54 78 55
REMARK SMILES IDX 75 56 71 57 72 58 73 59 74 60 53 61 54 62 62 63 55 64 61 65
REMARK SMILES IDX 63 66 60 67 56 68 57 69 58 70 59 71 6 72 7 73 8 74 9 76
REMARK SMILES IDX 10 77 26 78 11 79 25 80 12 81 13 82 14 83 15 84 16 87 17 88
REMARK SMILES IDX 24 89 18 90 20 91 19 92 21 93 22 94 23 95
REMARK H PARENT 3 6 83 24 51 35 7 75 15 85 15 86
REMARK Flexibility Score: inf
ROOT
ATOM      1  C   UNL A   1      31.406  32.242  26.705  1.00  0.00     0.042 C 
ENDROOT
BRANCH   1   2
ATOM      2  C   UNL A   1      32.713  32.753  27.295  1.00  0.00     0.118 C 
BRANCH   2   3
ATOM      3  N   UNL A   1      32.647  34.175  27.631  1.00  0.00    -0.352 N 
ATOM      4  O   UNL A   1      32.824  36.013  28.916  1.00  0.00    -0.269 OA
ATOM      5  C   UNL A   1      33.216  34.878  28.668  1.00  0.00     0.251 C 
ATOM      6  H   UNL A   1      32.106  34.720  27.014  1.00  0.00     0.163 HD
BRANCH   5   7
ATOM      7  C   UNL A   1      34.289  34.264  29.478  1.00  0.00     0.039 A 
ATOM      8  C   UNL A   1      35.624  34.503  29.165  1.00  0.00     0.014 A 
ATOM      9  C   UNL A   1      33.963  33.459  30.574  1.00  0.00     0.014 A 
ATOM     10  C   UNL A   1      36.623  33.787  29.807  1.00  0.00     0.010 A 
ATOM     11  C   UNL A   1      34.980  32.837  31.305  1.00  0.00     0.010 A 
ATOM     12  C   UNL A   1      36.319  32.959  30.899  1.00  0.00    -0.014 A 
BRANCH  12  13
ATOM     13  C   UNL A   1      37.433  32.270  31.601  1.00  0.00     0.031 A 
ATOM     14  C   UNL A   1      38.229  31.190  30.921  1.00  0.00     0.074 A 
ATOM     15  C   UNL A   1      37.765  32.682  32.841  1.00  0.00     0.049 A 
ATOM     16  N   UNL A   1      39.264  30.523  31.367  1.00  0.00    -0.248 NA
ATOM     17  C   UNL A   1      37.802  30.796  29.570  1.00  0.00     0.031 C 
ATOM     18  C   UNL A   1      37.061  33.723  33.598  1.00  0.00     0.029 A 
ATOM     19  N   UNL A   1      38.793  32.314  33.670  1.00  0.00    -0.354 N 
ATOM     20  C   UNL A   1      39.595  29.613  30.368  1.00  0.00     0.074 A 
ATOM     21  C   UNL A   1      38.626  29.792  29.306  1.00  0.00     0.031 C 
ATOM     22  C   UNL A   1      37.720  33.962  34.739  1.00  0.00     0.029 A 
ATOM     23  C   UNL A   1      38.841  33.036  34.841  1.00  0.00     0.049 A 
ATOM     24  H   UNL A   1      39.435  31.601  33.450  1.00  0.00     0.167 HD
ATOM     25  C   UNL A   1      40.615  28.719  30.340  1.00  0.00     0.034 A 
ATOM     26  C   UNL A   1      39.682  32.954  35.889  1.00  0.00     0.034 A 
ATOM     27  C   UNL A   1      41.578  28.568  31.407  1.00  0.00     0.049 A 
ATOM     28  C   UNL A   1      40.789  31.937  35.842  1.00  0.00     0.074 A 
ATOM     29  C   UNL A   1      42.665  27.714  31.473  1.00  0.00     0.029 A 
ATOM     30  N   UNL A   1      41.566  29.282  32.600  1.00  0.00    -0.354 N 
ATOM     31  N   UNL A   1      41.092  31.091  34.884  1.00  0.00    -0.248 NA
ATOM     32  C   UNL A   1      41.668  31.868  37.013  1.00  0.00     0.031 C 
ATOM     33  C   UNL A   1      43.266  27.861  32.730  1.00  0.00     0.029 A 
ATOM     34  C   UNL A   1      42.608  28.867  33.418  1.00  0.00     0.049 A 
ATOM     35  H   UNL A   1      40.912  29.982  32.831  1.00  0.00     0.167 HD
ATOM     36  C   UNL A   1      42.218  30.407  35.329  1.00  0.00     0.074 A 
ATOM     37  C   UNL A   1      42.549  30.957  36.629  1.00  0.00     0.031 C 
ATOM     38  C   UNL A   1      42.918  29.417  34.717  1.00  0.00     0.034 A 
BRANCH  25  39
ATOM     39  C   UNL A   1      40.705  27.800  29.141  1.00  0.00     0.023 A 
ATOM     40  C   UNL A   1      41.630  28.012  28.104  1.00  0.00     0.031 A 
ATOM     41  C   UNL A   1      39.827  26.707  29.022  1.00  0.00     0.131 A 
ATOM     42  C   UNL A   1      41.605  27.195  26.962  1.00  0.00     0.055 A 
ATOM     43  C   UNL A   1      39.863  25.846  27.922  1.00  0.00     0.041 A 
ATOM     44  F   UNL A   1      38.906  26.463  29.967  1.00  0.00    -0.206 F 
ATOM     45  C   UNL A   1      40.745  26.098  26.875  1.00  0.00     0.022 A 
BRANCH  42  46
ATOM     46  S   UNL A   1      42.604  27.679  25.527  1.00  0.00     0.124 S 
ATOM     47  O   UNL A   1      42.534  26.478  24.697  1.00  0.00    -0.237 OA
ATOM     48  O   UNL A   1      41.890  28.846  25.024  1.00  0.00    -0.237 OA
ATOM     49  O   UNL A   1      43.920  27.952  26.101  1.00  0.00    -0.744 OA
ENDBRANCH  42  46
ENDBRANCH  25  39
BRANCH  26  50
ATOM     50  C   UNL A   1      39.496  33.838  37.075  1.00  0.00     0.023 A 
ATOM     51  C   UNL A   1      38.867  33.369  38.238  1.00  0.00     0.031 A 
ATOM     52  C   UNL A   1      39.920  35.180  37.051  1.00  0.00     0.131 A 
ATOM     53  C   UNL A   1      38.641  34.244  39.311  1.00  0.00     0.055 A 
ATOM     54  C   UNL A   1      39.746  36.030  38.143  1.00  0.00     0.041 A 
ATOM     55  F   UNL A   1      40.532  35.679  35.965  1.00  0.00    -0.206 F 
ATOM     56  C   UNL A   1      39.090  35.566  39.279  1.00  0.00     0.022 A 
BRANCH  53  57
ATOM     57  S   UNL A   1      37.668  33.652  40.724  1.00  0.00     0.124 S 
ATOM     58  O   UNL A   1      36.505  33.071  40.062  1.00  0.00    -0.237 OA
ATOM     59  O   UNL A   1      38.587  32.709  41.350  1.00  0.00    -0.237 OA
ATOM     60  O   UNL A   1      37.408  34.869  41.491  1.00  0.00    -0.744 OA
ENDBRANCH  53  57
ENDBRANCH  26  50
BRANCH  38  61
ATOM     61  C   UNL A   1      44.145  28.911  35.437  1.00  0.00     0.023 A 
ATOM     62  C   UNL A   1      44.075  27.875  36.386  1.00  0.00     0.031 A 
ATOM     63  C   UNL A   1      45.397  29.504  35.198  1.00  0.00     0.131 A 
ATOM     64  C   UNL A   1      45.220  27.516  37.114  1.00  0.00     0.055 A 
ATOM     65  C   UNL A   1      46.546  29.094  35.874  1.00  0.00     0.041 A 
ATOM     66  F   UNL A   1      45.522  30.500  34.306  1.00  0.00    -0.206 F 
ATOM     67  C   UNL A   1      46.459  28.107  36.851  1.00  0.00     0.022 A 
BRANCH  64  68
ATOM     68  S   UNL A   1      45.044  26.351  38.492  1.00  0.00     0.124 S 
ATOM     69  O   UNL A   1      46.398  25.818  38.615  1.00  0.00    -0.237 OA
ATOM     70  O   UNL A   1      44.600  27.219  39.579  1.00  0.00    -0.237 OA
ATOM     71  O   UNL A   1      44.045  25.399  38.012  1.00  0.00    -0.744 OA
ENDBRANCH  64  68
ENDBRANCH  38  61
ENDBRANCH  12  13
ENDBRANCH   5   7
ENDBRANCH   2   3
ENDBRANCH   1   2
BRANCH   1  72
ATOM     72  C   UNL A   1      31.572  30.893  26.027  1.00  0.00     0.117 C 
BRANCH  72  73
ATOM     73  N   UNL A   1      31.549  29.800  26.985  1.00  0.00    -0.356 N 
ATOM     74  C   UNL A   1      31.814  28.475  26.938  1.00  0.00     0.223 C 
ATOM     75  H   UNL A   1      31.275  30.095  27.883  1.00  0.00     0.163 HD
ATOM     76  O   UNL A   1      31.620  27.876  28.005  1.00  0.00    -0.275 OA
BRANCH  74  77
ATOM     77  C   UNL A   1      32.275  27.692  25.695  1.00  0.00     0.078 C 
ATOM     78  C   UNL A   1      33.689  27.111  25.727  1.00  0.00     0.014 C 
ATOM     79  C   UNL A   1      31.199  26.607  25.443  1.00  0.00     0.014 C 
ATOM     80  C   UNL A   1      33.984  26.033  24.687  1.00  0.00     0.010 C 
ATOM     81  C   UNL A   1      31.583  25.550  24.415  1.00  0.00     0.010 C 
ATOM     82  C   UNL A   1      32.945  24.908  24.715  1.00  0.00     0.044 C 
BRANCH  82  83
ATOM     83  C   UNL A   1      33.007  24.138  26.059  1.00  0.00     0.264 C 
BRANCH  83  84
ATOM     84  N   UNL A   1      33.794  22.910  25.961  1.00  0.00    -0.344 N 
ATOM     85  H   UNL A   1      33.234  22.135  26.316  1.00  0.00     0.346 HD
ATOM     86  H   UNL A   1      34.644  23.050  26.507  1.00  0.00     0.346 HD
BRANCH  84  87
ATOM     87  C   UNL A   1      34.205  22.596  24.582  1.00  0.00     0.182 C 
ATOM     88  C   UNL A   1      35.729  22.642  24.363  1.00  0.00     0.065 C 
ATOM     89  C   UNL A   1      33.695  21.189  24.230  1.00  0.00     0.069 C 
ATOM     90  C   UNL A   1      36.467  21.571  25.159  1.00  0.00     0.006 C 
ATOM     91  C   UNL A   1      34.410  20.058  25.003  1.00  0.00    -0.002 C 
ATOM     92  C   UNL A   1      35.936  20.176  24.844  1.00  0.00     0.004 C 
BRANCH  91  93
ATOM     93  C   UNL A   1      33.851  18.712  24.574  1.00  0.00    -0.008 C 
ATOM     94  C   UNL A   1      32.518  18.158  25.025  1.00  0.00     0.004 C 
ATOM     95  C   UNL A   1      32.682  18.662  23.620  1.00  0.00     0.004 C 
ENDBRANCH  91  93
ENDBRANCH  84  87
ENDBRANCH  83  84
ENDBRANCH  82  83
ENDBRANCH  74  77
ENDBRANCH  72  73
ENDBRANCH   1  72
TORSDOF 17
ENDMDL
MODEL 3
REMARK VINA RESULT:     -11.7      2.778      3.577
REMARK SMILES O=C(NCCCNC(=O)[C@H]1CC[C@@H](C[NH2+][C@H]2CCC[C@H](C3CC3)C2)CC1)c1ccc(-c2c3nc(c(-c4cc(S(=O)(=O)[O-])ccc4F)c4ccc([nH]4)c(-c4cc(S(=O)(=O)[O-])ccc4F)c4nc(c(-c5cc(S(=O)(=O)[O-])ccc5F)c5ccc2[nH]5)C=C4)C=C3)cc1
REMARK SMILES IDX 5 1 4 2 3 3 1 4 2 5 27 7 28 8 89 9 29 10 88 11 30 12 31 13
REMARK SMILES IDX 32 14 82 15 33 16 87 17 81 18 83 19 34 20 86 21 80 22 79 23
REMARK SMILES IDX 35 25 67 26 47 27 66 28 48 29 51 30 65 31 84 32 49 33 50 34
REMARK SMILES IDX 64 36 85 37 52 38 36 39 37 40 45 41 38 42 44 43 46 44 43 45
REMARK SMILES IDX 39 46 40 47 41 48 42 49 68 50 69 51 77 52 70 53 76 54 78 55
REMARK SMILES IDX 75 56 71 57 72 58 73 59 74 60 53 61 54 62 62 63 55 64 61 65
REMARK SMILES IDX 63 66 60 67 56 68 57 69 58 70 59 71 6 72 7 73 8 74 9 76
REMARK SMILES IDX 10 77 26 78 11 79 25 80 12 81 13 82 14 83 15 84 16 87 17 88
REMARK SMILES IDX 24 89 18 90 20 91 19 92 21 93 22 94 23 95
REMARK H PARENT 3 6 83 24 51 35 7 75 15 85 15 86
REMARK Flexibility Score: inf
ROOT
ATOM      1  C   UNL A   1      34.816  21.912  24.789  1.00  0.00     0.042 C 
ENDROOT
BRANCH   1   2
ATOM      2  C   UNL A   1      36.052  22.183  25.635  1.00  0.00     0.118 C 
BRANCH   2   3
ATOM      3  N   UNL A   1      37.010  21.080  25.580  1.00  0.00    -0.352 N 
ATOM      4  O   UNL A   1      39.019  20.085  25.393  1.00  0.00    -0.269 OA
ATOM      5  C   UNL A   1      38.377  21.072  25.737  1.00  0.00     0.251 C 
ATOM      6  H   UNL A   1      36.612  20.197  25.400  1.00  0.00     0.163 HD
BRANCH   5   7
ATOM      7  C   UNL A   1      39.063  22.248  26.311  1.00  0.00     0.039 A 
ATOM      8  C   UNL A   1      38.571  23.529  26.073  1.00  0.00     0.014 A 
ATOM      9  C   UNL A   1      40.195  22.073  27.112  1.00  0.00     0.014 A 
ATOM     10  C   UNL A   1      39.312  24.635  26.457  1.00  0.00     0.010 A 
ATOM     11  C   UNL A   1      40.873  23.192  27.609  1.00  0.00     0.010 A 
ATOM     12  C   UNL A   1      40.463  24.485  27.247  1.00  0.00    -0.014 A 
BRANCH  12  13
ATOM     13  C   UNL A   1      41.182  25.706  27.695  1.00  0.00     0.031 A 
ATOM     14  C   UNL A   1      42.587  25.992  27.239  1.00  0.00     0.074 A 
ATOM     15  C   UNL A   1      40.524  26.595  28.468  1.00  0.00     0.049 A 
ATOM     16  N   UNL A   1      43.340  27.033  27.491  1.00  0.00    -0.248 NA
ATOM     17  C   UNL A   1      43.236  24.973  26.402  1.00  0.00     0.031 C 
ATOM     18  C   UNL A   1      39.157  26.420  28.970  1.00  0.00     0.029 A 
ATOM     19  N   UNL A   1      40.887  27.832  28.933  1.00  0.00    -0.354 N 
ATOM     20  C   UNL A   1      44.561  26.783  26.869  1.00  0.00     0.074 A 
ATOM     21  C   UNL A   1      44.454  25.475  26.257  1.00  0.00     0.031 C 
ATOM     22  C   UNL A   1      38.773  27.536  29.604  1.00  0.00     0.029 A 
ATOM     23  C   UNL A   1      39.890  28.472  29.632  1.00  0.00     0.049 A 
ATOM     24  H   UNL A   1      41.777  28.224  28.782  1.00  0.00     0.167 HD
ATOM     25  C   UNL A   1      45.659  27.576  26.811  1.00  0.00     0.034 A 
ATOM     26  C   UNL A   1      39.877  29.672  30.242  1.00  0.00     0.034 A 
ATOM     27  C   UNL A   1      45.737  28.885  27.420  1.00  0.00     0.049 A 
ATOM     28  C   UNL A   1      41.118  30.519  30.183  1.00  0.00     0.074 A 
ATOM     29  C   UNL A   1      46.789  29.784  27.402  1.00  0.00     0.029 A 
ATOM     30  N   UNL A   1      44.723  29.481  28.163  1.00  0.00    -0.354 N 
ATOM     31  N   UNL A   1      42.259  30.271  29.582  1.00  0.00    -0.248 NA
ATOM     32  C   UNL A   1      41.066  31.809  30.879  1.00  0.00     0.031 C 
ATOM     33  C   UNL A   1      46.440  30.888  28.190  1.00  0.00     0.029 A 
ATOM     34  C   UNL A   1      45.138  30.720  28.631  1.00  0.00     0.049 A 
ATOM     35  H   UNL A   1      43.839  29.081  28.332  1.00  0.00     0.167 HD
ATOM     36  C   UNL A   1      43.053  31.391  29.806  1.00  0.00     0.074 A 
ATOM     37  C   UNL A   1      42.250  32.320  30.577  1.00  0.00     0.031 C 
ATOM     38  C   UNL A   1      44.329  31.631  29.408  1.00  0.00     0.034 A 
BRANCH  25  39
ATOM     39  C   UNL A   1      46.883  27.024  26.113  1.00  0.00     0.023 A 
ATOM     40  C   UNL A   1      47.888  26.326  26.805  1.00  0.00     0.031 A 
ATOM     41  C   UNL A   1      47.060  27.228  24.732  1.00  0.00     0.131 A 
ATOM     42  C   UNL A   1      49.055  25.926  26.134  1.00  0.00     0.055 A 
ATOM     43  C   UNL A   1      48.184  26.753  24.053  1.00  0.00     0.041 A 
ATOM     44  F   UNL A   1      46.148  27.906  24.018  1.00  0.00    -0.206 F 
ATOM     45  C   UNL A   1      49.199  26.112  24.758  1.00  0.00     0.022 A 
BRANCH  42  46
ATOM     46  S   UNL A   1      50.448  25.299  27.114  1.00  0.00     0.124 S 
ATOM     47  O   UNL A   1      49.831  24.183  27.827  1.00  0.00    -0.237 OA
ATOM     48  O   UNL A   1      51.420  24.941  26.088  1.00  0.00    -0.237 OA
ATOM     49  O   UNL A   1      50.817  26.436  27.954  1.00  0.00    -0.744 OA
ENDBRANCH  42  46
ENDBRANCH  25  39
BRANCH  26  50
ATOM     50  C   UNL A   1      38.664  30.129  30.979  1.00  0.00     0.023 A 
ATOM     51  C   UNL A   1      37.657  30.864  30.333  1.00  0.00     0.031 A 
ATOM     52  C   UNL A   1      38.508  29.864  32.351  1.00  0.00     0.131 A 
ATOM     53  C   UNL A   1      36.563  31.344  31.068  1.00  0.00     0.055 A 
ATOM     54  C   UNL A   1      37.388  30.292  33.065  1.00  0.00     0.041 A 
ATOM     55  F   UNL A   1      39.438  29.161  33.018  1.00  0.00    -0.206 F 
ATOM     56  C   UNL A   1      36.413  31.050  32.425  1.00  0.00     0.022 A 
BRANCH  53  57
ATOM     57  S   UNL A   1      35.375  32.438  30.241  1.00  0.00     0.124 S 
ATOM     58  O   UNL A   1      36.213  33.583  29.902  1.00  0.00    -0.237 OA
ATOM     59  O   UNL A   1      34.932  31.614  29.123  1.00  0.00    -0.237 OA
ATOM     60  O   UNL A   1      34.367  32.685  31.270  1.00  0.00    -0.744 OA
ENDBRANCH  53  57
ENDBRANCH  26  50
BRANCH  38  61
ATOM     61  C   UNL A   1      44.905  32.982  29.760  1.00  0.00     0.023 A 
ATOM     62  C   UNL A   1      45.607  33.200  30.959  1.00  0.00     0.031 A 
ATOM     63  C   UNL A   1      44.711  34.076  28.899  1.00  0.00     0.131 A 
ATOM     64  C   UNL A   1      46.024  34.496  31.298  1.00  0.00     0.055 A 
ATOM     65  C   UNL A   1      45.191  35.349  29.209  1.00  0.00     0.041 A 
ATOM     66  F   UNL A   1      44.045  33.927  27.744  1.00  0.00    -0.206 F 
ATOM     67  C   UNL A   1      45.835  35.569  30.422  1.00  0.00     0.022 A 
BRANCH  64  68
ATOM     68  S   UNL A   1      46.709  34.785  32.952  1.00  0.00     0.124 S 
ATOM     69  O   UNL A   1      46.898  36.233  32.955  1.00  0.00    -0.237 OA
ATOM     70  O   UNL A   1      45.651  34.279  33.820  1.00  0.00    -0.237 OA
ATOM     71  O   UNL A   1      47.942  33.999  32.955  1.00  0.00    -0.744 OA
ENDBRANCH  64  68
ENDBRANCH  38  61
ENDBRANCH  12  13
ENDBRANCH   5   7
ENDBRANCH   2   3
ENDBRANCH   1   2
BRANCH   1  72
ATOM     72  C   UNL A   1      33.551  21.841  25.626  1.00  0.00     0.117 C 
BRANCH  72  73
ATOM     73  N   UNL A   1      32.439  22.523  24.988  1.00  0.00    -0.356 N 
ATOM     74  C   UNL A   1      31.904  23.763  25.056  1.00  0.00     0.223 C 
ATOM     75  H   UNL A   1      31.959  21.944  24.353  1.00  0.00     0.163 HD
ATOM     76  O   UNL A   1      30.895  23.925  24.354  1.00  0.00    -0.275 OA
BRANCH  74  77
ATOM     77  C   UNL A   1      32.414  24.917  25.939  1.00  0.00     0.078 C 
ATOM     78  C   UNL A   1      33.733  25.574  25.529  1.00  0.00     0.014 C 
ATOM     79  C   UNL A   1      31.252  25.938  26.030  1.00  0.00     0.014 C 
ATOM     80  C   UNL A   1      34.018  26.933  26.161  1.00  0.00     0.010 C 
ATOM     81  C   UNL A   1      31.627  27.281  26.644  1.00  0.00     0.010 C 
ATOM     82  C   UNL A   1      32.854  27.911  25.971  1.00  0.00     0.044 C 
BRANCH  82  83
ATOM     83  C   UNL A   1      32.659  28.246  24.470  1.00  0.00     0.264 C 
BRANCH  83  84
ATOM     84  N   UNL A   1      31.329  28.782  24.188  1.00  0.00    -0.344 N 
ATOM     85  H   UNL A   1      31.363  29.798  24.277  1.00  0.00     0.346 HD
ATOM     86  H   UNL A   1      30.684  28.361  24.855  1.00  0.00     0.346 HD
BRANCH  84  87
ATOM     87  C   UNL A   1      30.846  28.447  22.837  1.00  0.00     0.182 C 
ATOM     88  C   UNL A   1      30.002  27.161  22.782  1.00  0.00     0.065 C 
ATOM     89  C   UNL A   1      29.998  29.621  22.318  1.00  0.00     0.069 C 
ATOM     90  C   UNL A   1      28.694  27.284  23.559  1.00  0.00     0.006 C 
ATOM     91  C   UNL A   1      28.656  29.795  23.064  1.00  0.00    -0.002 C 
ATOM     92  C   UNL A   1      27.869  28.472  23.075  1.00  0.00     0.004 C 
BRANCH  91  93
ATOM     93  C   UNL A   1      27.887  30.962  22.470  1.00  0.00    -0.008 C 
ATOM     94  C   UNL A   1      27.933  32.376  23.003  1.00  0.00     0.004 C 
ATOM     95  C   UNL A   1      28.633  32.038  21.718  1.00  0.00     0.004 C 
ENDBRANCH  91  93
ENDBRANCH  84  87
ENDBRANCH  83  84
ENDBRANCH  82  83
ENDBRANCH  74  77
ENDBRANCH  72  73
ENDBRANCH   1  72
TORSDOF 17
ENDMDL
