MODEL 1
REMARK VINA RESULT:     -13.2      0.000      0.000
REMARK SMILES O=C(NCCCNC(=O)c1ccc(-c2c3nc(c(-c4cc(S(=O)(=O)[O-])ccc4F)c4ccc([nH]4)c(-c4cc(S(=O)(=O)[O-])ccc4F)c4nc(c(-c5cc(S(=O)(=O)[O-])ccc5F)c5ccc2[nH]5)C=C4)C=C3)cc1)C1=Cc2c(cc(Cl)c(Cl)c2Cl)O[C@H]1C(F)(F)F
REMARK SMILES IDX 6 1 5 2 4 3 3 4 1 5 2 6 73 8 74 9 85 10 75 11 84 12 76 13
REMARK SMILES IDX 82 14 77 15 80 16 83 17 78 18 81 19 79 20 86 21 87 22 88 23
REMARK SMILES IDX 89 24 7 25 8 26 9 28 10 29 11 30 72 31 12 32 71 33 13 34
REMARK SMILES IDX 14 35 15 36 65 37 16 38 70 39 64 40 66 41 17 42 69 43 63 44
REMARK SMILES IDX 62 45 18 47 50 48 30 49 49 50 31 51 34 52 48 53 67 54 32 55
REMARK SMILES IDX 33 56 47 58 68 59 35 60 19 61 20 62 28 63 21 64 27 65 29 66
REMARK SMILES IDX 26 67 22 68 23 69 24 70 25 71 51 72 52 73 60 74 53 75 59 76
REMARK SMILES IDX 61 77 58 78 54 79 55 80 56 81 57 82 36 83 37 84 45 85 38 86
REMARK SMILES IDX 44 87 46 88 43 89 39 90 40 91 41 92 42 93
REMARK H PARENT 3 7 7 27 66 46 34 57
REMARK Flexibility Score: inf
ROOT
ATOM      1  C   UNL A   1      35.925  22.024  25.555  1.00  0.00     0.118 C 
ENDROOT
BRANCH   1   2
ATOM      2  C   UNL A   1      35.237  21.929  26.908  1.00  0.00     0.042 C 
BRANCH   2   3
ATOM      3  C   UNL A   1      33.848  21.318  26.873  1.00  0.00     0.118 C 
BRANCH   3   4
ATOM      4  N   UNL A   1      32.752  22.154  27.328  1.00  0.00    -0.352 N 
ATOM      5  O   UNL A   1      31.240  23.826  27.196  1.00  0.00    -0.270 OA
ATOM      6  C   UNL A   1      32.148  23.192  26.667  1.00  0.00     0.251 C 
ATOM      7  H   UNL A   1      32.398  21.950  28.224  1.00  0.00     0.163 HD
BRANCH   6   8
ATOM      8  C   UNL A   1      32.618  23.597  25.313  1.00  0.00     0.067 C 
ATOM      9  C   UNL A   1      33.300  24.750  25.194  1.00  0.00     0.027 C 
ATOM     10  C   UNL A   1      31.824  23.044  24.158  1.00  0.00     0.314 C 
ATOM     11  C   UNL A   1      32.465  25.798  24.550  1.00  0.00     0.037 A 
ATOM     12  O   UNL A   1      31.272  24.082  23.289  1.00  0.00    -0.475 OA
ATOM     13  C   UNL A   1      31.445  25.387  23.679  1.00  0.00     0.131 A 
ATOM     14  C   UNL A   1      32.541  27.144  24.961  1.00  0.00     0.072 A 
ATOM     15  C   UNL A   1      30.464  26.289  23.277  1.00  0.00     0.069 A 
ATOM     16  C   UNL A   1      31.530  28.046  24.585  1.00  0.00     0.079 A 
ATOM     17  Cl  UNL A   1      33.840  27.634  26.010  1.00  0.00    -0.082 Cl
ATOM     18  C   UNL A   1      30.480  27.599  23.766  1.00  0.00     0.064 A 
ATOM     19  Cl  UNL A   1      31.544  29.676  25.182  1.00  0.00    -0.081 Cl
ATOM     20  Cl  UNL A   1      29.122  28.597  23.375  1.00  0.00    -0.083 Cl
BRANCH  10  21
ATOM     21  C   UNL A   1      32.637  22.026  23.331  1.00  0.00     0.429 C 
ATOM     22  F   UNL A   1      33.856  22.494  22.968  1.00  0.00    -0.167 F 
ATOM     23  F   UNL A   1      32.842  20.882  24.027  1.00  0.00    -0.167 F 
ATOM     24  F   UNL A   1      32.002  21.684  22.183  1.00  0.00    -0.167 F 
ENDBRANCH  10  21
ENDBRANCH   6   8
ENDBRANCH   3   4
ENDBRANCH   2   3
ENDBRANCH   1   2
BRANCH   1  25
ATOM     25  N   UNL A   1      37.009  21.063  25.370  1.00  0.00    -0.352 N 
ATOM     26  C   UNL A   1      38.357  21.102  25.655  1.00  0.00     0.251 C 
ATOM     27  H   UNL A   1      36.719  20.216  24.959  1.00  0.00     0.163 HD
ATOM     28  O   UNL A   1      39.057  20.156  25.292  1.00  0.00    -0.269 OA
BRANCH  26  29
ATOM     29  C   UNL A   1      38.986  22.260  26.333  1.00  0.00     0.039 A 
ATOM     30  C   UNL A   1      40.046  22.036  27.224  1.00  0.00     0.014 A 
ATOM     31  C   UNL A   1      38.542  23.562  26.126  1.00  0.00     0.014 A 
ATOM     32  C   UNL A   1      40.730  23.119  27.790  1.00  0.00     0.010 A 
ATOM     33  C   UNL A   1      39.291  24.637  26.594  1.00  0.00     0.010 A 
ATOM     34  C   UNL A   1      40.408  24.432  27.418  1.00  0.00    -0.014 A 
BRANCH  34  35
ATOM     35  C   UNL A   1      41.207  25.616  27.847  1.00  0.00     0.031 A 
ATOM     36  C   UNL A   1      40.541  26.732  28.609  1.00  0.00     0.074 A 
ATOM     37  C   UNL A   1      42.488  25.748  27.443  1.00  0.00     0.049 A 
ATOM     38  N   UNL A   1      40.966  27.946  28.849  1.00  0.00    -0.248 NA
ATOM     39  C   UNL A   1      39.193  26.454  29.133  1.00  0.00     0.031 C 
ATOM     40  C   UNL A   1      43.250  24.751  26.687  1.00  0.00     0.029 A 
ATOM     41  N   UNL A   1      43.373  26.790  27.589  1.00  0.00    -0.354 N 
ATOM     42  C   UNL A   1      39.930  28.585  29.522  1.00  0.00     0.074 A 
ATOM     43  C   UNL A   1      38.835  27.641  29.598  1.00  0.00     0.031 C 
ATOM     44  C   UNL A   1      44.486  25.220  26.454  1.00  0.00     0.029 A 
ATOM     45  C   UNL A   1      44.588  26.577  26.977  1.00  0.00     0.049 A 
ATOM     46  H   UNL A   1      43.158  27.613  28.087  1.00  0.00     0.167 HD
ATOM     47  C   UNL A   1      39.903  29.834  30.051  1.00  0.00     0.034 A 
ATOM     48  C   UNL A   1      45.651  27.393  26.822  1.00  0.00     0.034 A 
ATOM     49  C   UNL A   1      41.014  30.750  29.999  1.00  0.00     0.049 A 
ATOM     50  C   UNL A   1      45.576  28.797  27.371  1.00  0.00     0.074 A 
ATOM     51  C   UNL A   1      41.113  32.019  30.543  1.00  0.00     0.029 A 
ATOM     52  N   UNL A   1      42.226  30.493  29.370  1.00  0.00    -0.354 N 
ATOM     53  N   UNL A   1      44.592  29.380  28.016  1.00  0.00    -0.248 NA
ATOM     54  C   UNL A   1      46.750  29.656  27.164  1.00  0.00     0.031 C 
ATOM     55  C   UNL A   1      42.359  32.550  30.197  1.00  0.00     0.029 A 
ATOM     56  C   UNL A   1      43.065  31.590  29.491  1.00  0.00     0.049 A 
ATOM     57  H   UNL A   1      42.455  29.656  28.907  1.00  0.00     0.167 HD
ATOM     58  C   UNL A   1      45.044  30.662  28.319  1.00  0.00     0.074 A 
ATOM     59  C   UNL A   1      46.392  30.761  27.799  1.00  0.00     0.031 C 
ATOM     60  C   UNL A   1      44.406  31.667  28.966  1.00  0.00     0.034 A 
BRANCH  47  61
ATOM     61  C   UNL A   1      38.627  30.279  30.722  1.00  0.00     0.023 A 
ATOM     62  C   UNL A   1      37.604  30.922  30.002  1.00  0.00     0.031 A 
ATOM     63  C   UNL A   1      38.430  30.071  32.099  1.00  0.00     0.131 A 
ATOM     64  C   UNL A   1      36.469  31.400  30.673  1.00  0.00     0.055 A 
ATOM     65  C   UNL A   1      37.261  30.476  32.745  1.00  0.00     0.041 A 
ATOM     66  F   UNL A   1      39.378  29.478  32.843  1.00  0.00    -0.206 F 
ATOM     67  C   UNL A   1      36.278  31.158  32.034  1.00  0.00     0.022 A 
BRANCH  64  68
ATOM     68  S   UNL A   1      35.311  32.456  29.761  1.00  0.00     0.124 S 
ATOM     69  O   UNL A   1      34.840  31.544  28.721  1.00  0.00    -0.237 OA
ATOM     70  O   UNL A   1      34.337  32.815  30.785  1.00  0.00    -0.237 OA
ATOM     71  O   UNL A   1      36.151  33.553  29.285  1.00  0.00    -0.744 OA
ENDBRANCH  64  68
ENDBRANCH  47  61
BRANCH  48  72
ATOM     72  C   UNL A   1      46.870  26.938  26.089  1.00  0.00     0.023 A 
ATOM     73  C   UNL A   1      47.912  26.289  26.771  1.00  0.00     0.031 A 
ATOM     74  C   UNL A   1      47.048  27.206  24.720  1.00  0.00     0.131 A 
ATOM     75  C   UNL A   1      49.108  25.988  26.102  1.00  0.00     0.055 A 
ATOM     76  C   UNL A   1      48.215  26.848  24.043  1.00  0.00     0.041 A 
ATOM     77  F   UNL A   1      46.085  27.823  24.017  1.00  0.00    -0.206 F 
ATOM     78  C   UNL A   1      49.262  26.252  24.738  1.00  0.00     0.022 A 
BRANCH  75  79
ATOM     79  S   UNL A   1      50.507  25.359  27.070  1.00  0.00     0.124 S 
ATOM     80  O   UNL A   1      50.895  26.541  27.832  1.00  0.00    -0.237 OA
ATOM     81  O   UNL A   1      49.886  24.280  27.830  1.00  0.00    -0.237 OA
ATOM     82  O   UNL A   1      51.461  24.933  26.050  1.00  0.00    -0.744 OA
ENDBRANCH  75  79
ENDBRANCH  48  72
BRANCH  60  83
ATOM     83  C   UNL A   1      45.179  32.943  29.184  1.00  0.00     0.023 A 
ATOM     84  C   UNL A   1      45.144  33.992  28.251  1.00  0.00     0.031 A 
ATOM     85  C   UNL A   1      45.954  33.109  30.345  1.00  0.00     0.131 A 
ATOM     86  C   UNL A   1      45.904  35.150  28.476  1.00  0.00     0.055 A 
ATOM     87  C   UNL A   1      46.666  34.283  30.588  1.00  0.00     0.041 A 
ATOM     88  F   UNL A   1      46.022  32.135  31.267  1.00  0.00    -0.206 F 
ATOM     89  C   UNL A   1      46.650  35.309  29.646  1.00  0.00     0.022 A 
BRANCH  86  90
ATOM     90  S   UNL A   1      45.949  36.425  27.187  1.00  0.00     0.124 S 
ATOM     91  O   UNL A   1      46.292  35.646  26.002  1.00  0.00    -0.237 OA
ATOM     92  O   UNL A   1      44.593  36.960  27.227  1.00  0.00    -0.237 OA
ATOM     93  O   UNL A   1      46.990  37.342  27.650  1.00  0.00    -0.744 OA
ENDBRANCH  86  90
ENDBRANCH  60  83
ENDBRANCH  34  35
ENDBRANCH  26  29
ENDBRANCH   1  25
TORSDOF 14
ENDMDL
MODEL 2
REMARK VINA RESULT:     -13.2      4.987      9.840
REMARK SMILES O=C(NCCCNC(=O)c1ccc(-c2c3nc(c(-c4cc(S(=O)(=O)[O-])ccc4F)c4ccc([nH]4)c(-c4cc(S(=O)(=O)[O-])ccc4F)c4nc(c(-c5cc(S(=O)(=O)[O-])ccc5F)c5ccc2[nH]5)C=C4)C=C3)cc1)C1=Cc2c(cc(Cl)c(Cl)c2Cl)O[C@H]1C(F)(F)F
REMARK SMILES IDX 6 1 5 2 4 3 3 4 1 5 2 6 73 8 74 9 85 10 75 11 84 12 76 13
REMARK SMILES IDX 82 14 77 15 80 16 83 17 78 18 81 19 79 20 86 21 87 22 88 23
REMARK SMILES IDX 89 24 7 25 8 26 9 28 10 29 11 30 72 31 12 32 71 33 13 34
REMARK SMILES IDX 14 35 15 36 65 37 16 38 70 39 64 40 66 41 17 42 69 43 63 44
REMARK SMILES IDX 62 45 18 47 50 48 30 49 49 50 31 51 34 52 48 53 67 54 32 55
REMARK SMILES IDX 33 56 47 58 68 59 35 60 19 61 20 62 28 63 21 64 27 65 29 66
REMARK SMILES IDX 26 67 22 68 23 69 24 70 25 71 51 72 52 73 60 74 53 75 59 76
REMARK SMILES IDX 61 77 58 78 54 79 55 80 56 81 57 82 36 83 37 84 45 85 38 86
REMARK SMILES IDX 44 87 46 88 43 89 39 90 40 91 41 92 42 93
REMARK H PARENT 3 7 7 27 66 46 34 57
REMARK Flexibility Score: inf
ROOT
ATOM      1  C   UNL A   1      32.786  29.151  25.431  1.00  0.00     0.118 C 
ENDROOT
BRANCH   1   2
ATOM      2  C   UNL A   1      33.553  29.293  24.125  1.00  0.00     0.042 C 
BRANCH   2   3
ATOM      3  C   UNL A   1      32.765  28.917  22.884  1.00  0.00     0.118 C 
BRANCH   3   4
ATOM      4  N   UNL A   1      33.267  27.803  22.100  1.00  0.00    -0.352 N 
ATOM      5  O   UNL A   1      33.650  25.632  21.611  1.00  0.00    -0.270 OA
ATOM      6  C   UNL A   1      33.149  26.462  22.362  1.00  0.00     0.251 C 
ATOM      7  H   UNL A   1      33.754  28.039  21.278  1.00  0.00     0.163 HD
BRANCH   6   8
ATOM      8  C   UNL A   1      32.445  25.995  23.589  1.00  0.00     0.067 C 
ATOM      9  C   UNL A   1      33.188  25.528  24.608  1.00  0.00     0.027 C 
ATOM     10  C   UNL A   1      31.026  25.531  23.388  1.00  0.00     0.314 C 
ATOM     11  C   UNL A   1      33.073  24.050  24.716  1.00  0.00     0.037 A 
ATOM     12  O   UNL A   1      30.803  24.154  23.826  1.00  0.00    -0.475 OA
ATOM     13  C   UNL A   1      31.899  23.442  24.248  1.00  0.00     0.131 A 
ATOM     14  C   UNL A   1      34.183  23.257  25.070  1.00  0.00     0.072 A 
ATOM     15  C   UNL A   1      31.851  22.064  24.061  1.00  0.00     0.069 A 
ATOM     16  C   UNL A   1      34.149  21.869  24.847  1.00  0.00     0.079 A 
ATOM     17  Cl  UNL A   1      35.613  24.033  25.685  1.00  0.00    -0.082 Cl
ATOM     18  C   UNL A   1      32.986  21.287  24.314  1.00  0.00     0.064 A 
ATOM     19  Cl  UNL A   1      35.551  20.895  25.162  1.00  0.00    -0.081 Cl
ATOM     20  Cl  UNL A   1      32.906  19.617  23.872  1.00  0.00    -0.083 Cl
BRANCH  10  21
ATOM     21  C   UNL A   1      30.008  26.479  24.054  1.00  0.00     0.429 C 
ATOM     22  F   UNL A   1      30.025  27.728  23.529  1.00  0.00    -0.167 F 
ATOM     23  F   UNL A   1      28.744  26.011  23.922  1.00  0.00    -0.167 F 
ATOM     24  F   UNL A   1      30.242  26.620  25.383  1.00  0.00    -0.167 F 
ENDBRANCH  10  21
ENDBRANCH   6   8
ENDBRANCH   3   4
ENDBRANCH   2   3
ENDBRANCH   1   2
BRANCH   1  25
ATOM     25  N   UNL A   1      32.404  30.423  26.038  1.00  0.00    -0.352 N 
ATOM     26  C   UNL A   1      33.026  31.257  26.941  1.00  0.00     0.251 C 
ATOM     27  H   UNL A   1      31.523  30.751  25.743  1.00  0.00     0.163 HD
ATOM     28  O   UNL A   1      32.407  32.239  27.351  1.00  0.00    -0.269 OA
BRANCH  26  29
ATOM     29  C   UNL A   1      34.387  30.981  27.462  1.00  0.00     0.039 A 
ATOM     30  C   UNL A   1      35.284  32.046  27.627  1.00  0.00     0.014 A 
ATOM     31  C   UNL A   1      34.805  29.691  27.773  1.00  0.00     0.014 A 
ATOM     32  C   UNL A   1      36.533  31.828  28.222  1.00  0.00     0.010 A 
ATOM     33  C   UNL A   1      35.994  29.493  28.468  1.00  0.00     0.010 A 
ATOM     34  C   UNL A   1      36.868  30.561  28.720  1.00  0.00    -0.014 A 
BRANCH  34  35
ATOM     35  C   UNL A   1      38.102  30.303  29.517  1.00  0.00     0.031 A 
ATOM     36  C   UNL A   1      39.139  29.340  28.998  1.00  0.00     0.074 A 
ATOM     37  C   UNL A   1      38.230  30.827  30.753  1.00  0.00     0.049 A 
ATOM     38  N   UNL A   1      40.139  28.777  29.625  1.00  0.00    -0.248 NA
ATOM     39  C   UNL A   1      39.001  28.924  27.593  1.00  0.00     0.031 C 
ATOM     40  C   UNL A   1      37.293  31.761  31.384  1.00  0.00     0.029 A 
ATOM     41  N   UNL A   1      39.190  30.631  31.718  1.00  0.00    -0.354 N 
ATOM     42  C   UNL A   1      40.730  27.918  28.703  1.00  0.00     0.074 A 
ATOM     43  C   UNL A   1      39.938  27.992  27.495  1.00  0.00     0.031 C 
ATOM     44  C   UNL A   1      37.732  32.068  32.614  1.00  0.00     0.029 A 
ATOM     45  C   UNL A   1      38.941  31.301  32.895  1.00  0.00     0.049 A 
ATOM     46  H   UNL A   1      39.983  30.063  31.579  1.00  0.00     0.167 HD
ATOM     47  C   UNL A   1      41.844  27.157  28.844  1.00  0.00     0.034 A 
ATOM     48  C   UNL A   1      39.590  31.275  34.077  1.00  0.00     0.034 A 
ATOM     49  C   UNL A   1      42.644  27.121  30.042  1.00  0.00     0.049 A 
ATOM     50  C   UNL A   1      40.795  30.379  34.225  1.00  0.00     0.074 A 
ATOM     51  C   UNL A   1      43.818  26.426  30.277  1.00  0.00     0.029 A 
ATOM     52  N   UNL A   1      42.356  27.817  31.210  1.00  0.00    -0.354 N 
ATOM     53  N   UNL A   1      41.347  29.583  33.338  1.00  0.00    -0.248 NA
ATOM     54  C   UNL A   1      41.461  30.372  35.535  1.00  0.00     0.031 C 
ATOM     55  C   UNL A   1      44.208  26.655  31.600  1.00  0.00     0.029 A 
ATOM     56  C   UNL A   1      43.315  27.544  32.173  1.00  0.00     0.049 A 
ATOM     57  H   UNL A   1      41.585  28.415  31.335  1.00  0.00     0.167 HD
ATOM     58  C   UNL A   1      42.442  29.007  33.976  1.00  0.00     0.074 A 
ATOM     59  C   UNL A   1      42.481  29.557  35.315  1.00  0.00     0.031 C 
ATOM     60  C   UNL A   1      43.335  28.104  33.502  1.00  0.00     0.034 A 
BRANCH  47  61
ATOM     61  C   UNL A   1      42.254  26.299  27.673  1.00  0.00     0.023 A 
ATOM     62  C   UNL A   1      41.786  24.982  27.528  1.00  0.00     0.031 A 
ATOM     63  C   UNL A   1      43.132  26.796  26.692  1.00  0.00     0.131 A 
ATOM     64  C   UNL A   1      42.254  24.183  26.475  1.00  0.00     0.055 A 
ATOM     65  C   UNL A   1      43.530  26.022  25.600  1.00  0.00     0.041 A 
ATOM     66  F   UNL A   1      43.626  28.041  26.784  1.00  0.00    -0.206 F 
ATOM     67  C   UNL A   1      43.102  24.702  25.495  1.00  0.00     0.022 A 
BRANCH  64  68
ATOM     68  S   UNL A   1      41.840  22.418  26.483  1.00  0.00     0.124 S 
ATOM     69  O   UNL A   1      42.292  22.016  27.814  1.00  0.00    -0.237 OA
ATOM     70  O   UNL A   1      40.397  22.430  26.275  1.00  0.00    -0.237 OA
ATOM     71  O   UNL A   1      42.627  21.877  25.376  1.00  0.00    -0.744 OA
ENDBRANCH  64  68
ENDBRANCH  47  61
BRANCH  48  72
ATOM     72  C   UNL A   1      39.110  32.087  35.234  1.00  0.00     0.023 A 
ATOM     73  C   UNL A   1      39.570  33.400  35.425  1.00  0.00     0.031 A 
ATOM     74  C   UNL A   1      38.250  31.545  36.206  1.00  0.00     0.131 A 
ATOM     75  C   UNL A   1      39.220  34.105  36.588  1.00  0.00     0.055 A 
ATOM     76  C   UNL A   1      37.854  32.273  37.330  1.00  0.00     0.041 A 
ATOM     77  F   UNL A   1      37.778  30.295  36.076  1.00  0.00    -0.206 F 
ATOM     78  C   UNL A   1      38.354  33.555  37.536  1.00  0.00     0.022 A 
BRANCH  75  79
ATOM     79  S   UNL A   1      40.014  35.705  36.901  1.00  0.00     0.124 S 
ATOM     80  O   UNL A   1      39.653  36.454  35.702  1.00  0.00    -0.237 OA
ATOM     81  O   UNL A   1      39.366  36.126  38.139  1.00  0.00    -0.237 OA
ATOM     82  O   UNL A   1      41.429  35.365  37.022  1.00  0.00    -0.744 OA
ENDBRANCH  75  79
ENDBRANCH  48  72
BRANCH  60  83
ATOM     83  C   UNL A   1      44.452  27.693  34.427  1.00  0.00     0.023 A 
ATOM     84  C   UNL A   1      44.300  26.636  35.339  1.00  0.00     0.031 A 
ATOM     85  C   UNL A   1      45.686  28.366  34.386  1.00  0.00     0.131 A 
ATOM     86  C   UNL A   1      45.354  26.306  36.205  1.00  0.00     0.055 A 
ATOM     87  C   UNL A   1      46.748  28.000  35.213  1.00  0.00     0.041 A 
ATOM     88  F   UNL A   1      45.882  29.384  33.532  1.00  0.00    -0.206 F 
ATOM     89  C   UNL A   1      46.582  26.970  36.136  1.00  0.00     0.022 A 
BRANCH  86  90
ATOM     90  S   UNL A   1      45.077  25.033  37.466  1.00  0.00     0.124 S 
ATOM     91  O   UNL A   1      43.653  25.187  37.746  1.00  0.00    -0.237 OA
ATOM     92  O   UNL A   1      45.460  23.811  36.768  1.00  0.00    -0.237 OA
ATOM     93  O   UNL A   1      45.970  25.430  38.554  1.00  0.00    -0.744 OA
ENDBRANCH  86  90
ENDBRANCH  60  83
ENDBRANCH  34  35
ENDBRANCH  26  29
ENDBRANCH   1  25
TORSDOF 14
ENDMDL
MODEL 3
REMARK VINA RESULT:     -13.1      1.412      1.677
REMARK SMILES O=C(NCCCNC(=O)c1ccc(-c2c3nc(c(-c4cc(S(=O)(=O)[O-])ccc4F)c4ccc([nH]4)c(-c4cc(S(=O)(=O)[O-])ccc4F)c4nc(c(-c5cc(S(=O)(=O)[O-])ccc5F)c5ccc2[nH]5)C=C4)C=C3)cc1)C1=Cc2c(cc(Cl)c(Cl)c2Cl)O[C@H]1C(F)(F)F
REMARK SMILES IDX 6 1 5 2 4 3 3 4 1 5 2 6 73 8 74 9 85 10 75 11 84 12 76 13
REMARK SMILES IDX 82 14 77 15 80 16 83 17 78 18 81 19 79 20 86 21 87 22 88 23
REMARK SMILES IDX 89 24 7 25 8 26 9 28 10 29 11 30 72 31 12 32 71 33 13 34
REMARK SMILES IDX 14 35 15 36 65 37 16 38 70 39 64 40 66 41 17 42 69 43 63 44
REMARK SMILES IDX 62 45 18 47 50 48 30 49 49 50 31 51 34 52 48 53 67 54 32 55
REMARK SMILES IDX 33 56 47 58 68 59 35 60 19 61 20 62 28 63 21 64 27 65 29 66
REMARK SMILES IDX 26 67 22 68 23 69 24 70 25 71 51 72 52 73 60 74 53 75 59 76
REMARK SMILES IDX 61 77 58 78 54 79 55 80 56 81 57 82 36 83 37 84 45 85 38 86
REMARK SMILES IDX 44 87 46 88 43 89 39 90 40 91 41 92 42 93
REMARK H PARENT 3 7 7 27 66 46 34 57
REMARK Flexibility Score: inf
ROOT
ATOM      1  C   UNL A   1      36.041  22.061  25.598  1.00  0.00     0.118 C 
ENDROOT
BRANCH   1   2
ATOM      2  C   UNL A   1      35.178  21.797  26.823  1.00  0.00     0.042 C 
BRANCH   2   3
ATOM      3  C   UNL A   1      33.740  21.419  26.516  1.00  0.00     0.118 C 
BRANCH   3   4
ATOM      4  N   UNL A   1      32.706  22.293  27.038  1.00  0.00    -0.352 N 
ATOM      5  O   UNL A   1      31.344  24.094  27.059  1.00  0.00    -0.270 OA
ATOM      6  C   UNL A   1      32.210  23.444  26.482  1.00  0.00     0.251 C 
ATOM      7  H   UNL A   1      32.310  22.026  27.900  1.00  0.00     0.163 HD
BRANCH   6   8
ATOM      8  C   UNL A   1      32.750  23.948  25.188  1.00  0.00     0.067 C 
ATOM      9  C   UNL A   1      33.400  25.125  25.186  1.00  0.00     0.027 C 
ATOM     10  C   UNL A   1      32.049  23.447  23.953  1.00  0.00     0.314 C 
ATOM     11  C   UNL A   1      32.573  26.188  24.556  1.00  0.00     0.037 A 
ATOM     12  O   UNL A   1      31.519  24.523  23.116  1.00  0.00    -0.475 OA
ATOM     13  C   UNL A   1      31.624  25.805  23.596  1.00  0.00     0.131 A 
ATOM     14  C   UNL A   1      32.579  27.506  25.053  1.00  0.00     0.072 A 
ATOM     15  C   UNL A   1      30.641  26.701  23.188  1.00  0.00     0.069 A 
ATOM     16  C   UNL A   1      31.565  28.401  24.670  1.00  0.00     0.079 A 
ATOM     17  Cl  UNL A   1      33.792  27.965  26.213  1.00  0.00    -0.082 Cl
ATOM     18  C   UNL A   1      30.583  27.978  23.758  1.00  0.00     0.064 A 
ATOM     19  Cl  UNL A   1      31.487  29.990  25.366  1.00  0.00    -0.081 Cl
ATOM     20  Cl  UNL A   1      29.220  28.958  23.343  1.00  0.00    -0.083 Cl
BRANCH  10  21
ATOM     21  C   UNL A   1      32.946  22.509  23.119  1.00  0.00     0.429 C 
ATOM     22  F   UNL A   1      32.907  21.223  23.545  1.00  0.00    -0.167 F 
ATOM     23  F   UNL A   1      32.574  22.507  21.816  1.00  0.00    -0.167 F 
ATOM     24  F   UNL A   1      34.248  22.886  23.159  1.00  0.00    -0.167 F 
ENDBRANCH  10  21
ENDBRANCH   6   8
ENDBRANCH   3   4
ENDBRANCH   2   3
ENDBRANCH   1   2
BRANCH   1  25
ATOM     25  N   UNL A   1      37.145  21.119  25.434  1.00  0.00    -0.352 N 
ATOM     26  C   UNL A   1      38.490  21.190  25.721  1.00  0.00     0.251 C 
ATOM     27  H   UNL A   1      36.873  20.259  25.038  1.00  0.00     0.163 HD
ATOM     28  O   UNL A   1      39.211  20.253  25.378  1.00  0.00    -0.269 OA
BRANCH  26  29
ATOM     29  C   UNL A   1      39.094  22.373  26.380  1.00  0.00     0.039 A 
ATOM     30  C   UNL A   1      40.119  22.183  27.318  1.00  0.00     0.014 A 
ATOM     31  C   UNL A   1      38.659  23.666  26.108  1.00  0.00     0.014 A 
ATOM     32  C   UNL A   1      40.782  23.287  27.870  1.00  0.00     0.010 A 
ATOM     33  C   UNL A   1      39.391  24.758  26.564  1.00  0.00     0.010 A 
ATOM     34  C   UNL A   1      40.475  24.585  27.438  1.00  0.00    -0.014 A 
BRANCH  34  35
ATOM     35  C   UNL A   1      41.259  25.784  27.852  1.00  0.00     0.031 A 
ATOM     36  C   UNL A   1      40.585  26.885  28.630  1.00  0.00     0.074 A 
ATOM     37  C   UNL A   1      42.528  25.943  27.422  1.00  0.00     0.049 A 
ATOM     38  N   UNL A   1      40.990  28.107  28.863  1.00  0.00    -0.248 NA
ATOM     39  C   UNL A   1      39.255  26.578  29.181  1.00  0.00     0.031 C 
ATOM     40  C   UNL A   1      43.295  24.963  26.649  1.00  0.00     0.029 A 
ATOM     41  N   UNL A   1      43.395  27.003  27.553  1.00  0.00    -0.354 N 
ATOM     42  C   UNL A   1      39.955  28.723  29.560  1.00  0.00     0.074 A 
ATOM     43  C   UNL A   1      38.882  27.757  29.655  1.00  0.00     0.031 C 
ATOM     44  C   UNL A   1      44.516  25.458  26.392  1.00  0.00     0.029 A 
ATOM     45  C   UNL A   1      44.601  26.816  26.915  1.00  0.00     0.049 A 
ATOM     46  H   UNL A   1      43.173  27.820  28.057  1.00  0.00     0.167 HD
ATOM     47  C   UNL A   1      39.914  29.971  30.091  1.00  0.00     0.034 A 
ATOM     48  C   UNL A   1      45.643  27.654  26.740  1.00  0.00     0.034 A 
ATOM     49  C   UNL A   1      41.004  30.909  30.019  1.00  0.00     0.049 A 
ATOM     50  C   UNL A   1      45.550  29.056  27.293  1.00  0.00     0.074 A 
ATOM     51  C   UNL A   1      41.088  32.179  30.564  1.00  0.00     0.029 A 
ATOM     52  N   UNL A   1      42.208  30.679  29.365  1.00  0.00    -0.354 N 
ATOM     53  N   UNL A   1      44.568  29.617  27.960  1.00  0.00    -0.248 NA
ATOM     54  C   UNL A   1      46.702  29.938  27.065  1.00  0.00     0.031 C 
ATOM     55  C   UNL A   1      42.316  32.737  30.193  1.00  0.00     0.029 A 
ATOM     56  C   UNL A   1      43.027  31.792  29.471  1.00  0.00     0.049 A 
ATOM     57  H   UNL A   1      42.444  29.847  28.895  1.00  0.00     0.167 HD
ATOM     58  C   UNL A   1      45.000  30.907  28.256  1.00  0.00     0.074 A 
ATOM     59  C   UNL A   1      46.335  31.035  27.710  1.00  0.00     0.031 C 
ATOM     60  C   UNL A   1      44.355  31.898  28.918  1.00  0.00     0.034 A 
BRANCH  47  61
ATOM     61  C   UNL A   1      38.643  30.388  30.789  1.00  0.00     0.023 A 
ATOM     62  C   UNL A   1      37.602  31.032  30.097  1.00  0.00     0.031 A 
ATOM     63  C   UNL A   1      38.469  30.151  32.164  1.00  0.00     0.131 A 
ATOM     64  C   UNL A   1      36.472  31.485  30.793  1.00  0.00     0.055 A 
ATOM     65  C   UNL A   1      37.304  30.531  32.835  1.00  0.00     0.041 A 
ATOM     66  F   UNL A   1      39.434  29.556  32.883  1.00  0.00    -0.206 F 
ATOM     67  C   UNL A   1      36.304  31.215  32.152  1.00  0.00     0.022 A 
BRANCH  64  68
ATOM     68  S   UNL A   1      35.289  32.544  29.919  1.00  0.00     0.124 S 
ATOM     69  O   UNL A   1      34.855  31.666  28.834  1.00  0.00    -0.237 OA
ATOM     70  O   UNL A   1      34.296  32.827  30.948  1.00  0.00    -0.237 OA
ATOM     71  O   UNL A   1      36.098  33.687  29.500  1.00  0.00    -0.744 OA
ENDBRANCH  64  68
ENDBRANCH  47  61
BRANCH  48  72
ATOM     72  C   UNL A   1      46.856  27.225  25.982  1.00  0.00     0.023 A 
ATOM     73  C   UNL A   1      47.103  27.719  24.691  1.00  0.00     0.031 A 
ATOM     74  C   UNL A   1      47.743  26.262  26.497  1.00  0.00     0.131 A 
ATOM     75  C   UNL A   1      48.169  27.207  23.935  1.00  0.00     0.055 A 
ATOM     76  C   UNL A   1      48.839  25.802  25.766  1.00  0.00     0.041 A 
ATOM     77  F   UNL A   1      47.556  25.755  27.726  1.00  0.00    -0.206 F 
ATOM     78  C   UNL A   1      49.047  26.260  24.469  1.00  0.00     0.022 A 
BRANCH  75  79
ATOM     79  S   UNL A   1      48.317  27.706  22.198  1.00  0.00     0.124 S 
ATOM     80  O   UNL A   1      49.546  28.492  22.220  1.00  0.00    -0.237 OA
ATOM     81  O   UNL A   1      48.391  26.418  21.518  1.00  0.00    -0.237 OA
ATOM     82  O   UNL A   1      47.094  28.468  21.959  1.00  0.00    -0.744 OA
ENDBRANCH  75  79
ENDBRANCH  48  72
BRANCH  60  83
ATOM     83  C   UNL A   1      45.106  33.189  29.123  1.00  0.00     0.023 A 
ATOM     84  C   UNL A   1      45.068  34.220  28.170  1.00  0.00     0.031 A 
ATOM     85  C   UNL A   1      45.862  33.388  30.292  1.00  0.00     0.131 A 
ATOM     86  C   UNL A   1      45.807  35.393  28.385  1.00  0.00     0.055 A 
ATOM     87  C   UNL A   1      46.553  34.577  30.523  1.00  0.00     0.041 A 
ATOM     88  F   UNL A   1      45.931  32.432  31.232  1.00  0.00    -0.206 F 
ATOM     89  C   UNL A   1      46.535  35.585  29.562  1.00  0.00     0.022 A 
BRANCH  86  90
ATOM     90  S   UNL A   1      45.852  36.645  27.073  1.00  0.00     0.124 S 
ATOM     91  O   UNL A   1      44.454  37.058  27.000  1.00  0.00    -0.237 OA
ATOM     92  O   UNL A   1      46.781  37.632  27.613  1.00  0.00    -0.237 OA
ATOM     93  O   UNL A   1      46.343  35.905  25.911  1.00  0.00    -0.744 OA
ENDBRANCH  86  90
ENDBRANCH  60  83
ENDBRANCH  34  35
ENDBRANCH  26  29
ENDBRANCH   1  25
TORSDOF 14
ENDMDL
