MODEL 1
REMARK VINA RESULT:     -11.8      0.000      0.000
REMARK SMILES Cc1cc(C(=O)N[C@@H](C)C(=O)NCCCNC(=O)c2ccc(-c3c4nc(c(-c5cc(S(=O)(=O)[O-])ccc5F)c5ccc([nH]5)c(-c5cc(S(=O)(=O)[O-])ccc5F)c5nc(c(-c6cc(S(=O)(=O)[O-])ccc6F)c6ccc3[nH]6)C=C5)C=C4)cc2)cc(C)c1OC(F)F
REMARK SMILES IDX 13 1 12 2 10 3 11 4 8 6 9 7 7 8 5 9 6 10 4 12 1 13 2 14 3 15
REMARK SMILES IDX 85 16 83 17 82 18 84 19 86 20 87 21 88 22 89 23 14 24 15 25
REMARK SMILES IDX 16 26 17 27 18 29 19 30 20 31 81 32 21 33 80 34 22 35 23 36
REMARK SMILES IDX 24 37 74 38 25 39 79 40 73 41 75 42 26 43 78 44 72 45 71 46
REMARK SMILES IDX 27 48 59 49 39 50 58 51 40 52 43 53 57 54 76 55 41 56 42 57
REMARK SMILES IDX 56 59 77 60 44 61 28 62 29 63 37 64 30 65 36 66 38 67 35 68
REMARK SMILES IDX 31 69 32 70 33 71 34 72 60 73 61 74 69 75 62 76 68 77 70 78
REMARK SMILES IDX 67 79 63 80 64 81 65 82 66 83 45 84 46 85 54 86 47 87 53 88
REMARK SMILES IDX 55 89 52 90 48 91 49 92 50 93 51 94
REMARK H PARENT 12 5 7 11 16 28 75 47 43 58
REMARK Flexibility Score: inf
ROOT
ATOM      1  C   UNL A   1      35.205  21.186  25.775  1.00  0.00     0.117 C 
ENDROOT
BRANCH   1   2
ATOM      2  N   UNL A   1      33.979  20.422  25.618  1.00  0.00    -0.354 N 
ATOM      3  C   UNL A   1      32.738  20.803  25.199  1.00  0.00     0.242 C 
ATOM      4  O   UNL A   1      31.877  19.925  25.086  1.00  0.00    -0.273 OA
ATOM      5  H   UNL A   1      34.057  19.469  25.854  1.00  0.00     0.163 HD
BRANCH   3   6
ATOM      6  C   UNL A   1      32.398  22.277  24.899  1.00  0.00     0.168 C 
ATOM      7  C   UNL A   1      31.006  22.698  25.351  1.00  0.00     0.041 C 
BRANCH   6   8
ATOM      8  N   UNL A   1      32.693  22.550  23.493  1.00  0.00    -0.341 N 
ATOM      9  C   UNL A   1      32.962  23.713  22.805  1.00  0.00     0.251 C 
ATOM     10  O   UNL A   1      33.317  23.602  21.632  1.00  0.00    -0.269 OA
ATOM     11  H   UNL A   1      32.702  21.745  22.926  1.00  0.00     0.164 HD
BRANCH   9  12
ATOM     12  C   UNL A   1      32.740  25.078  23.363  1.00  0.00     0.040 A 
ATOM     13  C   UNL A   1      30.007  27.632  22.838  1.00  0.00     0.048 C 
ATOM     14  C   UNL A   1      31.218  27.032  23.495  1.00  0.00    -0.008 A 
ATOM     15  C   UNL A   1      31.612  25.788  22.931  1.00  0.00     0.021 A 
ATOM     16  C   UNL A   1      31.938  27.512  24.601  1.00  0.00     0.131 A 
ATOM     17  C   UNL A   1      33.124  26.838  24.985  1.00  0.00    -0.008 A 
ATOM     18  C   UNL A   1      33.553  25.688  24.299  1.00  0.00     0.021 A 
ATOM     19  C   UNL A   1      33.934  27.229  26.197  1.00  0.00     0.048 C 
BRANCH  16  20
ATOM     20  O   UNL A   1      31.631  28.525  25.459  1.00  0.00    -0.434 OA
BRANCH  20  21
ATOM     21  C   UNL A   1      31.888  29.886  25.197  1.00  0.00     0.542 C 
ATOM     22  F   UNL A   1      30.750  30.613  25.228  1.00  0.00    -0.167 F 
ATOM     23  F   UNL A   1      32.765  30.367  26.107  1.00  0.00    -0.167 F 
ENDBRANCH  20  21
ENDBRANCH  16  20
ENDBRANCH   9  12
ENDBRANCH   6   8
ENDBRANCH   3   6
ENDBRANCH   1   2
BRANCH   1  24
ATOM     24  C   UNL A   1      35.799  21.653  24.456  1.00  0.00     0.042 C 
BRANCH  24  25
ATOM     25  C   UNL A   1      37.305  21.877  24.482  1.00  0.00     0.118 C 
BRANCH  25  26
ATOM     26  N   UNL A   1      38.033  20.767  25.084  1.00  0.00    -0.352 N 
ATOM     27  C   UNL A   1      39.137  20.760  25.907  1.00  0.00     0.251 C 
ATOM     28  H   UNL A   1      37.677  19.875  24.865  1.00  0.00     0.163 HD
ATOM     29  O   UNL A   1      39.708  19.700  26.133  1.00  0.00    -0.269 OA
BRANCH  27  30
ATOM     30  C   UNL A   1      39.648  22.023  26.487  1.00  0.00     0.039 A 
ATOM     31  C   UNL A   1      40.667  21.965  27.442  1.00  0.00     0.014 A 
ATOM     32  C   UNL A   1      39.130  23.259  26.097  1.00  0.00     0.014 A 
ATOM     33  C   UNL A   1      41.233  23.148  27.925  1.00  0.00     0.010 A 
ATOM     34  C   UNL A   1      39.751  24.434  26.513  1.00  0.00     0.010 A 
ATOM     35  C   UNL A   1      40.820  24.391  27.420  1.00  0.00    -0.014 A 
BRANCH  35  36
ATOM     36  C   UNL A   1      41.516  25.653  27.791  1.00  0.00     0.031 A 
ATOM     37  C   UNL A   1      40.766  26.757  28.488  1.00  0.00     0.074 A 
ATOM     38  C   UNL A   1      42.800  25.834  27.419  1.00  0.00     0.049 A 
ATOM     39  N   UNL A   1      41.164  27.967  28.783  1.00  0.00    -0.248 NA
ATOM     40  C   UNL A   1      39.377  26.469  28.881  1.00  0.00     0.031 C 
ATOM     41  C   UNL A   1      43.620  24.850  26.707  1.00  0.00     0.029 A 
ATOM     42  N   UNL A   1      43.639  26.912  27.568  1.00  0.00    -0.354 N 
ATOM     43  C   UNL A   1      40.074  28.591  29.382  1.00  0.00     0.074 A 
ATOM     44  C   UNL A   1      38.985  27.638  29.366  1.00  0.00     0.031 C 
ATOM     45  C   UNL A   1      44.842  25.363  26.495  1.00  0.00     0.029 A 
ATOM     46  C   UNL A   1      44.880  26.732  26.998  1.00  0.00     0.049 A 
ATOM     47  H   UNL A   1      43.377  27.737  28.038  1.00  0.00     0.167 HD
ATOM     48  C   UNL A   1      39.998  29.839  29.905  1.00  0.00     0.034 A 
ATOM     49  C   UNL A   1      45.919  27.581  26.865  1.00  0.00     0.034 A 
ATOM     50  C   UNL A   1      41.099  30.771  29.925  1.00  0.00     0.049 A 
ATOM     51  C   UNL A   1      45.789  28.978  27.424  1.00  0.00     0.074 A 
ATOM     52  C   UNL A   1      41.147  32.030  30.496  1.00  0.00     0.029 A 
ATOM     53  N   UNL A   1      42.338  30.555  29.336  1.00  0.00    -0.354 N 
ATOM     54  N   UNL A   1      44.771  29.527  28.047  1.00  0.00    -0.248 NA
ATOM     55  C   UNL A   1      46.948  29.866  27.268  1.00  0.00     0.031 C 
ATOM     56  C   UNL A   1      42.382  32.607  30.183  1.00  0.00     0.029 A 
ATOM     57  C   UNL A   1      43.140  31.676  29.492  1.00  0.00     0.049 A 
ATOM     58  H   UNL A   1      42.609  29.727  28.876  1.00  0.00     0.167 HD
ATOM     59  C   UNL A   1      45.182  30.815  28.381  1.00  0.00     0.074 A 
ATOM     60  C   UNL A   1      46.547  30.949  27.915  1.00  0.00     0.031 C 
ATOM     61  C   UNL A   1      44.496  31.800  29.014  1.00  0.00     0.034 A 
BRANCH  48  62
ATOM     62  C   UNL A   1      38.674  30.286  30.475  1.00  0.00     0.023 A 
ATOM     63  C   UNL A   1      37.721  30.966  29.698  1.00  0.00     0.031 A 
ATOM     64  C   UNL A   1      38.350  30.001  31.814  1.00  0.00     0.131 A 
ATOM     65  C   UNL A   1      36.511  31.379  30.276  1.00  0.00     0.055 A 
ATOM     66  C   UNL A   1      37.115  30.351  32.364  1.00  0.00     0.041 A 
ATOM     67  F   UNL A   1      39.230  29.374  32.611  1.00  0.00    -0.206 F 
ATOM     68  C   UNL A   1      36.190  31.051  31.596  1.00  0.00     0.022 A 
BRANCH  65  69
ATOM     69  S   UNL A   1      35.403  32.440  29.311  1.00  0.00     0.124 S 
ATOM     70  O   UNL A   1      34.739  33.206  30.363  1.00  0.00    -0.237 OA
ATOM     71  O   UNL A   1      36.331  33.184  28.468  1.00  0.00    -0.237 OA
ATOM     72  O   UNL A   1      34.544  31.490  28.606  1.00  0.00    -0.744 OA
ENDBRANCH  65  69
ENDBRANCH  48  62
BRANCH  49  73
ATOM     73  C   UNL A   1      47.160  27.169  26.143  1.00  0.00     0.023 A 
ATOM     74  C   UNL A   1      48.175  26.454  26.798  1.00  0.00     0.031 A 
ATOM     75  C   UNL A   1      47.387  27.555  24.810  1.00  0.00     0.131 A 
ATOM     76  C   UNL A   1      49.393  26.209  26.145  1.00  0.00     0.055 A 
ATOM     77  C   UNL A   1      48.573  27.247  24.142  1.00  0.00     0.041 A 
ATOM     78  F   UNL A   1      46.452  28.242  24.132  1.00  0.00    -0.206 F 
ATOM     79  C   UNL A   1      49.594  26.587  24.816  1.00  0.00     0.022 A 
BRANCH  76  80
ATOM     80  S   UNL A   1      50.763  25.504  27.105  1.00  0.00     0.124 S 
ATOM     81  O   UNL A   1      50.135  24.326  27.694  1.00  0.00    -0.237 OA
ATOM     82  O   UNL A   1      51.759  25.251  26.070  1.00  0.00    -0.237 OA
ATOM     83  O   UNL A   1      51.100  26.570  28.048  1.00  0.00    -0.744 OA
ENDBRANCH  76  80
ENDBRANCH  49  73
BRANCH  61  84
ATOM     84  C   UNL A   1      45.232  33.093  29.273  1.00  0.00     0.023 A 
ATOM     85  C   UNL A   1      45.166  34.173  28.376  1.00  0.00     0.031 A 
ATOM     86  C   UNL A   1      46.019  33.240  30.429  1.00  0.00     0.131 A 
ATOM     87  C   UNL A   1      45.922  35.329  28.617  1.00  0.00     0.055 A 
ATOM     88  C   UNL A   1      46.715  34.419  30.699  1.00  0.00     0.041 A 
ATOM     89  F   UNL A   1      46.122  32.240  31.319  1.00  0.00    -0.206 F 
ATOM     90  C   UNL A   1      46.681  35.467  29.783  1.00  0.00     0.022 A 
BRANCH  87  91
ATOM     91  S   UNL A   1      45.981  36.614  27.340  1.00  0.00     0.124 S 
ATOM     92  O   UNL A   1      46.715  37.679  28.015  1.00  0.00    -0.237 OA
ATOM     93  O   UNL A   1      46.688  35.943  26.254  1.00  0.00    -0.237 OA
ATOM     94  O   UNL A   1      44.572  36.901  27.076  1.00  0.00    -0.744 OA
ENDBRANCH  87  91
ENDBRANCH  61  84
ENDBRANCH  35  36
ENDBRANCH  27  30
ENDBRANCH  25  26
ENDBRANCH  24  25
ENDBRANCH   1  24
TORSDOF 17
ENDMDL
MODEL 2
REMARK VINA RESULT:     -11.6      2.250      2.974
REMARK SMILES Cc1cc(C(=O)N[C@@H](C)C(=O)NCCCNC(=O)c2ccc(-c3c4nc(c(-c5cc(S(=O)(=O)[O-])ccc5F)c5ccc([nH]5)c(-c5cc(S(=O)(=O)[O-])ccc5F)c5nc(c(-c6cc(S(=O)(=O)[O-])ccc6F)c6ccc3[nH]6)C=C5)C=C4)cc2)cc(C)c1OC(F)F
REMARK SMILES IDX 13 1 12 2 10 3 11 4 8 6 9 7 7 8 5 9 6 10 4 12 1 13 2 14 3 15
REMARK SMILES IDX 85 16 83 17 82 18 84 19 86 20 87 21 88 22 89 23 14 24 15 25
REMARK SMILES IDX 16 26 17 27 18 29 19 30 20 31 81 32 21 33 80 34 22 35 23 36
REMARK SMILES IDX 24 37 74 38 25 39 79 40 73 41 75 42 26 43 78 44 72 45 71 46
REMARK SMILES IDX 27 48 59 49 39 50 58 51 40 52 43 53 57 54 76 55 41 56 42 57
REMARK SMILES IDX 56 59 77 60 44 61 28 62 29 63 37 64 30 65 36 66 38 67 35 68
REMARK SMILES IDX 31 69 32 70 33 71 34 72 60 73 61 74 69 75 62 76 68 77 70 78
REMARK SMILES IDX 67 79 63 80 64 81 65 82 66 83 45 84 46 85 54 86 47 87 53 88
REMARK SMILES IDX 55 89 52 90 48 91 49 92 50 93 51 94
REMARK H PARENT 12 5 7 11 16 28 75 47 43 58
REMARK Flexibility Score: inf
ROOT
ATOM      1  C   UNL A   1      36.390  21.268  25.376  1.00  0.00     0.117 C 
ENDROOT
BRANCH   1   2
ATOM      2  N   UNL A   1      35.232  20.391  25.334  1.00  0.00    -0.354 N 
ATOM      3  C   UNL A   1      33.929  20.619  25.668  1.00  0.00     0.242 C 
ATOM      4  O   UNL A   1      33.118  19.709  25.464  1.00  0.00    -0.273 OA
ATOM      5  H   UNL A   1      35.419  19.480  25.011  1.00  0.00     0.163 HD
BRANCH   3   6
ATOM      6  C   UNL A   1      33.471  21.948  26.302  1.00  0.00     0.168 C 
ATOM      7  C   UNL A   1      34.325  22.401  27.478  1.00  0.00     0.041 C 
BRANCH   6   8
ATOM      8  N   UNL A   1      32.038  21.865  26.582  1.00  0.00    -0.341 N 
ATOM      9  C   UNL A   1      30.965  22.630  26.183  1.00  0.00     0.251 C 
ATOM     10  O   UNL A   1      29.842  22.217  26.476  1.00  0.00    -0.269 OA
ATOM     11  H   UNL A   1      31.792  21.116  27.172  1.00  0.00     0.164 HD
BRANCH   9  12
ATOM     12  C   UNL A   1      31.092  23.963  25.526  1.00  0.00     0.040 A 
ATOM     13  C   UNL A   1      31.616  27.441  26.902  1.00  0.00     0.048 C 
ATOM     14  C   UNL A   1      31.531  26.383  25.838  1.00  0.00    -0.008 A 
ATOM     15  C   UNL A   1      31.256  25.086  26.347  1.00  0.00     0.021 A 
ATOM     16  C   UNL A   1      31.747  26.517  24.456  1.00  0.00     0.131 A 
ATOM     17  C   UNL A   1      31.501  25.401  23.619  1.00  0.00    -0.008 A 
ATOM     18  C   UNL A   1      31.087  24.171  24.160  1.00  0.00     0.021 A 
ATOM     19  C   UNL A   1      31.765  25.416  22.132  1.00  0.00     0.048 C 
BRANCH  16  20
ATOM     20  O   UNL A   1      32.252  27.573  23.758  1.00  0.00    -0.434 OA
BRANCH  20  21
ATOM     21  C   UNL A   1      32.153  28.915  24.178  1.00  0.00     0.542 C 
ATOM     22  F   UNL A   1      33.294  29.593  23.920  1.00  0.00    -0.167 F 
ATOM     23  F   UNL A   1      31.114  29.512  23.552  1.00  0.00    -0.167 F 
ENDBRANCH  20  21
ENDBRANCH  16  20
ENDBRANCH   9  12
ENDBRANCH   6   8
ENDBRANCH   3   6
ENDBRANCH   1   2
BRANCH   1  24
ATOM     24  C   UNL A   1      37.673  20.596  24.914  1.00  0.00     0.042 C 
BRANCH  24  25
ATOM     25  C   UNL A   1      38.901  20.929  25.751  1.00  0.00     0.118 C 
BRANCH  25  26
ATOM     26  N   UNL A   1      39.814  19.802  25.891  1.00  0.00    -0.352 N 
ATOM     27  C   UNL A   1      41.175  19.772  26.099  1.00  0.00     0.251 C 
ATOM     28  H   UNL A   1      39.388  18.917  25.827  1.00  0.00     0.163 HD
ATOM     29  O   UNL A   1      41.774  18.710  25.984  1.00  0.00    -0.269 OA
BRANCH  27  30
ATOM     30  C   UNL A   1      41.912  21.014  26.425  1.00  0.00     0.039 A 
ATOM     31  C   UNL A   1      42.258  21.888  25.391  1.00  0.00     0.014 A 
ATOM     32  C   UNL A   1      42.264  21.321  27.741  1.00  0.00     0.014 A 
ATOM     33  C   UNL A   1      42.862  23.113  25.690  1.00  0.00     0.010 A 
ATOM     34  C   UNL A   1      42.787  22.575  28.045  1.00  0.00     0.010 A 
ATOM     35  C   UNL A   1      43.076  23.492  27.024  1.00  0.00    -0.014 A 
BRANCH  35  36
ATOM     36  C   UNL A   1      43.563  24.853  27.378  1.00  0.00     0.031 A 
ATOM     37  C   UNL A   1      42.603  25.894  27.889  1.00  0.00     0.074 A 
ATOM     38  C   UNL A   1      44.854  25.173  27.152  1.00  0.00     0.049 A 
ATOM     39  N   UNL A   1      42.813  27.160  28.136  1.00  0.00    -0.248 NA
ATOM     40  C   UNL A   1      41.219  25.457  28.132  1.00  0.00     0.031 C 
ATOM     41  C   UNL A   1      45.871  24.259  26.625  1.00  0.00     0.029 A 
ATOM     42  N   UNL A   1      45.533  26.356  27.318  1.00  0.00    -0.354 N 
ATOM     43  C   UNL A   1      41.588  27.677  28.546  1.00  0.00     0.074 A 
ATOM     44  C   UNL A   1      40.631  26.595  28.472  1.00  0.00     0.031 C 
ATOM     45  C   UNL A   1      47.041  24.909  26.524  1.00  0.00     0.029 A 
ATOM     46  C   UNL A   1      46.850  26.300  26.919  1.00  0.00     0.049 A 
ATOM     47  H   UNL A   1      45.116  27.168  27.686  1.00  0.00     0.167 HD
ATOM     48  C   UNL A   1      41.297  28.935  28.957  1.00  0.00     0.034 A 
ATOM     49  C   UNL A   1      47.790  27.265  26.848  1.00  0.00     0.034 A 
ATOM     50  C   UNL A   1      42.268  29.999  29.038  1.00  0.00     0.049 A 
ATOM     51  C   UNL A   1      47.423  28.666  27.276  1.00  0.00     0.074 A 
ATOM     52  C   UNL A   1      42.091  31.288  29.510  1.00  0.00     0.029 A 
ATOM     53  N   UNL A   1      43.590  29.907  28.624  1.00  0.00    -0.354 N 
ATOM     54  N   UNL A   1      46.276  29.119  27.725  1.00  0.00    -0.248 NA
ATOM     55  C   UNL A   1      48.480  29.683  27.194  1.00  0.00     0.031 C 
ATOM     56  C   UNL A   1      43.280  31.997  29.306  1.00  0.00     0.029 A 
ATOM     57  C   UNL A   1      44.226  31.128  28.789  1.00  0.00     0.049 A 
ATOM     58  H   UNL A   1      44.015  29.093  28.266  1.00  0.00     0.167 HD
ATOM     59  C   UNL A   1      46.484  30.467  28.005  1.00  0.00     0.074 A 
ATOM     60  C   UNL A   1      47.872  30.744  27.700  1.00  0.00     0.031 C 
ATOM     61  C   UNL A   1      45.609  31.394  28.471  1.00  0.00     0.034 A 
BRANCH  48  62
ATOM     62  C   UNL A   1      39.867  29.245  29.325  1.00  0.00     0.023 A 
ATOM     63  C   UNL A   1      39.456  29.383  30.662  1.00  0.00     0.031 A 
ATOM     64  C   UNL A   1      38.903  29.435  28.317  1.00  0.00     0.131 A 
ATOM     65  C   UNL A   1      38.111  29.654  30.957  1.00  0.00     0.055 A 
ATOM     66  C   UNL A   1      37.582  29.775  28.614  1.00  0.00     0.041 A 
ATOM     67  F   UNL A   1      39.233  29.294  27.023  1.00  0.00    -0.206 F 
ATOM     68  C   UNL A   1      37.178  29.879  29.941  1.00  0.00     0.022 A 
BRANCH  65  69
ATOM     69  S   UNL A   1      37.573  29.609  32.688  1.00  0.00     0.124 S 
ATOM     70  O   UNL A   1      37.475  28.171  32.928  1.00  0.00    -0.237 OA
ATOM     71  O   UNL A   1      38.659  30.297  33.375  1.00  0.00    -0.237 OA
ATOM     72  O   UNL A   1      36.296  30.319  32.670  1.00  0.00    -0.744 OA
ENDBRANCH  65  69
ENDBRANCH  48  62
BRANCH  49  73
ATOM     73  C   UNL A   1      49.155  26.969  26.317  1.00  0.00     0.023 A 
ATOM     74  C   UNL A   1      49.548  27.412  25.044  1.00  0.00     0.031 A 
ATOM     75  C   UNL A   1      50.058  26.169  27.040  1.00  0.00     0.131 A 
ATOM     76  C   UNL A   1      50.775  26.996  24.506  1.00  0.00     0.055 A 
ATOM     77  C   UNL A   1      51.307  25.816  26.528  1.00  0.00     0.041 A 
ATOM     78  F   UNL A   1      49.736  25.715  28.263  1.00  0.00    -0.206 F 
ATOM     79  C   UNL A   1      51.664  26.213  25.245  1.00  0.00     0.022 A 
BRANCH  76  80
ATOM     80  S   UNL A   1      51.134  27.385  22.770  1.00  0.00     0.124 S 
ATOM     81  O   UNL A   1      52.420  26.724  22.578  1.00  0.00    -0.237 OA
ATOM     82  O   UNL A   1      49.995  26.784  22.084  1.00  0.00    -0.237 OA
ATOM     83  O   UNL A   1      51.173  28.847  22.750  1.00  0.00    -0.744 OA
ENDBRANCH  76  80
ENDBRANCH  49  73
BRANCH  61  84
ATOM     84  C   UNL A   1      46.146  32.783  28.716  1.00  0.00     0.023 A 
ATOM     85  C   UNL A   1      46.139  33.766  27.711  1.00  0.00     0.031 A 
ATOM     86  C   UNL A   1      46.684  33.124  29.970  1.00  0.00     0.131 A 
ATOM     87  C   UNL A   1      46.714  35.021  27.957  1.00  0.00     0.055 A 
ATOM     88  C   UNL A   1      47.192  34.397  30.231  1.00  0.00     0.041 A 
ATOM     89  F   UNL A   1      46.720  32.224  30.966  1.00  0.00    -0.206 F 
ATOM     90  C   UNL A   1      47.222  35.350  29.217  1.00  0.00     0.022 A 
BRANCH  87  91
ATOM     91  S   UNL A   1      46.878  36.189  26.580  1.00  0.00     0.124 S 
ATOM     92  O   UNL A   1      46.014  37.285  27.006  1.00  0.00    -0.237 OA
ATOM     93  O   UNL A   1      48.310  36.471  26.579  1.00  0.00    -0.237 OA
ATOM     94  O   UNL A   1      46.396  35.431  25.427  1.00  0.00    -0.744 OA
ENDBRANCH  87  91
ENDBRANCH  61  84
ENDBRANCH  35  36
ENDBRANCH  27  30
ENDBRANCH  25  26
ENDBRANCH  24  25
ENDBRANCH   1  24
TORSDOF 17
ENDMDL
MODEL 3
REMARK VINA RESULT:     -11.5      5.236      9.734
REMARK SMILES Cc1cc(C(=O)N[C@@H](C)C(=O)NCCCNC(=O)c2ccc(-c3c4nc(c(-c5cc(S(=O)(=O)[O-])ccc5F)c5ccc([nH]5)c(-c5cc(S(=O)(=O)[O-])ccc5F)c5nc(c(-c6cc(S(=O)(=O)[O-])ccc6F)c6ccc3[nH]6)C=C5)C=C4)cc2)cc(C)c1OC(F)F
REMARK SMILES IDX 13 1 12 2 10 3 11 4 8 6 9 7 7 8 5 9 6 10 4 12 1 13 2 14 3 15
REMARK SMILES IDX 85 16 83 17 82 18 84 19 86 20 87 21 88 22 89 23 14 24 15 25
REMARK SMILES IDX 16 26 17 27 18 29 19 30 20 31 81 32 21 33 80 34 22 35 23 36
REMARK SMILES IDX 24 37 74 38 25 39 79 40 73 41 75 42 26 43 78 44 72 45 71 46
REMARK SMILES IDX 27 48 59 49 39 50 58 51 40 52 43 53 57 54 76 55 41 56 42 57
REMARK SMILES IDX 56 59 77 60 44 61 28 62 29 63 37 64 30 65 36 66 38 67 35 68
REMARK SMILES IDX 31 69 32 70 33 71 34 72 60 73 61 74 69 75 62 76 68 77 70 78
REMARK SMILES IDX 67 79 63 80 64 81 65 82 66 83 45 84 46 85 54 86 47 87 53 88
REMARK SMILES IDX 55 89 52 90 48 91 49 92 50 93 51 94
REMARK H PARENT 12 5 7 11 16 28 75 47 43 58
REMARK Flexibility Score: inf
ROOT
ATOM      1  C   UNL A   1      33.907  35.258  29.130  1.00  0.00     0.117 C 
ENDROOT
BRANCH   1   2
ATOM      2  N   UNL A   1      33.211  35.237  30.405  1.00  0.00    -0.354 N 
ATOM      3  C   UNL A   1      33.577  34.717  31.612  1.00  0.00     0.242 C 
ATOM      4  O   UNL A   1      32.818  34.903  32.569  1.00  0.00    -0.273 OA
ATOM      5  H   UNL A   1      32.326  35.669  30.396  1.00  0.00     0.163 HD
BRANCH   3   6
ATOM      6  C   UNL A   1      34.874  33.903  31.788  1.00  0.00     0.168 C 
ATOM      7  C   UNL A   1      34.730  32.424  31.455  1.00  0.00     0.041 C 
BRANCH   6   8
ATOM      8  N   UNL A   1      35.426  34.180  33.114  1.00  0.00    -0.341 N 
ATOM      9  C   UNL A   1      36.700  34.465  33.552  1.00  0.00     0.251 C 
ATOM     10  O   UNL A   1      36.827  34.797  34.731  1.00  0.00    -0.269 OA
ATOM     11  H   UNL A   1      34.755  34.159  33.835  1.00  0.00     0.164 HD
BRANCH   9  12
ATOM     12  C   UNL A   1      37.925  34.287  32.720  1.00  0.00     0.040 A 
ATOM     13  C   UNL A   1      38.429  33.684  29.026  1.00  0.00     0.048 C 
ATOM     14  C   UNL A   1      38.843  34.006  30.434  1.00  0.00    -0.008 A 
ATOM     15  C   UNL A   1      37.758  34.049  31.350  1.00  0.00     0.021 A 
ATOM     16  C   UNL A   1      40.125  34.318  30.916  1.00  0.00     0.131 A 
ATOM     17  C   UNL A   1      40.306  34.478  32.312  1.00  0.00    -0.008 A 
ATOM     18  C   UNL A   1      39.219  34.367  33.197  1.00  0.00     0.021 A 
ATOM     19  C   UNL A   1      41.624  34.881  32.928  1.00  0.00     0.048 C 
BRANCH  16  20
ATOM     20  O   UNL A   1      41.269  34.582  30.223  1.00  0.00    -0.434 OA
BRANCH  20  21
ATOM     21  C   UNL A   1      42.072  33.592  29.621  1.00  0.00     0.542 C 
ATOM     22  F   UNL A   1      43.327  34.046  29.406  1.00  0.00    -0.167 F 
ATOM     23  F   UNL A   1      42.110  32.495  30.411  1.00  0.00    -0.167 F 
ENDBRANCH  20  21
ENDBRANCH  16  20
ENDBRANCH   9  12
ENDBRANCH   6   8
ENDBRANCH   3   6
ENDBRANCH   1   2
BRANCH   1  24
ATOM     24  C   UNL A   1      33.483  34.140  28.191  1.00  0.00     0.042 C 
BRANCH  24  25
ATOM     25  C   UNL A   1      34.503  33.021  28.035  1.00  0.00     0.118 C 
BRANCH  25  26
ATOM     26  N   UNL A   1      33.918  31.788  27.523  1.00  0.00    -0.352 N 
ATOM     27  C   UNL A   1      34.448  30.521  27.417  1.00  0.00     0.251 C 
ATOM     28  H   UNL A   1      32.992  31.875  27.200  1.00  0.00     0.163 HD
ATOM     29  O   UNL A   1      33.846  29.675  26.767  1.00  0.00    -0.269 OA
BRANCH  27  30
ATOM     30  C   UNL A   1      35.744  30.194  28.053  1.00  0.00     0.039 A 
ATOM     31  C   UNL A   1      35.751  29.709  29.364  1.00  0.00     0.014 A 
ATOM     32  C   UNL A   1      36.948  30.362  27.367  1.00  0.00     0.014 A 
ATOM     33  C   UNL A   1      36.955  29.298  29.945  1.00  0.00     0.010 A 
ATOM     34  C   UNL A   1      38.132  29.873  27.913  1.00  0.00     0.010 A 
ATOM     35  C   UNL A   1      38.146  29.321  29.203  1.00  0.00    -0.014 A 
BRANCH  35  36
ATOM     36  C   UNL A   1      39.406  28.737  29.736  1.00  0.00     0.031 A 
ATOM     37  C   UNL A   1      40.095  29.368  30.917  1.00  0.00     0.074 A 
ATOM     38  C   UNL A   1      39.974  27.693  29.096  1.00  0.00     0.049 A 
ATOM     39  N   UNL A   1      41.255  29.079  31.447  1.00  0.00    -0.248 NA
ATOM     40  C   UNL A   1      39.398  30.486  31.571  1.00  0.00     0.031 C 
ATOM     41  C   UNL A   1      39.418  27.020  27.919  1.00  0.00     0.029 A 
ATOM     42  N   UNL A   1      41.150  27.023  29.330  1.00  0.00    -0.354 N 
ATOM     43  C   UNL A   1      41.436  29.987  32.485  1.00  0.00     0.074 A 
ATOM     44  C   UNL A   1      40.285  30.863  32.480  1.00  0.00     0.031 C 
ATOM     45  C   UNL A   1      40.243  26.030  27.545  1.00  0.00     0.029 A 
ATOM     46  C   UNL A   1      41.416  26.031  28.412  1.00  0.00     0.049 A 
ATOM     47  H   UNL A   1      41.748  27.233  30.084  1.00  0.00     0.167 HD
ATOM     48  C   UNL A   1      42.463  30.069  33.366  1.00  0.00     0.034 A 
ATOM     49  C   UNL A   1      42.494  25.234  28.264  1.00  0.00     0.034 A 
ATOM     50  C   UNL A   1      43.596  29.176  33.364  1.00  0.00     0.049 A 
ATOM     51  C   UNL A   1      43.640  25.378  29.238  1.00  0.00     0.074 A 
ATOM     52  C   UNL A   1      44.652  29.129  34.258  1.00  0.00     0.029 A 
ATOM     53  N   UNL A   1      43.833  28.187  32.419  1.00  0.00    -0.354 N 
ATOM     54  N   UNL A   1      43.761  26.199  30.255  1.00  0.00    -0.248 NA
ATOM     55  C   UNL A   1      44.788  24.483  29.048  1.00  0.00     0.031 C 
ATOM     56  C   UNL A   1      45.565  28.170  33.808  1.00  0.00     0.029 A 
ATOM     57  C   UNL A   1      45.039  27.555  32.683  1.00  0.00     0.049 A 
ATOM     58  H   UNL A   1      43.232  27.965  31.671  1.00  0.00     0.167 HD
ATOM     59  C   UNL A   1      44.988  25.897  30.841  1.00  0.00     0.074 A 
ATOM     60  C   UNL A   1      45.553  24.802  30.080  1.00  0.00     0.031 C 
ATOM     61  C   UNL A   1      45.595  26.471  31.910  1.00  0.00     0.034 A 
BRANCH  48  62
ATOM     62  C   UNL A   1      42.429  31.178  34.389  1.00  0.00     0.023 A 
ATOM     63  C   UNL A   1      41.416  31.263  35.359  1.00  0.00     0.031 A 
ATOM     64  C   UNL A   1      43.446  32.150  34.411  1.00  0.00     0.131 A 
ATOM     65  C   UNL A   1      41.415  32.322  36.280  1.00  0.00     0.055 A 
ATOM     66  C   UNL A   1      43.480  33.160  35.374  1.00  0.00     0.041 A 
ATOM     67  F   UNL A   1      44.428  32.131  33.495  1.00  0.00    -0.206 F 
ATOM     68  C   UNL A   1      42.456  33.254  36.312  1.00  0.00     0.022 A 
BRANCH  65  69
ATOM     69  S   UNL A   1      39.982  32.525  37.372  1.00  0.00     0.124 S 
ATOM     70  O   UNL A   1      39.211  31.321  37.073  1.00  0.00    -0.237 OA
ATOM     71  O   UNL A   1      40.596  32.579  38.693  1.00  0.00    -0.237 OA
ATOM     72  O   UNL A   1      39.375  33.774  36.914  1.00  0.00    -0.744 OA
ENDBRANCH  65  69
ENDBRANCH  48  62
BRANCH  49  73
ATOM     73  C   UNL A   1      42.578  24.259  27.136  1.00  0.00     0.023 A 
ATOM     74  C   UNL A   1      41.966  22.998  27.222  1.00  0.00     0.031 A 
ATOM     75  C   UNL A   1      43.342  24.540  25.989  1.00  0.00     0.131 A 
ATOM     76  C   UNL A   1      42.184  22.044  26.217  1.00  0.00     0.055 A 
ATOM     77  C   UNL A   1      43.497  23.611  24.958  1.00  0.00     0.041 A 
ATOM     78  F   UNL A   1      43.952  25.729  25.851  1.00  0.00    -0.206 F 
ATOM     79  C   UNL A   1      42.933  22.346  25.078  1.00  0.00     0.022 A 
BRANCH  76  80
ATOM     80  S   UNL A   1      41.581  20.353  26.485  1.00  0.00     0.124 S 
ATOM     81  O   UNL A   1      42.034  20.090  27.846  1.00  0.00    -0.237 OA
ATOM     82  O   UNL A   1      40.142  20.513  26.306  1.00  0.00    -0.237 OA
ATOM     83  O   UNL A   1      42.257  19.582  25.442  1.00  0.00    -0.744 OA
ENDBRANCH  76  80
ENDBRANCH  49  73
BRANCH  61  84
ATOM     84  C   UNL A   1      46.922  25.893  32.339  1.00  0.00     0.023 A 
ATOM     85  C   UNL A   1      48.121  26.229  31.686  1.00  0.00     0.031 A 
ATOM     86  C   UNL A   1      46.985  24.982  33.409  1.00  0.00     0.131 A 
ATOM     87  C   UNL A   1      49.321  25.614  32.069  1.00  0.00     0.055 A 
ATOM     88  C   UNL A   1      48.194  24.425  33.830  1.00  0.00     0.041 A 
ATOM     89  F   UNL A   1      45.872  24.621  34.066  1.00  0.00    -0.206 F 
ATOM     90  C   UNL A   1      49.369  24.729  33.150  1.00  0.00     0.022 A 
BRANCH  87  91
ATOM     91  S   UNL A   1      50.807  25.909  31.073  1.00  0.00     0.124 S 
ATOM     92  O   UNL A   1      50.802  27.362  30.943  1.00  0.00    -0.237 OA
ATOM     93  O   UNL A   1      51.862  25.348  31.911  1.00  0.00    -0.237 OA
ATOM     94  O   UNL A   1      50.544  25.175  29.836  1.00  0.00    -0.744 OA
ENDBRANCH  87  91
ENDBRANCH  61  84
ENDBRANCH  35  36
ENDBRANCH  27  30
ENDBRANCH  25  26
ENDBRANCH  24  25
ENDBRANCH   1  24
TORSDOF 17
ENDMDL
