MODEL 1
REMARK VINA RESULT:     -12.5      0.000      0.000
REMARK SMILES CCOc1ccccc1NC(=O)[C@H]1[C@@H]2C=C[C@@H]([C@@H]3C[C@H]23)[C@@H]1C(=O)NCCCNC(=O)c1ccc(-c2c3nc(c(-c4cc(S(=O)(=O)[O-])ccc4F)c4ccc([nH]4)c(-c4cc(S(=O)(=O)[O-])ccc4F)c4nc(c(-c5cc(S(=O)(=O)[O-])ccc5F)c5ccc2[nH]5)C=C4)C=C3)cc1
REMARK SMILES IDX 25 1 24 2 22 3 23 4 21 6 13 7 14 8 15 9 20 10 17 11 16 12
REMARK SMILES IDX 18 13 19 14 11 15 10 16 12 18 9 19 4 20 5 21 6 22 8 23 7 24
REMARK SMILES IDX 3 25 2 26 1 27 26 28 27 29 28 30 29 31 30 33 31 34 32 35
REMARK SMILES IDX 93 36 33 37 92 38 34 39 35 40 36 41 86 42 37 43 91 44 85 45
REMARK SMILES IDX 87 46 38 47 90 48 84 49 83 50 39 52 71 53 51 54 70 55 52 56
REMARK SMILES IDX 55 57 69 58 88 59 53 60 54 61 68 63 89 64 56 65 40 66 41 67
REMARK SMILES IDX 49 68 42 69 48 70 50 71 47 72 43 73 44 74 45 75 46 76 72 77
REMARK SMILES IDX 73 78 81 79 74 80 80 81 82 82 79 83 75 84 76 85 77 86 78 87
REMARK SMILES IDX 57 88 58 89 66 90 59 91 65 92 67 93 64 94 60 95 61 96 62 97
REMARK SMILES IDX 63 98
REMARK H PARENT 24 5 10 17 28 32 87 51 55 62
REMARK Flexibility Score: inf
ROOT
ATOM      1  C   UNL A   1      31.768  30.550  25.866  1.00  0.00     0.117 C 
ENDROOT
BRANCH   1   2
ATOM      2  N   UNL A   1      32.967  29.796  26.180  1.00  0.00    -0.356 N 
ATOM      3  C   UNL A   1      33.308  28.498  25.982  1.00  0.00     0.224 C 
ATOM      4  O   UNL A   1      34.437  28.181  26.369  1.00  0.00    -0.275 OA
ATOM      5  H   UNL A   1      33.667  30.329  26.620  1.00  0.00     0.163 HD
BRANCH   3   6
ATOM      6  C   UNL A   1      32.336  27.492  25.364  1.00  0.00     0.098 C 
ATOM      7  C   UNL A   1      33.092  26.128  25.100  1.00  0.00     0.099 C 
ATOM      8  C   UNL A   1      32.896  25.748  23.594  1.00  0.00     0.028 C 
ATOM      9  C   UNL A   1      33.546  26.895  22.815  1.00  0.00    -0.026 C 
ATOM     10  C   UNL A   1      31.422  25.703  23.171  1.00  0.00     0.001 C 
ATOM     11  C   UNL A   1      31.780  28.036  24.001  1.00  0.00     0.028 C 
ATOM     12  C   UNL A   1      32.945  28.084  23.008  1.00  0.00    -0.026 C 
ATOM     13  C   UNL A   1      30.754  27.049  23.415  1.00  0.00     0.001 C 
ATOM     14  C   UNL A   1      30.212  25.792  24.058  1.00  0.00     0.009 C 
BRANCH   7  15
ATOM     15  C   UNL A   1      32.684  25.046  26.098  1.00  0.00     0.229 C 
ATOM     16  N   UNL A   1      33.376  23.890  26.271  1.00  0.00    -0.323 N 
ATOM     17  H   UNL A   1      32.947  23.288  26.920  1.00  0.00     0.170 HD
ATOM     18  O   UNL A   1      31.681  25.182  26.808  1.00  0.00    -0.274 OA
BRANCH  16  19
ATOM     19  C   UNL A   1      34.558  23.351  25.740  1.00  0.00     0.083 A 
ATOM     20  C   UNL A   1      34.453  22.090  25.127  1.00  0.00     0.142 A 
ATOM     21  C   UNL A   1      35.550  21.500  24.501  1.00  0.00     0.048 A 
ATOM     22  C   UNL A   1      36.774  22.166  24.494  1.00  0.00     0.004 A 
ATOM     23  C   UNL A   1      35.804  23.970  25.789  1.00  0.00     0.030 A 
ATOM     24  C   UNL A   1      36.905  23.388  25.153  1.00  0.00     0.002 A 
BRANCH  20  25
ATOM     25  O   UNL A   1      33.276  21.391  25.235  1.00  0.00    -0.492 OA
BRANCH  25  26
ATOM     26  C   UNL A   1      32.789  20.900  23.981  1.00  0.00     0.226 C 
ATOM     27  C   UNL A   1      32.123  22.039  23.225  1.00  0.00     0.049 C 
ENDBRANCH  25  26
ENDBRANCH  20  25
ENDBRANCH  16  19
ENDBRANCH   7  15
ENDBRANCH   3   6
ENDBRANCH   1   2
BRANCH   1  28
ATOM     28  C   UNL A   1      31.538  31.703  26.840  1.00  0.00     0.042 C 
BRANCH  28  29
ATOM     29  C   UNL A   1      32.786  32.483  27.257  1.00  0.00     0.118 C 
BRANCH  29  30
ATOM     30  N   UNL A   1      32.524  33.876  27.585  1.00  0.00    -0.352 N 
ATOM     31  C   UNL A   1      33.130  34.697  28.510  1.00  0.00     0.251 C 
ATOM     32  H   UNL A   1      31.802  34.297  27.065  1.00  0.00     0.163 HD
ATOM     33  O   UNL A   1      32.667  35.815  28.709  1.00  0.00    -0.269 OA
BRANCH  31  34
ATOM     34  C   UNL A   1      34.305  34.232  29.288  1.00  0.00     0.039 A 
ATOM     35  C   UNL A   1      34.083  33.495  30.455  1.00  0.00     0.014 A 
ATOM     36  C   UNL A   1      35.614  34.526  28.894  1.00  0.00     0.014 A 
ATOM     37  C   UNL A   1      35.167  32.988  31.180  1.00  0.00     0.010 A 
ATOM     38  C   UNL A   1      36.692  33.961  29.579  1.00  0.00     0.010 A 
ATOM     39  C   UNL A   1      36.482  33.178  30.725  1.00  0.00    -0.014 A 
BRANCH  39  40
ATOM     40  C   UNL A   1      37.638  32.545  31.423  1.00  0.00     0.031 A 
ATOM     41  C   UNL A   1      38.370  31.387  30.800  1.00  0.00     0.074 A 
ATOM     42  C   UNL A   1      37.996  32.982  32.648  1.00  0.00     0.049 A 
ATOM     43  N   UNL A   1      39.349  30.667  31.287  1.00  0.00    -0.248 NA
ATOM     44  C   UNL A   1      37.925  30.968  29.464  1.00  0.00     0.031 C 
ATOM     45  C   UNL A   1      37.350  34.076  33.375  1.00  0.00     0.029 A 
ATOM     46  N   UNL A   1      38.982  32.556  33.505  1.00  0.00    -0.354 N 
ATOM     47  C   UNL A   1      39.633  29.706  30.323  1.00  0.00     0.074 A 
ATOM     48  C   UNL A   1      38.679  29.900  29.251  1.00  0.00     0.031 C 
ATOM     49  C   UNL A   1      37.971  34.251  34.552  1.00  0.00     0.029 A 
ATOM     50  C   UNL A   1      39.023  33.250  34.693  1.00  0.00     0.049 A 
ATOM     51  H   UNL A   1      39.603  31.822  33.288  1.00  0.00     0.167 HD
ATOM     52  C   UNL A   1      40.610  28.763  30.323  1.00  0.00     0.034 A 
ATOM     53  C   UNL A   1      39.803  33.089  35.783  1.00  0.00     0.034 A 
ATOM     54  C   UNL A   1      41.555  28.580  31.400  1.00  0.00     0.049 A 
ATOM     55  C   UNL A   1      40.847  32.000  35.780  1.00  0.00     0.074 A 
ATOM     56  C   UNL A   1      42.612  27.688  31.476  1.00  0.00     0.029 A 
ATOM     57  N   UNL A   1      41.551  29.289  32.595  1.00  0.00    -0.354 N 
ATOM     58  N   UNL A   1      41.132  31.129  34.839  1.00  0.00    -0.248 NA
ATOM     59  C   UNL A   1      41.679  31.878  36.984  1.00  0.00     0.031 C 
ATOM     60  C   UNL A   1      43.191  27.800  32.745  1.00  0.00     0.029 A 
ATOM     61  C   UNL A   1      42.561  28.827  33.428  1.00  0.00     0.049 A 
ATOM     62  H   UNL A   1      40.924  30.015  32.819  1.00  0.00     0.167 HD
ATOM     63  C   UNL A   1      42.200  30.380  35.327  1.00  0.00     0.074 A 
ATOM     64  C   UNL A   1      42.516  30.912  36.636  1.00  0.00     0.031 C 
ATOM     65  C   UNL A   1      42.864  29.352  34.740  1.00  0.00     0.034 A 
BRANCH  52  66
ATOM     66  C   UNL A   1      40.682  27.834  29.132  1.00  0.00     0.023 A 
ATOM     67  C   UNL A   1      41.624  28.019  28.103  1.00  0.00     0.031 A 
ATOM     68  C   UNL A   1      39.784  26.757  29.012  1.00  0.00     0.131 A 
ATOM     69  C   UNL A   1      41.595  27.195  26.968  1.00  0.00     0.055 A 
ATOM     70  C   UNL A   1      39.819  25.886  27.920  1.00  0.00     0.041 A 
ATOM     71  F   UNL A   1      38.847  26.539  29.948  1.00  0.00    -0.206 F 
ATOM     72  C   UNL A   1      40.717  26.113  26.882  1.00  0.00     0.022 A 
BRANCH  69  73
ATOM     73  S   UNL A   1      42.613  27.654  25.540  1.00  0.00     0.124 S 
ATOM     74  O   UNL A   1      42.492  26.468  24.697  1.00  0.00    -0.237 OA
ATOM     75  O   UNL A   1      41.947  28.856  25.052  1.00  0.00    -0.237 OA
ATOM     76  O   UNL A   1      43.939  27.866  26.118  1.00  0.00    -0.744 OA
ENDBRANCH  69  73
ENDBRANCH  52  66
BRANCH  53  77
ATOM     77  C   UNL A   1      39.618  33.962  36.979  1.00  0.00     0.023 A 
ATOM     78  C   UNL A   1      39.016  33.472  38.149  1.00  0.00     0.031 A 
ATOM     79  C   UNL A   1      39.999  35.315  36.953  1.00  0.00     0.131 A 
ATOM     80  C   UNL A   1      38.769  34.339  39.225  1.00  0.00     0.055 A 
ATOM     81  C   UNL A   1      39.806  36.159  38.049  1.00  0.00     0.041 A 
ATOM     82  F   UNL A   1      40.578  35.837  35.859  1.00  0.00    -0.206 F 
ATOM     83  C   UNL A   1      39.175  35.675  39.189  1.00  0.00     0.022 A 
BRANCH  80  84
ATOM     84  S   UNL A   1      37.821  33.718  40.642  1.00  0.00     0.124 S 
ATOM     85  O   UNL A   1      36.673  33.103  39.983  1.00  0.00    -0.237 OA
ATOM     86  O   UNL A   1      38.770  32.802  41.265  1.00  0.00    -0.237 OA
ATOM     87  O   UNL A   1      37.526  34.925  41.410  1.00  0.00    -0.744 OA
ENDBRANCH  80  84
ENDBRANCH  53  77
BRANCH  65  88
ATOM     88  C   UNL A   1      44.034  28.764  35.495  1.00  0.00     0.023 A 
ATOM     89  C   UNL A   1      43.887  27.672  36.369  1.00  0.00     0.031 A 
ATOM     90  C   UNL A   1      45.320  29.315  35.342  1.00  0.00     0.131 A 
ATOM     91  C   UNL A   1      44.990  27.206  37.100  1.00  0.00     0.055 A 
ATOM     92  C   UNL A   1      46.428  28.802  36.019  1.00  0.00     0.041 A 
ATOM     93  F   UNL A   1      45.523  30.362  34.525  1.00  0.00    -0.206 F 
ATOM     94  C   UNL A   1      46.264  27.750  36.914  1.00  0.00     0.022 A 
BRANCH  91  95
ATOM     95  S   UNL A   1      44.723  25.941  38.372  1.00  0.00     0.124 S 
ATOM     96  O   UNL A   1      43.796  25.031  37.706  1.00  0.00    -0.237 OA
ATOM     97  O   UNL A   1      46.071  25.429  38.593  1.00  0.00    -0.237 OA
ATOM     98  O   UNL A   1      44.156  26.693  39.490  1.00  0.00    -0.744 OA
ENDBRANCH  91  95
ENDBRANCH  65  88
ENDBRANCH  39  40
ENDBRANCH  31  34
ENDBRANCH  29  30
ENDBRANCH  28  29
ENDBRANCH   1  28
TORSDOF 17
ENDMDL
MODEL 2
REMARK VINA RESULT:     -12.2      5.593     11.527
REMARK SMILES CCOc1ccccc1NC(=O)[C@H]1[C@@H]2C=C[C@@H]([C@@H]3C[C@H]23)[C@@H]1C(=O)NCCCNC(=O)c1ccc(-c2c3nc(c(-c4cc(S(=O)(=O)[O-])ccc4F)c4ccc([nH]4)c(-c4cc(S(=O)(=O)[O-])ccc4F)c4nc(c(-c5cc(S(=O)(=O)[O-])ccc5F)c5ccc2[nH]5)C=C4)C=C3)cc1
REMARK SMILES IDX 25 1 24 2 22 3 23 4 21 6 13 7 14 8 15 9 20 10 17 11 16 12
REMARK SMILES IDX 18 13 19 14 11 15 10 16 12 18 9 19 4 20 5 21 6 22 8 23 7 24
REMARK SMILES IDX 3 25 2 26 1 27 26 28 27 29 28 30 29 31 30 33 31 34 32 35
REMARK SMILES IDX 93 36 33 37 92 38 34 39 35 40 36 41 86 42 37 43 91 44 85 45
REMARK SMILES IDX 87 46 38 47 90 48 84 49 83 50 39 52 71 53 51 54 70 55 52 56
REMARK SMILES IDX 55 57 69 58 88 59 53 60 54 61 68 63 89 64 56 65 40 66 41 67
REMARK SMILES IDX 49 68 42 69 48 70 50 71 47 72 43 73 44 74 45 75 46 76 72 77
REMARK SMILES IDX 73 78 81 79 74 80 80 81 82 82 79 83 75 84 76 85 77 86 78 87
REMARK SMILES IDX 57 88 58 89 66 90 59 91 65 92 67 93 64 94 60 95 61 96 62 97
REMARK SMILES IDX 63 98
REMARK H PARENT 24 5 10 17 28 32 87 51 55 62
REMARK Flexibility Score: inf
ROOT
ATOM      1  C   UNL A   1      37.496  20.370  24.659  1.00  0.00     0.117 C 
ENDROOT
BRANCH   1   2
ATOM      2  N   UNL A   1      37.586  21.666  25.305  1.00  0.00    -0.356 N 
ATOM      3  C   UNL A   1      36.671  22.643  25.524  1.00  0.00     0.224 C 
ATOM      4  O   UNL A   1      37.089  23.636  26.127  1.00  0.00    -0.275 OA
ATOM      5  H   UNL A   1      38.483  21.876  25.651  1.00  0.00     0.163 HD
BRANCH   3   6
ATOM      6  C   UNL A   1      35.234  22.533  25.013  1.00  0.00     0.098 C 
ATOM      7  C   UNL A   1      34.444  23.854  25.383  1.00  0.00     0.099 C 
ATOM      8  C   UNL A   1      33.152  23.442  26.166  1.00  0.00     0.028 C 
ATOM      9  C   UNL A   1      33.666  22.739  27.425  1.00  0.00    -0.026 C 
ATOM     10  C   UNL A   1      32.288  22.425  25.409  1.00  0.00     0.001 C 
ATOM     11  C   UNL A   1      34.512  21.308  25.674  1.00  0.00     0.028 C 
ATOM     12  C   UNL A   1      34.352  21.609  27.167  1.00  0.00    -0.026 C 
ATOM     13  C   UNL A   1      33.086  21.164  25.108  1.00  0.00     0.001 C 
ATOM     14  C   UNL A   1      32.454  21.960  23.990  1.00  0.00     0.009 C 
BRANCH   7  15
ATOM     15  C   UNL A   1      34.207  24.739  24.162  1.00  0.00     0.229 C 
ATOM     16  N   UNL A   1      33.584  25.945  24.223  1.00  0.00    -0.323 N 
ATOM     17  H   UNL A   1      33.476  26.358  23.336  1.00  0.00     0.170 HD
ATOM     18  O   UNL A   1      34.582  24.385  23.038  1.00  0.00    -0.274 OA
BRANCH  16  19
ATOM     19  C   UNL A   1      33.058  26.739  25.253  1.00  0.00     0.083 A 
ATOM     20  C   UNL A   1      31.675  26.626  25.488  1.00  0.00     0.142 A 
ATOM     21  C   UNL A   1      31.065  27.314  26.536  1.00  0.00     0.048 A 
ATOM     22  C   UNL A   1      31.836  28.136  27.357  1.00  0.00     0.004 A 
ATOM     23  C   UNL A   1      33.800  27.621  26.033  1.00  0.00     0.030 A 
ATOM     24  C   UNL A   1      33.195  28.304  27.093  1.00  0.00     0.002 A 
BRANCH  20  25
ATOM     25  O   UNL A   1      30.906  25.905  24.610  1.00  0.00    -0.492 OA
BRANCH  25  26
ATOM     26  C   UNL A   1      29.634  26.506  24.341  1.00  0.00     0.226 C 
ATOM     27  C   UNL A   1      29.775  27.470  23.174  1.00  0.00     0.049 C 
ENDBRANCH  25  26
ENDBRANCH  20  25
ENDBRANCH  16  19
ENDBRANCH   7  15
ENDBRANCH   3   6
ENDBRANCH   1   2
BRANCH   1  28
ATOM     28  C   UNL A   1      38.469  19.356  25.259  1.00  0.00     0.042 C 
BRANCH  28  29
ATOM     29  C   UNL A   1      39.587  19.937  26.127  1.00  0.00     0.118 C 
BRANCH  29  30
ATOM     30  N   UNL A   1      40.830  19.184  26.062  1.00  0.00    -0.352 N 
ATOM     31  C   UNL A   1      42.134  19.619  26.141  1.00  0.00     0.251 C 
ATOM     32  H   UNL A   1      40.722  18.212  25.943  1.00  0.00     0.163 HD
ATOM     33  O   UNL A   1      43.042  18.821  25.938  1.00  0.00    -0.269 OA
BRANCH  31  34
ATOM     34  C   UNL A   1      42.447  21.041  26.429  1.00  0.00     0.039 A 
ATOM     35  C   UNL A   1      42.650  21.424  27.758  1.00  0.00     0.014 A 
ATOM     36  C   UNL A   1      42.526  21.999  25.414  1.00  0.00     0.014 A 
ATOM     37  C   UNL A   1      43.006  22.742  28.061  1.00  0.00     0.010 A 
ATOM     38  C   UNL A   1      42.950  23.296  25.711  1.00  0.00     0.010 A 
ATOM     39  C   UNL A   1      43.204  23.682  27.036  1.00  0.00    -0.014 A 
BRANCH  39  40
ATOM     40  C   UNL A   1      43.697  25.057  27.336  1.00  0.00     0.031 A 
ATOM     41  C   UNL A   1      42.768  26.099  27.899  1.00  0.00     0.074 A 
ATOM     42  C   UNL A   1      44.974  25.383  27.049  1.00  0.00     0.049 A 
ATOM     43  N   UNL A   1      42.998  27.362  28.156  1.00  0.00    -0.248 NA
ATOM     44  C   UNL A   1      41.392  25.669  28.186  1.00  0.00     0.031 C 
ATOM     45  C   UNL A   1      45.968  24.476  26.474  1.00  0.00     0.029 A 
ATOM     46  N   UNL A   1      45.655  26.568  27.192  1.00  0.00    -0.354 N 
ATOM     47  C   UNL A   1      41.797  27.880  28.628  1.00  0.00     0.074 A 
ATOM     48  C   UNL A   1      40.827  26.807  28.561  1.00  0.00     0.031 C 
ATOM     49  C   UNL A   1      47.134  25.127  26.339  1.00  0.00     0.029 A 
ATOM     50  C   UNL A   1      46.962  26.513  26.761  1.00  0.00     0.049 A 
ATOM     51  H   UNL A   1      45.247  27.382  27.568  1.00  0.00     0.167 HD
ATOM     52  C   UNL A   1      41.533  29.129  29.091  1.00  0.00     0.034 A 
ATOM     53  C   UNL A   1      47.910  27.470  26.694  1.00  0.00     0.034 A 
ATOM     54  C   UNL A   1      42.510  30.191  29.151  1.00  0.00     0.049 A 
ATOM     55  C   UNL A   1      47.577  28.863  27.167  1.00  0.00     0.074 A 
ATOM     56  C   UNL A   1      42.357  31.474  29.648  1.00  0.00     0.029 A 
ATOM     57  N   UNL A   1      43.817  30.102  28.687  1.00  0.00    -0.354 N 
ATOM     58  N   UNL A   1      46.448  29.325  27.654  1.00  0.00    -0.248 NA
ATOM     59  C   UNL A   1      48.650  29.863  27.087  1.00  0.00     0.031 C 
ATOM     60  C   UNL A   1      43.539  32.183  29.409  1.00  0.00     0.029 A 
ATOM     61  C   UNL A   1      44.466  31.318  28.850  1.00  0.00     0.049 A 
ATOM     62  H   UNL A   1      44.223  29.293  28.300  1.00  0.00     0.167 HD
ATOM     63  C   UNL A   1      46.688  30.660  27.970  1.00  0.00     0.074 A 
ATOM     64  C   UNL A   1      48.072  30.923  27.633  1.00  0.00     0.031 C 
ATOM     65  C   UNL A   1      45.843  31.580  28.499  1.00  0.00     0.034 A 
BRANCH  52  66
ATOM     66  C   UNL A   1      40.117  29.421  29.538  1.00  0.00     0.023 A 
ATOM     67  C   UNL A   1      39.774  29.511  30.900  1.00  0.00     0.031 A 
ATOM     68  C   UNL A   1      39.091  29.594  28.591  1.00  0.00     0.131 A 
ATOM     69  C   UNL A   1      38.434  29.687  31.276  1.00  0.00     0.055 A 
ATOM     70  C   UNL A   1      37.773  29.857  28.972  1.00  0.00     0.041 A 
ATOM     71  F   UNL A   1      39.349  29.499  27.277  1.00  0.00    -0.206 F 
ATOM     72  C   UNL A   1      37.436  29.888  30.321  1.00  0.00     0.022 A 
BRANCH  69  73
ATOM     73  S   UNL A   1      37.994  29.490  33.024  1.00  0.00     0.124 S 
ATOM     74  O   UNL A   1      37.443  28.137  33.040  1.00  0.00    -0.237 OA
ATOM     75  O   UNL A   1      39.277  29.666  33.693  1.00  0.00    -0.237 OA
ATOM     76  O   UNL A   1      37.019  30.554  33.254  1.00  0.00    -0.744 OA
ENDBRANCH  69  73
ENDBRANCH  52  66
BRANCH  53  77
ATOM     77  C   UNL A   1      49.260  27.158  26.140  1.00  0.00     0.023 A 
ATOM     78  C   UNL A   1      49.616  27.538  24.836  1.00  0.00     0.031 A 
ATOM     79  C   UNL A   1      50.201  26.432  26.893  1.00  0.00     0.131 A 
ATOM     80  C   UNL A   1      50.856  27.149  24.307  1.00  0.00     0.055 A 
ATOM     81  C   UNL A   1      51.458  26.100  26.384  1.00  0.00     0.041 A 
ATOM     82  F   UNL A   1      49.914  26.042  28.145  1.00  0.00    -0.206 F 
ATOM     83  C   UNL A   1      51.786  26.447  25.078  1.00  0.00     0.022 A 
BRANCH  80  84
ATOM     84  S   UNL A   1      51.202  27.493  22.560  1.00  0.00     0.124 S 
ATOM     85  O   UNL A   1      51.322  28.947  22.563  1.00  0.00    -0.237 OA
ATOM     86  O   UNL A   1      52.437  26.746  22.342  1.00  0.00    -0.237 OA
ATOM     87  O   UNL A   1      50.027  26.964  21.870  1.00  0.00    -0.744 OA
ENDBRANCH  80  84
ENDBRANCH  53  77
BRANCH  65  88
ATOM     88  C   UNL A   1      46.409  32.951  28.792  1.00  0.00     0.023 A 
ATOM     89  C   UNL A   1      46.406  33.980  27.833  1.00  0.00     0.031 A 
ATOM     90  C   UNL A   1      46.969  33.228  30.052  1.00  0.00     0.131 A 
ATOM     91  C   UNL A   1      47.005  35.214  28.129  1.00  0.00     0.055 A 
ATOM     92  C   UNL A   1      47.500  34.480  30.365  1.00  0.00     0.041 A 
ATOM     93  F   UNL A   1      47.004  32.284  31.008  1.00  0.00    -0.206 F 
ATOM     94  C   UNL A   1      47.533  35.478  29.395  1.00  0.00     0.022 A 
BRANCH  91  95
ATOM     95  S   UNL A   1      47.175  36.441  26.804  1.00  0.00     0.124 S 
ATOM     96  O   UNL A   1      46.595  37.632  27.418  1.00  0.00    -0.237 OA
ATOM     97  O   UNL A   1      48.617  36.473  26.589  1.00  0.00    -0.237 OA
ATOM     98  O   UNL A   1      46.398  35.870  25.705  1.00  0.00    -0.744 OA
ENDBRANCH  91  95
ENDBRANCH  65  88
ENDBRANCH  39  40
ENDBRANCH  31  34
ENDBRANCH  29  30
ENDBRANCH  28  29
ENDBRANCH   1  28
TORSDOF 17
ENDMDL
MODEL 3
REMARK VINA RESULT:     -12.0      5.888      9.576
REMARK SMILES CCOc1ccccc1NC(=O)[C@H]1[C@@H]2C=C[C@@H]([C@@H]3C[C@H]23)[C@@H]1C(=O)NCCCNC(=O)c1ccc(-c2c3nc(c(-c4cc(S(=O)(=O)[O-])ccc4F)c4ccc([nH]4)c(-c4cc(S(=O)(=O)[O-])ccc4F)c4nc(c(-c5cc(S(=O)(=O)[O-])ccc5F)c5ccc2[nH]5)C=C4)C=C3)cc1
REMARK SMILES IDX 25 1 24 2 22 3 23 4 21 6 13 7 14 8 15 9 20 10 17 11 16 12
REMARK SMILES IDX 18 13 19 14 11 15 10 16 12 18 9 19 4 20 5 21 6 22 8 23 7 24
REMARK SMILES IDX 3 25 2 26 1 27 26 28 27 29 28 30 29 31 30 33 31 34 32 35
REMARK SMILES IDX 93 36 33 37 92 38 34 39 35 40 36 41 86 42 37 43 91 44 85 45
REMARK SMILES IDX 87 46 38 47 90 48 84 49 83 50 39 52 71 53 51 54 70 55 52 56
REMARK SMILES IDX 55 57 69 58 88 59 53 60 54 61 68 63 89 64 56 65 40 66 41 67
REMARK SMILES IDX 49 68 42 69 48 70 50 71 47 72 43 73 44 74 45 75 46 76 72 77
REMARK SMILES IDX 73 78 81 79 74 80 80 81 82 82 79 83 75 84 76 85 77 86 78 87
REMARK SMILES IDX 57 88 58 89 66 90 59 91 65 92 67 93 64 94 60 95 61 96 62 97
REMARK SMILES IDX 63 98
REMARK H PARENT 24 5 10 17 28 32 87 51 55 62
REMARK Flexibility Score: inf
ROOT
ATOM      1  C   UNL A   1      37.558  20.330  24.690  1.00  0.00     0.117 C 
ENDROOT
BRANCH   1   2
ATOM      2  N   UNL A   1      37.591  21.612  25.370  1.00  0.00    -0.356 N 
ATOM      3  C   UNL A   1      36.647  22.563  25.570  1.00  0.00     0.224 C 
ATOM      4  O   UNL A   1      37.015  23.550  26.215  1.00  0.00    -0.275 OA
ATOM      5  H   UNL A   1      38.467  21.831  25.759  1.00  0.00     0.163 HD
BRANCH   3   6
ATOM      6  C   UNL A   1      35.236  22.436  24.994  1.00  0.00     0.098 C 
ATOM      7  C   UNL A   1      34.410  23.742  25.336  1.00  0.00     0.099 C 
ATOM      8  C   UNL A   1      33.090  23.305  26.056  1.00  0.00     0.028 C 
ATOM      9  C   UNL A   1      33.556  22.599  27.332  1.00  0.00    -0.026 C 
ATOM     10  C   UNL A   1      32.277  22.281  25.254  1.00  0.00     0.001 C 
ATOM     11  C   UNL A   1      34.503  21.195  25.612  1.00  0.00     0.028 C 
ATOM     12  C   UNL A   1      34.271  21.482  27.098  1.00  0.00    -0.026 C 
ATOM     13  C   UNL A   1      33.107  21.034  24.980  1.00  0.00     0.001 C 
ATOM     14  C   UNL A   1      32.514  21.829  23.839  1.00  0.00     0.009 C 
BRANCH   7  15
ATOM     15  C   UNL A   1      34.216  24.632  24.112  1.00  0.00     0.229 C 
ATOM     16  N   UNL A   1      33.599  25.842  24.159  1.00  0.00    -0.323 N 
ATOM     17  H   UNL A   1      33.520  26.260  23.271  1.00  0.00     0.170 HD
ATOM     18  O   UNL A   1      34.621  24.280  22.998  1.00  0.00    -0.274 OA
BRANCH  16  19
ATOM     19  C   UNL A   1      33.047  26.637  25.175  1.00  0.00     0.083 A 
ATOM     20  C   UNL A   1      31.648  26.596  25.314  1.00  0.00     0.142 A 
ATOM     21  C   UNL A   1      31.006  27.287  26.341  1.00  0.00     0.048 A 
ATOM     22  C   UNL A   1      31.763  28.042  27.235  1.00  0.00     0.004 A 
ATOM     23  C   UNL A   1      33.782  27.454  26.030  1.00  0.00     0.030 A 
ATOM     24  C   UNL A   1      33.144  28.141  27.067  1.00  0.00     0.002 A 
BRANCH  20  25
ATOM     25  O   UNL A   1      30.902  25.942  24.365  1.00  0.00    -0.492 OA
BRANCH  25  26
ATOM     26  C   UNL A   1      30.079  26.819  23.587  1.00  0.00     0.226 C 
ATOM     27  C   UNL A   1      28.619  26.553  23.916  1.00  0.00     0.049 C 
ENDBRANCH  25  26
ENDBRANCH  20  25
ENDBRANCH  16  19
ENDBRANCH   7  15
ENDBRANCH   3   6
ENDBRANCH   1   2
BRANCH   1  28
ATOM     28  C   UNL A   1      38.649  19.383  25.187  1.00  0.00     0.042 C 
BRANCH  28  29
ATOM     29  C   UNL A   1      39.665  19.987  26.158  1.00  0.00     0.118 C 
BRANCH  29  30
ATOM     30  N   UNL A   1      41.005  19.438  26.021  1.00  0.00    -0.352 N 
ATOM     31  C   UNL A   1      42.230  20.063  26.096  1.00  0.00     0.251 C 
ATOM     32  H   UNL A   1      41.042  18.470  25.847  1.00  0.00     0.163 HD
ATOM     33  O   UNL A   1      43.242  19.426  25.826  1.00  0.00    -0.269 OA
BRANCH  31  34
ATOM     34  C   UNL A   1      42.332  21.498  26.460  1.00  0.00     0.039 A 
ATOM     35  C   UNL A   1      42.458  21.836  27.811  1.00  0.00     0.014 A 
ATOM     36  C   UNL A   1      42.290  22.509  25.496  1.00  0.00     0.014 A 
ATOM     37  C   UNL A   1      42.618  23.174  28.186  1.00  0.00     0.010 A 
ATOM     38  C   UNL A   1      42.520  23.836  25.865  1.00  0.00     0.010 A 
ATOM     39  C   UNL A   1      42.696  24.185  27.214  1.00  0.00    -0.014 A 
BRANCH  39  40
ATOM     40  C   UNL A   1      42.983  25.598  27.592  1.00  0.00     0.031 A 
ATOM     41  C   UNL A   1      44.382  26.147  27.503  1.00  0.00     0.074 A 
ATOM     42  C   UNL A   1      41.988  26.375  28.069  1.00  0.00     0.049 A 
ATOM     43  N   UNL A   1      44.833  27.325  27.854  1.00  0.00    -0.248 NA
ATOM     44  C   UNL A   1      45.412  25.243  26.975  1.00  0.00     0.031 C 
ATOM     45  C   UNL A   1      40.595  25.955  28.232  1.00  0.00     0.029 A 
ATOM     46  N   UNL A   1      41.994  27.675  28.513  1.00  0.00    -0.354 N 
ATOM     47  C   UNL A   1      46.200  27.302  27.596  1.00  0.00     0.074 A 
ATOM     48  C   UNL A   1      46.509  25.971  27.117  1.00  0.00     0.031 C 
ATOM     49  C   UNL A   1      39.879  26.983  28.713  1.00  0.00     0.029 A 
ATOM     50  C   UNL A   1      40.765  28.118  28.948  1.00  0.00     0.049 A 
ATOM     51  H   UNL A   1      42.802  28.239  28.518  1.00  0.00     0.167 HD
ATOM     52  C   UNL A   1      47.107  28.303  27.728  1.00  0.00     0.034 A 
ATOM     53  C   UNL A   1      40.394  29.295  29.493  1.00  0.00     0.034 A 
ATOM     54  C   UNL A   1      46.784  29.627  28.208  1.00  0.00     0.049 A 
ATOM     55  C   UNL A   1      41.431  30.375  29.677  1.00  0.00     0.074 A 
ATOM     56  C   UNL A   1      47.619  30.725  28.331  1.00  0.00     0.029 A 
ATOM     57  N   UNL A   1      45.533  30.031  28.657  1.00  0.00    -0.354 N 
ATOM     58  N   UNL A   1      42.711  30.352  29.384  1.00  0.00    -0.248 NA
ATOM     59  C   UNL A   1      40.971  31.642  30.260  1.00  0.00     0.031 C 
ATOM     60  C   UNL A   1      46.897  31.762  28.931  1.00  0.00     0.029 A 
ATOM     61  C   UNL A   1      45.585  31.347  29.096  1.00  0.00     0.049 A 
ATOM     62  H   UNL A   1      44.727  29.466  28.664  1.00  0.00     0.167 HD
ATOM     63  C   UNL A   1      43.199  31.614  29.715  1.00  0.00     0.074 A 
ATOM     64  C   UNL A   1      42.073  32.376  30.214  1.00  0.00     0.031 C 
ATOM     65  C   UNL A   1      44.462  32.100  29.607  1.00  0.00     0.034 A 
BRANCH  52  66
ATOM     66  C   UNL A   1      48.545  27.991  27.378  1.00  0.00     0.023 A 
ATOM     67  C   UNL A   1      49.080  28.286  26.110  1.00  0.00     0.031 A 
ATOM     68  C   UNL A   1      49.391  27.374  28.317  1.00  0.00     0.131 A 
ATOM     69  C   UNL A   1      50.388  27.892  25.791  1.00  0.00     0.055 A 
ATOM     70  C   UNL A   1      50.721  27.065  28.022  1.00  0.00     0.041 A 
ATOM     71  F   UNL A   1      48.935  27.048  29.537  1.00  0.00    -0.206 F 
ATOM     72  C   UNL A   1      51.221  27.309  26.747  1.00  0.00     0.022 A 
BRANCH  69  73
ATOM     73  S   UNL A   1      50.931  28.011  24.065  1.00  0.00     0.124 S 
ATOM     74  O   UNL A   1      51.535  29.340  24.036  1.00  0.00    -0.237 OA
ATOM     75  O   UNL A   1      51.852  26.887  23.946  1.00  0.00    -0.237 OA
ATOM     76  O   UNL A   1      49.689  27.883  23.306  1.00  0.00    -0.744 OA
ENDBRANCH  69  73
ENDBRANCH  52  66
BRANCH  53  77
ATOM     77  C   UNL A   1      38.982  29.515  29.925  1.00  0.00     0.023 A 
ATOM     78  C   UNL A   1      38.096  30.279  29.149  1.00  0.00     0.031 A 
ATOM     79  C   UNL A   1      38.512  29.002  31.147  1.00  0.00     0.131 A 
ATOM     80  C   UNL A   1      36.803  30.549  29.624  1.00  0.00     0.055 A 
ATOM     81  C   UNL A   1      37.205  29.223  31.587  1.00  0.00     0.041 A 
ATOM     82  F   UNL A   1      39.317  28.266  31.930  1.00  0.00    -0.206 F 
ATOM     83  C   UNL A   1      36.346  30.012  30.830  1.00  0.00     0.022 A 
BRANCH  80  84
ATOM     84  S   UNL A   1      35.753  31.693  28.686  1.00  0.00     0.124 S 
ATOM     85  O   UNL A   1      34.834  32.163  29.717  1.00  0.00    -0.237 OA
ATOM     86  O   UNL A   1      36.725  32.667  28.199  1.00  0.00    -0.237 OA
ATOM     87  O   UNL A   1      35.157  30.843  27.658  1.00  0.00    -0.744 OA
ENDBRANCH  80  84
ENDBRANCH  53  77
BRANCH  65  88
ATOM     88  C   UNL A   1      44.682  33.544  29.994  1.00  0.00     0.023 A 
ATOM     89  C   UNL A   1      44.470  34.600  29.090  1.00  0.00     0.031 A 
ATOM     90  C   UNL A   1      45.122  33.867  31.290  1.00  0.00     0.131 A 
ATOM     91  C   UNL A   1      44.754  35.919  29.474  1.00  0.00     0.055 A 
ATOM     92  C   UNL A   1      45.337  35.187  31.690  1.00  0.00     0.041 A 
ATOM     93  F   UNL A   1      45.347  32.902  32.197  1.00  0.00    -0.206 F 
ATOM     94  C   UNL A   1      45.165  36.222  30.775  1.00  0.00     0.022 A 
BRANCH  91  95
ATOM     95  S   UNL A   1      44.673  37.230  28.223  1.00  0.00     0.124 S 
ATOM     96  O   UNL A   1      44.683  38.436  29.045  1.00  0.00    -0.237 OA
ATOM     97  O   UNL A   1      45.877  36.986  27.436  1.00  0.00    -0.237 OA
ATOM     98  O   UNL A   1      43.415  36.964  27.528  1.00  0.00    -0.744 OA
ENDBRANCH  91  95
ENDBRANCH  65  88
ENDBRANCH  39  40
ENDBRANCH  31  34
ENDBRANCH  29  30
ENDBRANCH  28  29
ENDBRANCH   1  28
TORSDOF 17
ENDMDL
