MODEL 1
REMARK VINA RESULT:     -12.7      0.000      0.000
REMARK SMILES O=C(C[N@@H+]1CC[N@H+](Cc2cc(F)ccc2Cl)[C@H]2CS(=O)(=O)C[C@H]21)NCCCNC(=O)c1ccc(-c2c3nc(c(-c4cc(S(=O)(=O)[O-])ccc4F)c4ccc([nH]4)c(-c4cc(S(=O)(=O)[O-])ccc4F)c4nc(c(-c5cc(S(=O)(=O)[O-])ccc5F)c5ccc2[nH]5)C=C4)C=C3)cc1
REMARK SMILES IDX 26 1 25 2 24 3 1 4 2 5 3 7 4 8 5 9 23 10 6 12 17 13 22 14
REMARK SMILES IDX 7 15 18 16 19 17 20 19 21 20 8 21 9 22 10 23 15 24 11 25
REMARK SMILES IDX 14 26 16 27 12 28 13 29 27 30 28 31 29 32 30 34 31 35 32 36
REMARK SMILES IDX 93 37 33 38 92 39 34 40 35 41 36 42 86 43 37 44 91 45 85 46
REMARK SMILES IDX 87 47 38 48 90 49 84 50 83 51 39 53 71 54 51 55 70 56 52 57
REMARK SMILES IDX 55 58 69 59 88 60 53 61 54 62 68 64 89 65 56 66 40 67 41 68
REMARK SMILES IDX 49 69 42 70 48 71 50 72 47 73 43 74 44 75 45 76 46 77 72 78
REMARK SMILES IDX 73 79 81 80 74 81 80 82 82 83 79 84 75 85 76 86 77 87 78 88
REMARK SMILES IDX 57 89 58 90 66 91 59 92 65 93 67 94 64 95 60 96 61 97 62 98
REMARK SMILES IDX 63 99
REMARK H PARENT 24 6 4 11 7 18 28 33 87 52 55 63
REMARK Flexibility Score: inf
ROOT
ATOM      1  C   UNL A   1      35.461  20.767  24.975  1.00  0.00     0.042 C 
ENDROOT
BRANCH   1   2
ATOM      2  C   UNL A   1      34.015  20.747  25.606  1.00  0.00     0.118 C 
BRANCH   2   3
ATOM      3  N   UNL A   1      32.964  21.732  25.268  1.00  0.00    -0.351 N 
ATOM      4  O   UNL A   1      33.037  22.882  27.263  1.00  0.00    -0.269 OA
ATOM      5  C   UNL A   1      32.649  22.826  26.097  1.00  0.00     0.275 C 
ATOM      6  H   UNL A   1      32.463  21.618  24.428  1.00  0.00     0.163 HD
BRANCH   5   7
ATOM      7  C   UNL A   1      31.830  24.000  25.423  1.00  0.00     0.364 C 
BRANCH   7   8
ATOM      8  N   UNL A   1      32.507  24.710  24.255  1.00  0.00    -0.314 N 
ATOM      9  C   UNL A   1      33.916  25.047  24.574  1.00  0.00     0.325 C 
ATOM     10  C   UNL A   1      31.834  25.963  23.869  1.00  0.00     0.259 C 
ATOM     11  H   UNL A   1      32.454  24.050  23.479  1.00  0.00     0.349 HD
ATOM     12  C   UNL A   1      34.089  26.164  25.630  1.00  0.00     0.325 C 
ATOM     13  C   UNL A   1      31.810  26.983  25.033  1.00  0.00     0.259 C 
ATOM     14  C   UNL A   1      32.387  26.757  22.676  1.00  0.00     0.208 C 
ATOM     15  N   UNL A   1      33.144  27.307  25.610  1.00  0.00    -0.318 N 
ATOM     16  C   UNL A   1      30.997  28.162  24.467  1.00  0.00     0.208 C 
ATOM     17  S   UNL A   1      31.384  28.236  22.722  1.00  0.00     0.162 S 
ATOM     18  H   UNL A   1      33.492  27.994  24.941  1.00  0.00     0.349 HD
ATOM     19  O   UNL A   1      30.165  27.974  21.967  1.00  0.00    -0.228 OA
ATOM     20  O   UNL A   1      32.203  29.388  22.450  1.00  0.00    -0.228 OA
BRANCH  15  21
ATOM     21  C   UNL A   1      33.132  27.992  26.943  1.00  0.00     0.301 C 
BRANCH  21  22
ATOM     22  C   UNL A   1      34.029  29.226  27.053  1.00  0.00     0.028 A 
ATOM     23  C   UNL A   1      35.425  29.119  27.178  1.00  0.00     0.050 A 
ATOM     24  C   UNL A   1      33.482  30.495  27.186  1.00  0.00     0.050 A 
ATOM     25  C   UNL A   1      36.196  30.215  27.575  1.00  0.00     0.123 A 
ATOM     26  C   UNL A   1      34.261  31.589  27.593  1.00  0.00     0.024 A 
ATOM     27  Cl  UNL A   1      31.817  30.679  26.859  1.00  0.00    -0.084 Cl
ATOM     28  F   UNL A   1      37.506  30.058  27.793  1.00  0.00    -0.207 F 
ATOM     29  C   UNL A   1      35.620  31.448  27.818  1.00  0.00     0.041 A 
ENDBRANCH  21  22
ENDBRANCH  15  21
ENDBRANCH   7   8
ENDBRANCH   5   7
ENDBRANCH   2   3
ENDBRANCH   1   2
BRANCH   1  30
ATOM     30  C   UNL A   1      36.807  21.436  25.459  1.00  0.00     0.118 C 
BRANCH  30  31
ATOM     31  N   UNL A   1      38.051  20.679  25.441  1.00  0.00    -0.352 N 
ATOM     32  C   UNL A   1      39.294  20.992  25.993  1.00  0.00     0.251 C 
ATOM     33  H   UNL A   1      38.010  19.818  24.968  1.00  0.00     0.163 HD
ATOM     34  O   UNL A   1      40.176  20.135  26.025  1.00  0.00    -0.269 OA
BRANCH  32  35
ATOM     35  C   UNL A   1      39.615  22.343  26.518  1.00  0.00     0.039 A 
ATOM     36  C   UNL A   1      40.536  22.408  27.562  1.00  0.00     0.014 A 
ATOM     37  C   UNL A   1      38.974  23.517  26.108  1.00  0.00     0.014 A 
ATOM     38  C   UNL A   1      40.935  23.648  28.072  1.00  0.00     0.010 A 
ATOM     39  C   UNL A   1      39.408  24.768  26.578  1.00  0.00     0.010 A 
ATOM     40  C   UNL A   1      40.442  24.842  27.520  1.00  0.00    -0.014 A 
BRANCH  40  41
ATOM     41  C   UNL A   1      41.165  26.119  27.781  1.00  0.00     0.031 A 
ATOM     42  C   UNL A   1      42.531  26.406  27.234  1.00  0.00     0.074 A 
ATOM     43  C   UNL A   1      40.544  27.031  28.560  1.00  0.00     0.049 A 
ATOM     44  N   UNL A   1      43.256  27.490  27.359  1.00  0.00    -0.248 NA
ATOM     45  C   UNL A   1      43.173  25.339  26.457  1.00  0.00     0.031 C 
ATOM     46  C   UNL A   1      39.225  26.842  29.175  1.00  0.00     0.029 A 
ATOM     47  N   UNL A   1      40.913  28.290  28.961  1.00  0.00    -0.354 N 
ATOM     48  C   UNL A   1      44.439  27.247  26.669  1.00  0.00     0.074 A 
ATOM     49  C   UNL A   1      44.349  25.887  26.172  1.00  0.00     0.031 C 
ATOM     50  C   UNL A   1      38.881  27.955  29.836  1.00  0.00     0.029 A 
ATOM     51  C   UNL A   1      39.972  28.918  29.747  1.00  0.00     0.049 A 
ATOM     52  H   UNL A   1      41.770  28.706  28.713  1.00  0.00     0.167 HD
ATOM     53  C   UNL A   1      45.488  28.086  26.463  1.00  0.00     0.034 A 
ATOM     54  C   UNL A   1      39.983  30.127  30.342  1.00  0.00     0.034 A 
ATOM     55  C   UNL A   1      45.559  29.431  26.988  1.00  0.00     0.049 A 
ATOM     56  C   UNL A   1      41.182  31.015  30.140  1.00  0.00     0.074 A 
ATOM     57  C   UNL A   1      46.556  30.376  26.808  1.00  0.00     0.029 A 
ATOM     58  N   UNL A   1      44.607  30.020  27.812  1.00  0.00    -0.354 N 
ATOM     59  N   UNL A   1      42.267  30.786  29.435  1.00  0.00    -0.248 NA
ATOM     60  C   UNL A   1      41.159  32.322  30.805  1.00  0.00     0.031 C 
ATOM     61  C   UNL A   1      46.246  31.499  27.583  1.00  0.00     0.029 A 
ATOM     62  C   UNL A   1      45.013  31.295  28.182  1.00  0.00     0.049 A 
ATOM     63  H   UNL A   1      43.764  29.594  28.092  1.00  0.00     0.167 HD
ATOM     64  C   UNL A   1      43.042  31.934  29.552  1.00  0.00     0.074 A 
ATOM     65  C   UNL A   1      42.294  32.859  30.378  1.00  0.00     0.031 C 
ATOM     66  C   UNL A   1      44.263  32.201  29.021  1.00  0.00     0.034 A 
BRANCH  53  67
ATOM     67  C   UNL A   1      46.659  27.556  25.665  1.00  0.00     0.023 A 
ATOM     68  C   UNL A   1      46.932  28.013  24.364  1.00  0.00     0.031 A 
ATOM     69  C   UNL A   1      47.509  26.573  26.205  1.00  0.00     0.131 A 
ATOM     70  C   UNL A   1      47.971  27.433  23.619  1.00  0.00     0.055 A 
ATOM     71  C   UNL A   1      48.594  26.060  25.490  1.00  0.00     0.041 A 
ATOM     72  F   UNL A   1      47.292  26.084  27.437  1.00  0.00    -0.206 F 
ATOM     73  C   UNL A   1      48.820  26.478  24.182  1.00  0.00     0.022 A 
BRANCH  70  74
ATOM     74  S   UNL A   1      48.101  27.838  21.856  1.00  0.00     0.124 S 
ATOM     75  O   UNL A   1      48.330  26.520  21.269  1.00  0.00    -0.237 OA
ATOM     76  O   UNL A   1      46.807  28.447  21.576  1.00  0.00    -0.237 OA
ATOM     77  O   UNL A   1      49.245  28.745  21.796  1.00  0.00    -0.744 OA
ENDBRANCH  70  74
ENDBRANCH  53  67
BRANCH  54  78
ATOM     78  C   UNL A   1      38.841  30.559  31.200  1.00  0.00     0.023 A 
ATOM     79  C   UNL A   1      37.920  31.520  30.756  1.00  0.00     0.031 A 
ATOM     80  C   UNL A   1      38.675  30.040  32.498  1.00  0.00     0.131 A 
ATOM     81  C   UNL A   1      36.906  31.967  31.617  1.00  0.00     0.055 A 
ATOM     82  C   UNL A   1      37.629  30.444  33.328  1.00  0.00     0.041 A 
ATOM     83  F   UNL A   1      39.523  29.113  32.972  1.00  0.00    -0.206 F 
ATOM     84  C   UNL A   1      36.745  31.425  32.895  1.00  0.00     0.022 A 
BRANCH  81  85
ATOM     85  S   UNL A   1      35.852  33.341  31.078  1.00  0.00     0.124 S 
ATOM     86  O   UNL A   1      36.516  33.758  29.849  1.00  0.00    -0.237 OA
ATOM     87  O   UNL A   1      34.558  32.685  30.919  1.00  0.00    -0.237 OA
ATOM     88  O   UNL A   1      35.936  34.289  32.187  1.00  0.00    -0.744 OA
ENDBRANCH  81  85
ENDBRANCH  54  78
BRANCH  66  89
ATOM     89  C   UNL A   1      44.844  33.567  29.297  1.00  0.00     0.023 A 
ATOM     90  C   UNL A   1      44.551  34.673  28.480  1.00  0.00     0.031 A 
ATOM     91  C   UNL A   1      45.705  33.763  30.391  1.00  0.00     0.131 A 
ATOM     92  C   UNL A   1      45.155  35.913  28.739  1.00  0.00     0.055 A 
ATOM     93  C   UNL A   1      46.253  35.013  30.682  1.00  0.00     0.041 A 
ATOM     94  F   UNL A   1      46.025  32.740  31.200  1.00  0.00    -0.206 F 
ATOM     95  C   UNL A   1      45.988  36.095  29.847  1.00  0.00     0.022 A 
BRANCH  92  96
ATOM     96  S   UNL A   1      44.905  37.268  27.559  1.00  0.00     0.124 S 
ATOM     97  O   UNL A   1      44.700  38.408  28.447  1.00  0.00    -0.237 OA
ATOM     98  O   UNL A   1      46.156  37.263  26.807  1.00  0.00    -0.237 OA
ATOM     99  O   UNL A   1      43.727  36.850  26.802  1.00  0.00    -0.744 OA
ENDBRANCH  92  96
ENDBRANCH  66  89
ENDBRANCH  40  41
ENDBRANCH  32  35
ENDBRANCH  30  31
ENDBRANCH   1  30
TORSDOF 16
ENDMDL
MODEL 2
REMARK VINA RESULT:     -12.5      2.017      2.978
REMARK SMILES O=C(C[N@@H+]1CC[N@H+](Cc2cc(F)ccc2Cl)[C@H]2CS(=O)(=O)C[C@H]21)NCCCNC(=O)c1ccc(-c2c3nc(c(-c4cc(S(=O)(=O)[O-])ccc4F)c4ccc([nH]4)c(-c4cc(S(=O)(=O)[O-])ccc4F)c4nc(c(-c5cc(S(=O)(=O)[O-])ccc5F)c5ccc2[nH]5)C=C4)C=C3)cc1
REMARK SMILES IDX 26 1 25 2 24 3 1 4 2 5 3 7 4 8 5 9 23 10 6 12 17 13 22 14
REMARK SMILES IDX 7 15 18 16 19 17 20 19 21 20 8 21 9 22 10 23 15 24 11 25
REMARK SMILES IDX 14 26 16 27 12 28 13 29 27 30 28 31 29 32 30 34 31 35 32 36
REMARK SMILES IDX 93 37 33 38 92 39 34 40 35 41 36 42 86 43 37 44 91 45 85 46
REMARK SMILES IDX 87 47 38 48 90 49 84 50 83 51 39 53 71 54 51 55 70 56 52 57
REMARK SMILES IDX 55 58 69 59 88 60 53 61 54 62 68 64 89 65 56 66 40 67 41 68
REMARK SMILES IDX 49 69 42 70 48 71 50 72 47 73 43 74 44 75 45 76 46 77 72 78
REMARK SMILES IDX 73 79 81 80 74 81 80 82 82 83 79 84 75 85 76 86 77 87 78 88
REMARK SMILES IDX 57 89 58 90 66 91 59 92 65 93 67 94 64 95 60 96 61 97 62 98
REMARK SMILES IDX 63 99
REMARK H PARENT 24 6 4 11 7 18 28 33 87 52 55 63
REMARK Flexibility Score: inf
ROOT
ATOM      1  C   UNL A   1      36.187  21.015  24.664  1.00  0.00     0.042 C 
ENDROOT
BRANCH   1   2
ATOM      2  C   UNL A   1      34.741  21.106  25.287  1.00  0.00     0.118 C 
BRANCH   2   3
ATOM      3  N   UNL A   1      33.870  22.295  25.157  1.00  0.00    -0.351 N 
ATOM      4  O   UNL A   1      34.992  23.604  26.687  1.00  0.00    -0.269 OA
ATOM      5  C   UNL A   1      34.157  23.522  25.787  1.00  0.00     0.275 C 
ATOM      6  H   UNL A   1      33.057  22.226  24.606  1.00  0.00     0.163 HD
BRANCH   5   7
ATOM      7  C   UNL A   1      33.393  24.790  25.227  1.00  0.00     0.364 C 
BRANCH   7   8
ATOM      8  N   UNL A   1      32.745  25.699  26.266  1.00  0.00    -0.314 N 
ATOM      9  C   UNL A   1      31.273  25.518  26.296  1.00  0.00     0.325 C 
ATOM     10  C   UNL A   1      33.004  27.130  26.027  1.00  0.00     0.259 C 
ATOM     11  H   UNL A   1      33.167  25.428  27.154  1.00  0.00     0.349 HD
ATOM     12  C   UNL A   1      30.531  26.056  25.050  1.00  0.00     0.325 C 
ATOM     13  C   UNL A   1      32.457  27.591  24.654  1.00  0.00     0.259 C 
ATOM     14  C   UNL A   1      32.446  28.156  27.025  1.00  0.00     0.208 C 
ATOM     15  N   UNL A   1      31.010  27.317  24.433  1.00  0.00    -0.318 N 
ATOM     16  C   UNL A   1      32.905  29.061  24.558  1.00  0.00     0.208 C 
ATOM     17  S   UNL A   1      32.851  29.703  26.226  1.00  0.00     0.162 S 
ATOM     18  H   UNL A   1      30.579  28.097  24.929  1.00  0.00     0.349 HD
ATOM     19  O   UNL A   1      34.204  30.071  26.625  1.00  0.00    -0.228 OA
ATOM     20  O   UNL A   1      31.751  30.622  26.362  1.00  0.00    -0.228 OA
BRANCH  15  21
ATOM     21  C   UNL A   1      30.536  27.412  23.014  1.00  0.00     0.301 C 
BRANCH  21  22
ATOM     22  C   UNL A   1      29.479  28.486  22.748  1.00  0.00     0.028 A 
ATOM     23  C   UNL A   1      29.810  29.725  22.173  1.00  0.00     0.050 A 
ATOM     24  C   UNL A   1      28.178  28.333  23.208  1.00  0.00     0.050 A 
ATOM     25  C   UNL A   1      28.913  30.797  22.212  1.00  0.00     0.123 A 
ATOM     26  C   UNL A   1      27.285  29.416  23.251  1.00  0.00     0.024 A 
ATOM     27  Cl  UNL A   1      27.702  26.785  23.742  1.00  0.00    -0.084 Cl
ATOM     28  F   UNL A   1      29.294  31.995  21.756  1.00  0.00    -0.207 F 
ATOM     29  C   UNL A   1      27.659  30.663  22.779  1.00  0.00     0.041 A 
ENDBRANCH  21  22
ENDBRANCH  15  21
ENDBRANCH   7   8
ENDBRANCH   5   7
ENDBRANCH   2   3
ENDBRANCH   1   2
BRANCH   1  30
ATOM     30  C   UNL A   1      37.545  21.718  25.058  1.00  0.00     0.118 C 
BRANCH  30  31
ATOM     31  N   UNL A   1      38.701  20.921  25.443  1.00  0.00    -0.352 N 
ATOM     32  C   UNL A   1      39.741  21.223  26.323  1.00  0.00     0.251 C 
ATOM     33  H   UNL A   1      38.759  20.036  25.018  1.00  0.00     0.163 HD
ATOM     34  O   UNL A   1      40.532  20.341  26.653  1.00  0.00    -0.269 OA
BRANCH  32  35
ATOM     35  C   UNL A   1      39.960  22.590  26.858  1.00  0.00     0.039 A 
ATOM     36  C   UNL A   1      40.916  22.727  27.862  1.00  0.00     0.014 A 
ATOM     37  C   UNL A   1      39.196  23.706  26.496  1.00  0.00     0.014 A 
ATOM     38  C   UNL A   1      41.221  23.991  28.376  1.00  0.00     0.010 A 
ATOM     39  C   UNL A   1      39.533  24.985  26.969  1.00  0.00     0.010 A 
ATOM     40  C   UNL A   1      40.597  25.142  27.867  1.00  0.00    -0.014 A 
BRANCH  40  41
ATOM     41  C   UNL A   1      41.210  26.477  28.120  1.00  0.00     0.031 A 
ATOM     42  C   UNL A   1      42.615  26.815  27.717  1.00  0.00     0.074 A 
ATOM     43  C   UNL A   1      40.449  27.394  28.753  1.00  0.00     0.049 A 
ATOM     44  N   UNL A   1      43.256  27.949  27.849  1.00  0.00    -0.248 NA
ATOM     45  C   UNL A   1      43.405  25.744  27.099  1.00  0.00     0.031 C 
ATOM     46  C   UNL A   1      39.078  27.162  29.221  1.00  0.00     0.029 A 
ATOM     47  N   UNL A   1      40.695  28.698  29.105  1.00  0.00    -0.354 N 
ATOM     48  C   UNL A   1      44.526  27.738  27.322  1.00  0.00     0.074 A 
ATOM     49  C   UNL A   1      44.574  26.347  26.915  1.00  0.00     0.031 C 
ATOM     50  C   UNL A   1      38.595  28.290  29.757  1.00  0.00     0.029 A 
ATOM     51  C   UNL A   1      39.632  29.314  29.728  1.00  0.00     0.049 A 
ATOM     52  H   UNL A   1      41.552  29.151  28.929  1.00  0.00     0.167 HD
ATOM     53  C   UNL A   1      45.544  28.628  27.181  1.00  0.00     0.034 A 
ATOM     54  C   UNL A   1      39.504  30.556  30.233  1.00  0.00     0.034 A 
ATOM     55  C   UNL A   1      45.476  30.006  27.613  1.00  0.00     0.049 A 
ATOM     56  C   UNL A   1      40.667  31.504  30.110  1.00  0.00     0.074 A 
ATOM     57  C   UNL A   1      46.432  30.999  27.484  1.00  0.00     0.029 A 
ATOM     58  N   UNL A   1      44.399  30.584  28.276  1.00  0.00    -0.354 N 
ATOM     59  N   UNL A   1      41.840  31.301  29.555  1.00  0.00    -0.248 NA
ATOM     60  C   UNL A   1      40.490  32.847  30.673  1.00  0.00     0.031 C 
ATOM     61  C   UNL A   1      45.969  32.147  28.137  1.00  0.00     0.029 A 
ATOM     62  C   UNL A   1      44.686  31.904  28.599  1.00  0.00     0.049 A 
ATOM     63  H   UNL A   1      43.554  30.124  28.485  1.00  0.00     0.167 HD
ATOM     64  C   UNL A   1      42.530  32.501  29.680  1.00  0.00     0.074 A 
ATOM     65  C   UNL A   1      41.636  33.427  30.345  1.00  0.00     0.031 C 
ATOM     66  C   UNL A   1      43.790  32.812  29.279  1.00  0.00     0.034 A 
BRANCH  53  67
ATOM     67  C   UNL A   1      46.831  28.124  26.566  1.00  0.00     0.023 A 
ATOM     68  C   UNL A   1      47.059  28.184  25.180  1.00  0.00     0.031 A 
ATOM     69  C   UNL A   1      47.841  27.566  27.371  1.00  0.00     0.131 A 
ATOM     70  C   UNL A   1      48.225  27.624  24.634  1.00  0.00     0.055 A 
ATOM     71  C   UNL A   1      49.037  27.086  26.831  1.00  0.00     0.041 A 
ATOM     72  F   UNL A   1      47.678  27.466  28.700  1.00  0.00    -0.206 F 
ATOM     73  C   UNL A   1      49.227  27.098  25.452  1.00  0.00     0.022 A 
BRANCH  70  74
ATOM     74  S   UNL A   1      48.343  27.457  22.832  1.00  0.00     0.124 S 
ATOM     75  O   UNL A   1      47.164  28.198  22.391  1.00  0.00    -0.237 OA
ATOM     76  O   UNL A   1      49.632  28.073  22.542  1.00  0.00    -0.237 OA
ATOM     77  O   UNL A   1      48.278  26.013  22.617  1.00  0.00    -0.744 OA
ENDBRANCH  70  74
ENDBRANCH  53  67
BRANCH  54  78
ATOM     78  C   UNL A   1      38.244  30.968  30.919  1.00  0.00     0.023 A 
ATOM     79  C   UNL A   1      37.228  31.646  30.227  1.00  0.00     0.031 A 
ATOM     80  C   UNL A   1      38.053  30.719  32.290  1.00  0.00     0.131 A 
ATOM     81  C   UNL A   1      36.091  32.095  30.919  1.00  0.00     0.055 A 
ATOM     82  C   UNL A   1      36.894  31.113  32.959  1.00  0.00     0.041 A 
ATOM     83  F   UNL A   1      38.989  30.067  33.000  1.00  0.00    -0.206 F 
ATOM     84  C   UNL A   1      35.911  31.820  32.276  1.00  0.00     0.022 A 
BRANCH  81  85
ATOM     85  S   UNL A   1      34.890  33.129  30.036  1.00  0.00     0.124 S 
ATOM     86  O   UNL A   1      34.027  33.572  31.125  1.00  0.00    -0.237 OA
ATOM     87  O   UNL A   1      35.748  34.147  29.440  1.00  0.00    -0.237 OA
ATOM     88  O   UNL A   1      34.276  32.201  29.090  1.00  0.00    -0.744 OA
ENDBRANCH  81  85
ENDBRANCH  54  78
BRANCH  66  89
ATOM     89  C   UNL A   1      44.256  34.226  29.523  1.00  0.00     0.023 A 
ATOM     90  C   UNL A   1      43.906  35.279  28.658  1.00  0.00     0.031 A 
ATOM     91  C   UNL A   1      45.063  34.525  30.635  1.00  0.00     0.131 A 
ATOM     92  C   UNL A   1      44.405  36.570  28.891  1.00  0.00     0.055 A 
ATOM     93  C   UNL A   1      45.504  35.822  30.897  1.00  0.00     0.041 A 
ATOM     94  F   UNL A   1      45.433  33.557  31.489  1.00  0.00    -0.206 F 
ATOM     95  C   UNL A   1      45.185  36.852  30.016  1.00  0.00     0.022 A 
BRANCH  92  96
ATOM     96  S   UNL A   1      44.092  37.861  27.656  1.00  0.00     0.124 S 
ATOM     97  O   UNL A   1      43.557  38.942  28.478  1.00  0.00    -0.237 OA
ATOM     98  O   UNL A   1      45.420  38.085  27.094  1.00  0.00    -0.237 OA
ATOM     99  O   UNL A   1      43.131  37.239  26.746  1.00  0.00    -0.744 OA
ENDBRANCH  92  96
ENDBRANCH  66  89
ENDBRANCH  40  41
ENDBRANCH  32  35
ENDBRANCH  30  31
ENDBRANCH   1  30
TORSDOF 16
ENDMDL
MODEL 3
REMARK VINA RESULT:     -12.4      5.074     10.682
REMARK SMILES O=C(C[N@@H+]1CC[N@H+](Cc2cc(F)ccc2Cl)[C@H]2CS(=O)(=O)C[C@H]21)NCCCNC(=O)c1ccc(-c2c3nc(c(-c4cc(S(=O)(=O)[O-])ccc4F)c4ccc([nH]4)c(-c4cc(S(=O)(=O)[O-])ccc4F)c4nc(c(-c5cc(S(=O)(=O)[O-])ccc5F)c5ccc2[nH]5)C=C4)C=C3)cc1
REMARK SMILES IDX 26 1 25 2 24 3 1 4 2 5 3 7 4 8 5 9 23 10 6 12 17 13 22 14
REMARK SMILES IDX 7 15 18 16 19 17 20 19 21 20 8 21 9 22 10 23 15 24 11 25
REMARK SMILES IDX 14 26 16 27 12 28 13 29 27 30 28 31 29 32 30 34 31 35 32 36
REMARK SMILES IDX 93 37 33 38 92 39 34 40 35 41 36 42 86 43 37 44 91 45 85 46
REMARK SMILES IDX 87 47 38 48 90 49 84 50 83 51 39 53 71 54 51 55 70 56 52 57
REMARK SMILES IDX 55 58 69 59 88 60 53 61 54 62 68 64 89 65 56 66 40 67 41 68
REMARK SMILES IDX 49 69 42 70 48 71 50 72 47 73 43 74 44 75 45 76 46 77 72 78
REMARK SMILES IDX 73 79 81 80 74 81 80 82 82 83 79 84 75 85 76 86 77 87 78 88
REMARK SMILES IDX 57 89 58 90 66 91 59 92 65 93 67 94 64 95 60 96 61 97 62 98
REMARK SMILES IDX 63 99
REMARK H PARENT 24 6 4 11 7 18 28 33 87 52 55 63
REMARK Flexibility Score: inf
ROOT
ATOM      1  C   UNL A   1      31.263  29.587  25.272  1.00  0.00     0.042 C 
ENDROOT
BRANCH   1   2
ATOM      2  C   UNL A   1      31.172  28.619  24.029  1.00  0.00     0.118 C 
BRANCH   2   3
ATOM      3  N   UNL A   1      31.629  27.212  24.055  1.00  0.00    -0.351 N 
ATOM      4  O   UNL A   1      33.865  27.662  23.723  1.00  0.00    -0.269 OA
ATOM      5  C   UNL A   1      32.991  26.853  24.031  1.00  0.00     0.275 C 
ATOM      6  H   UNL A   1      30.953  26.497  24.091  1.00  0.00     0.163 HD
BRANCH   5   7
ATOM      7  C   UNL A   1      33.331  25.377  24.487  1.00  0.00     0.364 C 
BRANCH   7   8
ATOM      8  N   UNL A   1      34.454  24.679  23.726  1.00  0.00    -0.314 N 
ATOM      9  C   UNL A   1      33.930  23.948  22.546  1.00  0.00     0.325 C 
ATOM     10  C   UNL A   1      35.196  23.707  24.548  1.00  0.00     0.259 C 
ATOM     11  H   UNL A   1      35.087  25.428  23.443  1.00  0.00     0.349 HD
ATOM     12  C   UNL A   1      33.091  22.693  22.884  1.00  0.00     0.325 C 
ATOM     13  C   UNL A   1      34.274  22.581  25.077  1.00  0.00     0.259 C 
ATOM     14  C   UNL A   1      36.383  22.964  23.917  1.00  0.00     0.208 C 
ATOM     15  N   UNL A   1      33.515  21.848  24.027  1.00  0.00    -0.318 N 
ATOM     16  C   UNL A   1      35.203  21.741  25.973  1.00  0.00     0.208 C 
ATOM     17  S   UNL A   1      36.817  21.804  25.206  1.00  0.00     0.162 S 
ATOM     18  H   UNL A   1      34.218  21.190  23.692  1.00  0.00     0.349 HD
ATOM     19  O   UNL A   1      37.737  22.472  26.119  1.00  0.00    -0.228 OA
ATOM     20  O   UNL A   1      37.133  20.526  24.624  1.00  0.00    -0.228 OA
BRANCH  15  21
ATOM     21  C   UNL A   1      32.364  21.017  24.511  1.00  0.00     0.301 C 
BRANCH  21  22
ATOM     22  C   UNL A   1      32.516  19.509  24.306  1.00  0.00     0.028 A 
ATOM     23  C   UNL A   1      32.867  18.649  25.361  1.00  0.00     0.050 A 
ATOM     24  C   UNL A   1      32.461  18.954  23.034  1.00  0.00     0.050 A 
ATOM     25  C   UNL A   1      33.294  17.341  25.109  1.00  0.00     0.123 A 
ATOM     26  C   UNL A   1      32.899  17.643  22.788  1.00  0.00     0.024 A 
ATOM     27  Cl  UNL A   1      31.864  19.929  21.768  1.00  0.00    -0.084 Cl
ATOM     28  F   UNL A   1      33.726  16.581  26.121  1.00  0.00    -0.207 F 
ATOM     29  C   UNL A   1      33.345  16.837  23.823  1.00  0.00     0.041 A 
ENDBRANCH  21  22
ENDBRANCH  15  21
ENDBRANCH   7   8
ENDBRANCH   5   7
ENDBRANCH   2   3
ENDBRANCH   1   2
BRANCH   1  30
ATOM     30  C   UNL A   1      32.502  30.202  26.033  1.00  0.00     0.118 C 
BRANCH  30  31
ATOM     31  N   UNL A   1      32.382  31.481  26.718  1.00  0.00    -0.352 N 
ATOM     32  C   UNL A   1      33.327  32.187  27.464  1.00  0.00     0.251 C 
ATOM     33  H   UNL A   1      31.502  31.914  26.646  1.00  0.00     0.163 HD
ATOM     34  O   UNL A   1      33.086  33.342  27.812  1.00  0.00    -0.269 OA
BRANCH  32  35
ATOM     35  C   UNL A   1      34.615  31.585  27.892  1.00  0.00     0.039 A 
ATOM     36  C   UNL A   1      35.685  32.458  28.081  1.00  0.00     0.014 A 
ATOM     37  C   UNL A   1      34.838  30.208  28.003  1.00  0.00     0.014 A 
ATOM     38  C   UNL A   1      36.914  31.975  28.541  1.00  0.00     0.010 A 
ATOM     39  C   UNL A   1      36.054  29.722  28.515  1.00  0.00     0.010 A 
ATOM     40  C   UNL A   1      37.080  30.615  28.849  1.00  0.00    -0.014 A 
BRANCH  40  41
ATOM     41  C   UNL A   1      38.226  30.195  29.705  1.00  0.00     0.031 A 
ATOM     42  C   UNL A   1      38.415  30.689  31.108  1.00  0.00     0.074 A 
ATOM     43  C   UNL A   1      39.123  29.347  29.160  1.00  0.00     0.049 A 
ATOM     44  N   UNL A   1      39.351  30.376  31.970  1.00  0.00    -0.248 NA
ATOM     45  C   UNL A   1      37.439  31.666  31.607  1.00  0.00     0.031 C 
ATOM     46  C   UNL A   1      39.056  28.829  27.789  1.00  0.00     0.029 A 
ATOM     47  N   UNL A   1      40.251  28.758  29.675  1.00  0.00    -0.354 N 
ATOM     48  C   UNL A   1      39.077  31.107  33.121  1.00  0.00     0.074 A 
ATOM     49  C   UNL A   1      37.912  31.918  32.822  1.00  0.00     0.031 C 
ATOM     50  C   UNL A   1      40.067  27.973  27.588  1.00  0.00     0.029 A 
ATOM     51  C   UNL A   1      40.891  27.920  28.789  1.00  0.00     0.049 A 
ATOM     52  H   UNL A   1      40.573  28.919  30.592  1.00  0.00     0.167 HD
ATOM     53  C   UNL A   1      39.729  31.088  34.313  1.00  0.00     0.034 A 
ATOM     54  C   UNL A   1      42.021  27.197  28.917  1.00  0.00     0.034 A 
ATOM     55  C   UNL A   1      40.901  30.284  34.578  1.00  0.00     0.049 A 
ATOM     56  C   UNL A   1      42.753  27.237  30.232  1.00  0.00     0.074 A 
ATOM     57  C   UNL A   1      41.615  30.161  35.758  1.00  0.00     0.029 A 
ATOM     58  N   UNL A   1      41.545  29.478  33.646  1.00  0.00    -0.354 N 
ATOM     59  N   UNL A   1      42.443  27.891  31.328  1.00  0.00    -0.248 NA
ATOM     60  C   UNL A   1      43.980  26.438  30.333  1.00  0.00     0.031 C 
ATOM     61  C   UNL A   1      42.730  29.350  35.519  1.00  0.00     0.029 A 
ATOM     62  C   UNL A   1      42.669  28.892  34.213  1.00  0.00     0.049 A 
ATOM     63  H   UNL A   1      41.246  29.342  32.718  1.00  0.00     0.167 HD
ATOM     64  C   UNL A   1      43.425  27.562  32.256  1.00  0.00     0.074 A 
ATOM     65  C   UNL A   1      44.324  26.636  31.598  1.00  0.00     0.031 C 
ATOM     66  C   UNL A   1      43.568  27.983  33.538  1.00  0.00     0.034 A 
BRANCH  53  67
ATOM     67  C   UNL A   1      39.210  31.994  35.408  1.00  0.00     0.023 A 
ATOM     68  C   UNL A   1      39.629  33.331  35.520  1.00  0.00     0.031 A 
ATOM     69  C   UNL A   1      38.292  31.514  36.361  1.00  0.00     0.131 A 
ATOM     70  C   UNL A   1      39.197  34.115  36.602  1.00  0.00     0.055 A 
ATOM     71  C   UNL A   1      37.801  32.325  37.388  1.00  0.00     0.041 A 
ATOM     72  F   UNL A   1      37.865  30.242  36.319  1.00  0.00    -0.206 F 
ATOM     73  C   UNL A   1      38.267  33.629  37.523  1.00  0.00     0.022 A 
BRANCH  70  74
ATOM     74  S   UNL A   1      39.987  35.726  36.872  1.00  0.00     0.124 S 
ATOM     75  O   UNL A   1      41.388  35.342  37.028  1.00  0.00    -0.237 OA
ATOM     76  O   UNL A   1      39.652  36.449  35.652  1.00  0.00    -0.237 OA
ATOM     77  O   UNL A   1      39.346  36.221  38.088  1.00  0.00    -0.744 OA
ENDBRANCH  70  74
ENDBRANCH  53  67
BRANCH  54  78
ATOM     78  C   UNL A   1      42.543  26.398  27.770  1.00  0.00     0.023 A 
ATOM     79  C   UNL A   1      42.122  25.077  27.553  1.00  0.00     0.031 A 
ATOM     80  C   UNL A   1      43.500  26.936  26.890  1.00  0.00     0.131 A 
ATOM     81  C   UNL A   1      42.693  24.323  26.515  1.00  0.00     0.055 A 
ATOM     82  C   UNL A   1      44.019  26.202  25.823  1.00  0.00     0.041 A 
ATOM     83  F   UNL A   1      43.933  28.198  27.046  1.00  0.00    -0.206 F 
ATOM     84  C   UNL A   1      43.627  24.881  25.640  1.00  0.00     0.022 A 
BRANCH  81  85
ATOM     85  S   UNL A   1      42.265  22.565  26.382  1.00  0.00     0.124 S 
ATOM     86  O   UNL A   1      40.833  22.588  26.655  1.00  0.00    -0.237 OA
ATOM     87  O   UNL A   1      42.653  22.263  25.008  1.00  0.00    -0.237 OA
ATOM     88  O   UNL A   1      43.088  21.937  27.412  1.00  0.00    -0.744 OA
ENDBRANCH  81  85
ENDBRANCH  54  78
BRANCH  66  89
ATOM     89  C   UNL A   1      44.728  27.415  34.319  1.00  0.00     0.023 A 
ATOM     90  C   UNL A   1      44.620  26.203  35.026  1.00  0.00     0.031 A 
ATOM     91  C   UNL A   1      45.958  28.096  34.359  1.00  0.00     0.131 A 
ATOM     92  C   UNL A   1      45.705  25.737  35.784  1.00  0.00     0.055 A 
ATOM     93  C   UNL A   1      47.053  27.595  35.062  1.00  0.00     0.041 A 
ATOM     94  F   UNL A   1      46.115  29.260  33.709  1.00  0.00    -0.206 F 
ATOM     95  C   UNL A   1      46.928  26.414  35.790  1.00  0.00     0.022 A 
BRANCH  92  96
ATOM     96  S   UNL A   1      45.472  24.275  36.831  1.00  0.00     0.124 S 
ATOM     97  O   UNL A   1      44.872  24.854  38.029  1.00  0.00    -0.237 OA
ATOM     98  O   UNL A   1      44.593  23.443  36.016  1.00  0.00    -0.237 OA
ATOM     99  O   UNL A   1      46.828  23.757  37.005  1.00  0.00    -0.744 OA
ENDBRANCH  92  96
ENDBRANCH  66  89
ENDBRANCH  40  41
ENDBRANCH  32  35
ENDBRANCH  30  31
ENDBRANCH   1  30
TORSDOF 16
ENDMDL
