MODEL 1
REMARK VINA RESULT:     -11.6      0.000      0.000
REMARK SMILES CCC1(C(=O)NCCCNC(=O)c2ccc(-c3c4nc(c(-c5cc(S(=O)(=O)[O-])ccc5F)c5ccc([nH]5)c(-c5cc(S(=O)(=O)[O-])ccc5F)c5nc(c(-c6cc(S(=O)(=O)[O-])ccc6F)c6ccc3[nH]6)C=C5)C=C4)cc2)CCN(C(=O)C[C@H]2CSCC[NH2+]2)CC1
REMARK SMILES IDX 8 1 7 2 6 3 4 4 5 5 3 7 76 8 89 9 77 10 88 11 78 12 79 13
REMARK SMILES IDX 80 14 2 15 1 16 81 17 82 18 83 19 87 20 84 21 86 22 85 25
REMARK SMILES IDX 9 26 10 27 11 28 12 30 13 31 14 32 75 33 15 34 74 35 16 36
REMARK SMILES IDX 17 37 18 38 68 39 19 40 73 41 67 42 69 43 20 44 72 45 66 46
REMARK SMILES IDX 65 47 21 49 53 50 33 51 52 52 34 53 37 54 51 55 70 56 35 57
REMARK SMILES IDX 36 58 50 60 71 61 38 62 22 63 23 64 31 65 24 66 30 67 32 68
REMARK SMILES IDX 29 69 25 70 26 71 27 72 28 73 54 74 55 75 63 76 56 77 62 78
REMARK SMILES IDX 64 79 61 80 57 81 58 82 59 83 60 84 39 85 40 86 48 87 41 88
REMARK SMILES IDX 47 89 49 90 46 91 42 92 43 93 44 94 45 95
REMARK H PARENT 6 6 87 23 87 24 10 29 69 48 37 59
REMARK Flexibility Score: inf
ROOT
ATOM      1  C   UNL A   1      36.735  22.099  23.868  1.00  0.00     0.042 C 
ENDROOT
BRANCH   1   2
ATOM      2  C   UNL A   1      35.821  23.285  23.598  1.00  0.00     0.117 C 
BRANCH   2   3
ATOM      3  N   UNL A   1      35.109  23.706  24.793  1.00  0.00    -0.356 N 
ATOM      4  C   UNL A   1      33.808  24.026  25.020  1.00  0.00     0.226 C 
ATOM      5  O   UNL A   1      33.499  24.172  26.206  1.00  0.00    -0.274 OA
ATOM      6  H   UNL A   1      35.680  23.772  25.592  1.00  0.00     0.163 HD
BRANCH   4   7
ATOM      7  C   UNL A   1      32.760  24.122  23.885  1.00  0.00     0.052 C 
ATOM      8  C   UNL A   1      31.305  24.175  24.439  1.00  0.00     0.038 C 
ATOM      9  C   UNL A   1      33.133  25.388  23.053  1.00  0.00     0.038 C 
ATOM     10  C   UNL A   1      30.287  24.768  23.461  1.00  0.00     0.120 C 
ATOM     11  C   UNL A   1      32.016  25.909  22.161  1.00  0.00     0.120 C 
ATOM     12  N   UNL A   1      30.770  26.026  22.904  1.00  0.00    -0.342 N 
ATOM     13  C   UNL A   1      29.999  27.171  23.055  1.00  0.00     0.228 C 
ATOM     14  O   UNL A   1      28.870  27.130  23.551  1.00  0.00    -0.275 OA
BRANCH   7  15
ATOM     15  C   UNL A   1      32.877  22.882  22.930  1.00  0.00     0.013 C 
ATOM     16  C   UNL A   1      32.523  21.516  23.524  1.00  0.00     0.005 C 
ENDBRANCH   7  15
BRANCH  13  17
ATOM     17  C   UNL A   1      30.590  28.523  22.687  1.00  0.00     0.166 C 
BRANCH  17  18
ATOM     18  C   UNL A   1      29.472  29.567  22.516  1.00  0.00     0.201 C 
ATOM     19  C   UNL A   1      29.471  30.551  23.699  1.00  0.00     0.135 C 
ATOM     20  N   UNL A   1      29.638  30.293  21.242  1.00  0.00    -0.342 N 
ATOM     21  S   UNL A   1      28.007  31.638  23.650  1.00  0.00    -0.150 SA
ATOM     22  C   UNL A   1      28.477  31.141  20.939  1.00  0.00     0.271 C 
ATOM     23  H   UNL A   1      29.756  29.616  20.488  1.00  0.00     0.346 HD
ATOM     24  H   UNL A   1      30.456  30.896  21.325  1.00  0.00     0.346 HD
ATOM     25  C   UNL A   1      28.221  32.264  21.948  1.00  0.00     0.131 C 
ENDBRANCH  17  18
ENDBRANCH  13  17
ENDBRANCH   4   7
ENDBRANCH   2   3
ENDBRANCH   1   2
BRANCH   1  26
ATOM     26  C   UNL A   1      36.809  21.703  25.338  1.00  0.00     0.118 C 
BRANCH  26  27
ATOM     27  N   UNL A   1      37.895  20.773  25.629  1.00  0.00    -0.352 N 
ATOM     28  C   UNL A   1      39.182  20.980  26.063  1.00  0.00     0.251 C 
ATOM     29  H   UNL A   1      37.664  19.826  25.488  1.00  0.00     0.163 HD
ATOM     30  O   UNL A   1      39.962  20.029  26.069  1.00  0.00    -0.269 OA
BRANCH  28  31
ATOM     31  C   UNL A   1      39.651  22.320  26.481  1.00  0.00     0.039 A 
ATOM     32  C   UNL A   1      40.803  22.416  27.267  1.00  0.00     0.014 A 
ATOM     33  C   UNL A   1      38.961  23.480  26.128  1.00  0.00     0.014 A 
ATOM     34  C   UNL A   1      41.310  23.671  27.617  1.00  0.00     0.010 A 
ATOM     35  C   UNL A   1      39.521  24.727  26.386  1.00  0.00     0.010 A 
ATOM     36  C   UNL A   1      40.703  24.840  27.133  1.00  0.00    -0.014 A 
BRANCH  36  37
ATOM     37  C   UNL A   1      41.267  26.189  27.401  1.00  0.00     0.031 A 
ATOM     38  C   UNL A   1      42.649  26.532  26.907  1.00  0.00     0.074 A 
ATOM     39  C   UNL A   1      40.582  27.068  28.160  1.00  0.00     0.049 A 
ATOM     40  N   UNL A   1      43.394  27.574  27.179  1.00  0.00    -0.248 NA
ATOM     41  C   UNL A   1      43.294  25.550  26.022  1.00  0.00     0.031 C 
ATOM     42  C   UNL A   1      39.252  26.839  28.731  1.00  0.00     0.029 A 
ATOM     43  N   UNL A   1      40.915  28.325  28.600  1.00  0.00    -0.354 N 
ATOM     44  C   UNL A   1      44.601  27.359  26.524  1.00  0.00     0.074 A 
ATOM     45  C   UNL A   1      44.508  26.060  25.890  1.00  0.00     0.031 C 
ATOM     46  C   UNL A   1      38.878  27.924  29.428  1.00  0.00     0.029 A 
ATOM     47  C   UNL A   1      39.957  28.904  29.402  1.00  0.00     0.049 A 
ATOM     48  H   UNL A   1      41.761  28.770  28.364  1.00  0.00     0.167 HD
ATOM     49  C   UNL A   1      45.678  28.177  26.436  1.00  0.00     0.034 A 
ATOM     50  C   UNL A   1      39.958  30.080  30.059  1.00  0.00     0.034 A 
ATOM     51  C   UNL A   1      45.743  29.484  27.043  1.00  0.00     0.049 A 
ATOM     52  C   UNL A   1      41.165  30.979  29.938  1.00  0.00     0.074 A 
ATOM     53  C   UNL A   1      46.768  30.412  26.988  1.00  0.00     0.029 A 
ATOM     54  N   UNL A   1      44.733  30.053  27.808  1.00  0.00    -0.354 N 
ATOM     55  N   UNL A   1      42.291  30.766  29.297  1.00  0.00    -0.248 NA
ATOM     56  C   UNL A   1      41.095  32.279  30.618  1.00  0.00     0.031 C 
ATOM     57  C   UNL A   1      46.397  31.522  27.756  1.00  0.00     0.029 A 
ATOM     58  C   UNL A   1      45.114  31.314  28.237  1.00  0.00     0.049 A 
ATOM     59  H   UNL A   1      43.871  29.624  28.014  1.00  0.00     0.167 HD
ATOM     60  C   UNL A   1      43.048  31.921  29.471  1.00  0.00     0.074 A 
ATOM     61  C   UNL A   1      42.245  32.830  30.261  1.00  0.00     0.031 C 
ATOM     62  C   UNL A   1      44.296  32.206  29.021  1.00  0.00     0.034 A 
BRANCH  49  63
ATOM     63  C   UNL A   1      46.873  27.673  25.663  1.00  0.00     0.023 A 
ATOM     64  C   UNL A   1      47.092  28.045  24.325  1.00  0.00     0.031 A 
ATOM     65  C   UNL A   1      47.793  26.796  26.262  1.00  0.00     0.131 A 
ATOM     66  C   UNL A   1      48.158  27.483  23.608  1.00  0.00     0.055 A 
ATOM     67  C   UNL A   1      48.900  26.303  25.566  1.00  0.00     0.041 A 
ATOM     68  F   UNL A   1      47.626  26.390  27.531  1.00  0.00    -0.206 F 
ATOM     69  C   UNL A   1      49.079  26.635  24.226  1.00  0.00     0.022 A 
BRANCH  66  70
ATOM     70  S   UNL A   1      48.249  27.778  21.821  1.00  0.00     0.124 S 
ATOM     71  O   UNL A   1      48.461  26.424  21.313  1.00  0.00    -0.237 OA
ATOM     72  O   UNL A   1      46.949  28.372  21.530  1.00  0.00    -0.237 OA
ATOM     73  O   UNL A   1      49.391  28.677  21.680  1.00  0.00    -0.744 OA
ENDBRANCH  66  70
ENDBRANCH  49  63
BRANCH  50  74
ATOM     74  C   UNL A   1      38.798  30.483  30.905  1.00  0.00     0.023 A 
ATOM     75  C   UNL A   1      37.687  31.133  30.343  1.00  0.00     0.031 A 
ATOM     76  C   UNL A   1      38.807  30.279  32.297  1.00  0.00     0.131 A 
ATOM     77  C   UNL A   1      36.663  31.613  31.174  1.00  0.00     0.055 A 
ATOM     78  C   UNL A   1      37.757  30.707  33.111  1.00  0.00     0.041 A 
ATOM     79  F   UNL A   1      39.839  29.655  32.884  1.00  0.00    -0.206 F 
ATOM     80  C   UNL A   1      36.683  31.393  32.552  1.00  0.00     0.022 A 
BRANCH  77  81
ATOM     81  S   UNL A   1      35.352  32.627  30.434  1.00  0.00     0.124 S 
ATOM     82  O   UNL A   1      34.363  32.663  31.504  1.00  0.00    -0.237 OA
ATOM     83  O   UNL A   1      36.055  33.878  30.167  1.00  0.00    -0.237 OA
ATOM     84  O   UNL A   1      34.965  31.866  29.248  1.00  0.00    -0.744 OA
ENDBRANCH  77  81
ENDBRANCH  50  74
BRANCH  62  85
ATOM     85  C   UNL A   1      44.833  33.581  29.327  1.00  0.00     0.023 A 
ATOM     86  C   UNL A   1      44.652  34.658  28.442  1.00  0.00     0.031 A 
ATOM     87  C   UNL A   1      45.548  33.809  30.516  1.00  0.00     0.131 A 
ATOM     88  C   UNL A   1      45.226  35.904  28.736  1.00  0.00     0.055 A 
ATOM     89  C   UNL A   1      46.070  35.064  30.827  1.00  0.00     0.041 A 
ATOM     90  F   UNL A   1      45.748  32.813  31.394  1.00  0.00    -0.206 F 
ATOM     91  C   UNL A   1      45.922  36.117  29.929  1.00  0.00     0.022 A 
BRANCH  88  92
ATOM     92  S   UNL A   1      45.121  37.224  27.497  1.00  0.00     0.124 S 
ATOM     93  O   UNL A   1      43.746  37.089  27.026  1.00  0.00    -0.237 OA
ATOM     94  O   UNL A   1      45.410  38.417  28.287  1.00  0.00    -0.237 OA
ATOM     95  O   UNL A   1      46.148  36.863  26.522  1.00  0.00    -0.744 OA
ENDBRANCH  88  92
ENDBRANCH  62  85
ENDBRANCH  36  37
ENDBRANCH  28  31
ENDBRANCH  26  27
ENDBRANCH   1  26
TORSDOF 16
ENDMDL
MODEL 2
REMARK VINA RESULT:     -11.6      5.586      8.424
REMARK SMILES CCC1(C(=O)NCCCNC(=O)c2ccc(-c3c4nc(c(-c5cc(S(=O)(=O)[O-])ccc5F)c5ccc([nH]5)c(-c5cc(S(=O)(=O)[O-])ccc5F)c5nc(c(-c6cc(S(=O)(=O)[O-])ccc6F)c6ccc3[nH]6)C=C5)C=C4)cc2)CCN(C(=O)C[C@H]2CSCC[NH2+]2)CC1
REMARK SMILES IDX 8 1 7 2 6 3 4 4 5 5 3 7 76 8 89 9 77 10 88 11 78 12 79 13
REMARK SMILES IDX 80 14 2 15 1 16 81 17 82 18 83 19 87 20 84 21 86 22 85 25
REMARK SMILES IDX 9 26 10 27 11 28 12 30 13 31 14 32 75 33 15 34 74 35 16 36
REMARK SMILES IDX 17 37 18 38 68 39 19 40 73 41 67 42 69 43 20 44 72 45 66 46
REMARK SMILES IDX 65 47 21 49 53 50 33 51 52 52 34 53 37 54 51 55 70 56 35 57
REMARK SMILES IDX 36 58 50 60 71 61 38 62 22 63 23 64 31 65 24 66 30 67 32 68
REMARK SMILES IDX 29 69 25 70 26 71 27 72 28 73 54 74 55 75 63 76 56 77 62 78
REMARK SMILES IDX 64 79 61 80 57 81 58 82 59 83 60 84 39 85 40 86 48 87 41 88
REMARK SMILES IDX 47 89 49 90 46 91 42 92 43 93 44 94 45 95
REMARK H PARENT 6 6 87 23 87 24 10 29 69 48 37 59
REMARK Flexibility Score: inf
ROOT
ATOM      1  C   UNL A   1      31.459  31.995  26.842  1.00  0.00     0.042 C 
ENDROOT
BRANCH   1   2
ATOM      2  C   UNL A   1      31.685  30.567  26.368  1.00  0.00     0.117 C 
BRANCH   2   3
ATOM      3  N   UNL A   1      32.891  29.989  26.938  1.00  0.00    -0.356 N 
ATOM      4  C   UNL A   1      33.486  28.776  26.786  1.00  0.00     0.226 C 
ATOM      5  O   UNL A   1      34.610  28.673  27.284  1.00  0.00    -0.274 OA
ATOM      6  H   UNL A   1      33.368  30.592  27.552  1.00  0.00     0.163 HD
BRANCH   4   7
ATOM      7  C   UNL A   1      32.843  27.624  25.976  1.00  0.00     0.052 C 
ATOM      8  C   UNL A   1      31.335  27.441  26.322  1.00  0.00     0.038 C 
ATOM      9  C   UNL A   1      33.077  27.964  24.472  1.00  0.00     0.038 C 
ATOM     10  C   UNL A   1      30.533  26.708  25.244  1.00  0.00     0.120 C 
ATOM     11  C   UNL A   1      32.180  27.206  23.506  1.00  0.00     0.120 C 
ATOM     12  N   UNL A   1      30.788  27.277  23.927  1.00  0.00    -0.342 N 
ATOM     13  C   UNL A   1      29.719  27.752  23.178  1.00  0.00     0.228 C 
ATOM     14  O   UNL A   1      28.552  27.606  23.552  1.00  0.00    -0.275 OA
BRANCH   7  15
ATOM     15  C   UNL A   1      33.582  26.272  26.272  1.00  0.00     0.013 C 
ATOM     16  C   UNL A   1      34.388  25.658  25.123  1.00  0.00     0.005 C 
ENDBRANCH   7  15
BRANCH  13  17
ATOM     17  C   UNL A   1      29.990  28.552  21.913  1.00  0.00     0.166 C 
BRANCH  17  18
ATOM     18  C   UNL A   1      29.623  30.032  22.128  1.00  0.00     0.201 C 
ATOM     19  C   UNL A   1      28.410  30.415  21.262  1.00  0.00     0.135 C 
ATOM     20  N   UNL A   1      29.341  30.290  23.553  1.00  0.00    -0.342 N 
ATOM     21  S   UNL A   1      28.112  32.214  21.305  1.00  0.00    -0.150 SA
ATOM     22  C   UNL A   1      29.200  31.724  23.834  1.00  0.00     0.271 C 
ATOM     23  H   UNL A   1      30.107  29.918  24.115  1.00  0.00     0.346 HD
ATOM     24  H   UNL A   1      28.459  29.834  23.789  1.00  0.00     0.346 HD
ATOM     25  C   UNL A   1      28.030  32.407  23.119  1.00  0.00     0.131 C 
ENDBRANCH  17  18
ENDBRANCH  13  17
ENDBRANCH   4   7
ENDBRANCH   2   3
ENDBRANCH   1   2
BRANCH   1  26
ATOM     26  C   UNL A   1      32.735  32.826  26.917  1.00  0.00     0.118 C 
BRANCH  26  27
ATOM     27  N   UNL A   1      32.570  34.066  27.668  1.00  0.00    -0.352 N 
ATOM     28  C   UNL A   1      33.218  34.554  28.776  1.00  0.00     0.251 C 
ATOM     29  H   UNL A   1      31.868  34.660  27.317  1.00  0.00     0.163 HD
ATOM     30  O   UNL A   1      32.771  35.561  29.324  1.00  0.00    -0.269 OA
BRANCH  28  31
ATOM     31  C   UNL A   1      34.407  33.875  29.340  1.00  0.00     0.039 A 
ATOM     32  C   UNL A   1      35.678  34.344  28.993  1.00  0.00     0.014 A 
ATOM     33  C   UNL A   1      34.287  32.773  30.185  1.00  0.00     0.014 A 
ATOM     34  C   UNL A   1      36.816  33.768  29.566  1.00  0.00     0.010 A 
ATOM     35  C   UNL A   1      35.411  32.270  30.834  1.00  0.00     0.010 A 
ATOM     36  C   UNL A   1      36.689  32.760  30.534  1.00  0.00    -0.014 A 
BRANCH  36  37
ATOM     37  C   UNL A   1      37.870  32.191  31.237  1.00  0.00     0.031 A 
ATOM     38  C   UNL A   1      38.637  31.055  30.611  1.00  0.00     0.074 A 
ATOM     39  C   UNL A   1      38.195  32.629  32.470  1.00  0.00     0.049 A 
ATOM     40  N   UNL A   1      39.576  30.303  31.126  1.00  0.00    -0.248 NA
ATOM     41  C   UNL A   1      38.267  30.693  29.234  1.00  0.00     0.031 C 
ATOM     42  C   UNL A   1      37.505  33.695  33.201  1.00  0.00     0.029 A 
ATOM     43  N   UNL A   1      39.178  32.221  33.338  1.00  0.00    -0.354 N 
ATOM     44  C   UNL A   1      39.887  29.363  30.150  1.00  0.00     0.074 A 
ATOM     45  C   UNL A   1      38.995  29.605  29.035  1.00  0.00     0.031 C 
ATOM     46  C   UNL A   1      38.097  33.867  34.395  1.00  0.00     0.029 A 
ATOM     47  C   UNL A   1      39.170  32.892  34.540  1.00  0.00     0.049 A 
ATOM     48  H   UNL A   1      39.827  31.514  33.120  1.00  0.00     0.167 HD
ATOM     49  C   UNL A   1      40.845  28.403  30.168  1.00  0.00     0.034 A 
ATOM     50  C   UNL A   1      39.928  32.724  35.642  1.00  0.00     0.034 A 
ATOM     51  C   UNL A   1      41.750  28.197  31.272  1.00  0.00     0.049 A 
ATOM     52  C   UNL A   1      40.994  31.656  35.635  1.00  0.00     0.074 A 
ATOM     53  C   UNL A   1      42.781  27.280  31.384  1.00  0.00     0.029 A 
ATOM     54  N   UNL A   1      41.740  28.929  32.452  1.00  0.00    -0.354 N 
ATOM     55  N   UNL A   1      41.286  30.788  34.694  1.00  0.00    -0.248 NA
ATOM     56  C   UNL A   1      41.838  31.553  36.833  1.00  0.00     0.031 C 
ATOM     57  C   UNL A   1      43.364  27.427  32.648  1.00  0.00     0.029 A 
ATOM     58  C   UNL A   1      42.740  28.478  33.300  1.00  0.00     0.049 A 
ATOM     59  H   UNL A   1      41.116  29.662  32.657  1.00  0.00     0.167 HD
ATOM     60  C   UNL A   1      42.370  30.060  35.176  1.00  0.00     0.074 A 
ATOM     61  C   UNL A   1      42.688  30.600  36.481  1.00  0.00     0.031 C 
ATOM     62  C   UNL A   1      43.042  29.035  34.595  1.00  0.00     0.034 A 
BRANCH  49  63
ATOM     63  C   UNL A   1      40.949  27.502  28.962  1.00  0.00     0.023 A 
ATOM     64  C   UNL A   1      41.941  27.694  27.985  1.00  0.00     0.031 A 
ATOM     65  C   UNL A   1      40.035  26.450  28.775  1.00  0.00     0.131 A 
ATOM     66  C   UNL A   1      41.950  26.900  26.830  1.00  0.00     0.055 A 
ATOM     67  C   UNL A   1      40.099  25.610  27.661  1.00  0.00     0.041 A 
ATOM     68  F   UNL A   1      39.054  26.230  29.664  1.00  0.00    -0.206 F 
ATOM     69  C   UNL A   1      41.053  25.841  26.673  1.00  0.00     0.022 A 
BRANCH  66  70
ATOM     70  S   UNL A   1      43.071  27.350  25.479  1.00  0.00     0.124 S 
ATOM     71  O   UNL A   1      43.321  26.049  24.861  1.00  0.00    -0.237 OA
ATOM     72  O   UNL A   1      42.268  28.284  24.697  1.00  0.00    -0.237 OA
ATOM     73  O   UNL A   1      44.218  27.938  26.166  1.00  0.00    -0.744 OA
ENDBRANCH  66  70
ENDBRANCH  49  63
BRANCH  50  74
ATOM     74  C   UNL A   1      39.709  33.566  36.854  1.00  0.00     0.023 A 
ATOM     75  C   UNL A   1      40.502  34.698  37.098  1.00  0.00     0.031 A 
ATOM     76  C   UNL A   1      38.744  33.218  37.816  1.00  0.00     0.131 A 
ATOM     77  C   UNL A   1      40.362  35.405  38.303  1.00  0.00     0.055 A 
ATOM     78  C   UNL A   1      38.569  33.959  38.986  1.00  0.00     0.041 A 
ATOM     79  F   UNL A   1      37.952  32.151  37.628  1.00  0.00    -0.206 F 
ATOM     80  C   UNL A   1      39.393  35.051  39.243  1.00  0.00     0.022 A 
BRANCH  77  81
ATOM     81  S   UNL A   1      41.545  36.731  38.670  1.00  0.00     0.124 S 
ATOM     82  O   UNL A   1      42.129  36.981  37.358  1.00  0.00    -0.237 OA
ATOM     83  O   UNL A   1      40.672  37.776  39.194  1.00  0.00    -0.237 OA
ATOM     84  O   UNL A   1      42.443  36.121  39.649  1.00  0.00    -0.744 OA
ENDBRANCH  77  81
ENDBRANCH  50  74
BRANCH  62  85
ATOM     85  C   UNL A   1      44.224  28.481  35.350  1.00  0.00     0.023 A 
ATOM     86  C   UNL A   1      44.071  27.500  36.344  1.00  0.00     0.031 A 
ATOM     87  C   UNL A   1      45.519  28.954  35.075  1.00  0.00     0.131 A 
ATOM     88  C   UNL A   1      45.190  27.061  37.067  1.00  0.00     0.055 A 
ATOM     89  C   UNL A   1      46.636  28.473  35.760  1.00  0.00     0.041 A 
ATOM     90  F   UNL A   1      45.719  29.890  34.133  1.00  0.00    -0.206 F 
ATOM     91  C   UNL A   1      46.473  27.531  36.772  1.00  0.00     0.022 A 
BRANCH  88  92
ATOM     92  S   UNL A   1      44.937  25.924  38.456  1.00  0.00     0.124 S 
ATOM     93  O   UNL A   1      46.307  25.639  38.870  1.00  0.00    -0.237 OA
ATOM     94  O   UNL A   1      44.147  26.730  39.381  1.00  0.00    -0.237 OA
ATOM     95  O   UNL A   1      44.226  24.798  37.854  1.00  0.00    -0.744 OA
ENDBRANCH  88  92
ENDBRANCH  62  85
ENDBRANCH  36  37
ENDBRANCH  28  31
ENDBRANCH  26  27
ENDBRANCH   1  26
TORSDOF 16
ENDMDL
MODEL 3
REMARK VINA RESULT:     -11.6      5.829      9.105
REMARK SMILES CCC1(C(=O)NCCCNC(=O)c2ccc(-c3c4nc(c(-c5cc(S(=O)(=O)[O-])ccc5F)c5ccc([nH]5)c(-c5cc(S(=O)(=O)[O-])ccc5F)c5nc(c(-c6cc(S(=O)(=O)[O-])ccc6F)c6ccc3[nH]6)C=C5)C=C4)cc2)CCN(C(=O)C[C@H]2CSCC[NH2+]2)CC1
REMARK SMILES IDX 8 1 7 2 6 3 4 4 5 5 3 7 76 8 89 9 77 10 88 11 78 12 79 13
REMARK SMILES IDX 80 14 2 15 1 16 81 17 82 18 83 19 87 20 84 21 86 22 85 25
REMARK SMILES IDX 9 26 10 27 11 28 12 30 13 31 14 32 75 33 15 34 74 35 16 36
REMARK SMILES IDX 17 37 18 38 68 39 19 40 73 41 67 42 69 43 20 44 72 45 66 46
REMARK SMILES IDX 65 47 21 49 53 50 33 51 52 52 34 53 37 54 51 55 70 56 35 57
REMARK SMILES IDX 36 58 50 60 71 61 38 62 22 63 23 64 31 65 24 66 30 67 32 68
REMARK SMILES IDX 29 69 25 70 26 71 27 72 28 73 54 74 55 75 63 76 56 77 62 78
REMARK SMILES IDX 64 79 61 80 57 81 58 82 59 83 60 84 39 85 40 86 48 87 41 88
REMARK SMILES IDX 47 89 49 90 46 91 42 92 43 93 44 94 45 95
REMARK H PARENT 6 6 87 23 87 24 10 29 69 48 37 59
REMARK Flexibility Score: inf
ROOT
ATOM      1  C   UNL A   1      31.359  32.322  26.491  1.00  0.00     0.042 C 
ENDROOT
BRANCH   1   2
ATOM      2  C   UNL A   1      31.287  30.819  26.265  1.00  0.00     0.117 C 
BRANCH   2   3
ATOM      3  N   UNL A   1      32.099  30.400  25.134  1.00  0.00    -0.356 N 
ATOM      4  C   UNL A   1      32.684  29.215  24.813  1.00  0.00     0.226 C 
ATOM      5  O   UNL A   1      33.161  29.152  23.678  1.00  0.00    -0.274 OA
ATOM      6  H   UNL A   1      32.255  31.113  24.473  1.00  0.00     0.163 HD
BRANCH   4   7
ATOM      7  C   UNL A   1      32.684  27.998  25.769  1.00  0.00     0.052 C 
ATOM      8  C   UNL A   1      31.262  27.380  25.924  1.00  0.00     0.038 C 
ATOM      9  C   UNL A   1      33.719  26.986  25.187  1.00  0.00     0.038 C 
ATOM     10  C   UNL A   1      31.263  25.929  26.413  1.00  0.00     0.120 C 
ATOM     11  C   UNL A   1      33.578  25.566  25.714  1.00  0.00     0.120 C 
ATOM     12  N   UNL A   1      32.196  25.119  25.639  1.00  0.00    -0.342 N 
ATOM     13  C   UNL A   1      31.724  23.990  24.982  1.00  0.00     0.228 C 
ATOM     14  O   UNL A   1      30.563  23.596  25.125  1.00  0.00    -0.275 OA
BRANCH   7  15
ATOM     15  C   UNL A   1      33.193  28.422  27.192  1.00  0.00     0.013 C 
ATOM     16  C   UNL A   1      34.630  28.941  27.285  1.00  0.00     0.005 C 
ENDBRANCH   7  15
BRANCH  13  17
ATOM     17  C   UNL A   1      32.626  23.271  23.991  1.00  0.00     0.166 C 
BRANCH  17  18
ATOM     18  C   UNL A   1      33.153  21.959  24.601  1.00  0.00     0.201 C 
ATOM     19  C   UNL A   1      32.456  20.749  23.954  1.00  0.00     0.135 C 
ATOM     20  N   UNL A   1      34.615  21.863  24.428  1.00  0.00    -0.342 N 
ATOM     21  S   UNL A   1      32.873  19.204  24.828  1.00  0.00    -0.150 SA
ATOM     22  C   UNL A   1      35.183  20.739  25.183  1.00  0.00     0.271 C 
ATOM     23  H   UNL A   1      35.044  22.729  24.755  1.00  0.00     0.346 HD
ATOM     24  H   UNL A   1      34.808  21.710  23.439  1.00  0.00     0.346 HD
ATOM     25  C   UNL A   1      34.692  19.357  24.744  1.00  0.00     0.131 C 
ENDBRANCH  17  18
ENDBRANCH  13  17
ENDBRANCH   4   7
ENDBRANCH   2   3
ENDBRANCH   1   2
BRANCH   1  26
ATOM     26  C   UNL A   1      32.665  32.786  27.123  1.00  0.00     0.118 C 
BRANCH  26  27
ATOM     27  N   UNL A   1      32.546  34.064  27.816  1.00  0.00    -0.352 N 
ATOM     28  C   UNL A   1      33.226  34.587  28.889  1.00  0.00     0.251 C 
ATOM     29  H   UNL A   1      31.853  34.660  27.450  1.00  0.00     0.163 HD
ATOM     30  O   UNL A   1      32.816  35.630  29.396  1.00  0.00    -0.269 OA
BRANCH  28  31
ATOM     31  C   UNL A   1      34.407  33.904  29.464  1.00  0.00     0.039 A 
ATOM     32  C   UNL A   1      35.680  34.261  29.009  1.00  0.00     0.014 A 
ATOM     33  C   UNL A   1      34.276  32.904  30.427  1.00  0.00     0.014 A 
ATOM     34  C   UNL A   1      36.816  33.684  29.585  1.00  0.00     0.010 A 
ATOM     35  C   UNL A   1      35.405  32.408  31.072  1.00  0.00     0.010 A 
ATOM     36  C   UNL A   1      36.690  32.791  30.660  1.00  0.00    -0.014 A 
BRANCH  36  37
ATOM     37  C   UNL A   1      37.875  32.232  31.363  1.00  0.00     0.031 A 
ATOM     38  C   UNL A   1      38.670  31.123  30.722  1.00  0.00     0.074 A 
ATOM     39  C   UNL A   1      38.182  32.654  32.606  1.00  0.00     0.049 A 
ATOM     40  N   UNL A   1      39.619  30.380  31.231  1.00  0.00    -0.248 NA
ATOM     41  C   UNL A   1      38.318  30.779  29.335  1.00  0.00     0.031 C 
ATOM     42  C   UNL A   1      37.465  33.692  33.351  1.00  0.00     0.029 A 
ATOM     43  N   UNL A   1      39.165  32.248  33.475  1.00  0.00    -0.354 N 
ATOM     44  C   UNL A   1      39.957  29.465  30.240  1.00  0.00     0.074 A 
ATOM     45  C   UNL A   1      39.069  29.710  29.123  1.00  0.00     0.031 C 
ATOM     46  C   UNL A   1      38.043  33.853  34.552  1.00  0.00     0.029 A 
ATOM     47  C   UNL A   1      39.134  32.896  34.689  1.00  0.00     0.049 A 
ATOM     48  H   UNL A   1      39.830  31.558  33.249  1.00  0.00     0.167 HD
ATOM     49  C   UNL A   1      40.933  28.523  30.249  1.00  0.00     0.034 A 
ATOM     50  C   UNL A   1      39.886  32.723  35.794  1.00  0.00     0.034 A 
ATOM     51  C   UNL A   1      41.833  28.315  31.357  1.00  0.00     0.049 A 
ATOM     52  C   UNL A   1      40.973  31.676  35.777  1.00  0.00     0.074 A 
ATOM     53  C   UNL A   1      42.880  27.416  31.461  1.00  0.00     0.029 A 
ATOM     54  N   UNL A   1      41.799  29.024  32.550  1.00  0.00    -0.354 N 
ATOM     55  N   UNL A   1      41.290  30.832  34.822  1.00  0.00    -0.248 NA
ATOM     56  C   UNL A   1      41.809  31.567  36.979  1.00  0.00     0.031 C 
ATOM     57  C   UNL A   1      43.451  27.550  32.732  1.00  0.00     0.029 A 
ATOM     58  C   UNL A   1      42.800  28.576  33.398  1.00  0.00     0.049 A 
ATOM     59  H   UNL A   1      41.158  29.741  32.763  1.00  0.00     0.167 HD
ATOM     60  C   UNL A   1      42.384  30.116  35.300  1.00  0.00     0.074 A 
ATOM     61  C   UNL A   1      42.681  30.638  36.617  1.00  0.00     0.031 C 
ATOM     62  C   UNL A   1      43.081  29.115  34.706  1.00  0.00     0.034 A 
BRANCH  49  63
ATOM     63  C   UNL A   1      41.064  27.647  29.028  1.00  0.00     0.023 A 
ATOM     64  C   UNL A   1      42.056  27.881  28.059  1.00  0.00     0.031 A 
ATOM     65  C   UNL A   1      40.177  26.577  28.817  1.00  0.00     0.131 A 
ATOM     66  C   UNL A   1      42.090  27.108  26.891  1.00  0.00     0.055 A 
ATOM     67  C   UNL A   1      40.267  25.759  27.689  1.00  0.00     0.041 A 
ATOM     68  F   UNL A   1      39.197  26.317  29.697  1.00  0.00    -0.206 F 
ATOM     69  C   UNL A   1      41.219  26.031  26.710  1.00  0.00     0.022 A 
BRANCH  66  70
ATOM     70  S   UNL A   1      43.206  27.610  25.553  1.00  0.00     0.124 S 
ATOM     71  O   UNL A   1      44.130  28.493  26.260  1.00  0.00    -0.237 OA
ATOM     72  O   UNL A   1      43.757  26.336  25.104  1.00  0.00    -0.237 OA
ATOM     73  O   UNL A   1      42.321  28.276  24.600  1.00  0.00    -0.744 OA
ENDBRANCH  66  70
ENDBRANCH  49  63
BRANCH  50  74
ATOM     74  C   UNL A   1      39.641  33.538  37.019  1.00  0.00     0.023 A 
ATOM     75  C   UNL A   1      40.397  34.691  37.281  1.00  0.00     0.031 A 
ATOM     76  C   UNL A   1      38.689  33.143  37.976  1.00  0.00     0.131 A 
ATOM     77  C   UNL A   1      40.235  35.373  38.497  1.00  0.00     0.055 A 
ATOM     78  C   UNL A   1      38.491  33.859  39.158  1.00  0.00     0.041 A 
ATOM     79  F   UNL A   1      37.932  32.054  37.771  1.00  0.00    -0.206 F 
ATOM     80  C   UNL A   1      39.279  34.973  39.432  1.00  0.00     0.022 A 
BRANCH  77  81
ATOM     81  S   UNL A   1      41.374  36.731  38.886  1.00  0.00     0.124 S 
ATOM     82  O   UNL A   1      40.453  37.785  39.294  1.00  0.00    -0.237 OA
ATOM     83  O   UNL A   1      42.190  36.146  39.944  1.00  0.00    -0.237 OA
ATOM     84  O   UNL A   1      42.069  36.963  37.620  1.00  0.00    -0.744 OA
ENDBRANCH  77  81
ENDBRANCH  50  74
BRANCH  62  85
ATOM     85  C   UNL A   1      44.267  28.570  35.460  1.00  0.00     0.023 A 
ATOM     86  C   UNL A   1      44.129  27.549  36.415  1.00  0.00     0.031 A 
ATOM     87  C   UNL A   1      45.551  29.092  35.225  1.00  0.00     0.131 A 
ATOM     88  C   UNL A   1      45.250  27.118  37.141  1.00  0.00     0.055 A 
ATOM     89  C   UNL A   1      46.671  28.621  35.911  1.00  0.00     0.041 A 
ATOM     90  F   UNL A   1      45.737  30.069  34.322  1.00  0.00    -0.206 F 
ATOM     91  C   UNL A   1      46.522  27.638  36.885  1.00  0.00     0.022 A 
BRANCH  88  92
ATOM     92  S   UNL A   1      45.010  25.923  38.483  1.00  0.00     0.124 S 
ATOM     93  O   UNL A   1      44.450  24.777  37.774  1.00  0.00    -0.237 OA
ATOM     94  O   UNL A   1      46.366  25.753  38.997  1.00  0.00    -0.237 OA
ATOM     95  O   UNL A   1      44.086  26.603  39.388  1.00  0.00    -0.744 OA
ENDBRANCH  88  92
ENDBRANCH  62  85
ENDBRANCH  36  37
ENDBRANCH  28  31
ENDBRANCH  26  27
ENDBRANCH   1  26
TORSDOF 16
ENDMDL
