MODEL 1
REMARK VINA RESULT:     -12.9      0.000      0.000
REMARK SMILES O=C(COc1ccccc1/C=C1\C(=O)Nc2ccccc21)NCCCNC(=O)c1ccc(-c2c3nc(c(-c4cc(S(=O)(=O)[O-])ccc4F)c4ccc([nH]4)c(-c4cc(S(=O)(=O)[O-])ccc4F)c4nc(c(-c5cc(S(=O)(=O)[O-])ccc5F)c5ccc2[nH]5)C=C4)C=C3)cc1
REMARK SMILES IDX 24 1 23 2 22 3 1 4 2 5 3 7 4 8 5 9 6 10 10 11 7 12 9 13 8 14
REMARK SMILES IDX 11 15 12 16 13 17 21 18 14 19 15 20 16 21 20 22 17 24 19 25
REMARK SMILES IDX 18 26 25 27 26 28 27 29 28 31 29 32 30 33 91 34 31 35 90 36
REMARK SMILES IDX 32 37 33 38 34 39 84 40 35 41 89 42 83 43 85 44 36 45 88 46
REMARK SMILES IDX 82 47 81 48 37 50 69 51 49 52 68 53 50 54 53 55 67 56 86 57
REMARK SMILES IDX 51 58 52 59 66 61 87 62 54 63 38 64 39 65 47 66 40 67 46 68
REMARK SMILES IDX 48 69 45 70 41 71 42 72 43 73 44 74 70 75 71 76 79 77 72 78
REMARK SMILES IDX 78 79 80 80 77 81 73 82 74 83 75 84 76 85 55 86 56 87 64 88
REMARK SMILES IDX 57 89 63 90 65 91 62 92 58 93 59 94 60 95 61 96
REMARK H PARENT 22 6 15 23 26 30 85 49 53 60
REMARK Flexibility Score: inf
ROOT
ATOM      1  C   UNL A   1      31.237  32.024  26.450  1.00  0.00     0.042 C 
ENDROOT
BRANCH   1   2
ATOM      2  C   UNL A   1      31.382  30.723  25.701  1.00  0.00     0.117 C 
BRANCH   2   3
ATOM      3  N   UNL A   1      32.641  30.041  25.848  1.00  0.00    -0.353 N 
ATOM      4  O   UNL A   1      32.076  28.708  27.649  1.00  0.00    -0.271 OA
ATOM      5  C   UNL A   1      32.744  28.906  26.641  1.00  0.00     0.257 C 
ATOM      6  H   UNL A   1      33.437  30.383  25.384  1.00  0.00     0.163 HD
BRANCH   5   7
ATOM      7  C   UNL A   1      33.733  27.888  26.086  1.00  0.00     0.329 C 
BRANCH   7   8
ATOM      8  O   UNL A   1      33.079  26.625  26.272  1.00  0.00    -0.483 OA
BRANCH   8   9
ATOM      9  C   UNL A   1      33.350  25.690  25.308  1.00  0.00     0.127 A 
ATOM     10  C   UNL A   1      34.459  24.867  25.542  1.00  0.00     0.047 A 
ATOM     11  C   UNL A   1      32.714  25.746  24.045  1.00  0.00     0.017 A 
ATOM     12  C   UNL A   1      34.999  24.121  24.501  1.00  0.00     0.004 A 
ATOM     13  C   UNL A   1      33.355  25.074  23.001  1.00  0.00     0.012 A 
ATOM     14  C   UNL A   1      34.469  24.254  23.224  1.00  0.00     0.001 A 
BRANCH  11  15
ATOM     15  C   UNL A   1      31.470  26.535  23.817  1.00  0.00     0.026 C 
ATOM     16  C   UNL A   1      31.272  27.719  23.195  1.00  0.00     0.050 C 
ATOM     17  C   UNL A   1      32.284  28.646  22.546  1.00  0.00     0.256 C 
ATOM     18  C   UNL A   1      29.956  28.369  22.973  1.00  0.00     0.011 A 
ATOM     19  O   UNL A   1      33.491  28.521  22.422  1.00  0.00    -0.269 OA
ATOM     20  N   UNL A   1      31.558  29.723  22.071  1.00  0.00    -0.321 N 
ATOM     21  C   UNL A   1      30.200  29.560  22.288  1.00  0.00     0.049 A 
ATOM     22  C   UNL A   1      28.646  28.031  23.260  1.00  0.00     0.011 A 
ATOM     23  H   UNL A   1      31.958  30.508  21.630  1.00  0.00     0.170 HD
ATOM     24  C   UNL A   1      29.199  30.422  21.875  1.00  0.00     0.027 A 
ATOM     25  C   UNL A   1      27.606  28.870  22.837  1.00  0.00     0.001 A 
ATOM     26  C   UNL A   1      27.881  30.059  22.147  1.00  0.00     0.002 A 
ENDBRANCH  11  15
ENDBRANCH   8   9
ENDBRANCH   7   8
ENDBRANCH   5   7
ENDBRANCH   2   3
ENDBRANCH   1   2
BRANCH   1  27
ATOM     27  C   UNL A   1      32.550  32.625  26.921  1.00  0.00     0.118 C 
BRANCH  27  28
ATOM     28  N   UNL A   1      32.416  33.840  27.724  1.00  0.00    -0.352 N 
ATOM     29  C   UNL A   1      33.238  34.349  28.709  1.00  0.00     0.251 C 
ATOM     30  H   UNL A   1      31.615  34.378  27.532  1.00  0.00     0.163 HD
ATOM     31  O   UNL A   1      32.909  35.367  29.311  1.00  0.00    -0.269 OA
BRANCH  29  32
ATOM     32  C   UNL A   1      34.478  33.630  29.078  1.00  0.00     0.039 A 
ATOM     33  C   UNL A   1      35.714  34.238  28.841  1.00  0.00     0.014 A 
ATOM     34  C   UNL A   1      34.421  32.401  29.732  1.00  0.00     0.014 A 
ATOM     35  C   UNL A   1      36.874  33.679  29.387  1.00  0.00     0.010 A 
ATOM     36  C   UNL A   1      35.552  31.915  30.376  1.00  0.00     0.010 A 
ATOM     37  C   UNL A   1      36.792  32.555  30.223  1.00  0.00    -0.014 A 
BRANCH  37  38
ATOM     38  C   UNL A   1      37.971  32.029  30.964  1.00  0.00     0.031 A 
ATOM     39  C   UNL A   1      38.791  30.916  30.370  1.00  0.00     0.074 A 
ATOM     40  C   UNL A   1      38.235  32.471  32.212  1.00  0.00     0.049 A 
ATOM     41  N   UNL A   1      39.744  30.205  30.913  1.00  0.00    -0.248 NA
ATOM     42  C   UNL A   1      38.457  30.519  28.993  1.00  0.00     0.031 C 
ATOM     43  C   UNL A   1      37.483  33.506  32.926  1.00  0.00     0.029 A 
ATOM     44  N   UNL A   1      39.200  32.090  33.112  1.00  0.00    -0.354 N 
ATOM     45  C   UNL A   1      40.101  29.258  29.959  1.00  0.00     0.074 A 
ATOM     46  C   UNL A   1      39.214  29.446  28.831  1.00  0.00     0.031 C 
ATOM     47  C   UNL A   1      38.030  33.696  34.137  1.00  0.00     0.029 A 
ATOM     48  C   UNL A   1      39.135  32.761  34.313  1.00  0.00     0.049 A 
ATOM     49  H   UNL A   1      39.876  31.402  32.918  1.00  0.00     0.167 HD
ATOM     50  C   UNL A   1      41.094  28.335  30.006  1.00  0.00     0.034 A 
ATOM     51  C   UNL A   1      39.869  32.626  35.436  1.00  0.00     0.034 A 
ATOM     52  C   UNL A   1      41.993  28.185  31.123  1.00  0.00     0.049 A 
ATOM     53  C   UNL A   1      40.968  31.594  35.467  1.00  0.00     0.074 A 
ATOM     54  C   UNL A   1      43.078  27.336  31.248  1.00  0.00     0.029 A 
ATOM     55  N   UNL A   1      41.911  28.901  32.311  1.00  0.00    -0.354 N 
ATOM     56  N   UNL A   1      41.323  30.738  34.537  1.00  0.00    -0.248 NA
ATOM     57  C   UNL A   1      41.768  31.515  36.696  1.00  0.00     0.031 C 
ATOM     58  C   UNL A   1      43.616  27.496  32.530  1.00  0.00     0.029 A 
ATOM     59  C   UNL A   1      42.910  28.495  33.182  1.00  0.00     0.049 A 
ATOM     60  H   UNL A   1      41.241  29.596  32.506  1.00  0.00     0.167 HD
ATOM     61  C   UNL A   1      42.407  30.038  35.060  1.00  0.00     0.074 A 
ATOM     62  C   UNL A   1      42.654  30.581  36.380  1.00  0.00     0.031 C 
ATOM     63  C   UNL A   1      43.136  29.041  34.499  1.00  0.00     0.034 A 
BRANCH  50  64
ATOM     64  C   UNL A   1      41.239  27.414  28.819  1.00  0.00     0.023 A 
ATOM     65  C   UNL A   1      42.261  27.588  27.870  1.00  0.00     0.031 A 
ATOM     66  C   UNL A   1      40.321  26.369  28.610  1.00  0.00     0.131 A 
ATOM     67  C   UNL A   1      42.288  26.795  26.714  1.00  0.00     0.055 A 
ATOM     68  C   UNL A   1      40.405  25.525  27.501  1.00  0.00     0.041 A 
ATOM     69  F   UNL A   1      39.311  26.164  29.470  1.00  0.00    -0.206 F 
ATOM     70  C   UNL A   1      41.383  25.747  26.535  1.00  0.00     0.022 A 
BRANCH  67  71
ATOM     71  S   UNL A   1      43.426  27.254  25.379  1.00  0.00     0.124 S 
ATOM     72  O   UNL A   1      43.944  25.949  24.972  1.00  0.00    -0.237 OA
ATOM     73  O   UNL A   1      42.543  27.915  24.424  1.00  0.00    -0.237 OA
ATOM     74  O   UNL A   1      44.397  28.123  26.039  1.00  0.00    -0.744 OA
ENDBRANCH  67  71
ENDBRANCH  50  64
BRANCH  51  75
ATOM     75  C   UNL A   1      39.592  33.475  36.630  1.00  0.00     0.023 A 
ATOM     76  C   UNL A   1      38.934  32.949  37.752  1.00  0.00     0.031 A 
ATOM     77  C   UNL A   1      39.943  34.837  36.651  1.00  0.00     0.131 A 
ATOM     78  C   UNL A   1      38.607  33.786  38.830  1.00  0.00     0.055 A 
ATOM     79  C   UNL A   1      39.660  35.655  37.745  1.00  0.00     0.041 A 
ATOM     80  F   UNL A   1      40.580  35.389  35.606  1.00  0.00    -0.206 F 
ATOM     81  C   UNL A   1      38.976  35.133  38.840  1.00  0.00     0.022 A 
BRANCH  78  82
ATOM     82  S   UNL A   1      37.621  33.104  40.191  1.00  0.00     0.124 S 
ATOM     83  O   UNL A   1      36.383  32.746  39.512  1.00  0.00    -0.237 OA
ATOM     84  O   UNL A   1      38.454  31.992  40.640  1.00  0.00    -0.237 OA
ATOM     85  O   UNL A   1      37.520  34.220  41.130  1.00  0.00    -0.744 OA
ENDBRANCH  78  82
ENDBRANCH  51  75
BRANCH  63  86
ATOM     86  C   UNL A   1      44.298  28.509  35.298  1.00  0.00     0.023 A 
ATOM     87  C   UNL A   1      44.136  27.486  36.248  1.00  0.00     0.031 A 
ATOM     88  C   UNL A   1      45.586  29.039  35.107  1.00  0.00     0.131 A 
ATOM     89  C   UNL A   1      45.236  27.055  37.004  1.00  0.00     0.055 A 
ATOM     90  C   UNL A   1      46.687  28.569  35.823  1.00  0.00     0.041 A 
ATOM     91  F   UNL A   1      45.795  30.019  34.212  1.00  0.00    -0.206 F 
ATOM     92  C   UNL A   1      46.514  27.580  36.786  1.00  0.00     0.022 A 
BRANCH  89  93
ATOM     93  S   UNL A   1      44.965  25.851  38.332  1.00  0.00     0.124 S 
ATOM     94  O   UNL A   1      43.900  26.484  39.103  1.00  0.00    -0.237 OA
ATOM     95  O   UNL A   1      44.589  24.650  37.592  1.00  0.00    -0.237 OA
ATOM     96  O   UNL A   1      46.261  25.783  39.004  1.00  0.00    -0.744 OA
ENDBRANCH  89  93
ENDBRANCH  63  86
ENDBRANCH  37  38
ENDBRANCH  29  32
ENDBRANCH  27  28
ENDBRANCH   1  27
TORSDOF 16
ENDMDL
MODEL 2
REMARK VINA RESULT:     -12.8      5.665      8.954
REMARK SMILES O=C(COc1ccccc1/C=C1\C(=O)Nc2ccccc21)NCCCNC(=O)c1ccc(-c2c3nc(c(-c4cc(S(=O)(=O)[O-])ccc4F)c4ccc([nH]4)c(-c4cc(S(=O)(=O)[O-])ccc4F)c4nc(c(-c5cc(S(=O)(=O)[O-])ccc5F)c5ccc2[nH]5)C=C4)C=C3)cc1
REMARK SMILES IDX 24 1 23 2 22 3 1 4 2 5 3 7 4 8 5 9 6 10 10 11 7 12 9 13 8 14
REMARK SMILES IDX 11 15 12 16 13 17 21 18 14 19 15 20 16 21 20 22 17 24 19 25
REMARK SMILES IDX 18 26 25 27 26 28 27 29 28 31 29 32 30 33 91 34 31 35 90 36
REMARK SMILES IDX 32 37 33 38 34 39 84 40 35 41 89 42 83 43 85 44 36 45 88 46
REMARK SMILES IDX 82 47 81 48 37 50 69 51 49 52 68 53 50 54 53 55 67 56 86 57
REMARK SMILES IDX 51 58 52 59 66 61 87 62 54 63 38 64 39 65 47 66 40 67 46 68
REMARK SMILES IDX 48 69 45 70 41 71 42 72 43 73 44 74 70 75 71 76 79 77 72 78
REMARK SMILES IDX 78 79 80 80 77 81 73 82 74 83 75 84 76 85 55 86 56 87 64 88
REMARK SMILES IDX 57 89 63 90 65 91 62 92 58 93 59 94 60 95 61 96
REMARK H PARENT 22 6 15 23 26 30 85 49 53 60
REMARK Flexibility Score: inf
ROOT
ATOM      1  C   UNL A   1      36.687  21.526  24.112  1.00  0.00     0.042 C 
ENDROOT
BRANCH   1   2
ATOM      2  C   UNL A   1      36.628  22.946  23.607  1.00  0.00     0.117 C 
BRANCH   2   3
ATOM      3  N   UNL A   1      35.316  23.529  23.500  1.00  0.00    -0.353 N 
ATOM      4  O   UNL A   1      35.208  24.472  25.607  1.00  0.00    -0.271 OA
ATOM      5  C   UNL A   1      34.877  24.465  24.426  1.00  0.00     0.257 C 
ATOM      6  H   UNL A   1      34.724  23.260  22.762  1.00  0.00     0.163 HD
BRANCH   5   7
ATOM      7  C   UNL A   1      33.987  25.535  23.805  1.00  0.00     0.329 C 
BRANCH   7   8
ATOM      8  O   UNL A   1      32.838  24.811  23.345  1.00  0.00    -0.483 OA
BRANCH   8   9
ATOM      9  C   UNL A   1      31.791  24.772  24.228  1.00  0.00     0.127 A 
ATOM     10  C   UNL A   1      31.387  26.003  24.760  1.00  0.00     0.047 A 
ATOM     11  C   UNL A   1      31.342  23.542  24.764  1.00  0.00     0.017 A 
ATOM     12  C   UNL A   1      30.568  26.036  25.882  1.00  0.00     0.004 A 
ATOM     13  C   UNL A   1      30.618  23.617  25.958  1.00  0.00     0.012 A 
ATOM     14  C   UNL A   1      30.215  24.844  26.500  1.00  0.00     0.001 A 
BRANCH  11  15
ATOM     15  C   UNL A   1      31.680  22.232  24.139  1.00  0.00     0.026 C 
ATOM     16  C   UNL A   1      32.489  21.232  24.556  1.00  0.00     0.050 C 
ATOM     17  C   UNL A   1      33.343  21.144  25.808  1.00  0.00     0.256 C 
ATOM     18  C   UNL A   1      32.685  19.934  23.863  1.00  0.00     0.011 A 
ATOM     19  O   UNL A   1      33.476  21.943  26.721  1.00  0.00    -0.269 OA
ATOM     20  N   UNL A   1      33.980  19.918  25.744  1.00  0.00    -0.321 N 
ATOM     21  C   UNL A   1      33.584  19.193  24.632  1.00  0.00     0.049 A 
ATOM     22  C   UNL A   1      32.167  19.356  22.719  1.00  0.00     0.011 A 
ATOM     23  H   UNL A   1      34.633  19.599  26.409  1.00  0.00     0.170 HD
ATOM     24  C   UNL A   1      33.982  17.906  24.314  1.00  0.00     0.027 A 
ATOM     25  C   UNL A   1      32.531  18.046  22.378  1.00  0.00     0.001 A 
ATOM     26  C   UNL A   1      33.433  17.324  23.173  1.00  0.00     0.002 A 
ENDBRANCH  11  15
ENDBRANCH   8   9
ENDBRANCH   7   8
ENDBRANCH   5   7
ENDBRANCH   2   3
ENDBRANCH   1   2
BRANCH   1  27
ATOM     27  C   UNL A   1      37.223  21.387  25.526  1.00  0.00     0.118 C 
BRANCH  27  28
ATOM     28  N   UNL A   1      38.408  20.539  25.652  1.00  0.00    -0.352 N 
ATOM     29  C   UNL A   1      39.655  20.826  26.170  1.00  0.00     0.251 C 
ATOM     30  H   UNL A   1      38.300  19.621  25.313  1.00  0.00     0.163 HD
ATOM     31  O   UNL A   1      40.543  19.980  26.127  1.00  0.00    -0.269 OA
BRANCH  29  32
ATOM     32  C   UNL A   1      39.933  22.173  26.717  1.00  0.00     0.039 A 
ATOM     33  C   UNL A   1      40.962  22.331  27.650  1.00  0.00     0.014 A 
ATOM     34  C   UNL A   1      39.239  23.288  26.250  1.00  0.00     0.014 A 
ATOM     35  C   UNL A   1      41.384  23.617  28.000  1.00  0.00     0.010 A 
ATOM     36  C   UNL A   1      39.739  24.560  26.502  1.00  0.00     0.010 A 
ATOM     37  C   UNL A   1      40.826  24.741  27.371  1.00  0.00    -0.014 A 
BRANCH  37  38
ATOM     38  C   UNL A   1      41.360  26.115  27.581  1.00  0.00     0.031 A 
ATOM     39  C   UNL A   1      42.737  26.465  27.083  1.00  0.00     0.074 A 
ATOM     40  C   UNL A   1      40.659  27.007  28.312  1.00  0.00     0.049 A 
ATOM     41  N   UNL A   1      43.452  27.537  27.305  1.00  0.00    -0.248 NA
ATOM     42  C   UNL A   1      43.416  25.448  26.266  1.00  0.00     0.031 C 
ATOM     43  C   UNL A   1      39.337  26.774  28.900  1.00  0.00     0.029 A 
ATOM     44  N   UNL A   1      40.969  28.286  28.705  1.00  0.00    -0.354 N 
ATOM     45  C   UNL A   1      44.675  27.309  26.683  1.00  0.00     0.074 A 
ATOM     46  C   UNL A   1      44.624  25.971  26.135  1.00  0.00     0.031 C 
ATOM     47  C   UNL A   1      38.941  27.879  29.551  1.00  0.00     0.029 A 
ATOM     48  C   UNL A   1      39.998  28.881  29.479  1.00  0.00     0.049 A 
ATOM     49  H   UNL A   1      41.808  28.736  28.455  1.00  0.00     0.167 HD
ATOM     50  C   UNL A   1      45.734  28.148  26.556  1.00  0.00     0.034 A 
ATOM     51  C   UNL A   1      39.969  30.088  30.078  1.00  0.00     0.034 A 
ATOM     52  C   UNL A   1      45.755  29.492  27.077  1.00  0.00     0.049 A 
ATOM     53  C   UNL A   1      41.156  31.005  29.925  1.00  0.00     0.074 A 
ATOM     54  C   UNL A   1      46.742  30.454  26.944  1.00  0.00     0.029 A 
ATOM     55  N   UNL A   1      44.742  30.068  27.833  1.00  0.00    -0.354 N 
ATOM     56  N   UNL A   1      42.287  30.792  29.292  1.00  0.00    -0.248 NA
ATOM     57  C   UNL A   1      41.061  32.326  30.560  1.00  0.00     0.031 C 
ATOM     58  C   UNL A   1      46.352  31.587  27.667  1.00  0.00     0.029 A 
ATOM     59  C   UNL A   1      45.091  31.359  28.195  1.00  0.00     0.049 A 
ATOM     60  H   UNL A   1      43.898  29.623  28.078  1.00  0.00     0.167 HD
ATOM     61  C   UNL A   1      43.025  31.965  29.431  1.00  0.00     0.074 A 
ATOM     62  C   UNL A   1      42.206  32.883  30.196  1.00  0.00     0.031 C 
ATOM     63  C   UNL A   1      44.265  32.259  28.965  1.00  0.00     0.034 A 
BRANCH  50  64
ATOM     64  C   UNL A   1      46.953  27.620  25.840  1.00  0.00     0.023 A 
ATOM     65  C   UNL A   1      47.237  27.973  24.509  1.00  0.00     0.031 A 
ATOM     66  C   UNL A   1      47.824  26.721  26.480  1.00  0.00     0.131 A 
ATOM     67  C   UNL A   1      48.306  27.365  23.835  1.00  0.00     0.055 A 
ATOM     68  C   UNL A   1      48.938  26.185  25.830  1.00  0.00     0.041 A 
ATOM     69  F   UNL A   1      47.595  26.330  27.744  1.00  0.00    -0.206 F 
ATOM     70  C   UNL A   1      49.174  26.493  24.493  1.00  0.00     0.022 A 
BRANCH  67  71
ATOM     71  S   UNL A   1      48.448  27.611  22.043  1.00  0.00     0.124 S 
ATOM     72  O   UNL A   1      47.150  28.203  21.723  1.00  0.00    -0.237 OA
ATOM     73  O   UNL A   1      49.599  28.502  21.937  1.00  0.00    -0.237 OA
ATOM     74  O   UNL A   1      48.653  26.260  21.526  1.00  0.00    -0.744 OA
ENDBRANCH  67  71
ENDBRANCH  50  64
BRANCH  51  75
ATOM     75  C   UNL A   1      38.790  30.504  30.889  1.00  0.00     0.023 A 
ATOM     76  C   UNL A   1      37.701  31.160  30.294  1.00  0.00     0.031 A 
ATOM     77  C   UNL A   1      38.750  30.290  32.278  1.00  0.00     0.131 A 
ATOM     78  C   UNL A   1      36.639  31.619  31.089  1.00  0.00     0.055 A 
ATOM     79  C   UNL A   1      37.670  30.705  33.058  1.00  0.00     0.041 A 
ATOM     80  F   UNL A   1      39.763  29.662  32.897  1.00  0.00    -0.206 F 
ATOM     81  C   UNL A   1      36.610  31.385  32.465  1.00  0.00     0.022 A 
BRANCH  78  82
ATOM     82  S   UNL A   1      35.327  32.597  30.306  1.00  0.00     0.124 S 
ATOM     83  O   UNL A   1      34.354  32.706  31.385  1.00  0.00    -0.237 OA
ATOM     84  O   UNL A   1      36.035  33.823  29.952  1.00  0.00    -0.237 OA
ATOM     85  O   UNL A   1      34.915  31.769  29.174  1.00  0.00    -0.744 OA
ENDBRANCH  78  82
ENDBRANCH  51  75
BRANCH  63  86
ATOM     86  C   UNL A   1      44.786  33.647  29.232  1.00  0.00     0.023 A 
ATOM     87  C   UNL A   1      44.649  34.682  28.290  1.00  0.00     0.031 A 
ATOM     88  C   UNL A   1      45.431  33.937  30.447  1.00  0.00     0.131 A 
ATOM     89  C   UNL A   1      45.193  35.947  28.560  1.00  0.00     0.055 A 
ATOM     90  C   UNL A   1      45.921  35.211  30.733  1.00  0.00     0.041 A 
ATOM     91  F   UNL A   1      45.589  32.983  31.380  1.00  0.00    -0.206 F 
ATOM     92  C   UNL A   1      45.813  36.222  29.783  1.00  0.00     0.022 A 
BRANCH  89  93
ATOM     93  S   UNL A   1      45.144  37.213  27.263  1.00  0.00     0.124 S 
ATOM     94  O   UNL A   1      46.036  36.649  26.256  1.00  0.00    -0.237 OA
ATOM     95  O   UNL A   1      43.727  37.247  26.913  1.00  0.00    -0.237 OA
ATOM     96  O   UNL A   1      45.644  38.412  27.934  1.00  0.00    -0.744 OA
ENDBRANCH  89  93
ENDBRANCH  63  86
ENDBRANCH  37  38
ENDBRANCH  29  32
ENDBRANCH  27  28
ENDBRANCH   1  27
TORSDOF 16
ENDMDL
MODEL 3
REMARK VINA RESULT:     -12.6      1.871      7.744
REMARK SMILES O=C(COc1ccccc1/C=C1\C(=O)Nc2ccccc21)NCCCNC(=O)c1ccc(-c2c3nc(c(-c4cc(S(=O)(=O)[O-])ccc4F)c4ccc([nH]4)c(-c4cc(S(=O)(=O)[O-])ccc4F)c4nc(c(-c5cc(S(=O)(=O)[O-])ccc5F)c5ccc2[nH]5)C=C4)C=C3)cc1
REMARK SMILES IDX 24 1 23 2 22 3 1 4 2 5 3 7 4 8 5 9 6 10 10 11 7 12 9 13 8 14
REMARK SMILES IDX 11 15 12 16 13 17 21 18 14 19 15 20 16 21 20 22 17 24 19 25
REMARK SMILES IDX 18 26 25 27 26 28 27 29 28 31 29 32 30 33 91 34 31 35 90 36
REMARK SMILES IDX 32 37 33 38 34 39 84 40 35 41 89 42 83 43 85 44 36 45 88 46
REMARK SMILES IDX 82 47 81 48 37 50 69 51 49 52 68 53 50 54 53 55 67 56 86 57
REMARK SMILES IDX 51 58 52 59 66 61 87 62 54 63 38 64 39 65 47 66 40 67 46 68
REMARK SMILES IDX 48 69 45 70 41 71 42 72 43 73 44 74 70 75 71 76 79 77 72 78
REMARK SMILES IDX 78 79 80 80 77 81 73 82 74 83 75 84 76 85 55 86 56 87 64 88
REMARK SMILES IDX 57 89 63 90 65 91 62 92 58 93 59 94 60 95 61 96
REMARK H PARENT 22 6 15 23 26 30 85 49 53 60
REMARK Flexibility Score: inf
ROOT
ATOM      1  C   UNL A   1      31.542  31.255  26.221  1.00  0.00     0.042 C 
ENDROOT
BRANCH   1   2
ATOM      2  C   UNL A   1      31.518  29.851  25.668  1.00  0.00     0.117 C 
BRANCH   2   3
ATOM      3  N   UNL A   1      32.551  28.966  26.135  1.00  0.00    -0.353 N 
ATOM      4  O   UNL A   1      31.247  27.646  27.513  1.00  0.00    -0.271 OA
ATOM      5  C   UNL A   1      32.231  27.787  26.795  1.00  0.00     0.257 C 
ATOM      6  H   UNL A   1      33.495  29.198  25.986  1.00  0.00     0.163 HD
BRANCH   5   7
ATOM      7  C   UNL A   1      33.200  26.653  26.478  1.00  0.00     0.329 C 
BRANCH   7   8
ATOM      8  O   UNL A   1      33.452  26.791  25.073  1.00  0.00    -0.483 OA
BRANCH   8   9
ATOM      9  C   UNL A   1      33.334  25.632  24.352  1.00  0.00     0.127 A 
ATOM     10  C   UNL A   1      34.403  24.732  24.452  1.00  0.00     0.047 A 
ATOM     11  C   UNL A   1      32.328  25.491  23.367  1.00  0.00     0.017 A 
ATOM     12  C   UNL A   1      34.526  23.699  23.531  1.00  0.00     0.004 A 
ATOM     13  C   UNL A   1      32.550  24.513  22.393  1.00  0.00     0.012 A 
ATOM     14  C   UNL A   1      33.620  23.614  22.481  1.00  0.00     0.001 A 
BRANCH  11  15
ATOM     15  C   UNL A   1      31.132  26.379  23.322  1.00  0.00     0.026 C 
ATOM     16  C   UNL A   1      30.984  27.646  22.873  1.00  0.00     0.050 C 
ATOM     17  C   UNL A   1      32.022  28.587  22.288  1.00  0.00     0.256 C 
ATOM     18  C   UNL A   1      29.706  28.400  22.819  1.00  0.00     0.011 A 
ATOM     19  O   UNL A   1      33.209  28.405  22.075  1.00  0.00    -0.269 OA
ATOM     20  N   UNL A   1      31.349  29.761  22.003  1.00  0.00    -0.321 N 
ATOM     21  C   UNL A   1      29.996  29.655  22.282  1.00  0.00     0.049 A 
ATOM     22  C   UNL A   1      28.393  28.109  23.141  1.00  0.00     0.011 A 
ATOM     23  H   UNL A   1      31.778  30.571  21.645  1.00  0.00     0.170 HD
ATOM     24  C   UNL A   1      29.037  30.625  22.048  1.00  0.00     0.027 A 
ATOM     25  C   UNL A   1      27.393  29.060  22.897  1.00  0.00     0.001 A 
ATOM     26  C   UNL A   1      27.713  30.311  22.352  1.00  0.00     0.002 A 
ENDBRANCH  11  15
ENDBRANCH   8   9
ENDBRANCH   7   8
ENDBRANCH   5   7
ENDBRANCH   2   3
ENDBRANCH   1   2
BRANCH   1  27
ATOM     27  C   UNL A   1      32.628  31.501  27.254  1.00  0.00     0.118 C 
BRANCH  27  28
ATOM     28  N   UNL A   1      32.923  32.910  27.509  1.00  0.00    -0.352 N 
ATOM     29  C   UNL A   1      34.082  33.507  27.964  1.00  0.00     0.251 C 
ATOM     30  H   UNL A   1      32.180  33.530  27.329  1.00  0.00     0.163 HD
ATOM     31  O   UNL A   1      34.104  34.717  28.171  1.00  0.00    -0.269 OA
BRANCH  29  32
ATOM     32  C   UNL A   1      35.271  32.677  28.261  1.00  0.00     0.039 A 
ATOM     33  C   UNL A   1      36.524  33.289  28.357  1.00  0.00     0.014 A 
ATOM     34  C   UNL A   1      35.139  31.315  28.529  1.00  0.00     0.014 A 
ATOM     35  C   UNL A   1      37.610  32.564  28.857  1.00  0.00     0.010 A 
ATOM     36  C   UNL A   1      36.184  30.633  29.140  1.00  0.00     0.010 A 
ATOM     37  C   UNL A   1      37.430  31.253  29.325  1.00  0.00    -0.014 A 
BRANCH  37  38
ATOM     38  C   UNL A   1      38.511  30.504  30.023  1.00  0.00     0.031 A 
ATOM     39  C   UNL A   1      38.869  30.860  31.442  1.00  0.00     0.074 A 
ATOM     40  C   UNL A   1      39.241  29.590  29.352  1.00  0.00     0.049 A 
ATOM     41  N   UNL A   1      39.876  30.456  32.171  1.00  0.00    -0.248 NA
ATOM     42  C   UNL A   1      38.000  31.842  32.110  1.00  0.00     0.031 C 
ATOM     43  C   UNL A   1      39.034  29.193  27.957  1.00  0.00     0.029 A 
ATOM     44  N   UNL A   1      40.321  28.839  29.747  1.00  0.00    -0.354 N 
ATOM     45  C   UNL A   1      39.780  31.156  33.368  1.00  0.00     0.074 A 
ATOM     46  C   UNL A   1      38.657  32.058  33.238  1.00  0.00     0.031 C 
ATOM     47  C   UNL A   1      39.936  28.256  27.624  1.00  0.00     0.029 A 
ATOM     48  C   UNL A   1      40.822  28.022  28.758  1.00  0.00     0.049 A 
ATOM     49  H   UNL A   1      40.702  28.880  30.654  1.00  0.00     0.167 HD
ATOM     50  C   UNL A   1      40.542  31.039  34.485  1.00  0.00     0.034 A 
ATOM     51  C   UNL A   1      41.886  27.194  28.758  1.00  0.00     0.034 A 
ATOM     52  C   UNL A   1      41.636  30.109  34.612  1.00  0.00     0.049 A 
ATOM     53  C   UNL A   1      42.719  27.079  30.009  1.00  0.00     0.074 A 
ATOM     54  C   UNL A   1      42.427  29.854  35.719  1.00  0.00     0.029 A 
ATOM     55  N   UNL A   1      42.097  29.281  33.597  1.00  0.00    -0.354 N 
ATOM     56  N   UNL A   1      42.586  27.714  31.150  1.00  0.00    -0.248 NA
ATOM     57  C   UNL A   1      43.841  26.131  29.974  1.00  0.00     0.031 C 
ATOM     58  C   UNL A   1      43.401  28.916  35.356  1.00  0.00     0.029 A 
ATOM     59  C   UNL A   1      43.176  28.534  34.043  1.00  0.00     0.049 A 
ATOM     60  H   UNL A   1      41.713  29.231  32.691  1.00  0.00     0.167 HD
ATOM     61  C   UNL A   1      43.592  27.221  31.977  1.00  0.00     0.074 A 
ATOM     62  C   UNL A   1      44.313  26.228  31.208  1.00  0.00     0.031 C 
ATOM     63  C   UNL A   1      43.889  27.553  33.259  1.00  0.00     0.034 A 
BRANCH  50  64
ATOM     64  C   UNL A   1      40.219  31.953  35.642  1.00  0.00     0.023 A 
ATOM     65  C   UNL A   1      39.198  31.650  36.559  1.00  0.00     0.031 A 
ATOM     66  C   UNL A   1      40.913  33.165  35.810  1.00  0.00     0.131 A 
ATOM     67  C   UNL A   1      38.840  32.581  37.545  1.00  0.00     0.055 A 
ATOM     68  C   UNL A   1      40.610  34.049  36.847  1.00  0.00     0.041 A 
ATOM     69  F   UNL A   1      41.884  33.520  34.954  1.00  0.00    -0.206 F 
ATOM     70  C   UNL A   1      39.555  33.768  37.711  1.00  0.00     0.022 A 
BRANCH  67  71
ATOM     71  S   UNL A   1      37.328  32.287  38.501  1.00  0.00     0.124 S 
ATOM     72  O   UNL A   1      36.354  33.096  37.769  1.00  0.00    -0.237 OA
ATOM     73  O   UNL A   1      37.164  30.842  38.397  1.00  0.00    -0.237 OA
ATOM     74  O   UNL A   1      37.663  32.785  39.834  1.00  0.00    -0.744 OA
ENDBRANCH  67  71
ENDBRANCH  50  64
BRANCH  51  75
ATOM     75  C   UNL A   1      42.239  26.414  27.537  1.00  0.00     0.023 A 
ATOM     76  C   UNL A   1      41.894  25.058  27.423  1.00  0.00     0.031 A 
ATOM     77  C   UNL A   1      42.963  27.000  26.484  1.00  0.00     0.131 A 
ATOM     78  C   UNL A   1      42.310  24.321  26.304  1.00  0.00     0.055 A 
ATOM     79  C   UNL A   1      43.332  26.276  25.350  1.00  0.00     0.041 A 
ATOM     80  F   UNL A   1      43.312  28.295  26.540  1.00  0.00    -0.206 F 
ATOM     81  C   UNL A   1      43.016  24.923  25.260  1.00  0.00     0.022 A 
BRANCH  78  82
ATOM     82  S   UNL A   1      41.979  22.537  26.266  1.00  0.00     0.124 S 
ATOM     83  O   UNL A   1      40.522  22.506  26.245  1.00  0.00    -0.237 OA
ATOM     84  O   UNL A   1      42.649  22.132  25.034  1.00  0.00    -0.237 OA
ATOM     85  O   UNL A   1      42.598  22.050  27.497  1.00  0.00    -0.744 OA
ENDBRANCH  78  82
ENDBRANCH  51  75
BRANCH  63  86
ATOM     86  C   UNL A   1      45.015  26.800  33.918  1.00  0.00     0.023 A 
ATOM     87  C   UNL A   1      44.795  25.597  34.610  1.00  0.00     0.031 A 
ATOM     88  C   UNL A   1      46.328  27.299  33.856  1.00  0.00     0.131 A 
ATOM     89  C   UNL A   1      45.864  24.954  35.251  1.00  0.00     0.055 A 
ATOM     90  C   UNL A   1      47.398  26.627  34.449  1.00  0.00     0.041 A 
ATOM     91  F   UNL A   1      46.592  28.446  33.209  1.00  0.00    -0.206 F 
ATOM     92  C   UNL A   1      47.167  25.454  35.161  1.00  0.00     0.022 A 
BRANCH  89  93
ATOM     93  S   UNL A   1      45.522  23.493  36.269  1.00  0.00     0.124 S 
ATOM     94  O   UNL A   1      45.162  24.093  37.549  1.00  0.00    -0.237 OA
ATOM     95  O   UNL A   1      44.435  22.850  35.537  1.00  0.00    -0.237 OA
ATOM     96  O   UNL A   1      46.789  22.764  36.260  1.00  0.00    -0.744 OA
ENDBRANCH  89  93
ENDBRANCH  63  86
ENDBRANCH  37  38
ENDBRANCH  29  32
ENDBRANCH  27  28
ENDBRANCH   1  27
TORSDOF 16
ENDMDL
