MODEL 1
REMARK VINA RESULT:     -11.1      0.000      0.000
REMARK SMILES CCN1C(=O)/C(=C/c2cc([N+](=O)[O-])ccc2O)S/C1=[NH+]\c1ccc(C(=O)NCCCNC(=O)c2ccc(-c3c4nc(c(-c5cc(S(=O)(=O)[O-])ccc5F)c5ccc([nH]5)c(-c5cc(S(=O)(=O)[O-])ccc5F)c5nc(c(-c6cc(S(=O)(=O)[O-])ccc6F)c6ccc3[nH]6)C=C5)C=C4)cc2)cc1
REMARK SMILES IDX 29 1 28 2 27 3 25 4 26 5 24 7 21 8 22 9 98 10 23 11 97 12
REMARK SMILES IDX 20 13 3 14 4 15 19 16 5 17 6 18 18 19 7 20 2 22 1 23 8 24
REMARK SMILES IDX 9 25 16 26 10 27 15 28 14 29 17 30 11 32 12 33 13 34 30 35
REMARK SMILES IDX 31 36 32 37 33 39 34 40 35 41 96 42 36 43 95 44 37 45 38 46
REMARK SMILES IDX 39 47 89 48 40 49 94 50 88 51 90 52 41 53 93 54 87 55 86 56
REMARK SMILES IDX 42 58 74 59 54 60 73 61 55 62 58 63 72 64 91 65 56 66 57 67
REMARK SMILES IDX 71 69 92 70 59 71 43 72 44 73 52 74 45 75 51 76 53 77 50 78
REMARK SMILES IDX 46 79 47 80 48 81 49 82 75 83 76 84 84 85 77 86 83 87 85 88
REMARK SMILES IDX 82 89 78 90 79 91 80 92 81 93 60 94 61 95 69 96 62 97 68 98
REMARK SMILES IDX 70 99 67 100 63 101 64 102 65 103 66 104
REMARK H PARENT 27 6 20 21 17 31 31 38 90 57 58 68
REMARK Flexibility Score: inf
ROOT
ATOM      1  C   UNL A   1      35.915  29.934  28.833  1.00  0.00     0.042 C 
ENDROOT
BRANCH   1   2
ATOM      2  C   UNL A   1      37.055  29.920  27.814  1.00  0.00     0.118 C 
BRANCH   2   3
ATOM      3  N   UNL A   1      38.302  30.346  28.423  1.00  0.00    -0.352 N 
ATOM      4  C   UNL A   1      39.505  29.708  28.581  1.00  0.00     0.251 C 
ATOM      5  O   UNL A   1      40.433  30.334  29.091  1.00  0.00    -0.269 OA
ATOM      6  H   UNL A   1      38.281  31.259  28.789  1.00  0.00     0.163 HD
BRANCH   4   7
ATOM      7  C   UNL A   1      39.746  28.324  28.094  1.00  0.00     0.040 A 
ATOM      8  C   UNL A   1      40.234  25.647  27.384  1.00  0.00     0.125 A 
ATOM      9  C   UNL A   1      39.468  25.945  28.509  1.00  0.00     0.052 A 
ATOM     10  C   UNL A   1      40.673  26.688  26.565  1.00  0.00     0.052 A 
ATOM     11  C   UNL A   1      39.228  27.275  28.866  1.00  0.00     0.018 A 
ATOM     12  C   UNL A   1      40.419  28.018  26.909  1.00  0.00     0.018 A 
BRANCH   8  13
ATOM     13  N   UNL A   1      40.460  24.315  27.035  1.00  0.00    -0.234 N 
ATOM     14  N   UNL A   1      39.728  22.247  26.225  1.00  0.00    -0.186 N 
ATOM     15  C   UNL A   1      38.622  21.568  25.744  1.00  0.00     0.348 C 
ATOM     16  C   UNL A   1      39.533  23.570  26.537  1.00  0.00     0.324 C 
ATOM     17  O   UNL A   1      38.580  20.375  25.457  1.00  0.00    -0.240 OA
ATOM     18  C   UNL A   1      37.456  22.481  25.621  1.00  0.00     0.110 C 
ATOM     19  S   UNL A   1      37.886  24.050  26.163  1.00  0.00     0.007 SA
ATOM     20  C   UNL A   1      36.275  22.057  25.145  1.00  0.00     0.036 C 
ATOM     21  H   UNL A   1      41.357  23.931  27.173  1.00  0.00     0.313 HD
BRANCH  14  22
ATOM     22  C   UNL A   1      40.964  21.482  26.392  1.00  0.00     0.244 C 
ATOM     23  C   UNL A   1      41.127  20.589  27.612  1.00  0.00     0.055 C 
ENDBRANCH  14  22
BRANCH  20  24
ATOM     24  C   UNL A   1      35.078  22.882  24.924  1.00  0.00     0.024 A 
ATOM     25  C   UNL A   1      34.146  23.018  25.963  1.00  0.00     0.097 A 
ATOM     26  C   UNL A   1      34.813  23.499  23.689  1.00  0.00     0.123 A 
ATOM     27  C   UNL A   1      32.985  23.780  25.762  1.00  0.00     0.270 A 
ATOM     28  C   UNL A   1      33.665  24.269  23.495  1.00  0.00     0.054 A 
ATOM     29  C   UNL A   1      32.745  24.414  24.534  1.00  0.00     0.089 A 
BRANCH  26  30
ATOM     30  O   UNL A   1      35.686  23.319  22.650  1.00  0.00    -0.507 OA
ATOM     31  H   UNL A   1      35.805  22.467  22.280  1.00  0.00     0.293 HD
ENDBRANCH  26  30
BRANCH  27  32
ATOM     32  N   UNL A   1      31.994  23.898  26.840  1.00  0.00     0.062 N 
ATOM     33  O   UNL A   1      31.896  22.956  27.639  1.00  0.00    -0.258 OA
ATOM     34  O   UNL A   1      31.302  24.925  26.875  1.00  0.00    -0.258 OA
ENDBRANCH  27  32
ENDBRANCH  20  24
ENDBRANCH   8  13
ENDBRANCH   4   7
ENDBRANCH   2   3
ENDBRANCH   1   2
BRANCH   1  35
ATOM     35  C   UNL A   1      36.299  29.320  30.176  1.00  0.00     0.118 C 
BRANCH  35  36
ATOM     36  N   UNL A   1      36.254  30.304  31.246  1.00  0.00    -0.352 N 
ATOM     37  C   UNL A   1      37.068  30.473  32.335  1.00  0.00     0.251 C 
ATOM     38  H   UNL A   1      35.519  30.955  31.176  1.00  0.00     0.163 HD
ATOM     39  O   UNL A   1      36.675  31.189  33.253  1.00  0.00    -0.269 OA
BRANCH  37  40
ATOM     40  C   UNL A   1      38.390  29.813  32.418  1.00  0.00     0.039 A 
ATOM     41  C   UNL A   1      39.530  30.620  32.463  1.00  0.00     0.014 A 
ATOM     42  C   UNL A   1      38.527  28.422  32.377  1.00  0.00     0.014 A 
ATOM     43  C   UNL A   1      40.795  30.035  32.497  1.00  0.00     0.010 A 
ATOM     44  C   UNL A   1      39.789  27.837  32.496  1.00  0.00     0.010 A 
ATOM     45  C   UNL A   1      40.938  28.638  32.542  1.00  0.00    -0.014 A 
BRANCH  45  46
ATOM     46  C   UNL A   1      42.291  28.029  32.645  1.00  0.00     0.031 A 
ATOM     47  C   UNL A   1      43.083  27.695  31.408  1.00  0.00     0.074 A 
ATOM     48  C   UNL A   1      42.799  27.774  33.869  1.00  0.00     0.049 A 
ATOM     49  N   UNL A   1      44.296  27.212  31.311  1.00  0.00    -0.248 NA
ATOM     50  C   UNL A   1      42.422  27.907  30.110  1.00  0.00     0.031 C 
ATOM     51  C   UNL A   1      42.096  28.002  35.135  1.00  0.00     0.029 A 
ATOM     52  N   UNL A   1      44.019  27.280  34.254  1.00  0.00    -0.354 N 
ATOM     53  C   UNL A   1      44.538  27.052  29.950  1.00  0.00     0.074 A 
ATOM     54  C   UNL A   1      43.327  27.442  29.261  1.00  0.00     0.031 C 
ATOM     55  C   UNL A   1      42.912  27.693  36.154  1.00  0.00     0.029 A 
ATOM     56  C   UNL A   1      44.176  27.199  35.621  1.00  0.00     0.049 A 
ATOM     57  H   UNL A   1      44.717  27.009  33.616  1.00  0.00     0.167 HD
ATOM     58  C   UNL A   1      45.672  26.634  29.335  1.00  0.00     0.034 A 
ATOM     59  C   UNL A   1      45.219  26.772  36.360  1.00  0.00     0.034 A 
ATOM     60  C   UNL A   1      46.876  26.267  30.043  1.00  0.00     0.049 A 
ATOM     61  C   UNL A   1      46.470  26.322  35.645  1.00  0.00     0.074 A 
ATOM     62  C   UNL A   1      48.107  25.910  29.518  1.00  0.00     0.029 A 
ATOM     63  N   UNL A   1      47.000  26.191  31.424  1.00  0.00    -0.354 N 
ATOM     64  N   UNL A   1      46.713  26.272  34.354  1.00  0.00    -0.248 NA
ATOM     65  C   UNL A   1      47.593  25.893  36.486  1.00  0.00     0.031 C 
ATOM     66  C   UNL A   1      48.943  25.536  30.574  1.00  0.00     0.029 A 
ATOM     67  C   UNL A   1      48.270  25.750  31.766  1.00  0.00     0.049 A 
ATOM     68  H   UNL A   1      46.290  26.418  32.067  1.00  0.00     0.167 HD
ATOM     69  C   UNL A   1      48.028  25.832  34.234  1.00  0.00     0.074 A 
ATOM     70  C   UNL A   1      48.534  25.673  35.583  1.00  0.00     0.031 C 
ATOM     71  C   UNL A   1      48.754  25.577  33.115  1.00  0.00     0.034 A 
BRANCH  58  72
ATOM     72  C   UNL A   1      45.662  26.514  27.829  1.00  0.00     0.023 A 
ATOM     73  C   UNL A   1      45.384  25.301  27.175  1.00  0.00     0.031 A 
ATOM     74  C   UNL A   1      45.909  27.647  27.032  1.00  0.00     0.131 A 
ATOM     75  C   UNL A   1      45.408  25.238  25.772  1.00  0.00     0.055 A 
ATOM     76  C   UNL A   1      45.859  27.596  25.638  1.00  0.00     0.041 A 
ATOM     77  F   UNL A   1      46.204  28.829  27.598  1.00  0.00    -0.206 F 
ATOM     78  C   UNL A   1      45.616  26.384  25.000  1.00  0.00     0.022 A 
BRANCH  75  79
ATOM     79  S   UNL A   1      45.275  23.618  24.969  1.00  0.00     0.124 S 
ATOM     80  O   UNL A   1      46.316  23.708  23.948  1.00  0.00    -0.237 OA
ATOM     81  O   UNL A   1      45.537  22.697  26.069  1.00  0.00    -0.237 OA
ATOM     82  O   UNL A   1      43.907  23.601  24.453  1.00  0.00    -0.744 OA
ENDBRANCH  75  79
ENDBRANCH  58  72
BRANCH  59  83
ATOM     83  C   UNL A   1      45.136  26.729  37.851  1.00  0.00     0.023 A 
ATOM     84  C   UNL A   1      45.436  27.858  38.629  1.00  0.00     0.031 A 
ATOM     85  C   UNL A   1      44.833  25.531  38.523  1.00  0.00     0.131 A 
ATOM     86  C   UNL A   1      45.502  27.748  40.027  1.00  0.00     0.055 A 
ATOM     87  C   UNL A   1      44.828  25.445  39.916  1.00  0.00     0.041 A 
ATOM     88  F   UNL A   1      44.536  24.419  37.831  1.00  0.00    -0.206 F 
ATOM     89  C   UNL A   1      45.185  26.553  40.676  1.00  0.00     0.022 A 
BRANCH  86  90
ATOM     90  S   UNL A   1      46.144  29.154  40.979  1.00  0.00     0.124 S 
ATOM     91  O   UNL A   1      46.846  28.481  42.065  1.00  0.00    -0.237 OA
ATOM     92  O   UNL A   1      46.981  29.828  39.992  1.00  0.00    -0.237 OA
ATOM     93  O   UNL A   1      44.935  29.878  41.369  1.00  0.00    -0.744 OA
ENDBRANCH  86  90
ENDBRANCH  59  83
BRANCH  71  94
ATOM     94  C   UNL A   1      50.185  25.134  33.320  1.00  0.00     0.023 A 
ATOM     95  C   UNL A   1      50.550  23.777  33.279  1.00  0.00     0.031 A 
ATOM     96  C   UNL A   1      51.187  26.076  33.613  1.00  0.00     0.131 A 
ATOM     97  C   UNL A   1      51.854  23.392  33.618  1.00  0.00     0.055 A 
ATOM     98  C   UNL A   1      52.505  25.694  33.867  1.00  0.00     0.041 A 
ATOM     99  F   UNL A   1      50.900  27.387  33.669  1.00  0.00    -0.206 F 
ATOM    100  C   UNL A   1      52.840  24.343  33.893  1.00  0.00     0.022 A 
BRANCH  97 101
ATOM    101  S   UNL A   1      52.206  21.627  33.846  1.00  0.00     0.124 S 
ATOM    102  O   UNL A   1      53.631  21.561  33.538  1.00  0.00    -0.237 OA
ATOM    103  O   UNL A   1      51.846  21.416  35.244  1.00  0.00    -0.237 OA
ATOM    104  O   UNL A   1      51.330  20.975  32.875  1.00  0.00    -0.744 OA
ENDBRANCH  97 101
ENDBRANCH  71  94
ENDBRANCH  45  46
ENDBRANCH  37  40
ENDBRANCH  35  36
ENDBRANCH   1  35
TORSDOF 18
ENDMDL
MODEL 2
REMARK VINA RESULT:     -10.5      6.652     11.517
REMARK SMILES CCN1C(=O)/C(=C/c2cc([N+](=O)[O-])ccc2O)S/C1=[NH+]\c1ccc(C(=O)NCCCNC(=O)c2ccc(-c3c4nc(c(-c5cc(S(=O)(=O)[O-])ccc5F)c5ccc([nH]5)c(-c5cc(S(=O)(=O)[O-])ccc5F)c5nc(c(-c6cc(S(=O)(=O)[O-])ccc6F)c6ccc3[nH]6)C=C5)C=C4)cc2)cc1
REMARK SMILES IDX 29 1 28 2 27 3 25 4 26 5 24 7 21 8 22 9 98 10 23 11 97 12
REMARK SMILES IDX 20 13 3 14 4 15 19 16 5 17 6 18 18 19 7 20 2 22 1 23 8 24
REMARK SMILES IDX 9 25 16 26 10 27 15 28 14 29 17 30 11 32 12 33 13 34 30 35
REMARK SMILES IDX 31 36 32 37 33 39 34 40 35 41 96 42 36 43 95 44 37 45 38 46
REMARK SMILES IDX 39 47 89 48 40 49 94 50 88 51 90 52 41 53 93 54 87 55 86 56
REMARK SMILES IDX 42 58 74 59 54 60 73 61 55 62 58 63 72 64 91 65 56 66 57 67
REMARK SMILES IDX 71 69 92 70 59 71 43 72 44 73 52 74 45 75 51 76 53 77 50 78
REMARK SMILES IDX 46 79 47 80 48 81 49 82 75 83 76 84 84 85 77 86 83 87 85 88
REMARK SMILES IDX 82 89 78 90 79 91 80 92 81 93 60 94 61 95 69 96 62 97 68 98
REMARK SMILES IDX 70 99 67 100 63 101 64 102 65 103 66 104
REMARK H PARENT 27 6 20 21 17 31 31 38 90 57 58 68
REMARK Flexibility Score: inf
ROOT
ATOM      1  C   UNL A   1      40.516  25.528  27.158  1.00  0.00     0.042 C 
ENDROOT
BRANCH   1   2
ATOM      2  C   UNL A   1      39.438  26.411  27.786  1.00  0.00     0.118 C 
BRANCH   2   3
ATOM      3  N   UNL A   1      39.713  26.648  29.191  1.00  0.00    -0.352 N 
ATOM      4  C   UNL A   1      39.228  27.580  30.072  1.00  0.00     0.251 C 
ATOM      5  O   UNL A   1      39.593  27.517  31.245  1.00  0.00    -0.269 OA
ATOM      6  H   UNL A   1      40.367  26.026  29.585  1.00  0.00     0.163 HD
BRANCH   4   7
ATOM      7  C   UNL A   1      38.227  28.606  29.678  1.00  0.00     0.040 A 
ATOM      8  C   UNL A   1      36.182  30.432  29.050  1.00  0.00     0.125 A 
ATOM      9  C   UNL A   1      36.284  29.909  30.338  1.00  0.00     0.052 A 
ATOM     10  C   UNL A   1      37.161  30.113  28.108  1.00  0.00     0.052 A 
ATOM     11  C   UNL A   1      37.297  28.998  30.651  1.00  0.00     0.018 A 
ATOM     12  C   UNL A   1      38.185  29.217  28.422  1.00  0.00     0.018 A 
BRANCH   8  13
ATOM     13  N   UNL A   1      35.171  31.346  28.753  1.00  0.00    -0.234 N 
ATOM     14  N   UNL A   1      33.198  31.947  27.650  1.00  0.00    -0.186 N 
ATOM     15  C   UNL A   1      32.230  31.490  26.774  1.00  0.00     0.348 C 
ATOM     16  C   UNL A   1      34.180  31.047  27.983  1.00  0.00     0.324 C 
ATOM     17  O   UNL A   1      31.302  32.153  26.320  1.00  0.00    -0.240 OA
ATOM     18  C   UNL A   1      32.459  30.062  26.433  1.00  0.00     0.110 C 
ATOM     19  S   UNL A   1      33.876  29.498  27.217  1.00  0.00     0.007 SA
ATOM     20  C   UNL A   1      31.629  29.388  25.622  1.00  0.00     0.036 C 
ATOM     21  H   UNL A   1      35.214  32.249  29.145  1.00  0.00     0.313 HD
BRANCH  14  22
ATOM     22  C   UNL A   1      33.102  33.339  28.089  1.00  0.00     0.244 C 
ATOM     23  C   UNL A   1      34.205  34.316  27.713  1.00  0.00     0.055 C 
ENDBRANCH  14  22
BRANCH  20  24
ATOM     24  C   UNL A   1      31.723  27.964  25.266  1.00  0.00     0.024 A 
ATOM     25  C   UNL A   1      32.096  27.614  23.961  1.00  0.00     0.097 A 
ATOM     26  C   UNL A   1      31.406  26.943  26.179  1.00  0.00     0.123 A 
ATOM     27  C   UNL A   1      32.166  26.261  23.595  1.00  0.00     0.270 A 
ATOM     28  C   UNL A   1      31.492  25.597  25.819  1.00  0.00     0.054 A 
ATOM     29  C   UNL A   1      31.875  25.251  24.522  1.00  0.00     0.089 A 
BRANCH  26  30
ATOM     30  O   UNL A   1      30.981  27.277  27.436  1.00  0.00    -0.507 OA
ATOM     31  H   UNL A   1      30.096  27.112  27.691  1.00  0.00     0.293 HD
ENDBRANCH  26  30
BRANCH  27  32
ATOM     32  N   UNL A   1      32.527  25.895  22.219  1.00  0.00     0.062 N 
ATOM     33  O   UNL A   1      33.651  25.414  22.025  1.00  0.00    -0.258 OA
ATOM     34  O   UNL A   1      31.689  26.106  21.330  1.00  0.00    -0.258 OA
ENDBRANCH  27  32
ENDBRANCH  20  24
ENDBRANCH   8  13
ENDBRANCH   4   7
ENDBRANCH   2   3
ENDBRANCH   1   2
BRANCH   1  35
ATOM     35  C   UNL A   1      40.955  26.003  25.775  1.00  0.00     0.118 C 
BRANCH  35  36
ATOM     36  N   UNL A   1      42.329  25.619  25.489  1.00  0.00    -0.352 N 
ATOM     37  C   UNL A   1      43.500  26.305  25.674  1.00  0.00     0.251 C 
ATOM     38  H   UNL A   1      42.434  24.721  25.101  1.00  0.00     0.163 HD
ATOM     39  O   UNL A   1      44.509  25.902  25.100  1.00  0.00    -0.269 OA
BRANCH  37  40
ATOM     40  C   UNL A   1      43.562  27.505  26.538  1.00  0.00     0.039 A 
ATOM     41  C   UNL A   1      43.010  28.695  26.058  1.00  0.00     0.014 A 
ATOM     42  C   UNL A   1      44.219  27.495  27.773  1.00  0.00     0.014 A 
ATOM     43  C   UNL A   1      43.089  29.858  26.824  1.00  0.00     0.010 A 
ATOM     44  C   UNL A   1      44.224  28.637  28.575  1.00  0.00     0.010 A 
ATOM     45  C   UNL A   1      43.672  29.835  28.102  1.00  0.00    -0.014 A 
BRANCH  45  46
ATOM     46  C   UNL A   1      43.690  31.067  28.936  1.00  0.00     0.031 A 
ATOM     47  C   UNL A   1      42.544  31.392  29.857  1.00  0.00     0.074 A 
ATOM     48  C   UNL A   1      44.751  31.897  28.848  1.00  0.00     0.049 A 
ATOM     49  N   UNL A   1      42.417  32.391  30.693  1.00  0.00    -0.248 NA
ATOM     50  C   UNL A   1      41.379  30.494  29.822  1.00  0.00     0.031 C 
ATOM     51  C   UNL A   1      45.891  31.712  27.945  1.00  0.00     0.029 A 
ATOM     52  N   UNL A   1      45.053  33.049  29.527  1.00  0.00    -0.354 N 
ATOM     53  C   UNL A   1      41.159  32.249  31.272  1.00  0.00     0.074 A 
ATOM     54  C   UNL A   1      40.542  31.096  30.654  1.00  0.00     0.031 C 
ATOM     55  C   UNL A   1      46.786  32.688  28.159  1.00  0.00     0.029 A 
ATOM     56  C   UNL A   1      46.268  33.596  29.177  1.00  0.00     0.049 A 
ATOM     57  H   UNL A   1      44.458  33.449  30.202  1.00  0.00     0.167 HD
ATOM     58  C   UNL A   1      40.582  33.004  32.240  1.00  0.00     0.034 A 
ATOM     59  C   UNL A   1      46.892  34.705  29.621  1.00  0.00     0.034 A 
ATOM     60  C   UNL A   1      41.225  34.141  32.855  1.00  0.00     0.049 A 
ATOM     61  C   UNL A   1      46.228  35.517  30.706  1.00  0.00     0.074 A 
ATOM     62  C   UNL A   1      40.767  34.924  33.902  1.00  0.00     0.029 A 
ATOM     63  N   UNL A   1      42.450  34.670  32.474  1.00  0.00    -0.354 N 
ATOM     64  N   UNL A   1      45.079  35.309  31.310  1.00  0.00    -0.248 NA
ATOM     65  C   UNL A   1      46.954  36.700  31.183  1.00  0.00     0.031 C 
ATOM     66  C   UNL A   1      41.671  35.974  34.093  1.00  0.00     0.029 A 
ATOM     67  C   UNL A   1      42.742  35.794  33.233  1.00  0.00     0.049 A 
ATOM     68  H   UNL A   1      43.029  34.301  31.768  1.00  0.00     0.167 HD
ATOM     69  C   UNL A   1      44.962  36.322  32.258  1.00  0.00     0.074 A 
ATOM     70  C   UNL A   1      46.174  37.111  32.170  1.00  0.00     0.031 C 
ATOM     71  C   UNL A   1      43.947  36.583  33.121  1.00  0.00     0.034 A 
BRANCH  58  72
ATOM     72  C   UNL A   1      39.178  32.654  32.672  1.00  0.00     0.023 A 
ATOM     73  C   UNL A   1      38.043  33.112  31.979  1.00  0.00     0.031 A 
ATOM     74  C   UNL A   1      38.972  31.821  33.787  1.00  0.00     0.131 A 
ATOM     75  C   UNL A   1      36.758  32.776  32.434  1.00  0.00     0.055 A 
ATOM     76  C   UNL A   1      37.695  31.429  34.192  1.00  0.00     0.041 A 
ATOM     77  F   UNL A   1      40.014  31.371  34.505  1.00  0.00    -0.206 F 
ATOM     78  C   UNL A   1      36.578  31.914  33.519  1.00  0.00     0.022 A 
BRANCH  75  79
ATOM     79  S   UNL A   1      35.323  33.567  31.660  1.00  0.00     0.124 S 
ATOM     80  O   UNL A   1      35.882  34.011  30.385  1.00  0.00    -0.237 OA
ATOM     81  O   UNL A   1      34.360  32.474  31.588  1.00  0.00    -0.237 OA
ATOM     82  O   UNL A   1      34.979  34.641  32.589  1.00  0.00    -0.744 OA
ENDBRANCH  75  79
ENDBRANCH  58  72
BRANCH  59  83
ATOM     83  C   UNL A   1      48.203  35.131  29.044  1.00  0.00     0.023 A 
ATOM     84  C   UNL A   1      48.270  35.833  27.830  1.00  0.00     0.031 A 
ATOM     85  C   UNL A   1      49.414  34.768  29.660  1.00  0.00     0.131 A 
ATOM     86  C   UNL A   1      49.516  36.083  27.234  1.00  0.00     0.055 A 
ATOM     87  C   UNL A   1      50.652  35.084  29.099  1.00  0.00     0.041 A 
ATOM     88  F   UNL A   1      49.412  34.098  30.823  1.00  0.00    -0.206 F 
ATOM     89  C   UNL A   1      50.708  35.727  27.867  1.00  0.00     0.022 A 
BRANCH  86  90
ATOM     90  S   UNL A   1      49.551  36.759  25.549  1.00  0.00     0.124 S 
ATOM     91  O   UNL A   1      49.128  35.608  24.760  1.00  0.00    -0.237 OA
ATOM     92  O   UNL A   1      48.596  37.858  25.646  1.00  0.00    -0.237 OA
ATOM     93  O   UNL A   1      50.946  37.159  25.374  1.00  0.00    -0.744 OA
ENDBRANCH  86  90
ENDBRANCH  59  83
BRANCH  71  94
ATOM     94  C   UNL A   1      44.135  37.754  34.058  1.00  0.00     0.023 A 
ATOM     95  C   UNL A   1      43.576  39.015  33.785  1.00  0.00     0.031 A 
ATOM     96  C   UNL A   1      44.929  37.622  35.211  1.00  0.00     0.131 A 
ATOM     97  C   UNL A   1      43.893  40.112  34.597  1.00  0.00     0.055 A 
ATOM     98  C   UNL A   1      45.173  38.700  36.064  1.00  0.00     0.041 A 
ATOM     99  F   UNL A   1      45.493  36.444  35.524  1.00  0.00    -0.206 F 
ATOM    100  C   UNL A   1      44.672  39.959  35.747  1.00  0.00     0.022 A 
BRANCH  97 101
ATOM    101  S   UNL A   1      43.401  41.769  34.047  1.00  0.00     0.124 S 
ATOM    102  O   UNL A   1      44.264  41.971  32.887  1.00  0.00    -0.237 OA
ATOM    103  O   UNL A   1      41.981  41.593  33.761  1.00  0.00    -0.237 OA
ATOM    104  O   UNL A   1      43.702  42.617  35.199  1.00  0.00    -0.744 OA
ENDBRANCH  97 101
ENDBRANCH  71  94
ENDBRANCH  45  46
ENDBRANCH  37  40
ENDBRANCH  35  36
ENDBRANCH   1  35
TORSDOF 18
ENDMDL
MODEL 3
REMARK VINA RESULT:     -10.4      1.009      7.492
REMARK SMILES CCN1C(=O)/C(=C/c2cc([N+](=O)[O-])ccc2O)S/C1=[NH+]\c1ccc(C(=O)NCCCNC(=O)c2ccc(-c3c4nc(c(-c5cc(S(=O)(=O)[O-])ccc5F)c5ccc([nH]5)c(-c5cc(S(=O)(=O)[O-])ccc5F)c5nc(c(-c6cc(S(=O)(=O)[O-])ccc6F)c6ccc3[nH]6)C=C5)C=C4)cc2)cc1
REMARK SMILES IDX 29 1 28 2 27 3 25 4 26 5 24 7 21 8 22 9 98 10 23 11 97 12
REMARK SMILES IDX 20 13 3 14 4 15 19 16 5 17 6 18 18 19 7 20 2 22 1 23 8 24
REMARK SMILES IDX 9 25 16 26 10 27 15 28 14 29 17 30 11 32 12 33 13 34 30 35
REMARK SMILES IDX 31 36 32 37 33 39 34 40 35 41 96 42 36 43 95 44 37 45 38 46
REMARK SMILES IDX 39 47 89 48 40 49 94 50 88 51 90 52 41 53 93 54 87 55 86 56
REMARK SMILES IDX 42 58 74 59 54 60 73 61 55 62 58 63 72 64 91 65 56 66 57 67
REMARK SMILES IDX 71 69 92 70 59 71 43 72 44 73 52 74 45 75 51 76 53 77 50 78
REMARK SMILES IDX 46 79 47 80 48 81 49 82 75 83 76 84 84 85 77 86 83 87 85 88
REMARK SMILES IDX 82 89 78 90 79 91 80 92 81 93 60 94 61 95 69 96 62 97 68 98
REMARK SMILES IDX 70 99 67 100 63 101 64 102 65 103 66 104
REMARK H PARENT 27 6 20 21 17 31 31 38 90 57 58 68
REMARK Flexibility Score: inf
ROOT
ATOM      1  C   UNL A   1      36.151  29.767  29.076  1.00  0.00     0.042 C 
ENDROOT
BRANCH   1   2
ATOM      2  C   UNL A   1      37.265  29.918  28.039  1.00  0.00     0.118 C 
BRANCH   2   3
ATOM      3  N   UNL A   1      38.504  30.342  28.664  1.00  0.00    -0.352 N 
ATOM      4  C   UNL A   1      39.719  29.720  28.797  1.00  0.00     0.251 C 
ATOM      5  O   UNL A   1      40.635  30.342  29.332  1.00  0.00    -0.269 OA
ATOM      6  H   UNL A   1      38.467  31.239  29.068  1.00  0.00     0.163 HD
BRANCH   4   7
ATOM      7  C   UNL A   1      39.985  28.362  28.253  1.00  0.00     0.040 A 
ATOM      8  C   UNL A   1      40.569  25.738  27.425  1.00  0.00     0.125 A 
ATOM      9  C   UNL A   1      40.020  25.971  28.685  1.00  0.00     0.052 A 
ATOM     10  C   UNL A   1      40.734  26.811  26.548  1.00  0.00     0.052 A 
ATOM     11  C   UNL A   1      39.734  27.274  29.101  1.00  0.00     0.018 A 
ATOM     12  C   UNL A   1      40.431  28.113  26.953  1.00  0.00     0.018 A 
BRANCH   8  13
ATOM     13  N   UNL A   1      40.843  24.431  27.021  1.00  0.00    -0.234 N 
ATOM     14  N   UNL A   1      40.164  22.327  26.260  1.00  0.00    -0.186 N 
ATOM     15  C   UNL A   1      39.058  21.576  25.904  1.00  0.00     0.348 C 
ATOM     16  C   UNL A   1      39.916  23.628  26.623  1.00  0.00     0.324 C 
ATOM     17  O   UNL A   1      39.066  20.387  25.597  1.00  0.00    -0.240 OA
ATOM     18  C   UNL A   1      37.824  22.402  25.946  1.00  0.00     0.110 C 
ATOM     19  S   UNL A   1      38.206  23.991  26.467  1.00  0.00     0.007 SA
ATOM     20  C   UNL A   1      36.626  21.900  25.609  1.00  0.00     0.036 C 
ATOM     21  H   UNL A   1      41.775  24.113  27.039  1.00  0.00     0.313 HD
BRANCH  14  22
ATOM     22  C   UNL A   1      41.463  21.652  26.256  1.00  0.00     0.244 C 
ATOM     23  C   UNL A   1      41.775  20.635  27.341  1.00  0.00     0.055 C 
ENDBRANCH  14  22
BRANCH  20  24
ATOM     24  C   UNL A   1      35.355  22.638  25.556  1.00  0.00     0.024 A 
ATOM     25  C   UNL A   1      35.060  23.398  24.416  1.00  0.00     0.097 A 
ATOM     26  C   UNL A   1      34.449  22.644  26.630  1.00  0.00     0.123 A 
ATOM     27  C   UNL A   1      33.864  24.129  24.356  1.00  0.00     0.270 A 
ATOM     28  C   UNL A   1      33.251  23.359  26.564  1.00  0.00     0.054 A 
ATOM     29  C   UNL A   1      32.953  24.105  25.423  1.00  0.00     0.089 A 
BRANCH  26  30
ATOM     30  O   UNL A   1      34.759  21.955  27.771  1.00  0.00    -0.507 OA
ATOM     31  H   UNL A   1      34.080  21.550  28.273  1.00  0.00     0.293 HD
ENDBRANCH  26  30
BRANCH  27  32
ATOM     32  N   UNL A   1      33.568  24.951  23.174  1.00  0.00     0.062 N 
ATOM     33  O   UNL A   1      33.836  24.478  22.062  1.00  0.00    -0.258 OA
ATOM     34  O   UNL A   1      33.084  26.076  23.363  1.00  0.00    -0.258 OA
ENDBRANCH  27  32
ENDBRANCH  20  24
ENDBRANCH   8  13
ENDBRANCH   4   7
ENDBRANCH   2   3
ENDBRANCH   1   2
BRANCH   1  35
ATOM     35  C   UNL A   1      36.647  29.244  30.421  1.00  0.00     0.118 C 
BRANCH  35  36
ATOM     36  N   UNL A   1      36.559  30.262  31.456  1.00  0.00    -0.352 N 
ATOM     37  C   UNL A   1      37.370  30.509  32.532  1.00  0.00     0.251 C 
ATOM     38  H   UNL A   1      35.792  30.874  31.368  1.00  0.00     0.163 HD
ATOM     39  O   UNL A   1      36.947  31.238  33.427  1.00  0.00    -0.269 OA
BRANCH  37  40
ATOM     40  C   UNL A   1      38.723  29.919  32.629  1.00  0.00     0.039 A 
ATOM     41  C   UNL A   1      39.816  30.783  32.726  1.00  0.00     0.014 A 
ATOM     42  C   UNL A   1      38.937  28.539  32.551  1.00  0.00     0.014 A 
ATOM     43  C   UNL A   1      41.110  30.266  32.774  1.00  0.00     0.010 A 
ATOM     44  C   UNL A   1      40.225  28.019  32.684  1.00  0.00     0.010 A 
ATOM     45  C   UNL A   1      41.327  28.877  32.781  1.00  0.00    -0.014 A 
BRANCH  45  46
ATOM     46  C   UNL A   1      42.709  28.339  32.900  1.00  0.00     0.031 A 
ATOM     47  C   UNL A   1      43.304  28.034  34.250  1.00  0.00     0.074 A 
ATOM     48  C   UNL A   1      43.427  28.134  31.776  1.00  0.00     0.049 A 
ATOM     49  N   UNL A   1      44.469  27.511  34.537  1.00  0.00    -0.248 NA
ATOM     50  C   UNL A   1      42.500  28.380  35.433  1.00  0.00     0.031 C 
ATOM     51  C   UNL A   1      42.972  28.449  30.419  1.00  0.00     0.029 A 
ATOM     52  N   UNL A   1      44.678  27.604  31.589  1.00  0.00    -0.354 N 
ATOM     53  C   UNL A   1      44.542  27.477  35.926  1.00  0.00     0.074 A 
ATOM     54  C   UNL A   1      43.325  28.079  36.424  1.00  0.00     0.031 C 
ATOM     55  C   UNL A   1      43.910  28.066  29.539  1.00  0.00     0.029 A 
ATOM     56  C   UNL A   1      45.052  27.523  30.266  1.00  0.00     0.049 A 
ATOM     57  H   UNL A   1      45.255  27.310  32.330  1.00  0.00     0.167 HD
ATOM     58  C   UNL A   1      45.529  26.975  36.711  1.00  0.00     0.034 A 
ATOM     59  C   UNL A   1      46.188  27.066  29.702  1.00  0.00     0.034 A 
ATOM     60  C   UNL A   1      46.729  26.362  36.191  1.00  0.00     0.049 A 
ATOM     61  C   UNL A   1      47.261  26.505  30.602  1.00  0.00     0.074 A 
ATOM     62  C   UNL A   1      47.752  25.746  36.892  1.00  0.00     0.029 A 
ATOM     63  N   UNL A   1      47.078  26.301  34.848  1.00  0.00    -0.354 N 
ATOM     64  N   UNL A   1      47.268  26.392  31.911  1.00  0.00    -0.248 NA
ATOM     65  C   UNL A   1      48.469  25.991  29.946  1.00  0.00     0.031 C 
ATOM     66  C   UNL A   1      48.756  25.394  35.984  1.00  0.00     0.029 A 
ATOM     67  C   UNL A   1      48.320  25.699  34.705  1.00  0.00     0.049 A 
ATOM     68  H   UNL A   1      46.524  26.634  34.106  1.00  0.00     0.167 HD
ATOM     69  C   UNL A   1      48.470  25.767  32.230  1.00  0.00     0.074 A 
ATOM     70  C   UNL A   1      49.138  25.493  30.973  1.00  0.00     0.031 C 
ATOM     71  C   UNL A   1      48.983  25.450  33.447  1.00  0.00     0.034 A 
BRANCH  58  72
ATOM     72  C   UNL A   1      45.377  27.095  38.209  1.00  0.00     0.023 A 
ATOM     73  C   UNL A   1      45.785  28.240  38.915  1.00  0.00     0.031 A 
ATOM     74  C   UNL A   1      44.784  26.050  38.941  1.00  0.00     0.131 A 
ATOM     75  C   UNL A   1      45.642  28.293  40.311  1.00  0.00     0.055 A 
ATOM     76  C   UNL A   1      44.576  26.138  40.319  1.00  0.00     0.041 A 
ATOM     77  F   UNL A   1      44.395  24.921  38.328  1.00  0.00    -0.206 F 
ATOM     78  C   UNL A   1      45.014  27.262  41.013  1.00  0.00     0.022 A 
BRANCH  75  79
ATOM     79  S   UNL A   1      46.386  29.679  41.213  1.00  0.00     0.124 S 
ATOM     80  O   UNL A   1      46.532  29.115  42.553  1.00  0.00    -0.237 OA
ATOM     81  O   UNL A   1      47.623  29.907  40.477  1.00  0.00    -0.237 OA
ATOM     82  O   UNL A   1      45.387  30.740  41.098  1.00  0.00    -0.744 OA
ENDBRANCH  75  79
ENDBRANCH  58  72
BRANCH  59  83
ATOM     83  C   UNL A   1      46.388  27.127  28.223  1.00  0.00     0.023 A 
ATOM     84  C   UNL A   1      46.131  26.014  27.407  1.00  0.00     0.031 A 
ATOM     85  C   UNL A   1      46.918  28.278  27.612  1.00  0.00     0.131 A 
ATOM     86  C   UNL A   1      46.474  26.047  26.046  1.00  0.00     0.055 A 
ATOM     87  C   UNL A   1      47.189  28.332  26.244  1.00  0.00     0.041 A 
ATOM     88  F   UNL A   1      47.182  29.375  28.341  1.00  0.00    -0.206 F 
ATOM     89  C   UNL A   1      46.987  27.204  25.456  1.00  0.00     0.022 A 
BRANCH  86  90
ATOM     90  S   UNL A   1      46.369  24.510  25.086  1.00  0.00     0.124 S 
ATOM     91  O   UNL A   1      44.980  24.533  24.642  1.00  0.00    -0.237 OA
ATOM     92  O   UNL A   1      47.377  24.730  24.055  1.00  0.00    -0.237 OA
ATOM     93  O   UNL A   1      46.695  23.476  26.067  1.00  0.00    -0.744 OA
ENDBRANCH  86  90
ENDBRANCH  59  83
BRANCH  71  94
ATOM     94  C   UNL A   1      50.316  24.739  33.459  1.00  0.00     0.023 A 
ATOM     95  C   UNL A   1      50.405  23.340  33.571  1.00  0.00     0.031 A 
ATOM     96  C   UNL A   1      51.514  25.472  33.412  1.00  0.00     0.131 A 
ATOM     97  C   UNL A   1      51.657  22.728  33.727  1.00  0.00     0.055 A 
ATOM     98  C   UNL A   1      52.762  24.850  33.483  1.00  0.00     0.041 A 
ATOM     99  F   UNL A   1      51.495  26.811  33.309  1.00  0.00    -0.206 F 
ATOM    100  C   UNL A   1      52.837  23.472  33.664  1.00  0.00     0.022 A 
BRANCH  97 101
ATOM    101  S   UNL A   1      51.713  20.969  34.167  1.00  0.00     0.124 S 
ATOM    102  O   UNL A   1      53.146  20.744  34.330  1.00  0.00    -0.237 OA
ATOM    103  O   UNL A   1      50.919  20.929  35.390  1.00  0.00    -0.237 OA
ATOM    104  O   UNL A   1      51.108  20.307  33.012  1.00  0.00    -0.744 OA
ENDBRANCH  97 101
ENDBRANCH  71  94
ENDBRANCH  45  46
ENDBRANCH  37  40
ENDBRANCH  35  36
ENDBRANCH   1  35
TORSDOF 18
ENDMDL
