MODEL 1
REMARK VINA RESULT:     -12.6      0.000      0.000
REMARK SMILES COc1ccc(C(=O)NCCCNC(=O)c2ccc(-c3c4nc(c(-c5cc(S(=O)(=O)[O-])ccc5F)c5ccc([nH]5)c(-c5cc(S(=O)(=O)[O-])ccc5F)c5nc(c(-c6cc(S(=O)(=O)[O-])ccc6F)c6ccc3[nH]6)C=C5)C=C4)cc2)cc1NC(=O)c1cc([N+](=O)[O-])ccc1Cl
REMARK SMILES IDX 11 1 10 2 9 3 7 4 8 5 6 7 3 8 4 9 80 10 5 11 79 12 2 13 1 14
REMARK SMILES IDX 81 15 82 16 83 18 84 19 85 20 92 21 86 22 91 23 93 24 90 25
REMARK SMILES IDX 87 26 88 27 89 28 12 29 13 30 14 31 15 33 16 34 17 35 78 36
REMARK SMILES IDX 18 37 77 38 19 39 20 40 21 41 71 42 22 43 76 44 70 45 72 46
REMARK SMILES IDX 23 47 75 48 69 49 68 50 24 52 56 53 36 54 55 55 37 56 40 57
REMARK SMILES IDX 54 58 73 59 38 60 39 61 53 63 74 64 41 65 25 66 26 67 34 68
REMARK SMILES IDX 27 69 33 70 35 71 32 72 28 73 29 74 30 75 31 76 57 77 58 78
REMARK SMILES IDX 66 79 59 80 65 81 67 82 64 83 60 84 61 85 62 86 63 87 42 88
REMARK SMILES IDX 43 89 51 90 44 91 50 92 52 93 49 94 45 95 46 96 47 97 48 98
REMARK H PARENT 9 6 81 17 13 32 72 51 40 62
REMARK Flexibility Score: inf
ROOT
ATOM      1  C   UNL A   1      36.785  20.567  24.995  1.00  0.00     0.042 C 
ENDROOT
BRANCH   1   2
ATOM      2  C   UNL A   1      35.545  21.428  25.224  1.00  0.00     0.118 C 
BRANCH   2   3
ATOM      3  N   UNL A   1      35.275  22.256  24.070  1.00  0.00    -0.352 N 
ATOM      4  C   UNL A   1      34.290  23.152  23.770  1.00  0.00     0.251 C 
ATOM      5  O   UNL A   1      34.406  23.750  22.696  1.00  0.00    -0.269 OA
ATOM      6  H   UNL A   1      35.941  22.151  23.351  1.00  0.00     0.163 HD
BRANCH   4   7
ATOM      7  C   UNL A   1      33.126  23.484  24.649  1.00  0.00     0.042 A 
ATOM      8  C   UNL A   1      30.916  23.750  26.342  1.00  0.00     0.142 A 
ATOM      9  C   UNL A   1      31.061  22.590  25.597  1.00  0.00     0.049 A 
ATOM     10  C   UNL A   1      31.854  24.796  26.261  1.00  0.00     0.084 A 
ATOM     11  C   UNL A   1      32.149  22.471  24.740  1.00  0.00     0.018 A 
ATOM     12  C   UNL A   1      32.979  24.642  25.437  1.00  0.00     0.044 A 
BRANCH   8  13
ATOM     13  O   UNL A   1      29.860  23.818  27.222  1.00  0.00    -0.495 OA
ATOM     14  C   UNL A   1      29.151  22.577  27.270  1.00  0.00     0.278 C 
ENDBRANCH   8  13
BRANCH  10  15
ATOM     15  N   UNL A   1      31.577  25.912  27.070  1.00  0.00    -0.319 N 
ATOM     16  C   UNL A   1      31.539  27.264  26.887  1.00  0.00     0.257 C 
ATOM     17  H   UNL A   1      31.354  25.655  27.994  1.00  0.00     0.170 HD
ATOM     18  O   UNL A   1      31.295  27.995  27.849  1.00  0.00    -0.269 OA
BRANCH  16  19
ATOM     19  C   UNL A   1      31.744  27.920  25.593  1.00  0.00     0.065 A 
ATOM     20  C   UNL A   1      30.619  27.972  24.760  1.00  0.00     0.101 A 
ATOM     21  C   UNL A   1      32.996  28.332  25.112  1.00  0.00     0.054 A 
ATOM     22  C   UNL A   1      30.756  28.490  23.476  1.00  0.00     0.270 A 
ATOM     23  C   UNL A   1      33.104  28.866  23.818  1.00  0.00     0.028 A 
ATOM     24  Cl  UNL A   1      34.448  28.176  26.034  1.00  0.00    -0.083 Cl
ATOM     25  C   UNL A   1      31.979  28.957  22.991  1.00  0.00     0.087 A 
BRANCH  22  26
ATOM     26  N   UNL A   1      29.572  28.595  22.653  1.00  0.00     0.062 N 
ATOM     27  O   UNL A   1      29.661  29.275  21.626  1.00  0.00    -0.258 OA
ATOM     28  O   UNL A   1      28.582  27.960  23.034  1.00  0.00    -0.258 OA
ENDBRANCH  22  26
ENDBRANCH  16  19
ENDBRANCH  10  15
ENDBRANCH   4   7
ENDBRANCH   2   3
ENDBRANCH   1   2
BRANCH   1  29
ATOM     29  C   UNL A   1      38.106  21.298  25.233  1.00  0.00     0.118 C 
BRANCH  29  30
ATOM     30  N   UNL A   1      39.048  20.522  26.033  1.00  0.00    -0.352 N 
ATOM     31  C   UNL A   1      40.128  20.905  26.793  1.00  0.00     0.251 C 
ATOM     32  H   UNL A   1      38.879  19.551  26.028  1.00  0.00     0.163 HD
ATOM     33  O   UNL A   1      40.885  20.020  27.193  1.00  0.00    -0.269 OA
BRANCH  31  34
ATOM     34  C   UNL A   1      40.420  22.328  27.096  1.00  0.00     0.039 A 
ATOM     35  C   UNL A   1      41.339  22.624  28.113  1.00  0.00     0.014 A 
ATOM     36  C   UNL A   1      39.798  23.375  26.415  1.00  0.00     0.014 A 
ATOM     37  C   UNL A   1      41.701  23.949  28.377  1.00  0.00     0.010 A 
ATOM     38  C   UNL A   1      40.214  24.689  26.625  1.00  0.00     0.010 A 
ATOM     39  C   UNL A   1      41.171  24.992  27.606  1.00  0.00    -0.014 A 
BRANCH  39  40
ATOM     40  C   UNL A   1      41.557  26.413  27.822  1.00  0.00     0.031 A 
ATOM     41  C   UNL A   1      42.932  26.874  27.419  1.00  0.00     0.074 A 
ATOM     42  C   UNL A   1      40.722  27.258  28.459  1.00  0.00     0.049 A 
ATOM     43  N   UNL A   1      43.550  27.995  27.691  1.00  0.00    -0.248 NA
ATOM     44  C   UNL A   1      43.735  25.918  26.643  1.00  0.00     0.031 C 
ATOM     45  C   UNL A   1      39.372  26.930  28.922  1.00  0.00     0.029 A 
ATOM     46  N   UNL A   1      40.897  28.564  28.850  1.00  0.00    -0.354 N 
ATOM     47  C   UNL A   1      44.828  27.861  27.157  1.00  0.00     0.074 A 
ATOM     48  C   UNL A   1      44.906  26.531  26.589  1.00  0.00     0.031 C 
ATOM     49  C   UNL A   1      38.839  28.008  29.523  1.00  0.00     0.029 A 
ATOM     50  C   UNL A   1      39.824  29.086  29.536  1.00  0.00     0.049 A 
ATOM     51  H   UNL A   1      41.714  29.078  28.658  1.00  0.00     0.167 HD
ATOM     52  C   UNL A   1      45.837  28.768  27.129  1.00  0.00     0.034 A 
ATOM     53  C   UNL A   1      39.663  30.287  30.126  1.00  0.00     0.034 A 
ATOM     54  C   UNL A   1      45.728  30.104  27.663  1.00  0.00     0.049 A 
ATOM     55  C   UNL A   1      40.795  31.285  30.075  1.00  0.00     0.074 A 
ATOM     56  C   UNL A   1      46.662  31.124  27.637  1.00  0.00     0.029 A 
ATOM     57  N   UNL A   1      44.610  30.607  28.318  1.00  0.00    -0.354 N 
ATOM     58  N   UNL A   1      41.991  31.151  29.551  1.00  0.00    -0.248 NA
ATOM     59  C   UNL A   1      40.550  32.594  30.693  1.00  0.00     0.031 C 
ATOM     60  C   UNL A   1      46.130  32.226  28.318  1.00  0.00     0.029 A 
ATOM     61  C   UNL A   1      44.839  31.916  28.714  1.00  0.00     0.049 A 
ATOM     62  H   UNL A   1      43.778  30.107  28.476  1.00  0.00     0.167 HD
ATOM     63  C   UNL A   1      42.629  32.374  29.749  1.00  0.00     0.074 A 
ATOM     64  C   UNL A   1      41.682  33.231  30.431  1.00  0.00     0.031 C 
ATOM     65  C   UNL A   1      43.883  32.755  29.395  1.00  0.00     0.034 A 
BRANCH  52  66
ATOM     66  C   UNL A   1      47.149  28.324  26.525  1.00  0.00     0.023 A 
ATOM     67  C   UNL A   1      47.344  28.278  25.134  1.00  0.00     0.031 A 
ATOM     68  C   UNL A   1      48.201  27.892  27.351  1.00  0.00     0.131 A 
ATOM     69  C   UNL A   1      48.522  27.723  24.610  1.00  0.00     0.055 A 
ATOM     70  C   UNL A   1      49.407  27.424  26.823  1.00  0.00     0.041 A 
ATOM     71  F   UNL A   1      48.069  27.894  28.687  1.00  0.00    -0.206 F 
ATOM     72  C   UNL A   1      49.565  27.319  25.445  1.00  0.00     0.022 A 
BRANCH  69  73
ATOM     73  S   UNL A   1      48.600  27.387  22.829  1.00  0.00     0.124 S 
ATOM     74  O   UNL A   1      48.366  25.945  22.792  1.00  0.00    -0.237 OA
ATOM     75  O   UNL A   1      47.526  28.222  22.302  1.00  0.00    -0.237 OA
ATOM     76  O   UNL A   1      49.951  27.802  22.460  1.00  0.00    -0.744 OA
ENDBRANCH  69  73
ENDBRANCH  52  66
BRANCH  53  77
ATOM     77  C   UNL A   1      38.394  30.622  30.834  1.00  0.00     0.023 A 
ATOM     78  C   UNL A   1      37.377  31.339  30.184  1.00  0.00     0.031 A 
ATOM     79  C   UNL A   1      38.201  30.275  32.182  1.00  0.00     0.131 A 
ATOM     80  C   UNL A   1      36.232  31.730  30.896  1.00  0.00     0.055 A 
ATOM     81  C   UNL A   1      37.038  30.623  32.873  1.00  0.00     0.041 A 
ATOM     82  F   UNL A   1      39.141  29.586  32.848  1.00  0.00    -0.206 F 
ATOM     83  C   UNL A   1      36.050  31.366  32.232  1.00  0.00     0.022 A 
BRANCH  80  84
ATOM     84  S   UNL A   1      35.018  32.796  30.071  1.00  0.00     0.124 S 
ATOM     85  O   UNL A   1      34.553  31.936  28.989  1.00  0.00    -0.237 OA
ATOM     86  O   UNL A   1      34.062  33.053  31.143  1.00  0.00    -0.237 OA
ATOM     87  O   UNL A   1      35.808  33.953  29.653  1.00  0.00    -0.744 OA
ENDBRANCH  80  84
ENDBRANCH  53  77
BRANCH  65  88
ATOM     88  C   UNL A   1      44.273  34.181  29.692  1.00  0.00     0.023 A 
ATOM     89  C   UNL A   1      44.128  35.203  28.737  1.00  0.00     0.031 A 
ATOM     90  C   UNL A   1      44.806  34.516  30.948  1.00  0.00     0.131 A 
ATOM     91  C   UNL A   1      44.560  36.504  29.039  1.00  0.00     0.055 A 
ATOM     92  C   UNL A   1      45.185  35.822  31.261  1.00  0.00     0.041 A 
ATOM     93  F   UNL A   1      44.965  33.577  31.895  1.00  0.00    -0.206 F 
ATOM     94  C   UNL A   1      45.074  36.822  30.300  1.00  0.00     0.022 A 
BRANCH  91  95
ATOM     95  S   UNL A   1      44.510  37.764  27.736  1.00  0.00     0.124 S 
ATOM     96  O   UNL A   1      43.421  37.286  26.891  1.00  0.00    -0.237 OA
ATOM     97  O   UNL A   1      44.244  38.984  28.490  1.00  0.00    -0.237 OA
ATOM     98  O   UNL A   1      45.841  37.688  27.133  1.00  0.00    -0.744 OA
ENDBRANCH  91  95
ENDBRANCH  65  88
ENDBRANCH  39  40
ENDBRANCH  31  34
ENDBRANCH  29  30
ENDBRANCH   1  29
TORSDOF 17
ENDMDL
MODEL 2
REMARK VINA RESULT:     -12.6      4.819     10.115
REMARK SMILES COc1ccc(C(=O)NCCCNC(=O)c2ccc(-c3c4nc(c(-c5cc(S(=O)(=O)[O-])ccc5F)c5ccc([nH]5)c(-c5cc(S(=O)(=O)[O-])ccc5F)c5nc(c(-c6cc(S(=O)(=O)[O-])ccc6F)c6ccc3[nH]6)C=C5)C=C4)cc2)cc1NC(=O)c1cc([N+](=O)[O-])ccc1Cl
REMARK SMILES IDX 11 1 10 2 9 3 7 4 8 5 6 7 3 8 4 9 80 10 5 11 79 12 2 13 1 14
REMARK SMILES IDX 81 15 82 16 83 18 84 19 85 20 92 21 86 22 91 23 93 24 90 25
REMARK SMILES IDX 87 26 88 27 89 28 12 29 13 30 14 31 15 33 16 34 17 35 78 36
REMARK SMILES IDX 18 37 77 38 19 39 20 40 21 41 71 42 22 43 76 44 70 45 72 46
REMARK SMILES IDX 23 47 75 48 69 49 68 50 24 52 56 53 36 54 55 55 37 56 40 57
REMARK SMILES IDX 54 58 73 59 38 60 39 61 53 63 74 64 41 65 25 66 26 67 34 68
REMARK SMILES IDX 27 69 33 70 35 71 32 72 28 73 29 74 30 75 31 76 57 77 58 78
REMARK SMILES IDX 66 79 59 80 65 81 67 82 64 83 60 84 61 85 62 86 63 87 42 88
REMARK SMILES IDX 43 89 51 90 44 91 50 92 52 93 49 94 45 95 46 96 47 97 48 98
REMARK H PARENT 9 6 81 17 13 32 72 51 40 62
REMARK Flexibility Score: inf
ROOT
ATOM      1  C   UNL A   1      31.960  29.119  26.829  1.00  0.00     0.042 C 
ENDROOT
BRANCH   1   2
ATOM      2  C   UNL A   1      32.420  27.709  27.193  1.00  0.00     0.118 C 
BRANCH   2   3
ATOM      3  N   UNL A   1      31.331  26.767  27.068  1.00  0.00    -0.352 N 
ATOM      4  C   UNL A   1      30.959  25.888  26.090  1.00  0.00     0.251 C 
ATOM      5  O   UNL A   1      29.992  25.166  26.347  1.00  0.00    -0.269 OA
ATOM      6  H   UNL A   1      30.734  26.756  27.851  1.00  0.00     0.163 HD
BRANCH   4   7
ATOM      7  C   UNL A   1      31.650  25.717  24.775  1.00  0.00     0.042 A 
ATOM      8  C   UNL A   1      32.800  25.712  22.225  1.00  0.00     0.142 A 
ATOM      9  C   UNL A   1      31.615  26.402  22.431  1.00  0.00     0.049 A 
ATOM     10  C   UNL A   1      33.432  25.011  23.269  1.00  0.00     0.084 A 
ATOM     11  C   UNL A   1      31.036  26.383  23.695  1.00  0.00     0.018 A 
ATOM     12  C   UNL A   1      32.869  25.047  24.555  1.00  0.00     0.044 A 
BRANCH   8  13
ATOM     13  O   UNL A   1      33.379  25.792  20.979  1.00  0.00    -0.495 OA
ATOM     14  C   UNL A   1      32.423  25.529  19.950  1.00  0.00     0.278 C 
ENDBRANCH   8  13
BRANCH  10  15
ATOM     15  N   UNL A   1      34.623  24.355  22.914  1.00  0.00    -0.319 N 
ATOM     16  C   UNL A   1      35.301  23.255  23.356  1.00  0.00     0.257 C 
ATOM     17  H   UNL A   1      35.081  24.796  22.161  1.00  0.00     0.170 HD
ATOM     18  O   UNL A   1      36.380  22.964  22.837  1.00  0.00    -0.269 OA
BRANCH  16  19
ATOM     19  C   UNL A   1      34.809  22.360  24.407  1.00  0.00     0.065 A 
ATOM     20  C   UNL A   1      33.910  21.373  23.984  1.00  0.00     0.101 A 
ATOM     21  C   UNL A   1      35.062  22.544  25.774  1.00  0.00     0.054 A 
ATOM     22  C   UNL A   1      33.322  20.546  24.937  1.00  0.00     0.270 A 
ATOM     23  C   UNL A   1      34.468  21.685  26.715  1.00  0.00     0.028 A 
ATOM     24  Cl  UNL A   1      36.055  23.822  26.378  1.00  0.00    -0.083 Cl
ATOM     25  C   UNL A   1      33.598  20.672  26.300  1.00  0.00     0.087 A 
BRANCH  22  26
ATOM     26  N   UNL A   1      32.446  19.491  24.477  1.00  0.00     0.062 N 
ATOM     27  O   UNL A   1      32.062  18.675  25.320  1.00  0.00    -0.258 OA
ATOM     28  O   UNL A   1      32.129  19.526  23.283  1.00  0.00    -0.258 OA
ENDBRANCH  22  26
ENDBRANCH  16  19
ENDBRANCH  10  15
ENDBRANCH   4   7
ENDBRANCH   2   3
ENDBRANCH   1   2
BRANCH   1  29
ATOM     29  C   UNL A   1      33.041  29.978  26.173  1.00  0.00     0.118 C 
BRANCH  29  30
ATOM     30  N   UNL A   1      33.070  31.344  26.687  1.00  0.00    -0.352 N 
ATOM     31  C   UNL A   1      33.892  31.952  27.606  1.00  0.00     0.251 C 
ATOM     32  H   UNL A   1      32.378  31.934  26.307  1.00  0.00     0.163 HD
ATOM     33  O   UNL A   1      33.559  33.064  28.019  1.00  0.00    -0.269 OA
BRANCH  31  34
ATOM     34  C   UNL A   1      35.116  31.298  28.132  1.00  0.00     0.039 A 
ATOM     35  C   UNL A   1      36.317  32.022  28.132  1.00  0.00     0.014 A 
ATOM     36  C   UNL A   1      35.111  29.987  28.607  1.00  0.00     0.014 A 
ATOM     37  C   UNL A   1      37.475  31.472  28.691  1.00  0.00     0.010 A 
ATOM     38  C   UNL A   1      36.244  29.467  29.232  1.00  0.00     0.010 A 
ATOM     39  C   UNL A   1      37.438  30.202  29.283  1.00  0.00    -0.014 A 
BRANCH  39  40
ATOM     40  C   UNL A   1      38.634  29.592  29.926  1.00  0.00     0.031 A 
ATOM     41  C   UNL A   1      39.071  30.078  31.282  1.00  0.00     0.074 A 
ATOM     42  C   UNL A   1      39.376  28.683  29.263  1.00  0.00     0.049 A 
ATOM     43  N   UNL A   1      40.179  29.840  31.936  1.00  0.00    -0.248 NA
ATOM     44  C   UNL A   1      38.150  30.993  31.971  1.00  0.00     0.031 C 
ATOM     45  C   UNL A   1      39.075  28.147  27.934  1.00  0.00     0.029 A 
ATOM     46  N   UNL A   1      40.554  28.066  29.609  1.00  0.00    -0.354 N 
ATOM     47  C   UNL A   1      40.107  30.611  33.093  1.00  0.00     0.074 A 
ATOM     48  C   UNL A   1      38.868  31.356  33.022  1.00  0.00     0.031 C 
ATOM     49  C   UNL A   1      40.035  27.275  27.584  1.00  0.00     0.029 A 
ATOM     50  C   UNL A   1      41.047  27.226  28.637  1.00  0.00     0.049 A 
ATOM     51  H   UNL A   1      41.003  28.211  30.473  1.00  0.00     0.167 HD
ATOM     52  C   UNL A   1      40.986  30.679  34.125  1.00  0.00     0.034 A 
ATOM     53  C   UNL A   1      42.192  26.518  28.590  1.00  0.00     0.034 A 
ATOM     54  C   UNL A   1      42.197  29.898  34.199  1.00  0.00     0.049 A 
ATOM     55  C   UNL A   1      43.152  26.601  29.753  1.00  0.00     0.074 A 
ATOM     56  C   UNL A   1      43.128  29.842  35.221  1.00  0.00     0.029 A 
ATOM     57  N   UNL A   1      42.642  29.031  33.208  1.00  0.00    -0.354 N 
ATOM     58  N   UNL A   1      43.062  27.320  30.848  1.00  0.00    -0.248 NA
ATOM     59  C   UNL A   1      44.363  25.775  29.671  1.00  0.00     0.031 C 
ATOM     60  C   UNL A   1      44.160  28.980  34.829  1.00  0.00     0.029 A 
ATOM     61  C   UNL A   1      43.842  28.450  33.588  1.00  0.00     0.049 A 
ATOM     62  H   UNL A   1      42.174  28.856  32.361  1.00  0.00     0.167 HD
ATOM     63  C   UNL A   1      44.191  27.004  31.600  1.00  0.00     0.074 A 
ATOM     64  C   UNL A   1      44.939  26.026  30.838  1.00  0.00     0.031 C 
ATOM     65  C   UNL A   1      44.574  27.477  32.814  1.00  0.00     0.034 A 
BRANCH  52  66
ATOM     66  C   UNL A   1      40.673  31.654  35.236  1.00  0.00     0.023 A 
ATOM     67  C   UNL A   1      39.669  31.396  36.186  1.00  0.00     0.031 A 
ATOM     68  C   UNL A   1      41.353  32.882  35.316  1.00  0.00     0.131 A 
ATOM     69  C   UNL A   1      39.309  32.387  37.111  1.00  0.00     0.055 A 
ATOM     70  C   UNL A   1      41.050  33.829  36.297  1.00  0.00     0.041 A 
ATOM     71  F   UNL A   1      42.308  33.195  34.426  1.00  0.00    -0.206 F 
ATOM     72  C   UNL A   1      40.010  33.593  37.190  1.00  0.00     0.022 A 
BRANCH  69  73
ATOM     73  S   UNL A   1      37.808  32.141  38.099  1.00  0.00     0.124 S 
ATOM     74  O   UNL A   1      38.313  32.346  39.455  1.00  0.00    -0.237 OA
ATOM     75  O   UNL A   1      36.918  33.176  37.586  1.00  0.00    -0.237 OA
ATOM     76  O   UNL A   1      37.414  30.768  37.790  1.00  0.00    -0.744 OA
ENDBRANCH  69  73
ENDBRANCH  52  66
BRANCH  53  77
ATOM     77  C   UNL A   1      42.519  25.679  27.401  1.00  0.00     0.023 A 
ATOM     78  C   UNL A   1      42.115  24.336  27.338  1.00  0.00     0.031 A 
ATOM     79  C   UNL A   1      43.282  26.190  26.338  1.00  0.00     0.131 A 
ATOM     80  C   UNL A   1      42.515  23.534  26.257  1.00  0.00     0.055 A 
ATOM     81  C   UNL A   1      43.637  25.403  25.240  1.00  0.00     0.041 A 
ATOM     82  F   UNL A   1      43.691  27.468  26.348  1.00  0.00    -0.206 F 
ATOM     83  C   UNL A   1      43.264  24.062  25.202  1.00  0.00     0.022 A 
BRANCH  80  84
ATOM     84  S   UNL A   1      42.114  21.766  26.292  1.00  0.00     0.124 S 
ATOM     85  O   UNL A   1      42.427  21.417  27.673  1.00  0.00    -0.237 OA
ATOM     86  O   UNL A   1      40.698  21.769  25.937  1.00  0.00    -0.237 OA
ATOM     87  O   UNL A   1      43.006  21.194  25.285  1.00  0.00    -0.744 OA
ENDBRANCH  80  84
ENDBRANCH  53  77
BRANCH  65  88
ATOM     88  C   UNL A   1      45.830  26.893  33.409  1.00  0.00     0.023 A 
ATOM     89  C   UNL A   1      45.811  25.706  34.164  1.00  0.00     0.031 A 
ATOM     90  C   UNL A   1      47.063  27.543  33.225  1.00  0.00     0.131 A 
ATOM     91  C   UNL A   1      46.996  25.233  34.748  1.00  0.00     0.055 A 
ATOM     92  C   UNL A   1      48.247  27.039  33.764  1.00  0.00     0.041 A 
ATOM     93  F   UNL A   1      47.136  28.679  32.512  1.00  0.00    -0.206 F 
ATOM     94  C   UNL A   1      48.216  25.885  34.540  1.00  0.00     0.022 A 
BRANCH  91  95
ATOM     95  S   UNL A   1      46.912  23.793  35.847  1.00  0.00     0.124 S 
ATOM     96  O   UNL A   1      47.053  24.406  37.163  1.00  0.00    -0.237 OA
ATOM     97  O   UNL A   1      45.598  23.239  35.538  1.00  0.00    -0.237 OA
ATOM     98  O   UNL A   1      48.045  22.971  35.422  1.00  0.00    -0.744 OA
ENDBRANCH  91  95
ENDBRANCH  65  88
ENDBRANCH  39  40
ENDBRANCH  31  34
ENDBRANCH  29  30
ENDBRANCH   1  29
TORSDOF 17
ENDMDL
MODEL 3
REMARK VINA RESULT:     -12.4      2.680      3.078
REMARK SMILES COc1ccc(C(=O)NCCCNC(=O)c2ccc(-c3c4nc(c(-c5cc(S(=O)(=O)[O-])ccc5F)c5ccc([nH]5)c(-c5cc(S(=O)(=O)[O-])ccc5F)c5nc(c(-c6cc(S(=O)(=O)[O-])ccc6F)c6ccc3[nH]6)C=C5)C=C4)cc2)cc1NC(=O)c1cc([N+](=O)[O-])ccc1Cl
REMARK SMILES IDX 11 1 10 2 9 3 7 4 8 5 6 7 3 8 4 9 80 10 5 11 79 12 2 13 1 14
REMARK SMILES IDX 81 15 82 16 83 18 84 19 85 20 92 21 86 22 91 23 93 24 90 25
REMARK SMILES IDX 87 26 88 27 89 28 12 29 13 30 14 31 15 33 16 34 17 35 78 36
REMARK SMILES IDX 18 37 77 38 19 39 20 40 21 41 71 42 22 43 76 44 70 45 72 46
REMARK SMILES IDX 23 47 75 48 69 49 68 50 24 52 56 53 36 54 55 55 37 56 40 57
REMARK SMILES IDX 54 58 73 59 38 60 39 61 53 63 74 64 41 65 25 66 26 67 34 68
REMARK SMILES IDX 27 69 33 70 35 71 32 72 28 73 29 74 30 75 31 76 57 77 58 78
REMARK SMILES IDX 66 79 59 80 65 81 67 82 64 83 60 84 61 85 62 86 63 87 42 88
REMARK SMILES IDX 43 89 51 90 44 91 50 92 52 93 49 94 45 95 46 96 47 97 48 98
REMARK H PARENT 9 6 81 17 13 32 72 51 40 62
REMARK Flexibility Score: inf
ROOT
ATOM      1  C   UNL A   1      35.737  22.534  25.890  1.00  0.00     0.042 C 
ENDROOT
BRANCH   1   2
ATOM      2  C   UNL A   1      35.499  21.729  24.615  1.00  0.00     0.118 C 
BRANCH   2   3
ATOM      3  N   UNL A   1      35.050  22.588  23.543  1.00  0.00    -0.352 N 
ATOM      4  C   UNL A   1      33.984  23.431  23.401  1.00  0.00     0.251 C 
ATOM      5  O   UNL A   1      33.941  24.082  22.353  1.00  0.00    -0.269 OA
ATOM      6  H   UNL A   1      35.633  22.559  22.750  1.00  0.00     0.163 HD
BRANCH   4   7
ATOM      7  C   UNL A   1      32.911  23.645  24.421  1.00  0.00     0.042 A 
ATOM      8  C   UNL A   1      30.914  23.693  26.379  1.00  0.00     0.142 A 
ATOM      9  C   UNL A   1      31.089  22.546  25.619  1.00  0.00     0.049 A 
ATOM     10  C   UNL A   1      31.716  24.832  26.182  1.00  0.00     0.084 A 
ATOM     11  C   UNL A   1      32.068  22.535  24.631  1.00  0.00     0.018 A 
ATOM     12  C   UNL A   1      32.740  24.790  25.223  1.00  0.00     0.044 A 
BRANCH   8  13
ATOM     13  O   UNL A   1      29.976  23.657  27.384  1.00  0.00    -0.495 OA
ATOM     14  C   UNL A   1      29.103  22.535  27.233  1.00  0.00     0.278 C 
ENDBRANCH   8  13
BRANCH  10  15
ATOM     15  N   UNL A   1      31.424  25.921  27.022  1.00  0.00    -0.319 N 
ATOM     16  C   UNL A   1      31.434  27.281  26.896  1.00  0.00     0.257 C 
ATOM     17  H   UNL A   1      31.141  25.633  27.920  1.00  0.00     0.170 HD
ATOM     18  O   UNL A   1      31.155  27.978  27.873  1.00  0.00    -0.269 OA
BRANCH  16  19
ATOM     19  C   UNL A   1      31.731  27.984  25.644  1.00  0.00     0.065 A 
ATOM     20  C   UNL A   1      30.681  28.033  24.719  1.00  0.00     0.101 A 
ATOM     21  C   UNL A   1      33.008  28.443  25.288  1.00  0.00     0.054 A 
ATOM     22  C   UNL A   1      30.914  28.596  23.468  1.00  0.00     0.270 A 
ATOM     23  C   UNL A   1      33.212  29.022  24.024  1.00  0.00     0.028 A 
ATOM     24  Cl  UNL A   1      34.379  28.294  26.327  1.00  0.00    -0.083 Cl
ATOM     25  C   UNL A   1      32.161  29.110  23.106  1.00  0.00     0.087 A 
BRANCH  22  26
ATOM     26  N   UNL A   1      29.802  28.698  22.548  1.00  0.00     0.062 N 
ATOM     27  O   UNL A   1      28.780  28.068  22.834  1.00  0.00    -0.258 OA
ATOM     28  O   UNL A   1      29.964  29.442  21.575  1.00  0.00    -0.258 OA
ENDBRANCH  22  26
ENDBRANCH  16  19
ENDBRANCH  10  15
ENDBRANCH   4   7
ENDBRANCH   2   3
ENDBRANCH   1   2
BRANCH   1  29
ATOM     29  C   UNL A   1      37.081  23.263  25.926  1.00  0.00     0.118 C 
BRANCH  29  30
ATOM     30  N   UNL A   1      38.209  22.362  26.142  1.00  0.00    -0.352 N 
ATOM     31  C   UNL A   1      39.519  22.610  26.480  1.00  0.00     0.251 C 
ATOM     32  H   UNL A   1      37.993  21.408  26.025  1.00  0.00     0.163 HD
ATOM     33  O   UNL A   1      40.317  21.677  26.386  1.00  0.00    -0.269 OA
BRANCH  31  34
ATOM     34  C   UNL A   1      39.989  23.953  26.901  1.00  0.00     0.039 A 
ATOM     35  C   UNL A   1      40.212  24.926  25.916  1.00  0.00     0.014 A 
ATOM     36  C   UNL A   1      40.232  24.270  28.237  1.00  0.00     0.014 A 
ATOM     37  C   UNL A   1      40.578  26.228  26.275  1.00  0.00     0.010 A 
ATOM     38  C   UNL A   1      40.523  25.584  28.601  1.00  0.00     0.010 A 
ATOM     39  C   UNL A   1      40.698  26.578  27.627  1.00  0.00    -0.014 A 
BRANCH  39  40
ATOM     40  C   UNL A   1      41.046  27.959  28.059  1.00  0.00     0.031 A 
ATOM     41  C   UNL A   1      42.489  28.388  28.068  1.00  0.00     0.074 A 
ATOM     42  C   UNL A   1      40.093  28.788  28.531  1.00  0.00     0.049 A 
ATOM     43  N   UNL A   1      43.040  29.455  28.587  1.00  0.00    -0.248 NA
ATOM     44  C   UNL A   1      43.445  27.461  27.444  1.00  0.00     0.031 C 
ATOM     45  C   UNL A   1      38.662  28.485  28.599  1.00  0.00     0.029 A 
ATOM     46  N   UNL A   1      40.190  30.049  29.067  1.00  0.00    -0.354 N 
ATOM     47  C   UNL A   1      44.410  29.306  28.392  1.00  0.00     0.074 A 
ATOM     48  C   UNL A   1      44.603  28.023  27.749  1.00  0.00     0.031 C 
ATOM     49  C   UNL A   1      38.016  29.535  29.134  1.00  0.00     0.029 A 
ATOM     50  C   UNL A   1      38.988  30.563  29.495  1.00  0.00     0.049 A 
ATOM     51  H   UNL A   1      41.041  30.540  29.138  1.00  0.00     0.167 HD
ATOM     52  C   UNL A   1      45.412  30.166  28.705  1.00  0.00     0.034 A 
ATOM     53  C   UNL A   1      38.705  31.720  30.126  1.00  0.00     0.034 A 
ATOM     54  C   UNL A   1      45.197  31.459  29.308  1.00  0.00     0.049 A 
ATOM     55  C   UNL A   1      39.834  32.667  30.458  1.00  0.00     0.074 A 
ATOM     56  C   UNL A   1      46.129  32.436  29.614  1.00  0.00     0.029 A 
ATOM     57  N   UNL A   1      43.959  31.959  29.694  1.00  0.00    -0.354 N 
ATOM     58  N   UNL A   1      41.122  32.521  30.251  1.00  0.00    -0.248 NA
ATOM     59  C   UNL A   1      39.466  33.933  31.105  1.00  0.00     0.031 C 
ATOM     60  C   UNL A   1      45.463  33.503  30.229  1.00  0.00     0.029 A 
ATOM     61  C   UNL A   1      44.106  33.221  30.249  1.00  0.00     0.049 A 
ATOM     62  H   UNL A   1      43.103  31.486  29.587  1.00  0.00     0.167 HD
ATOM     63  C   UNL A   1      41.714  33.695  30.714  1.00  0.00     0.074 A 
ATOM     64  C   UNL A   1      40.642  34.537  31.200  1.00  0.00     0.031 C 
ATOM     65  C   UNL A   1      43.025  34.046  30.730  1.00  0.00     0.034 A 
BRANCH  52  66
ATOM     66  C   UNL A   1      46.825  29.713  28.425  1.00  0.00     0.023 A 
ATOM     67  C   UNL A   1      47.584  29.020  29.384  1.00  0.00     0.031 A 
ATOM     68  C   UNL A   1      47.441  30.022  27.199  1.00  0.00     0.131 A 
ATOM     69  C   UNL A   1      48.938  28.746  29.141  1.00  0.00     0.055 A 
ATOM     70  C   UNL A   1      48.764  29.665  26.929  1.00  0.00     0.041 A 
ATOM     71  F   UNL A   1      46.775  30.698  26.250  1.00  0.00    -0.206 F 
ATOM     72  C   UNL A   1      49.527  29.040  27.910  1.00  0.00     0.022 A 
BRANCH  69  73
ATOM     73  S   UNL A   1      49.957  28.145  30.517  1.00  0.00     0.124 S 
ATOM     74  O   UNL A   1      49.167  27.013  30.995  1.00  0.00    -0.237 OA
ATOM     75  O   UNL A   1      51.214  27.813  29.858  1.00  0.00    -0.237 OA
ATOM     76  O   UNL A   1      50.012  29.287  31.428  1.00  0.00    -0.744 OA
ENDBRANCH  69  73
ENDBRANCH  52  66
BRANCH  53  77
ATOM     77  C   UNL A   1      37.303  32.055  30.509  1.00  0.00     0.023 A 
ATOM     78  C   UNL A   1      36.432  32.658  29.588  1.00  0.00     0.031 A 
ATOM     79  C   UNL A   1      36.831  31.825  31.813  1.00  0.00     0.131 A 
ATOM     80  C   UNL A   1      35.148  33.055  29.995  1.00  0.00     0.055 A 
ATOM     81  C   UNL A   1      35.536  32.176  32.200  1.00  0.00     0.041 A 
ATOM     82  F   UNL A   1      37.623  31.248  32.730  1.00  0.00    -0.206 F 
ATOM     83  C   UNL A   1      34.691  32.807  31.292  1.00  0.00     0.022 A 
BRANCH  80  84
ATOM     84  S   UNL A   1      34.114  33.979  28.827  1.00  0.00     0.124 S 
ATOM     85  O   UNL A   1      33.658  32.921  27.932  1.00  0.00    -0.237 OA
ATOM     86  O   UNL A   1      33.102  34.553  29.707  1.00  0.00    -0.237 OA
ATOM     87  O   UNL A   1      35.042  34.940  28.236  1.00  0.00    -0.744 OA
ENDBRANCH  80  84
ENDBRANCH  53  77
BRANCH  65  88
ATOM     88  C   UNL A   1      43.356  35.425  31.243  1.00  0.00     0.023 A 
ATOM     89  C   UNL A   1      43.395  35.715  32.618  1.00  0.00     0.031 A 
ATOM     90  C   UNL A   1      43.626  36.465  30.337  1.00  0.00     0.131 A 
ATOM     91  C   UNL A   1      43.650  37.027  33.046  1.00  0.00     0.055 A 
ATOM     92  C   UNL A   1      43.931  37.756  30.769  1.00  0.00     0.041 A 
ATOM     93  F   UNL A   1      43.602  36.240  29.013  1.00  0.00    -0.206 F 
ATOM     94  C   UNL A   1      43.933  38.045  32.130  1.00  0.00     0.022 A 
BRANCH  91  95
ATOM     95  S   UNL A   1      43.535  37.405  34.816  1.00  0.00     0.124 S 
ATOM     96  O   UNL A   1      42.193  36.935  35.141  1.00  0.00    -0.237 OA
ATOM     97  O   UNL A   1      44.636  36.627  35.375  1.00  0.00    -0.237 OA
ATOM     98  O   UNL A   1      43.714  38.855  34.870  1.00  0.00    -0.744 OA
ENDBRANCH  91  95
ENDBRANCH  65  88
ENDBRANCH  39  40
ENDBRANCH  31  34
ENDBRANCH  29  30
ENDBRANCH   1  29
TORSDOF 17
ENDMDL
