MODEL 1
REMARK VINA RESULT:     -11.0      0.000      0.000
REMARK SMILES C[N@H+](CC(C)(C)C(=O)NCCCNC(=O)c1ccc(-c2c3nc(c(-c4cc(S(=O)(=O)[O-])ccc4F)c4ccc([nH]4)c(-c4cc(S(=O)(=O)[O-])ccc4F)c4nc(c(-c5cc(S(=O)(=O)[O-])ccc5F)c5ccc2[nH]5)C=C4)C=C3)cc1)[C@@H]1CCCC[C@@H]1C[NH3+]
REMARK SMILES IDX 10 1 9 2 7 3 8 4 4 6 5 7 6 8 3 9 2 10 1 11 79 13 80 14 84 15
REMARK SMILES IDX 81 16 83 17 82 18 85 19 86 20 11 24 12 25 13 26 14 27 15 29
REMARK SMILES IDX 16 30 17 31 78 32 18 33 77 34 19 35 20 36 21 37 71 38 22 39
REMARK SMILES IDX 76 40 70 41 72 42 23 43 75 44 69 45 68 46 24 48 56 49 36 50
REMARK SMILES IDX 55 51 37 52 40 53 54 54 73 55 38 56 39 57 53 59 74 60 41 61
REMARK SMILES IDX 25 62 26 63 34 64 27 65 33 66 35 67 32 68 28 69 29 70 30 71
REMARK SMILES IDX 31 72 57 73 58 74 66 75 59 76 65 77 67 78 64 79 60 80 61 81
REMARK SMILES IDX 62 82 63 83 42 84 43 85 51 86 44 87 50 88 52 89 49 90 45 91
REMARK SMILES IDX 46 92 47 93 48 94
REMARK H PARENT 9 5 2 12 86 21 86 22 86 23 13 28 72 47 40 58
REMARK Flexibility Score: inf
ROOT
ATOM      1  C   UNL A   1      37.202  22.030  25.217  1.00  0.00     0.117 C 
ENDROOT
BRANCH   1   2
ATOM      2  N   UNL A   1      36.175  21.761  26.207  1.00  0.00    -0.355 N 
ATOM      3  C   UNL A   1      34.970  22.281  26.518  1.00  0.00     0.231 C 
ATOM      4  O   UNL A   1      34.535  21.900  27.616  1.00  0.00    -0.274 OA
ATOM      5  H   UNL A   1      36.419  21.013  26.798  1.00  0.00     0.163 HD
BRANCH   3   6
ATOM      6  C   UNL A   1      34.140  23.261  25.666  1.00  0.00     0.092 C 
ATOM      7  C   UNL A   1      34.522  24.744  25.613  1.00  0.00     0.027 C 
ATOM      8  C   UNL A   1      32.738  23.251  26.333  1.00  0.00     0.027 C 
BRANCH   6   9
ATOM      9  C   UNL A   1      34.039  22.695  24.194  1.00  0.00     0.278 C 
BRANCH   9  10
ATOM     10  N   UNL A   1      32.915  21.757  23.926  1.00  0.00    -0.334 N 
ATOM     11  C   UNL A   1      31.911  22.418  23.079  1.00  0.00     0.333 C 
ATOM     12  H   UNL A   1      32.507  21.546  24.837  1.00  0.00     0.348 HD
BRANCH  10  13
ATOM     13  C   UNL A   1      33.289  20.392  23.448  1.00  0.00     0.192 C 
ATOM     14  C   UNL A   1      32.181  19.694  22.592  1.00  0.00     0.065 C 
ATOM     15  C   UNL A   1      33.733  19.467  24.625  1.00  0.00     0.102 C 
ATOM     16  C   UNL A   1      32.435  18.223  22.260  1.00  0.00     0.006 C 
ATOM     17  C   UNL A   1      34.062  18.052  24.127  1.00  0.00     0.015 C 
ATOM     18  C   UNL A   1      32.863  17.401  23.463  1.00  0.00     0.001 C 
BRANCH  15  19
ATOM     19  C   UNL A   1      32.774  19.385  25.842  1.00  0.00     0.268 C 
BRANCH  19  20
ATOM     20  N   UNL A   1      32.767  18.138  26.593  1.00  0.00    -0.357 N 
ATOM     21  H   UNL A   1      33.651  17.649  26.449  1.00  0.00     0.344 HD
ATOM     22  H   UNL A   1      31.997  17.551  26.272  1.00  0.00     0.344 HD
ATOM     23  H   UNL A   1      32.649  18.340  27.586  1.00  0.00     0.344 HD
ENDBRANCH  19  20
ENDBRANCH  15  19
ENDBRANCH  10  13
ENDBRANCH   9  10
ENDBRANCH   6   9
ENDBRANCH   3   6
ENDBRANCH   1   2
BRANCH   1  24
ATOM     24  C   UNL A   1      38.167  20.864  25.095  1.00  0.00     0.042 C 
BRANCH  24  25
ATOM     25  C   UNL A   1      39.210  20.837  26.206  1.00  0.00     0.118 C 
BRANCH  25  26
ATOM     26  N   UNL A   1      40.108  19.690  26.111  1.00  0.00    -0.352 N 
ATOM     27  C   UNL A   1      41.484  19.661  26.069  1.00  0.00     0.251 C 
ATOM     28  H   UNL A   1      39.666  18.812  26.071  1.00  0.00     0.163 HD
ATOM     29  O   UNL A   1      42.066  18.623  25.795  1.00  0.00    -0.269 OA
BRANCH  27  30
ATOM     30  C   UNL A   1      42.238  20.908  26.321  1.00  0.00     0.039 A 
ATOM     31  C   UNL A   1      42.603  21.716  25.244  1.00  0.00     0.014 A 
ATOM     32  C   UNL A   1      42.537  21.297  27.629  1.00  0.00     0.014 A 
ATOM     33  C   UNL A   1      43.190  22.961  25.488  1.00  0.00     0.010 A 
ATOM     34  C   UNL A   1      43.016  22.578  27.871  1.00  0.00     0.010 A 
ATOM     35  C   UNL A   1      43.357  23.421  26.804  1.00  0.00    -0.014 A 
BRANCH  35  36
ATOM     36  C   UNL A   1      43.905  24.772  27.094  1.00  0.00     0.031 A 
ATOM     37  C   UNL A   1      42.998  25.846  27.632  1.00  0.00     0.074 A 
ATOM     38  C   UNL A   1      45.191  25.053  26.805  1.00  0.00     0.049 A 
ATOM     39  N   UNL A   1      43.251  27.108  27.865  1.00  0.00    -0.248 NA
ATOM     40  C   UNL A   1      41.607  25.454  27.903  1.00  0.00     0.031 C 
ATOM     41  C   UNL A   1      46.157  24.111  26.233  1.00  0.00     0.029 A 
ATOM     42  N   UNL A   1      45.908  26.214  26.949  1.00  0.00    -0.354 N 
ATOM     43  C   UNL A   1      42.048  27.662  28.289  1.00  0.00     0.074 A 
ATOM     44  C   UNL A   1      41.051  26.618  28.194  1.00  0.00     0.031 C 
ATOM     45  C   UNL A   1      47.347  24.720  26.115  1.00  0.00     0.029 A 
ATOM     46  C   UNL A   1      47.221  26.105  26.554  1.00  0.00     0.049 A 
ATOM     47  H   UNL A   1      45.519  27.046  27.302  1.00  0.00     0.167 HD
ATOM     48  C   UNL A   1      41.802  28.915  28.747  1.00  0.00     0.034 A 
ATOM     49  C   UNL A   1      48.210  27.021  26.545  1.00  0.00     0.034 A 
ATOM     50  C   UNL A   1      42.814  29.939  28.847  1.00  0.00     0.049 A 
ATOM     51  C   UNL A   1      47.914  28.415  27.034  1.00  0.00     0.074 A 
ATOM     52  C   UNL A   1      42.696  31.226  29.342  1.00  0.00     0.029 A 
ATOM     53  N   UNL A   1      44.134  29.793  28.435  1.00  0.00    -0.354 N 
ATOM     54  N   UNL A   1      46.783  28.913  27.477  1.00  0.00    -0.248 NA
ATOM     55  C   UNL A   1      49.032  29.367  27.031  1.00  0.00     0.031 C 
ATOM     56  C   UNL A   1      43.923  31.876  29.169  1.00  0.00     0.029 A 
ATOM     57  C   UNL A   1      44.832  30.975  28.638  1.00  0.00     0.049 A 
ATOM     58  H   UNL A   1      44.517  28.970  28.055  1.00  0.00     0.167 HD
ATOM     59  C   UNL A   1      47.063  30.229  27.838  1.00  0.00     0.074 A 
ATOM     60  C   UNL A   1      48.471  30.440  27.568  1.00  0.00     0.031 C 
ATOM     61  C   UNL A   1      46.234  31.174  28.350  1.00  0.00     0.034 A 
BRANCH  48  62
ATOM     62  C   UNL A   1      40.379  29.233  29.148  1.00  0.00     0.023 A 
ATOM     63  C   UNL A   1      39.977  29.237  30.497  1.00  0.00     0.031 A 
ATOM     64  C   UNL A   1      39.394  29.465  28.173  1.00  0.00     0.131 A 
ATOM     65  C   UNL A   1      38.618  29.353  30.825  1.00  0.00     0.055 A 
ATOM     66  C   UNL A   1      38.056  29.682  28.513  1.00  0.00     0.041 A 
ATOM     67  F   UNL A   1      39.707  29.456  26.867  1.00  0.00    -0.206 F 
ATOM     68  C   UNL A   1      37.657  29.603  29.844  1.00  0.00     0.022 A 
BRANCH  65  69
ATOM     69  S   UNL A   1      38.108  28.978  32.526  1.00  0.00     0.124 S 
ATOM     70  O   UNL A   1      38.995  29.847  33.298  1.00  0.00    -0.237 OA
ATOM     71  O   UNL A   1      36.698  29.348  32.521  1.00  0.00    -0.237 OA
ATOM     72  O   UNL A   1      38.379  27.548  32.658  1.00  0.00    -0.744 OA
ENDBRANCH  65  69
ENDBRANCH  48  62
BRANCH  49  73
ATOM     73  C   UNL A   1      49.574  26.650  26.071  1.00  0.00     0.023 A 
ATOM     74  C   UNL A   1      50.031  27.059  24.808  1.00  0.00     0.031 A 
ATOM     75  C   UNL A   1      50.433  25.868  26.863  1.00  0.00     0.131 A 
ATOM     76  C   UNL A   1      51.296  26.654  24.357  1.00  0.00     0.055 A 
ATOM     77  C   UNL A   1      51.710  25.508  26.429  1.00  0.00     0.041 A 
ATOM     78  F   UNL A   1      50.048  25.460  28.083  1.00  0.00    -0.206 F 
ATOM     79  C   UNL A   1      52.144  25.892  25.164  1.00  0.00     0.022 A 
BRANCH  76  80
ATOM     80  S   UNL A   1      51.798  27.089  22.670  1.00  0.00     0.124 S 
ATOM     81  O   UNL A   1      50.568  26.845  21.923  1.00  0.00    -0.237 OA
ATOM     82  O   UNL A   1      52.192  28.485  22.820  1.00  0.00    -0.237 OA
ATOM     83  O   UNL A   1      52.892  26.162  22.390  1.00  0.00    -0.744 OA
ENDBRANCH  76  80
ENDBRANCH  49  73
BRANCH  61  84
ATOM     84  C   UNL A   1      46.849  32.508  28.696  1.00  0.00     0.023 A 
ATOM     85  C   UNL A   1      46.971  33.538  27.746  1.00  0.00     0.031 A 
ATOM     86  C   UNL A   1      47.333  32.746  29.995  1.00  0.00     0.131 A 
ATOM     87  C   UNL A   1      47.614  34.736  28.094  1.00  0.00     0.055 A 
ATOM     88  C   UNL A   1      47.915  33.962  30.351  1.00  0.00     0.041 A 
ATOM     89  F   UNL A   1      47.245  31.797  30.941  1.00  0.00    -0.206 F 
ATOM     90  C   UNL A   1      48.071  34.961  29.394  1.00  0.00     0.022 A 
BRANCH  87  91
ATOM     91  S   UNL A   1      47.935  35.960  26.794  1.00  0.00     0.124 S 
ATOM     92  O   UNL A   1      49.076  36.688  27.339  1.00  0.00    -0.237 OA
ATOM     93  O   UNL A   1      48.211  35.118  25.634  1.00  0.00    -0.237 OA
ATOM     94  O   UNL A   1      46.689  36.721  26.724  1.00  0.00    -0.744 OA
ENDBRANCH  87  91
ENDBRANCH  61  84
ENDBRANCH  35  36
ENDBRANCH  27  30
ENDBRANCH  25  26
ENDBRANCH  24  25
ENDBRANCH   1  24
TORSDOF 18
ENDMDL
MODEL 2
REMARK VINA RESULT:     -10.9      5.868      8.954
REMARK SMILES C[N@H+](CC(C)(C)C(=O)NCCCNC(=O)c1ccc(-c2c3nc(c(-c4cc(S(=O)(=O)[O-])ccc4F)c4ccc([nH]4)c(-c4cc(S(=O)(=O)[O-])ccc4F)c4nc(c(-c5cc(S(=O)(=O)[O-])ccc5F)c5ccc2[nH]5)C=C4)C=C3)cc1)[C@@H]1CCCC[C@@H]1C[NH3+]
REMARK SMILES IDX 10 1 9 2 7 3 8 4 4 6 5 7 6 8 3 9 2 10 1 11 79 13 80 14 84 15
REMARK SMILES IDX 81 16 83 17 82 18 85 19 86 20 11 24 12 25 13 26 14 27 15 29
REMARK SMILES IDX 16 30 17 31 78 32 18 33 77 34 19 35 20 36 21 37 71 38 22 39
REMARK SMILES IDX 76 40 70 41 72 42 23 43 75 44 69 45 68 46 24 48 56 49 36 50
REMARK SMILES IDX 55 51 37 52 40 53 54 54 73 55 38 56 39 57 53 59 74 60 41 61
REMARK SMILES IDX 25 62 26 63 34 64 27 65 33 66 35 67 32 68 28 69 29 70 30 71
REMARK SMILES IDX 31 72 57 73 58 74 66 75 59 76 65 77 67 78 64 79 60 80 61 81
REMARK SMILES IDX 62 82 63 83 42 84 43 85 51 86 44 87 50 88 52 89 49 90 45 91
REMARK SMILES IDX 46 92 47 93 48 94
REMARK H PARENT 9 5 2 12 86 21 86 22 86 23 13 28 72 47 40 58
REMARK Flexibility Score: inf
ROOT
ATOM      1  C   UNL A   1      33.187  28.246  25.188  1.00  0.00     0.117 C 
ENDROOT
BRANCH   1   2
ATOM      2  N   UNL A   1      32.129  27.342  25.601  1.00  0.00    -0.355 N 
ATOM      3  C   UNL A   1      31.302  26.474  24.986  1.00  0.00     0.231 C 
ATOM      4  O   UNL A   1      30.367  26.087  25.703  1.00  0.00    -0.274 OA
ATOM      5  H   UNL A   1      31.978  27.372  26.573  1.00  0.00     0.163 HD
BRANCH   3   6
ATOM      6  C   UNL A   1      31.420  25.956  23.538  1.00  0.00     0.092 C 
ATOM      7  C   UNL A   1      31.191  26.910  22.362  1.00  0.00     0.027 C 
ATOM      8  C   UNL A   1      30.275  24.914  23.414  1.00  0.00     0.027 C 
BRANCH   6   9
ATOM      9  C   UNL A   1      32.818  25.241  23.366  1.00  0.00     0.278 C 
BRANCH   9  10
ATOM     10  N   UNL A   1      32.857  23.788  23.688  1.00  0.00    -0.334 N 
ATOM     11  C   UNL A   1      33.366  23.039  22.529  1.00  0.00     0.333 C 
ATOM     12  H   UNL A   1      31.891  23.518  23.871  1.00  0.00     0.348 HD
BRANCH  10  13
ATOM     13  C   UNL A   1      33.516  23.410  24.975  1.00  0.00     0.192 C 
ATOM     14  C   UNL A   1      34.449  22.159  24.866  1.00  0.00     0.065 C 
ATOM     15  C   UNL A   1      32.477  23.219  26.123  1.00  0.00     0.102 C 
ATOM     16  C   UNL A   1      34.977  21.615  26.195  1.00  0.00     0.006 C 
ATOM     17  C   UNL A   1      33.161  22.778  27.426  1.00  0.00     0.015 C 
ATOM     18  C   UNL A   1      33.897  21.462  27.252  1.00  0.00     0.001 C 
BRANCH  15  19
ATOM     19  C   UNL A   1      31.274  22.286  25.822  1.00  0.00     0.268 C 
BRANCH  19  20
ATOM     20  N   UNL A   1      30.025  22.576  26.511  1.00  0.00    -0.357 N 
ATOM     21  H   UNL A   1      30.222  23.095  27.367  1.00  0.00     0.344 HD
ATOM     22  H   UNL A   1      29.554  21.702  26.744  1.00  0.00     0.344 HD
ATOM     23  H   UNL A   1      29.425  23.136  25.906  1.00  0.00     0.344 HD
ENDBRANCH  19  20
ENDBRANCH  15  19
ENDBRANCH  10  13
ENDBRANCH   9  10
ENDBRANCH   6   9
ENDBRANCH   3   6
ENDBRANCH   1   2
BRANCH   1  24
ATOM     24  C   UNL A   1      32.721  29.691  25.223  1.00  0.00     0.042 C 
BRANCH  24  25
ATOM     25  C   UNL A   1      32.252  30.130  26.604  1.00  0.00     0.118 C 
BRANCH  25  26
ATOM     26  N   UNL A   1      32.232  31.581  26.760  1.00  0.00    -0.352 N 
ATOM     27  C   UNL A   1      33.121  32.400  27.421  1.00  0.00     0.251 C 
ATOM     28  H   UNL A   1      31.475  32.041  26.332  1.00  0.00     0.163 HD
ATOM     29  O   UNL A   1      32.846  33.574  27.614  1.00  0.00    -0.269 OA
BRANCH  27  30
ATOM     30  C   UNL A   1      34.388  31.827  27.924  1.00  0.00     0.039 A 
ATOM     31  C   UNL A   1      35.524  32.634  27.993  1.00  0.00     0.014 A 
ATOM     32  C   UNL A   1      34.434  30.505  28.372  1.00  0.00     0.014 A 
ATOM     33  C   UNL A   1      36.683  32.138  28.596  1.00  0.00     0.010 A 
ATOM     34  C   UNL A   1      35.547  30.054  29.070  1.00  0.00     0.010 A 
ATOM     35  C   UNL A   1      36.688  30.861  29.182  1.00  0.00    -0.014 A 
BRANCH  35  36
ATOM     36  C   UNL A   1      37.879  30.338  29.900  1.00  0.00     0.031 A 
ATOM     37  C   UNL A   1      38.140  30.761  31.321  1.00  0.00     0.074 A 
ATOM     38  C   UNL A   1      38.761  29.547  29.255  1.00  0.00     0.049 A 
ATOM     39  N   UNL A   1      39.162  30.495  32.093  1.00  0.00    -0.248 NA
ATOM     40  C   UNL A   1      37.134  31.637  31.938  1.00  0.00     0.031 C 
ATOM     41  C   UNL A   1      38.645  29.109  27.862  1.00  0.00     0.029 A 
ATOM     42  N   UNL A   1      39.930  28.975  29.685  1.00  0.00    -0.354 N 
ATOM     43  C   UNL A   1      38.931  31.187  33.277  1.00  0.00     0.074 A 
ATOM     44  C   UNL A   1      37.718  31.952  33.083  1.00  0.00     0.031 C 
ATOM     45  C   UNL A   1      39.677  28.304  27.567  1.00  0.00     0.029 A 
ATOM     46  C   UNL A   1      40.554  28.207  28.729  1.00  0.00     0.049 A 
ATOM     47  H   UNL A   1      40.290  29.101  30.593  1.00  0.00     0.167 HD
ATOM     48  C   UNL A   1      39.644  31.162  34.431  1.00  0.00     0.034 A 
ATOM     49  C   UNL A   1      41.704  27.506  28.784  1.00  0.00     0.034 A 
ATOM     50  C   UNL A   1      40.844  30.382  34.608  1.00  0.00     0.049 A 
ATOM     51  C   UNL A   1      42.496  27.509  30.066  1.00  0.00     0.074 A 
ATOM     52  C   UNL A   1      41.621  30.237  35.744  1.00  0.00     0.029 A 
ATOM     53  N   UNL A   1      41.447  29.617  33.616  1.00  0.00    -0.354 N 
ATOM     54  N   UNL A   1      42.241  28.130  31.194  1.00  0.00    -0.248 NA
ATOM     55  C   UNL A   1      43.726  26.708  30.083  1.00  0.00     0.031 C 
ATOM     56  C   UNL A   1      42.726  29.441  35.421  1.00  0.00     0.029 A 
ATOM     57  C   UNL A   1      42.601  29.023  34.106  1.00  0.00     0.049 A 
ATOM     58  H   UNL A   1      41.105  29.513  32.699  1.00  0.00     0.167 HD
ATOM     59  C   UNL A   1      43.263  27.766  32.067  1.00  0.00     0.074 A 
ATOM     60  C   UNL A   1      44.131  26.865  31.334  1.00  0.00     0.031 C 
ATOM     61  C   UNL A   1      43.464  28.137  33.358  1.00  0.00     0.034 A 
BRANCH  48  62
ATOM     62  C   UNL A   1      39.140  32.024  35.567  1.00  0.00     0.023 A 
ATOM     63  C   UNL A   1      39.565  33.357  35.725  1.00  0.00     0.031 A 
ATOM     64  C   UNL A   1      38.282  31.493  36.545  1.00  0.00     0.131 A 
ATOM     65  C   UNL A   1      39.227  34.070  36.884  1.00  0.00     0.055 A 
ATOM     66  C   UNL A   1      37.866  32.244  37.647  1.00  0.00     0.041 A 
ATOM     67  F   UNL A   1      37.854  30.223  36.464  1.00  0.00    -0.206 F 
ATOM     68  C   UNL A   1      38.358  33.533  37.834  1.00  0.00     0.022 A 
BRANCH  65  69
ATOM     69  S   UNL A   1      40.096  35.627  37.222  1.00  0.00     0.124 S 
ATOM     70  O   UNL A   1      39.650  36.460  36.106  1.00  0.00    -0.237 OA
ATOM     71  O   UNL A   1      39.585  35.994  38.537  1.00  0.00    -0.237 OA
ATOM     72  O   UNL A   1      41.506  35.249  37.181  1.00  0.00    -0.744 OA
ENDBRANCH  65  69
ENDBRANCH  48  62
BRANCH  49  73
ATOM     73  C   UNL A   1      42.171  26.733  27.598  1.00  0.00     0.023 A 
ATOM     74  C   UNL A   1      41.906  25.359  27.486  1.00  0.00     0.031 A 
ATOM     75  C   UNL A   1      42.906  27.350  26.570  1.00  0.00     0.131 A 
ATOM     76  C   UNL A   1      42.401  24.638  26.389  1.00  0.00     0.055 A 
ATOM     77  C   UNL A   1      43.357  26.638  25.458  1.00  0.00     0.041 A 
ATOM     78  F   UNL A   1      43.180  28.663  26.625  1.00  0.00    -0.206 F 
ATOM     79  C   UNL A   1      43.114  25.270  25.368  1.00  0.00     0.022 A 
BRANCH  76  80
ATOM     80  S   UNL A   1      42.152  22.843  26.346  1.00  0.00     0.124 S 
ATOM     81  O   UNL A   1      43.022  22.396  27.428  1.00  0.00    -0.237 OA
ATOM     82  O   UNL A   1      40.717  22.729  26.586  1.00  0.00    -0.237 OA
ATOM     83  O   UNL A   1      42.587  22.471  25.001  1.00  0.00    -0.744 OA
ENDBRANCH  76  80
ENDBRANCH  49  73
BRANCH  61  84
ATOM     84  C   UNL A   1      44.646  27.526  34.069  1.00  0.00     0.023 A 
ATOM     85  C   UNL A   1      44.531  26.339  34.815  1.00  0.00     0.031 A 
ATOM     86  C   UNL A   1      45.905  28.152  34.011  1.00  0.00     0.131 A 
ATOM     87  C   UNL A   1      45.641  25.846  35.519  1.00  0.00     0.055 A 
ATOM     88  C   UNL A   1      47.019  27.623  34.662  1.00  0.00     0.041 A 
ATOM     89  F   UNL A   1      46.071  29.288  33.317  1.00  0.00    -0.206 F 
ATOM     90  C   UNL A   1      46.888  26.471  35.433  1.00  0.00     0.022 A 
BRANCH  87  91
ATOM     91  S   UNL A   1      45.409  24.431  36.630  1.00  0.00     0.124 S 
ATOM     92  O   UNL A   1      46.225  24.811  37.778  1.00  0.00    -0.237 OA
ATOM     93  O   UNL A   1      43.965  24.437  36.844  1.00  0.00    -0.237 OA
ATOM     94  O   UNL A   1      45.915  23.300  35.855  1.00  0.00    -0.744 OA
ENDBRANCH  87  91
ENDBRANCH  61  84
ENDBRANCH  35  36
ENDBRANCH  27  30
ENDBRANCH  25  26
ENDBRANCH  24  25
ENDBRANCH   1  24
TORSDOF 18
ENDMDL
MODEL 3
REMARK VINA RESULT:     -10.9      6.399     11.384
REMARK SMILES C[N@H+](CC(C)(C)C(=O)NCCCNC(=O)c1ccc(-c2c3nc(c(-c4cc(S(=O)(=O)[O-])ccc4F)c4ccc([nH]4)c(-c4cc(S(=O)(=O)[O-])ccc4F)c4nc(c(-c5cc(S(=O)(=O)[O-])ccc5F)c5ccc2[nH]5)C=C4)C=C3)cc1)[C@@H]1CCCC[C@@H]1C[NH3+]
REMARK SMILES IDX 10 1 9 2 7 3 8 4 4 6 5 7 6 8 3 9 2 10 1 11 79 13 80 14 84 15
REMARK SMILES IDX 81 16 83 17 82 18 85 19 86 20 11 24 12 25 13 26 14 27 15 29
REMARK SMILES IDX 16 30 17 31 78 32 18 33 77 34 19 35 20 36 21 37 71 38 22 39
REMARK SMILES IDX 76 40 70 41 72 42 23 43 75 44 69 45 68 46 24 48 56 49 36 50
REMARK SMILES IDX 55 51 37 52 40 53 54 54 73 55 38 56 39 57 53 59 74 60 41 61
REMARK SMILES IDX 25 62 26 63 34 64 27 65 33 66 35 67 32 68 28 69 29 70 30 71
REMARK SMILES IDX 31 72 57 73 58 74 66 75 59 76 65 77 67 78 64 79 60 80 61 81
REMARK SMILES IDX 62 82 63 83 42 84 43 85 51 86 44 87 50 88 52 89 49 90 45 91
REMARK SMILES IDX 46 92 47 93 48 94
REMARK H PARENT 9 5 2 12 86 21 86 22 86 23 13 28 72 47 40 58
REMARK Flexibility Score: inf
ROOT
ATOM      1  C   UNL A   1      33.710  30.081  27.016  1.00  0.00     0.117 C 
ENDROOT
BRANCH   1   2
ATOM      2  N   UNL A   1      32.775  29.150  27.622  1.00  0.00    -0.355 N 
ATOM      3  C   UNL A   1      31.905  28.222  27.175  1.00  0.00     0.231 C 
ATOM      4  O   UNL A   1      31.113  27.826  28.045  1.00  0.00    -0.274 OA
ATOM      5  H   UNL A   1      32.777  29.213  28.604  1.00  0.00     0.163 HD
BRANCH   3   6
ATOM      6  C   UNL A   1      31.818  27.652  25.746  1.00  0.00     0.092 C 
ATOM      7  C   UNL A   1      31.238  28.505  24.613  1.00  0.00     0.027 C 
ATOM      8  C   UNL A   1      30.831  26.460  25.871  1.00  0.00     0.027 C 
BRANCH   6   9
ATOM      9  C   UNL A   1      33.246  27.123  25.322  1.00  0.00     0.278 C 
BRANCH   9  10
ATOM     10  N   UNL A   1      33.320  25.699  24.896  1.00  0.00    -0.334 N 
ATOM     11  C   UNL A   1      33.679  25.629  23.471  1.00  0.00     0.333 C 
ATOM     12  H   UNL A   1      32.383  25.320  25.031  1.00  0.00     0.348 HD
BRANCH  10  13
ATOM     13  C   UNL A   1      34.132  24.789  25.758  1.00  0.00     0.192 C 
ATOM     14  C   UNL A   1      35.317  24.095  25.009  1.00  0.00     0.065 C 
ATOM     15  C   UNL A   1      33.243  23.726  26.476  1.00  0.00     0.102 C 
ATOM     16  C   UNL A   1      36.043  23.002  25.795  1.00  0.00     0.006 C 
ATOM     17  C   UNL A   1      34.095  22.763  27.316  1.00  0.00     0.015 C 
ATOM     18  C   UNL A   1      35.100  22.014  26.460  1.00  0.00     0.001 C 
BRANCH  15  19
ATOM     19  C   UNL A   1      32.269  22.917  25.580  1.00  0.00     0.268 C 
BRANCH  19  20
ATOM     20  N   UNL A   1      31.445  21.914  26.239  1.00  0.00    -0.357 N 
ATOM     21  H   UNL A   1      31.490  22.047  27.249  1.00  0.00     0.344 HD
ATOM     22  H   UNL A   1      31.789  20.983  26.003  1.00  0.00     0.344 HD
ATOM     23  H   UNL A   1      30.479  22.009  25.926  1.00  0.00     0.344 HD
ENDBRANCH  19  20
ENDBRANCH  15  19
ENDBRANCH  10  13
ENDBRANCH   9  10
ENDBRANCH   6   9
ENDBRANCH   3   6
ENDBRANCH   1   2
BRANCH   1  24
ATOM     24  C   UNL A   1      32.982  31.233  26.346  1.00  0.00     0.042 C 
BRANCH  24  25
ATOM     25  C   UNL A   1      32.024  31.957  27.284  1.00  0.00     0.118 C 
BRANCH  25  26
ATOM     26  N   UNL A   1      32.278  33.392  27.355  1.00  0.00    -0.352 N 
ATOM     27  C   UNL A   1      33.300  34.066  27.986  1.00  0.00     0.251 C 
ATOM     28  H   UNL A   1      31.627  33.959  26.884  1.00  0.00     0.163 HD
ATOM     29  O   UNL A   1      33.250  35.281  28.105  1.00  0.00    -0.269 OA
BRANCH  27  30
ATOM     30  C   UNL A   1      34.430  33.297  28.548  1.00  0.00     0.039 A 
ATOM     31  C   UNL A   1      35.707  33.466  28.013  1.00  0.00     0.014 A 
ATOM     32  C   UNL A   1      34.229  32.447  29.639  1.00  0.00     0.014 A 
ATOM     33  C   UNL A   1      36.798  32.847  28.630  1.00  0.00     0.010 A 
ATOM     34  C   UNL A   1      35.325  31.927  30.315  1.00  0.00     0.010 A 
ATOM     35  C   UNL A   1      36.621  32.113  29.814  1.00  0.00    -0.014 A 
BRANCH  35  36
ATOM     36  C   UNL A   1      37.771  31.511  30.537  1.00  0.00     0.031 A 
ATOM     37  C   UNL A   1      38.616  30.466  29.858  1.00  0.00     0.074 A 
ATOM     38  C   UNL A   1      38.010  31.845  31.821  1.00  0.00     0.049 A 
ATOM     39  N   UNL A   1      39.602  29.754  30.339  1.00  0.00    -0.248 NA
ATOM     40  C   UNL A   1      38.274  30.153  28.463  1.00  0.00     0.031 C 
ATOM     41  C   UNL A   1      37.230  32.807  32.605  1.00  0.00     0.029 A 
ATOM     42  N   UNL A   1      38.973  31.411  32.696  1.00  0.00    -0.354 N 
ATOM     43  C   UNL A   1      39.983  28.896  29.312  1.00  0.00     0.074 A 
ATOM     44  C   UNL A   1      39.061  29.119  28.219  1.00  0.00     0.031 C 
ATOM     45  C   UNL A   1      37.773  32.919  33.828  1.00  0.00     0.029 A 
ATOM     46  C   UNL A   1      38.905  32.006  33.934  1.00  0.00     0.049 A 
ATOM     47  H   UNL A   1      39.650  30.737  32.458  1.00  0.00     0.167 HD
ATOM     48  C   UNL A   1      41.024  28.026  29.271  1.00  0.00     0.034 A 
ATOM     49  C   UNL A   1      39.667  31.831  35.031  1.00  0.00     0.034 A 
ATOM     50  C   UNL A   1      41.939  27.828  30.367  1.00  0.00     0.049 A 
ATOM     51  C   UNL A   1      40.804  30.843  34.976  1.00  0.00     0.074 A 
ATOM     52  C   UNL A   1      43.057  27.015  30.424  1.00  0.00     0.029 A 
ATOM     53  N   UNL A   1      41.837  28.447  31.608  1.00  0.00    -0.354 N 
ATOM     54  N   UNL A   1      41.183  30.072  33.983  1.00  0.00    -0.248 NA
ATOM     55  C   UNL A   1      41.622  30.710  36.188  1.00  0.00     0.031 C 
ATOM     56  C   UNL A   1      43.591  27.092  31.715  1.00  0.00     0.029 A 
ATOM     57  C   UNL A   1      42.854  28.012  32.445  1.00  0.00     0.049 A 
ATOM     58  H   UNL A   1      41.143  29.100  31.857  1.00  0.00     0.167 HD
ATOM     59  C   UNL A   1      42.305  29.387  34.441  1.00  0.00     0.074 A 
ATOM     60  C   UNL A   1      42.545  29.845  35.795  1.00  0.00     0.031 C 
ATOM     61  C   UNL A   1      43.072  28.468  33.799  1.00  0.00     0.034 A 
BRANCH  48  62
ATOM     62  C   UNL A   1      41.195  27.221  28.002  1.00  0.00     0.023 A 
ATOM     63  C   UNL A   1      40.823  25.865  27.934  1.00  0.00     0.031 A 
ATOM     64  C   UNL A   1      41.799  27.789  26.868  1.00  0.00     0.131 A 
ATOM     65  C   UNL A   1      41.162  25.099  26.809  1.00  0.00     0.055 A 
ATOM     66  C   UNL A   1      42.041  27.045  25.710  1.00  0.00     0.041 A 
ATOM     67  F   UNL A   1      42.194  29.072  26.872  1.00  0.00    -0.206 F 
ATOM     68  C   UNL A   1      41.744  25.685  25.685  1.00  0.00     0.022 A 
BRANCH  65  69
ATOM     69  S   UNL A   1      41.007  23.294  26.918  1.00  0.00     0.124 S 
ATOM     70  O   UNL A   1      41.882  22.858  25.831  1.00  0.00    -0.237 OA
ATOM     71  O   UNL A   1      41.481  23.018  28.268  1.00  0.00    -0.237 OA
ATOM     72  O   UNL A   1      39.583  23.057  26.694  1.00  0.00    -0.744 OA
ENDBRANCH  65  69
ENDBRANCH  48  62
BRANCH  49  73
ATOM     73  C   UNL A   1      39.394  32.614  36.270  1.00  0.00     0.023 A 
ATOM     74  C   UNL A   1      38.517  32.124  37.250  1.00  0.00     0.031 A 
ATOM     75  C   UNL A   1      39.990  33.869  36.484  1.00  0.00     0.131 A 
ATOM     76  C   UNL A   1      38.230  32.900  38.383  1.00  0.00     0.055 A 
ATOM     77  C   UNL A   1      39.738  34.617  37.636  1.00  0.00     0.041 A 
ATOM     78  F   UNL A   1      40.844  34.379  35.582  1.00  0.00    -0.206 F 
ATOM     79  C   UNL A   1      38.844  34.138  38.589  1.00  0.00     0.022 A 
BRANCH  76  80
ATOM     80  S   UNL A   1      36.991  32.295  39.561  1.00  0.00     0.124 S 
ATOM     81  O   UNL A   1      35.745  32.644  38.887  1.00  0.00    -0.237 OA
ATOM     82  O   UNL A   1      37.307  30.872  39.629  1.00  0.00    -0.237 OA
ATOM     83  O   UNL A   1      37.278  33.053  40.777  1.00  0.00    -0.744 OA
ENDBRANCH  76  80
ENDBRANCH  49  73
BRANCH  61  84
ATOM     84  C   UNL A   1      44.270  27.936  34.546  1.00  0.00     0.023 A 
ATOM     85  C   UNL A   1      44.224  26.726  35.259  1.00  0.00     0.031 A 
ATOM     86  C   UNL A   1      45.475  28.663  34.553  1.00  0.00     0.131 A 
ATOM     87  C   UNL A   1      45.341  26.306  35.997  1.00  0.00     0.055 A 
ATOM     88  C   UNL A   1      46.603  28.209  35.238  1.00  0.00     0.041 A 
ATOM     89  F   UNL A   1      45.576  29.827  33.892  1.00  0.00    -0.206 F 
ATOM     90  C   UNL A   1      46.535  27.031  35.977  1.00  0.00     0.022 A 
BRANCH  87  91
ATOM     91  S   UNL A   1      45.182  24.850  37.067  1.00  0.00     0.124 S 
ATOM     92  O   UNL A   1      44.672  25.434  38.302  1.00  0.00    -0.237 OA
ATOM     93  O   UNL A   1      44.244  24.016  36.321  1.00  0.00    -0.237 OA
ATOM     94  O   UNL A   1      46.546  24.329  37.143  1.00  0.00    -0.744 OA
ENDBRANCH  87  91
ENDBRANCH  61  84
ENDBRANCH  35  36
ENDBRANCH  27  30
ENDBRANCH  25  26
ENDBRANCH  24  25
ENDBRANCH   1  24
TORSDOF 18
ENDMDL
