MODEL 1
REMARK VINA RESULT:     -13.0      0.000      0.000
REMARK SMILES CC1=C(C)C[C@@H](C(=O)NCc2cccnc2)[C@H](C(=O)NCCCNC(=O)c2ccc(-c3c4nc(c(-c5cc(S(=O)(=O)[O-])ccc5F)c5ccc([nH]5)c(-c5cc(S(=O)(=O)[O-])ccc5F)c5nc(c(-c6cc(S(=O)(=O)[O-])ccc6F)c6ccc3[nH]6)C=C5)C=C4)cc2)C1
REMARK SMILES IDX 22 1 21 2 20 3 18 4 19 5 17 7 1 8 2 9 3 10 90 11 4 12 5 13
REMARK SMILES IDX 6 14 7 15 8 16 9 17 10 19 11 20 12 21 16 22 13 23 15 24
REMARK SMILES IDX 14 25 23 26 24 27 25 28 26 30 27 31 28 32 89 33 29 34 88 35
REMARK SMILES IDX 30 36 31 37 32 38 82 39 33 40 87 41 81 42 83 43 34 44 86 45
REMARK SMILES IDX 80 46 79 47 35 49 67 50 47 51 66 52 48 53 51 54 65 55 84 56
REMARK SMILES IDX 49 57 50 58 64 60 85 61 52 62 36 63 37 64 45 65 38 66 44 67
REMARK SMILES IDX 46 68 43 69 39 70 40 71 41 72 42 73 68 74 69 75 77 76 70 77
REMARK SMILES IDX 76 78 78 79 75 80 71 81 72 82 73 83 74 84 53 85 54 86 62 87
REMARK SMILES IDX 55 88 61 89 63 90 60 91 56 92 57 93 58 94 59 95
REMARK H PARENT 20 6 9 18 24 29 83 48 51 59
REMARK Flexibility Score: inf
ROOT
ATOM      1  C   UNL A   1      34.979  22.417  27.222  1.00  0.00     0.042 C 
ENDROOT
BRANCH   1   2
ATOM      2  C   UNL A   1      33.757  21.534  27.076  1.00  0.00     0.117 C 
BRANCH   2   3
ATOM      3  N   UNL A   1      32.536  22.185  27.495  1.00  0.00    -0.356 N 
ATOM      4  C   UNL A   1      31.837  23.199  26.923  1.00  0.00     0.224 C 
ATOM      5  O   UNL A   1      30.768  23.511  27.457  1.00  0.00    -0.275 OA
ATOM      6  H   UNL A   1      32.150  21.836  28.330  1.00  0.00     0.163 HD
BRANCH   4   7
ATOM      7  C   UNL A   1      32.336  23.963  25.693  1.00  0.00     0.095 C 
ATOM      8  C   UNL A   1      32.007  27.874  25.778  1.00  0.00     0.039 C 
ATOM      9  C   UNL A   1      31.745  26.476  25.277  1.00  0.00    -0.074 C 
ATOM     10  C   UNL A   1      30.809  26.144  24.359  1.00  0.00    -0.074 C 
ATOM     11  C   UNL A   1      32.604  25.443  25.982  1.00  0.00     0.045 C 
ATOM     12  C   UNL A   1      29.845  27.109  23.711  1.00  0.00     0.039 C 
ATOM     13  C   UNL A   1      30.574  24.718  23.910  1.00  0.00     0.045 C 
ATOM     14  C   UNL A   1      31.496  23.628  24.457  1.00  0.00     0.095 C 
BRANCH  14  15
ATOM     15  C   UNL A   1      32.339  22.975  23.360  1.00  0.00     0.224 C 
ATOM     16  O   UNL A   1      32.858  23.673  22.483  1.00  0.00    -0.275 OA
ATOM     17  N   UNL A   1      32.550  21.639  23.265  1.00  0.00    -0.352 N 
ATOM     18  H   UNL A   1      33.063  21.372  22.467  1.00  0.00     0.163 HD
BRANCH  17  19
ATOM     19  C   UNL A   1      32.164  20.533  24.111  1.00  0.00     0.153 C 
BRANCH  19  20
ATOM     20  C   UNL A   1      32.846  19.230  23.806  1.00  0.00    -0.010 A 
ATOM     21  C   UNL A   1      33.927  18.820  24.600  1.00  0.00     0.009 A 
ATOM     22  C   UNL A   1      32.461  18.371  22.781  1.00  0.00     0.116 A 
ATOM     23  C   UNL A   1      34.561  17.607  24.349  1.00  0.00     0.020 A 
ATOM     24  N   UNL A   1      33.060  17.186  22.514  1.00  0.00    -0.264 NA
ATOM     25  C   UNL A   1      34.093  16.832  23.303  1.00  0.00     0.111 A 
ENDBRANCH  19  20
ENDBRANCH  17  19
ENDBRANCH  14  15
ENDBRANCH   4   7
ENDBRANCH   2   3
ENDBRANCH   1   2
BRANCH   1  26
ATOM     26  C   UNL A   1      35.765  22.532  25.930  1.00  0.00     0.118 C 
BRANCH  26  27
ATOM     27  N   UNL A   1      36.705  21.426  25.764  1.00  0.00    -0.352 N 
ATOM     28  C   UNL A   1      38.076  21.422  25.795  1.00  0.00     0.251 C 
ATOM     29  H   UNL A   1      36.290  20.547  25.606  1.00  0.00     0.163 HD
ATOM     30  O   UNL A   1      38.689  20.440  25.385  1.00  0.00    -0.269 OA
BRANCH  28  31
ATOM     31  C   UNL A   1      38.800  22.604  26.302  1.00  0.00     0.039 A 
ATOM     32  C   UNL A   1      39.904  22.425  27.137  1.00  0.00     0.014 A 
ATOM     33  C   UNL A   1      38.390  23.891  25.944  1.00  0.00     0.014 A 
ATOM     34  C   UNL A   1      40.637  23.538  27.553  1.00  0.00     0.010 A 
ATOM     35  C   UNL A   1      39.184  24.981  26.262  1.00  0.00     0.010 A 
ATOM     36  C   UNL A   1      40.307  24.819  27.084  1.00  0.00    -0.014 A 
BRANCH  36  37
ATOM     37  C   UNL A   1      41.100  26.016  27.460  1.00  0.00     0.031 A 
ATOM     38  C   UNL A   1      40.465  27.095  28.296  1.00  0.00     0.074 A 
ATOM     39  C   UNL A   1      42.354  26.162  26.986  1.00  0.00     0.049 A 
ATOM     40  N   UNL A   1      40.942  28.261  28.643  1.00  0.00    -0.248 NA
ATOM     41  C   UNL A   1      39.096  26.842  28.774  1.00  0.00     0.031 C 
ATOM     42  C   UNL A   1      43.051  25.200  26.130  1.00  0.00     0.029 A 
ATOM     43  N   UNL A   1      43.260  27.178  27.148  1.00  0.00    -0.354 N 
ATOM     44  C   UNL A   1      39.927  28.888  29.357  1.00  0.00     0.074 A 
ATOM     45  C   UNL A   1      38.785  28.000  29.334  1.00  0.00     0.031 C 
ATOM     46  C   UNL A   1      44.286  25.659  25.866  1.00  0.00     0.029 A 
ATOM     47  C   UNL A   1      44.448  26.971  26.483  1.00  0.00     0.049 A 
ATOM     48  H   UNL A   1      43.079  27.981  27.689  1.00  0.00     0.167 HD
ATOM     49  C   UNL A   1      39.954  30.083  29.996  1.00  0.00     0.034 A 
ATOM     50  C   UNL A   1      45.536  27.759  26.369  1.00  0.00     0.034 A 
ATOM     51  C   UNL A   1      41.112  30.942  30.022  1.00  0.00     0.049 A 
ATOM     52  C   UNL A   1      45.535  29.094  27.072  1.00  0.00     0.074 A 
ATOM     53  C   UNL A   1      41.276  32.143  30.686  1.00  0.00     0.029 A 
ATOM     54  N   UNL A   1      42.301  30.694  29.346  1.00  0.00    -0.354 N 
ATOM     55  N   UNL A   1      44.586  29.648  27.792  1.00  0.00    -0.248 NA
ATOM     56  C   UNL A   1      46.755  29.902  26.961  1.00  0.00     0.031 C 
ATOM     57  C   UNL A   1      42.531  32.660  30.351  1.00  0.00     0.029 A 
ATOM     58  C   UNL A   1      43.189  31.738  29.551  1.00  0.00     0.049 A 
ATOM     59  H   UNL A   1      42.485  29.895  28.801  1.00  0.00     0.167 HD
ATOM     60  C   UNL A   1      45.111  30.855  28.247  1.00  0.00     0.074 A 
ATOM     61  C   UNL A   1      46.462  30.938  27.732  1.00  0.00     0.031 C 
ATOM     62  C   UNL A   1      44.533  31.805  29.026  1.00  0.00     0.034 A 
BRANCH  49  63
ATOM     63  C   UNL A   1      38.691  30.535  30.689  1.00  0.00     0.023 A 
ATOM     64  C   UNL A   1      37.640  31.153  29.989  1.00  0.00     0.031 A 
ATOM     65  C   UNL A   1      38.543  30.364  32.077  1.00  0.00     0.131 A 
ATOM     66  C   UNL A   1      36.525  31.643  30.686  1.00  0.00     0.055 A 
ATOM     67  C   UNL A   1      37.392  30.775  32.753  1.00  0.00     0.041 A 
ATOM     68  F   UNL A   1      39.522  29.803  32.805  1.00  0.00    -0.206 F 
ATOM     69  C   UNL A   1      36.381  31.432  32.058  1.00  0.00     0.022 A 
BRANCH  66  70
ATOM     70  S   UNL A   1      35.336  32.686  29.797  1.00  0.00     0.124 S 
ATOM     71  O   UNL A   1      34.367  32.988  30.848  1.00  0.00    -0.237 OA
ATOM     72  O   UNL A   1      36.165  33.801  29.353  1.00  0.00    -0.237 OA
ATOM     73  O   UNL A   1      34.841  31.813  28.735  1.00  0.00    -0.744 OA
ENDBRANCH  66  70
ENDBRANCH  49  63
BRANCH  50  74
ATOM     74  C   UNL A   1      46.705  27.324  25.552  1.00  0.00     0.023 A 
ATOM     75  C   UNL A   1      46.924  27.842  24.265  1.00  0.00     0.031 A 
ATOM     76  C   UNL A   1      47.599  26.348  26.028  1.00  0.00     0.131 A 
ATOM     77  C   UNL A   1      47.974  27.343  23.478  1.00  0.00     0.055 A 
ATOM     78  C   UNL A   1      48.679  25.899  25.264  1.00  0.00     0.041 A 
ATOM     79  F   UNL A   1      47.442  25.821  27.253  1.00  0.00    -0.206 F 
ATOM     80  C   UNL A   1      48.861  26.386  23.974  1.00  0.00     0.022 A 
BRANCH  77  81
ATOM     81  S   UNL A   1      48.100  27.890  21.753  1.00  0.00     0.124 S 
ATOM     82  O   UNL A   1      46.804  28.526  21.549  1.00  0.00    -0.237 OA
ATOM     83  O   UNL A   1      49.254  28.782  21.803  1.00  0.00    -0.237 OA
ATOM     84  O   UNL A   1      48.308  26.645  21.017  1.00  0.00    -0.744 OA
ENDBRANCH  77  81
ENDBRANCH  50  74
BRANCH  62  85
ATOM     85  C   UNL A   1      45.385  32.989  29.416  1.00  0.00     0.023 A 
ATOM     86  C   UNL A   1      45.422  34.165  28.647  1.00  0.00     0.031 A 
ATOM     87  C   UNL A   1      46.171  32.935  30.581  1.00  0.00     0.131 A 
ATOM     88  C   UNL A   1      46.271  35.217  29.022  1.00  0.00     0.055 A 
ATOM     89  C   UNL A   1      46.961  34.010  30.985  1.00  0.00     0.041 A 
ATOM     90  F   UNL A   1      46.178  31.835  31.350  1.00  0.00    -0.206 F 
ATOM     91  C   UNL A   1      47.025  35.155  30.197  1.00  0.00     0.022 A 
BRANCH  88  92
ATOM     92  S   UNL A   1      46.454  36.631  27.901  1.00  0.00     0.124 S 
ATOM     93  O   UNL A   1      47.897  36.665  27.689  1.00  0.00    -0.237 OA
ATOM     94  O   UNL A   1      45.651  36.224  26.751  1.00  0.00    -0.237 OA
ATOM     95  O   UNL A   1      45.912  37.750  28.669  1.00  0.00    -0.744 OA
ENDBRANCH  88  92
ENDBRANCH  62  85
ENDBRANCH  36  37
ENDBRANCH  28  31
ENDBRANCH  26  27
ENDBRANCH   1  26
TORSDOF 16
ENDMDL
MODEL 2
REMARK VINA RESULT:     -12.9      4.605      7.078
REMARK SMILES CC1=C(C)C[C@@H](C(=O)NCc2cccnc2)[C@H](C(=O)NCCCNC(=O)c2ccc(-c3c4nc(c(-c5cc(S(=O)(=O)[O-])ccc5F)c5ccc([nH]5)c(-c5cc(S(=O)(=O)[O-])ccc5F)c5nc(c(-c6cc(S(=O)(=O)[O-])ccc6F)c6ccc3[nH]6)C=C5)C=C4)cc2)C1
REMARK SMILES IDX 22 1 21 2 20 3 18 4 19 5 17 7 1 8 2 9 3 10 90 11 4 12 5 13
REMARK SMILES IDX 6 14 7 15 8 16 9 17 10 19 11 20 12 21 16 22 13 23 15 24
REMARK SMILES IDX 14 25 23 26 24 27 25 28 26 30 27 31 28 32 89 33 29 34 88 35
REMARK SMILES IDX 30 36 31 37 32 38 82 39 33 40 87 41 81 42 83 43 34 44 86 45
REMARK SMILES IDX 80 46 79 47 35 49 67 50 47 51 66 52 48 53 51 54 65 55 84 56
REMARK SMILES IDX 49 57 50 58 64 60 85 61 52 62 36 63 37 64 45 65 38 66 44 67
REMARK SMILES IDX 46 68 43 69 39 70 40 71 41 72 42 73 68 74 69 75 77 76 70 77
REMARK SMILES IDX 76 78 78 79 75 80 71 81 72 82 73 83 74 84 53 85 54 86 62 87
REMARK SMILES IDX 55 88 61 89 63 90 60 91 56 92 57 93 58 94 59 95
REMARK H PARENT 20 6 9 18 24 29 83 48 51 59
REMARK Flexibility Score: inf
ROOT
ATOM      1  C   UNL A   1      33.700  27.985  25.034  1.00  0.00     0.042 C 
ENDROOT
BRANCH   1   2
ATOM      2  C   UNL A   1      33.151  26.575  24.968  1.00  0.00     0.117 C 
BRANCH   2   3
ATOM      3  N   UNL A   1      33.644  25.830  23.831  1.00  0.00    -0.356 N 
ATOM      4  C   UNL A   1      34.197  24.592  23.761  1.00  0.00     0.224 C 
ATOM      5  O   UNL A   1      34.459  24.159  22.634  1.00  0.00    -0.275 OA
ATOM      6  H   UNL A   1      33.567  26.297  22.968  1.00  0.00     0.163 HD
BRANCH   4   7
ATOM      7  C   UNL A   1      34.522  23.755  25.002  1.00  0.00     0.095 C 
ATOM      8  C   UNL A   1      38.293  23.560  26.074  1.00  0.00     0.039 C 
ATOM      9  C   UNL A   1      36.963  23.032  25.597  1.00  0.00    -0.074 C 
ATOM     10  C   UNL A   1      36.746  21.779  25.138  1.00  0.00    -0.074 C 
ATOM     11  C   UNL A   1      35.884  24.099  25.610  1.00  0.00     0.045 C 
ATOM     12  C   UNL A   1      37.803  20.711  24.990  1.00  0.00     0.039 C 
ATOM     13  C   UNL A   1      35.393  21.310  24.649  1.00  0.00     0.045 C 
ATOM     14  C   UNL A   1      34.210  22.273  24.766  1.00  0.00     0.095 C 
BRANCH  14  15
ATOM     15  C   UNL A   1      33.136  21.761  25.727  1.00  0.00     0.224 C 
ATOM     16  O   UNL A   1      32.961  22.322  26.814  1.00  0.00    -0.275 OA
ATOM     17  N   UNL A   1      32.347  20.688  25.474  1.00  0.00    -0.352 N 
ATOM     18  H   UNL A   1      31.747  20.448  26.218  1.00  0.00     0.163 HD
BRANCH  17  19
ATOM     19  C   UNL A   1      32.218  19.829  24.319  1.00  0.00     0.153 C 
BRANCH  19  20
ATOM     20  C   UNL A   1      32.757  18.438  24.497  1.00  0.00    -0.010 A 
ATOM     21  C   UNL A   1      33.451  17.832  23.440  1.00  0.00     0.009 A 
ATOM     22  C   UNL A   1      32.630  17.698  25.669  1.00  0.00     0.116 A 
ATOM     23  C   UNL A   1      33.977  16.551  23.589  1.00  0.00     0.020 A 
ATOM     24  N   UNL A   1      33.129  16.451  25.841  1.00  0.00    -0.264 NA
ATOM     25  C   UNL A   1      33.791  15.908  24.800  1.00  0.00     0.111 A 
ENDBRANCH  19  20
ENDBRANCH  17  19
ENDBRANCH  14  15
ENDBRANCH   4   7
ENDBRANCH   2   3
ENDBRANCH   1   2
BRANCH   1  26
ATOM     26  C   UNL A   1      34.135  28.369  26.436  1.00  0.00     0.118 C 
BRANCH  26  27
ATOM     27  N   UNL A   1      33.920  29.790  26.703  1.00  0.00    -0.352 N 
ATOM     28  C   UNL A   1      34.598  30.641  27.537  1.00  0.00     0.251 C 
ATOM     29  H   UNL A   1      33.175  30.199  26.206  1.00  0.00     0.163 HD
ATOM     30  O   UNL A   1      34.110  31.734  27.813  1.00  0.00    -0.269 OA
BRANCH  28  31
ATOM     31  C   UNL A   1      35.894  30.229  28.110  1.00  0.00     0.039 A 
ATOM     32  C   UNL A   1      35.933  29.681  29.393  1.00  0.00     0.014 A 
ATOM     33  C   UNL A   1      37.071  30.379  27.372  1.00  0.00     0.014 A 
ATOM     34  C   UNL A   1      37.147  29.219  29.905  1.00  0.00     0.010 A 
ATOM     35  C   UNL A   1      38.250  29.816  27.834  1.00  0.00     0.010 A 
ATOM     36  C   UNL A   1      38.305  29.244  29.112  1.00  0.00    -0.014 A 
BRANCH  36  37
ATOM     37  C   UNL A   1      39.599  28.708  29.604  1.00  0.00     0.031 A 
ATOM     38  C   UNL A   1      40.319  29.415  30.721  1.00  0.00     0.074 A 
ATOM     39  C   UNL A   1      40.153  27.641  28.996  1.00  0.00     0.049 A 
ATOM     40  N   UNL A   1      41.502  29.179  31.223  1.00  0.00    -0.248 NA
ATOM     41  C   UNL A   1      39.631  30.567  31.328  1.00  0.00     0.031 C 
ATOM     42  C   UNL A   1      39.564  26.906  27.874  1.00  0.00     0.029 A 
ATOM     43  N   UNL A   1      41.340  26.993  29.228  1.00  0.00    -0.354 N 
ATOM     44  C   UNL A   1      41.709  30.161  32.185  1.00  0.00     0.074 A 
ATOM     45  C   UNL A   1      40.558  31.037  32.146  1.00  0.00     0.031 C 
ATOM     46  C   UNL A   1      40.378  25.893  27.535  1.00  0.00     0.029 A 
ATOM     47  C   UNL A   1      41.571  25.940  28.373  1.00  0.00     0.049 A 
ATOM     48  H   UNL A   1      41.968  27.258  29.938  1.00  0.00     0.167 HD
ATOM     49  C   UNL A   1      42.751  30.304  33.039  1.00  0.00     0.034 A 
ATOM     50  C   UNL A   1      42.634  25.117  28.266  1.00  0.00     0.034 A 
ATOM     51  C   UNL A   1      43.878  29.405  33.072  1.00  0.00     0.049 A 
ATOM     52  C   UNL A   1      43.791  25.307  29.215  1.00  0.00     0.074 A 
ATOM     53  C   UNL A   1      44.960  29.414  33.933  1.00  0.00     0.029 A 
ATOM     54  N   UNL A   1      44.073  28.342  32.198  1.00  0.00    -0.354 N 
ATOM     55  N   UNL A   1      43.946  26.209  30.158  1.00  0.00    -0.248 NA
ATOM     56  C   UNL A   1      44.908  24.364  29.095  1.00  0.00     0.031 C 
ATOM     57  C   UNL A   1      45.845  28.409  33.533  1.00  0.00     0.029 A 
ATOM     58  C   UNL A   1      45.275  27.711  32.480  1.00  0.00     0.049 A 
ATOM     59  H   UNL A   1      43.450  28.076  31.484  1.00  0.00     0.167 HD
ATOM     60  C   UNL A   1      45.163  25.915  30.767  1.00  0.00     0.074 A 
ATOM     61  C   UNL A   1      45.692  24.747  30.092  1.00  0.00     0.031 C 
ATOM     62  C   UNL A   1      45.786  26.548  31.793  1.00  0.00     0.034 A 
BRANCH  49  63
ATOM     63  C   UNL A   1      42.728  31.484  33.981  1.00  0.00     0.023 A 
ATOM     64  C   UNL A   1      42.136  31.405  35.255  1.00  0.00     0.031 A 
ATOM     65  C   UNL A   1      43.289  32.714  33.594  1.00  0.00     0.131 A 
ATOM     66  C   UNL A   1      42.053  32.550  36.062  1.00  0.00     0.055 A 
ATOM     67  C   UNL A   1      43.282  33.827  34.437  1.00  0.00     0.041 A 
ATOM     68  F   UNL A   1      43.846  32.859  32.381  1.00  0.00    -0.206 F 
ATOM     69  C   UNL A   1      42.647  33.752  35.674  1.00  0.00     0.022 A 
BRANCH  66  70
ATOM     70  S   UNL A   1      41.033  32.483  37.560  1.00  0.00     0.124 S 
ATOM     71  O   UNL A   1      41.886  31.711  38.462  1.00  0.00    -0.237 OA
ATOM     72  O   UNL A   1      40.866  33.893  37.891  1.00  0.00    -0.237 OA
ATOM     73  O   UNL A   1      39.821  31.795  37.120  1.00  0.00    -0.744 OA
ENDBRANCH  66  70
ENDBRANCH  49  63
BRANCH  50  74
ATOM     74  C   UNL A   1      42.668  24.053  27.220  1.00  0.00     0.023 A 
ATOM     75  C   UNL A   1      42.064  22.805  27.436  1.00  0.00     0.031 A 
ATOM     76  C   UNL A   1      43.344  24.255  26.003  1.00  0.00     0.131 A 
ATOM     77  C   UNL A   1      42.196  21.787  26.477  1.00  0.00     0.055 A 
ATOM     78  C   UNL A   1      43.419  23.260  25.026  1.00  0.00     0.041 A 
ATOM     79  F   UNL A   1      43.935  25.432  25.739  1.00  0.00    -0.206 F 
ATOM     80  C   UNL A   1      42.857  22.011  25.268  1.00  0.00     0.022 A 
BRANCH  77  81
ATOM     81  S   UNL A   1      41.578  20.130  26.881  1.00  0.00     0.124 S 
ATOM     82  O   UNL A   1      41.253  19.606  25.559  1.00  0.00    -0.237 OA
ATOM     83  O   UNL A   1      42.731  19.531  27.544  1.00  0.00    -0.237 OA
ATOM     84  O   UNL A   1      40.432  20.397  27.747  1.00  0.00    -0.744 OA
ENDBRANCH  77  81
ENDBRANCH  50  74
BRANCH  62  85
ATOM     85  C   UNL A   1      47.081  25.950  32.288  1.00  0.00     0.023 A 
ATOM     86  C   UNL A   1      48.309  26.201  31.650  1.00  0.00     0.031 A 
ATOM     87  C   UNL A   1      47.083  25.116  33.420  1.00  0.00     0.131 A 
ATOM     88  C   UNL A   1      49.477  25.578  32.114  1.00  0.00     0.055 A 
ATOM     89  C   UNL A   1      48.259  24.555  33.918  1.00  0.00     0.041 A 
ATOM     90  F   UNL A   1      45.940  24.838  34.066  1.00  0.00    -0.206 F 
ATOM     91  C   UNL A   1      49.463  24.774  33.257  1.00  0.00     0.022 A 
BRANCH  88  92
ATOM     92  S   UNL A   1      51.001  25.755  31.148  1.00  0.00     0.124 S 
ATOM     93  O   UNL A   1      50.607  25.200  29.857  1.00  0.00    -0.237 OA
ATOM     94  O   UNL A   1      51.227  27.196  31.181  1.00  0.00    -0.237 OA
ATOM     95  O   UNL A   1      51.974  24.959  31.894  1.00  0.00    -0.744 OA
ENDBRANCH  88  92
ENDBRANCH  62  85
ENDBRANCH  36  37
ENDBRANCH  28  31
ENDBRANCH  26  27
ENDBRANCH   1  26
TORSDOF 16
ENDMDL
MODEL 3
REMARK VINA RESULT:     -12.8      5.765     10.950
REMARK SMILES CC1=C(C)C[C@@H](C(=O)NCc2cccnc2)[C@H](C(=O)NCCCNC(=O)c2ccc(-c3c4nc(c(-c5cc(S(=O)(=O)[O-])ccc5F)c5ccc([nH]5)c(-c5cc(S(=O)(=O)[O-])ccc5F)c5nc(c(-c6cc(S(=O)(=O)[O-])ccc6F)c6ccc3[nH]6)C=C5)C=C4)cc2)C1
REMARK SMILES IDX 22 1 21 2 20 3 18 4 19 5 17 7 1 8 2 9 3 10 90 11 4 12 5 13
REMARK SMILES IDX 6 14 7 15 8 16 9 17 10 19 11 20 12 21 16 22 13 23 15 24
REMARK SMILES IDX 14 25 23 26 24 27 25 28 26 30 27 31 28 32 89 33 29 34 88 35
REMARK SMILES IDX 30 36 31 37 32 38 82 39 33 40 87 41 81 42 83 43 34 44 86 45
REMARK SMILES IDX 80 46 79 47 35 49 67 50 47 51 66 52 48 53 51 54 65 55 84 56
REMARK SMILES IDX 49 57 50 58 64 60 85 61 52 62 36 63 37 64 45 65 38 66 44 67
REMARK SMILES IDX 46 68 43 69 39 70 40 71 41 72 42 73 68 74 69 75 77 76 70 77
REMARK SMILES IDX 76 78 78 79 75 80 71 81 72 82 73 83 74 84 53 85 54 86 62 87
REMARK SMILES IDX 55 88 61 89 63 90 60 91 56 92 57 93 58 94 59 95
REMARK H PARENT 20 6 9 18 24 29 83 48 51 59
REMARK Flexibility Score: inf
ROOT
ATOM      1  C   UNL A   1      31.711  31.475  26.503  1.00  0.00     0.042 C 
ENDROOT
BRANCH   1   2
ATOM      2  C   UNL A   1      31.905  29.987  26.294  1.00  0.00     0.117 C 
BRANCH   2   3
ATOM      3  N   UNL A   1      32.729  29.681  25.145  1.00  0.00    -0.356 N 
ATOM      4  C   UNL A   1      33.109  28.485  24.627  1.00  0.00     0.224 C 
ATOM      5  O   UNL A   1      33.757  28.512  23.576  1.00  0.00    -0.275 OA
ATOM      6  H   UNL A   1      33.069  30.468  24.662  1.00  0.00     0.163 HD
BRANCH   4   7
ATOM      7  C   UNL A   1      32.792  27.148  25.303  1.00  0.00     0.095 C 
ATOM      8  C   UNL A   1      35.677  24.487  25.410  1.00  0.00     0.039 C 
ATOM      9  C   UNL A   1      34.329  25.050  25.032  1.00  0.00    -0.074 C 
ATOM     10  C   UNL A   1      33.481  24.494  24.139  1.00  0.00    -0.074 C 
ATOM     11  C   UNL A   1      34.051  26.377  25.712  1.00  0.00     0.045 C 
ATOM     12  C   UNL A   1      33.752  23.240  23.343  1.00  0.00     0.039 C 
ATOM     13  C   UNL A   1      32.148  25.116  23.781  1.00  0.00     0.045 C 
ATOM     14  C   UNL A   1      31.717  26.378  24.530  1.00  0.00     0.095 C 
BRANCH  14  15
ATOM     15  C   UNL A   1      30.463  26.152  25.377  1.00  0.00     0.224 C 
ATOM     16  O   UNL A   1      30.570  25.874  26.575  1.00  0.00    -0.275 OA
ATOM     17  N   UNL A   1      29.200  26.217  24.887  1.00  0.00    -0.352 N 
ATOM     18  H   UNL A   1      28.505  25.987  25.546  1.00  0.00     0.163 HD
BRANCH  17  19
ATOM     19  C   UNL A   1      28.681  26.561  23.583  1.00  0.00     0.153 C 
BRANCH  19  20
ATOM     20  C   UNL A   1      28.470  28.030  23.348  1.00  0.00    -0.010 A 
ATOM     21  C   UNL A   1      29.584  28.860  23.158  1.00  0.00     0.009 A 
ATOM     22  C   UNL A   1      27.218  28.635  23.285  1.00  0.00     0.116 A 
ATOM     23  C   UNL A   1      29.410  30.221  22.918  1.00  0.00     0.020 A 
ATOM     24  N   UNL A   1      27.021  29.955  23.056  1.00  0.00    -0.264 NA
ATOM     25  C   UNL A   1      28.119  30.716  22.876  1.00  0.00     0.111 A 
ENDBRANCH  19  20
ENDBRANCH  17  19
ENDBRANCH  14  15
ENDBRANCH   4   7
ENDBRANCH   2   3
ENDBRANCH   1   2
BRANCH   1  26
ATOM     26  C   UNL A   1      32.896  32.117  27.199  1.00  0.00     0.118 C 
BRANCH  26  27
ATOM     27  N   UNL A   1      32.659  33.531  27.484  1.00  0.00    -0.352 N 
ATOM     28  C   UNL A   1      33.175  34.329  28.472  1.00  0.00     0.251 C 
ATOM     29  H   UNL A   1      32.032  33.980  26.871  1.00  0.00     0.163 HD
ATOM     30  O   UNL A   1      32.662  35.422  28.698  1.00  0.00    -0.269 OA
BRANCH  28  31
ATOM     31  C   UNL A   1      34.327  33.859  29.267  1.00  0.00     0.039 A 
ATOM     32  C   UNL A   1      34.105  33.068  30.394  1.00  0.00     0.014 A 
ATOM     33  C   UNL A   1      35.629  34.197  28.889  1.00  0.00     0.014 A 
ATOM     34  C   UNL A   1      35.195  32.558  31.101  1.00  0.00     0.010 A 
ATOM     35  C   UNL A   1      36.707  33.598  29.521  1.00  0.00     0.010 A 
ATOM     36  C   UNL A   1      36.504  32.785  30.644  1.00  0.00    -0.014 A 
BRANCH  36  37
ATOM     37  C   UNL A   1      37.682  32.210  31.338  1.00  0.00     0.031 A 
ATOM     38  C   UNL A   1      38.442  31.078  30.699  1.00  0.00     0.074 A 
ATOM     39  C   UNL A   1      38.015  32.653  32.567  1.00  0.00     0.049 A 
ATOM     40  N   UNL A   1      39.426  30.366  31.180  1.00  0.00    -0.248 NA
ATOM     41  C   UNL A   1      38.010  30.668  29.353  1.00  0.00     0.031 C 
ATOM     42  C   UNL A   1      37.320  33.713  33.300  1.00  0.00     0.029 A 
ATOM     43  N   UNL A   1      39.014  32.261  33.421  1.00  0.00    -0.354 N 
ATOM     44  C   UNL A   1      39.716  29.414  30.210  1.00  0.00     0.074 A 
ATOM     45  C   UNL A   1      38.756  29.596  29.142  1.00  0.00     0.031 C 
ATOM     46  C   UNL A   1      37.931  33.906  34.481  1.00  0.00     0.029 A 
ATOM     47  C   UNL A   1      39.022  32.948  34.615  1.00  0.00     0.049 A 
ATOM     48  H   UNL A   1      39.664  31.555  33.202  1.00  0.00     0.167 HD
ATOM     49  C   UNL A   1      40.706  28.489  30.198  1.00  0.00     0.034 A 
ATOM     50  C   UNL A   1      39.809  32.806  35.700  1.00  0.00     0.034 A 
ATOM     51  C   UNL A   1      41.664  28.340  31.266  1.00  0.00     0.049 A 
ATOM     52  C   UNL A   1      40.893  31.757  35.672  1.00  0.00     0.074 A 
ATOM     53  C   UNL A   1      42.747  27.483  31.337  1.00  0.00     0.029 A 
ATOM     54  N   UNL A   1      41.648  29.061  32.454  1.00  0.00    -0.354 N 
ATOM     55  N   UNL A   1      41.189  30.900  34.721  1.00  0.00    -0.248 NA
ATOM     56  C   UNL A   1      41.756  31.665  36.855  1.00  0.00     0.031 C 
ATOM     57  C   UNL A   1      43.337  27.628  32.595  1.00  0.00     0.029 A 
ATOM     58  C   UNL A   1      42.682  28.642  33.277  1.00  0.00     0.049 A 
ATOM     59  H   UNL A   1      40.998  29.766  32.679  1.00  0.00     0.167 HD
ATOM     60  C   UNL A   1      42.297  30.192  35.180  1.00  0.00     0.074 A 
ATOM     61  C   UNL A   1      42.621  30.733  36.484  1.00  0.00     0.031 C 
ATOM     62  C   UNL A   1      42.988  29.192  34.577  1.00  0.00     0.034 A 
BRANCH  49  63
ATOM     63  C   UNL A   1      40.783  27.559  29.011  1.00  0.00     0.023 A 
ATOM     64  C   UNL A   1      41.723  27.744  27.982  1.00  0.00     0.031 A 
ATOM     65  C   UNL A   1      39.890  26.479  28.896  1.00  0.00     0.131 A 
ATOM     66  C   UNL A   1      41.699  26.914  26.852  1.00  0.00     0.055 A 
ATOM     67  C   UNL A   1      39.928  25.602  27.811  1.00  0.00     0.041 A 
ATOM     68  F   UNL A   1      38.953  26.264  29.834  1.00  0.00    -0.206 F 
ATOM     69  C   UNL A   1      40.828  25.826  26.773  1.00  0.00     0.022 A 
BRANCH  66  70
ATOM     70  S   UNL A   1      42.725  27.361  25.425  1.00  0.00     0.124 S 
ATOM     71  O   UNL A   1      42.627  26.157  24.603  1.00  0.00    -0.237 OA
ATOM     72  O   UNL A   1      42.046  28.544  24.907  1.00  0.00    -0.237 OA
ATOM     73  O   UNL A   1      44.042  27.602  26.010  1.00  0.00    -0.744 OA
ENDBRANCH  66  70
ENDBRANCH  49  63
BRANCH  50  74
ATOM     74  C   UNL A   1      39.598  33.658  36.906  1.00  0.00     0.023 A 
ATOM     75  C   UNL A   1      38.964  33.151  38.051  1.00  0.00     0.031 A 
ATOM     76  C   UNL A   1      39.989  35.010  36.916  1.00  0.00     0.131 A 
ATOM     77  C   UNL A   1      38.688  34.001  39.134  1.00  0.00     0.055 A 
ATOM     78  C   UNL A   1      39.768  35.836  38.019  1.00  0.00     0.041 A 
ATOM     79  F   UNL A   1      40.605  35.547  35.850  1.00  0.00    -0.206 F 
ATOM     80  C   UNL A   1      39.099  35.335  39.132  1.00  0.00     0.022 A 
BRANCH  77  81
ATOM     81  S   UNL A   1      37.691  33.361  40.507  1.00  0.00     0.124 S 
ATOM     82  O   UNL A   1      38.577  32.350  41.071  1.00  0.00    -0.237 OA
ATOM     83  O   UNL A   1      37.485  34.558  41.315  1.00  0.00    -0.237 OA
ATOM     84  O   UNL A   1      36.494  32.844  39.845  1.00  0.00    -0.744 OA
ENDBRANCH  77  81
ENDBRANCH  50  74
BRANCH  62  85
ATOM     85  C   UNL A   1      44.201  28.659  35.300  1.00  0.00     0.023 A 
ATOM     86  C   UNL A   1      44.106  27.646  36.269  1.00  0.00     0.031 A 
ATOM     87  C   UNL A   1      45.476  29.177  35.008  1.00  0.00     0.131 A 
ATOM     88  C   UNL A   1      45.255  27.223  36.953  1.00  0.00     0.055 A 
ATOM     89  C   UNL A   1      46.625  28.704  35.642  1.00  0.00     0.041 A 
ATOM     90  F   UNL A   1      45.627  30.149  34.095  1.00  0.00    -0.206 F 
ATOM     91  C   UNL A   1      46.517  27.730  36.631  1.00  0.00     0.022 A 
BRANCH  88  92
ATOM     92  S   UNL A   1      45.070  26.068  38.339  1.00  0.00     0.124 S 
ATOM     93  O   UNL A   1      44.105  26.763  39.184  1.00  0.00    -0.237 OA
ATOM     94  O   UNL A   1      44.585  24.861  37.677  1.00  0.00    -0.237 OA
ATOM     95  O   UNL A   1      46.421  25.972  38.889  1.00  0.00    -0.744 OA
ENDBRANCH  88  92
ENDBRANCH  62  85
ENDBRANCH  36  37
ENDBRANCH  28  31
ENDBRANCH  26  27
ENDBRANCH   1  26
TORSDOF 16
ENDMDL
