MODEL 1
REMARK VINA RESULT:     -12.8      0.000      0.000
REMARK SMILES COc1cccc([C@@H]2CN(C(=O)CSc3nc(C)n[nH]3)C[C@H]2C(=O)NCCCNC(=O)c2ccc(-c3c4nc(c(-c5cc(S(=O)(=O)[O-])ccc5F)c5ccc([nH]5)c(-c5cc(S(=O)(=O)[O-])ccc5F)c5nc(c(-c6cc(S(=O)(=O)[O-])ccc6F)c6ccc3[nH]6)C=C5)C=C4)cc2)c1
REMARK SMILES IDX 26 1 25 2 23 3 24 4 22 6 8 7 9 8 10 9 21 10 7 11 3 12 4 13
REMARK SMILES IDX 95 14 5 15 6 16 2 17 1 18 11 19 12 20 13 21 14 22 15 23
REMARK SMILES IDX 16 24 20 25 17 26 19 27 18 29 27 30 28 31 29 32 30 33 31 35
REMARK SMILES IDX 32 36 33 37 94 38 34 39 93 40 35 41 36 42 37 43 87 44 38 45
REMARK SMILES IDX 92 46 86 47 88 48 39 49 91 50 85 51 84 52 40 54 72 55 52 56
REMARK SMILES IDX 71 57 53 58 56 59 70 60 89 61 54 62 55 63 69 65 90 66 57 67
REMARK SMILES IDX 41 68 42 69 50 70 43 71 49 72 51 73 48 74 44 75 45 76 46 77
REMARK SMILES IDX 47 78 73 79 74 80 82 81 75 82 81 83 83 84 80 85 76 86 77 87
REMARK SMILES IDX 78 88 79 89 58 90 59 91 67 92 60 93 66 94 68 95 65 96 61 97
REMARK SMILES IDX 62 98 63 99 64 100
REMARK H PARENT 25 5 20 28 29 34 88 53 56 64
REMARK Flexibility Score: inf
ROOT
ATOM      1  C   UNL A   1      33.082  27.308  26.096  1.00  0.00     0.117 C 
ENDROOT
BRANCH   1   2
ATOM      2  N   UNL A   1      31.771  26.949  26.622  1.00  0.00    -0.356 N 
ATOM      3  C   UNL A   1      30.683  26.365  26.048  1.00  0.00     0.225 C 
ATOM      4  O   UNL A   1      29.749  26.046  26.787  1.00  0.00    -0.275 OA
ATOM      5  H   UNL A   1      31.647  27.172  27.573  1.00  0.00     0.163 HD
BRANCH   3   6
ATOM      6  C   UNL A   1      30.578  26.100  24.557  1.00  0.00     0.107 C 
ATOM      7  C   UNL A   1      30.955  27.327  23.708  1.00  0.00     0.053 C 
ATOM      8  C   UNL A   1      31.685  26.740  22.501  1.00  0.00     0.128 C 
ATOM      9  N   UNL A   1      32.273  25.507  22.998  1.00  0.00    -0.341 N 
ATOM     10  C   UNL A   1      31.476  24.960  24.090  1.00  0.00     0.133 C 
BRANCH   7  11
ATOM     11  C   UNL A   1      29.818  28.245  23.326  1.00  0.00    -0.039 A 
ATOM     12  C   UNL A   1      28.978  30.403  22.573  1.00  0.00     0.119 A 
ATOM     13  C   UNL A   1      27.670  29.944  22.726  1.00  0.00     0.046 A 
ATOM     14  C   UNL A   1      30.045  29.557  22.881  1.00  0.00     0.050 A 
ATOM     15  C   UNL A   1      27.427  28.638  23.148  1.00  0.00     0.004 A 
ATOM     16  C   UNL A   1      28.495  27.793  23.445  1.00  0.00     0.004 A 
BRANCH  12  17
ATOM     17  O   UNL A   1      29.105  31.705  22.175  1.00  0.00    -0.497 OA
ATOM     18  C   UNL A   1      28.535  32.670  23.052  1.00  0.00     0.278 C 
ENDBRANCH  12  17
ENDBRANCH   7  11
BRANCH   9  19
ATOM     19  C   UNL A   1      33.417  24.877  22.561  1.00  0.00     0.233 C 
ATOM     20  O   UNL A   1      34.379  25.529  22.152  1.00  0.00    -0.274 OA
BRANCH  19  21
ATOM     21  C   UNL A   1      33.487  23.361  22.609  1.00  0.00     0.178 C 
BRANCH  21  22
ATOM     22  S   UNL A   1      34.545  22.763  23.954  1.00  0.00    -0.077 SA
BRANCH  22  23
ATOM     23  C   UNL A   1      33.691  21.379  24.515  1.00  0.00     0.184 A 
ATOM     24  N   UNL A   1      34.198  20.197  24.749  1.00  0.00    -0.206 NA
ATOM     25  N   UNL A   1      32.336  21.339  24.641  1.00  0.00    -0.254 N 
ATOM     26  C   UNL A   1      33.085  19.442  25.022  1.00  0.00     0.148 A 
ATOM     27  N   UNL A   1      31.919  20.100  24.957  1.00  0.00    -0.158 NA
ATOM     28  H   UNL A   1      31.741  22.113  24.516  1.00  0.00     0.192 HD
ATOM     29  C   UNL A   1      33.176  18.003  25.329  1.00  0.00     0.092 C 
ENDBRANCH  22  23
ENDBRANCH  21  22
ENDBRANCH  19  21
ENDBRANCH   9  19
ENDBRANCH   3   6
ENDBRANCH   1   2
BRANCH   1  30
ATOM     30  C   UNL A   1      33.582  28.685  26.538  1.00  0.00     0.042 C 
BRANCH  30  31
ATOM     31  C   UNL A   1      34.989  28.650  27.102  1.00  0.00     0.118 C 
BRANCH  31  32
ATOM     32  N   UNL A   1      35.192  29.620  28.174  1.00  0.00    -0.352 N 
ATOM     33  C   UNL A   1      36.278  29.732  29.018  1.00  0.00     0.251 C 
ATOM     34  H   UNL A   1      34.467  30.273  28.311  1.00  0.00     0.163 HD
ATOM     35  O   UNL A   1      36.164  30.343  30.080  1.00  0.00    -0.269 OA
BRANCH  33  36
ATOM     36  C   UNL A   1      37.552  29.087  28.647  1.00  0.00     0.039 A 
ATOM     37  C   UNL A   1      38.295  29.547  27.560  1.00  0.00     0.014 A 
ATOM     38  C   UNL A   1      38.025  28.032  29.427  1.00  0.00     0.014 A 
ATOM     39  C   UNL A   1      39.556  29.003  27.331  1.00  0.00     0.010 A 
ATOM     40  C   UNL A   1      39.326  27.607  29.296  1.00  0.00     0.010 A 
ATOM     41  C   UNL A   1      40.088  28.057  28.228  1.00  0.00    -0.014 A 
BRANCH  41  42
ATOM     42  C   UNL A   1      41.496  27.668  28.145  1.00  0.00     0.031 A 
ATOM     43  C   UNL A   1      41.722  26.419  27.377  1.00  0.00     0.074 A 
ATOM     44  C   UNL A   1      42.542  28.432  28.539  1.00  0.00     0.049 A 
ATOM     45  N   UNL A   1      41.985  25.252  27.862  1.00  0.00    -0.248 NA
ATOM     46  C   UNL A   1      41.424  26.406  25.936  1.00  0.00     0.031 C 
ATOM     47  C   UNL A   1      42.512  29.799  29.061  1.00  0.00     0.029 A 
ATOM     48  N   UNL A   1      43.881  28.175  28.456  1.00  0.00    -0.354 N 
ATOM     49  C   UNL A   1      42.194  24.431  26.762  1.00  0.00     0.074 A 
ATOM     50  C   UNL A   1      41.584  25.112  25.652  1.00  0.00     0.031 C 
ATOM     51  C   UNL A   1      43.756  30.326  29.029  1.00  0.00     0.029 A 
ATOM     52  C   UNL A   1      44.697  29.291  28.636  1.00  0.00     0.049 A 
ATOM     53  H   UNL A   1      44.240  27.274  28.283  1.00  0.00     0.167 HD
ATOM     54  C   UNL A   1      43.115  23.428  26.818  1.00  0.00     0.034 A 
ATOM     55  C   UNL A   1      46.046  29.377  28.466  1.00  0.00     0.034 A 
ATOM     56  C   UNL A   1      43.489  23.149  28.196  1.00  0.00     0.049 A 
ATOM     57  C   UNL A   1      46.585  28.003  28.610  1.00  0.00     0.074 A 
ATOM     58  C   UNL A   1      42.781  22.875  29.353  1.00  0.00     0.029 A 
ATOM     59  N   UNL A   1      44.742  23.538  28.628  1.00  0.00    -0.354 N 
ATOM     60  N   UNL A   1      46.562  27.347  29.737  1.00  0.00    -0.248 NA
ATOM     61  C   UNL A   1      46.689  27.173  27.418  1.00  0.00     0.031 C 
ATOM     62  C   UNL A   1      43.446  23.617  30.375  1.00  0.00     0.029 A 
ATOM     63  C   UNL A   1      44.581  24.205  29.817  1.00  0.00     0.049 A 
ATOM     64  H   UNL A   1      45.595  23.367  28.167  1.00  0.00     0.167 HD
ATOM     65  C   UNL A   1      46.170  26.065  29.392  1.00  0.00     0.074 A 
ATOM     66  C   UNL A   1      46.378  25.985  27.946  1.00  0.00     0.031 C 
ATOM     67  C   UNL A   1      45.438  25.294  30.254  1.00  0.00     0.034 A 
BRANCH  54  68
ATOM     68  C   UNL A   1      43.989  23.003  25.653  1.00  0.00     0.023 A 
ATOM     69  C   UNL A   1      44.138  21.618  25.457  1.00  0.00     0.031 A 
ATOM     70  C   UNL A   1      44.908  23.819  24.954  1.00  0.00     0.131 A 
ATOM     71  C   UNL A   1      45.243  21.103  24.759  1.00  0.00     0.055 A 
ATOM     72  C   UNL A   1      45.961  23.301  24.192  1.00  0.00     0.041 A 
ATOM     73  F   UNL A   1      44.906  25.154  25.025  1.00  0.00    -0.206 F 
ATOM     74  C   UNL A   1      46.161  21.935  24.129  1.00  0.00     0.022 A 
BRANCH  71  75
ATOM     75  S   UNL A   1      45.567  19.328  24.891  1.00  0.00     0.124 S 
ATOM     76  O   UNL A   1      46.770  19.323  25.715  1.00  0.00    -0.237 OA
ATOM     77  O   UNL A   1      44.345  18.849  25.530  1.00  0.00    -0.237 OA
ATOM     78  O   UNL A   1      45.752  18.915  23.503  1.00  0.00    -0.744 OA
ENDBRANCH  71  75
ENDBRANCH  54  68
BRANCH  55  79
ATOM     79  C   UNL A   1      46.848  30.533  27.969  1.00  0.00     0.023 A 
ATOM     80  C   UNL A   1      46.308  31.558  27.158  1.00  0.00     0.031 A 
ATOM     81  C   UNL A   1      48.130  30.773  28.513  1.00  0.00     0.131 A 
ATOM     82  C   UNL A   1      47.038  32.751  26.929  1.00  0.00     0.055 A 
ATOM     83  C   UNL A   1      48.848  31.949  28.280  1.00  0.00     0.041 A 
ATOM     84  F   UNL A   1      48.696  29.908  29.370  1.00  0.00    -0.206 F 
ATOM     85  C   UNL A   1      48.299  32.949  27.496  1.00  0.00     0.022 A 
BRANCH  82  86
ATOM     86  S   UNL A   1      46.312  34.127  25.974  1.00  0.00     0.124 S 
ATOM     87  O   UNL A   1      45.267  33.459  25.208  1.00  0.00    -0.237 OA
ATOM     88  O   UNL A   1      45.870  35.041  27.021  1.00  0.00    -0.237 OA
ATOM     89  O   UNL A   1      47.437  34.618  25.175  1.00  0.00    -0.744 OA
ENDBRANCH  82  86
ENDBRANCH  55  79
BRANCH  67  90
ATOM     90  C   UNL A   1      45.349  25.714  31.711  1.00  0.00     0.023 A 
ATOM     91  C   UNL A   1      46.316  25.429  32.703  1.00  0.00     0.031 A 
ATOM     92  C   UNL A   1      44.255  26.514  32.089  1.00  0.00     0.131 A 
ATOM     93  C   UNL A   1      46.147  25.909  34.018  1.00  0.00     0.055 A 
ATOM     94  C   UNL A   1      44.104  27.011  33.383  1.00  0.00     0.041 A 
ATOM     95  F   UNL A   1      43.311  26.849  31.193  1.00  0.00    -0.206 F 
ATOM     96  C   UNL A   1      45.044  26.699  34.357  1.00  0.00     0.022 A 
BRANCH  93  97
ATOM     97  S   UNL A   1      47.336  25.478  35.330  1.00  0.00     0.124 S 
ATOM     98  O   UNL A   1      48.096  24.373  34.758  1.00  0.00    -0.237 OA
ATOM     99  O   UNL A   1      48.069  26.728  35.512  1.00  0.00    -0.237 OA
ATOM    100  O   UNL A   1      46.477  25.108  36.456  1.00  0.00    -0.744 OA
ENDBRANCH  93  97
ENDBRANCH  67  90
ENDBRANCH  41  42
ENDBRANCH  33  36
ENDBRANCH  31  32
ENDBRANCH  30  31
ENDBRANCH   1  30
TORSDOF 19
ENDMDL
MODEL 2
REMARK VINA RESULT:     -12.8      1.697      2.095
REMARK SMILES COc1cccc([C@@H]2CN(C(=O)CSc3nc(C)n[nH]3)C[C@H]2C(=O)NCCCNC(=O)c2ccc(-c3c4nc(c(-c5cc(S(=O)(=O)[O-])ccc5F)c5ccc([nH]5)c(-c5cc(S(=O)(=O)[O-])ccc5F)c5nc(c(-c6cc(S(=O)(=O)[O-])ccc6F)c6ccc3[nH]6)C=C5)C=C4)cc2)c1
REMARK SMILES IDX 26 1 25 2 23 3 24 4 22 6 8 7 9 8 10 9 21 10 7 11 3 12 4 13
REMARK SMILES IDX 95 14 5 15 6 16 2 17 1 18 11 19 12 20 13 21 14 22 15 23
REMARK SMILES IDX 16 24 20 25 17 26 19 27 18 29 27 30 28 31 29 32 30 33 31 35
REMARK SMILES IDX 32 36 33 37 94 38 34 39 93 40 35 41 36 42 37 43 87 44 38 45
REMARK SMILES IDX 92 46 86 47 88 48 39 49 91 50 85 51 84 52 40 54 72 55 52 56
REMARK SMILES IDX 71 57 53 58 56 59 70 60 89 61 54 62 55 63 69 65 90 66 57 67
REMARK SMILES IDX 41 68 42 69 50 70 43 71 49 72 51 73 48 74 44 75 45 76 46 77
REMARK SMILES IDX 47 78 73 79 74 80 82 81 75 82 81 83 83 84 80 85 76 86 77 87
REMARK SMILES IDX 78 88 79 89 58 90 59 91 67 92 60 93 66 94 68 95 65 96 61 97
REMARK SMILES IDX 62 98 63 99 64 100
REMARK H PARENT 25 5 20 28 29 34 88 53 56 64
REMARK Flexibility Score: inf
ROOT
ATOM      1  C   UNL A   1      33.122  27.497  26.092  1.00  0.00     0.117 C 
ENDROOT
BRANCH   1   2
ATOM      2  N   UNL A   1      31.864  27.032  26.662  1.00  0.00    -0.356 N 
ATOM      3  C   UNL A   1      30.834  26.309  26.141  1.00  0.00     0.225 C 
ATOM      4  O   UNL A   1      29.950  25.933  26.914  1.00  0.00    -0.275 OA
ATOM      5  H   UNL A   1      31.732  27.290  27.603  1.00  0.00     0.163 HD
BRANCH   3   6
ATOM      6  C   UNL A   1      30.734  25.958  24.668  1.00  0.00     0.107 C 
ATOM      7  C   UNL A   1      31.123  27.130  23.750  1.00  0.00     0.053 C 
ATOM      8  C   UNL A   1      31.854  26.470  22.583  1.00  0.00     0.128 C 
ATOM      9  N   UNL A   1      32.433  25.264  23.154  1.00  0.00    -0.341 N 
ATOM     10  C   UNL A   1      31.628  24.787  24.272  1.00  0.00     0.133 C 
BRANCH   7  11
ATOM     11  C   UNL A   1      29.993  28.031  23.309  1.00  0.00    -0.039 A 
ATOM     12  C   UNL A   1      29.169  30.147  22.428  1.00  0.00     0.119 A 
ATOM     13  C   UNL A   1      27.859  29.705  22.601  1.00  0.00     0.046 A 
ATOM     14  C   UNL A   1      30.231  29.314  22.790  1.00  0.00     0.050 A 
ATOM     15  C   UNL A   1      27.606  28.428  23.097  1.00  0.00     0.004 A 
ATOM     16  C   UNL A   1      28.667  27.595  23.448  1.00  0.00     0.004 A 
BRANCH  12  17
ATOM     17  O   UNL A   1      29.306  31.423  21.955  1.00  0.00    -0.497 OA
ATOM     18  C   UNL A   1      28.284  31.856  21.065  1.00  0.00     0.278 C 
ENDBRANCH  12  17
ENDBRANCH   7  11
BRANCH   9  19
ATOM     19  C   UNL A   1      33.575  24.603  22.760  1.00  0.00     0.233 C 
ATOM     20  O   UNL A   1      33.666  24.122  21.629  1.00  0.00    -0.274 OA
BRANCH  19  21
ATOM     21  C   UNL A   1      34.734  24.491  23.734  1.00  0.00     0.178 C 
BRANCH  21  22
ATOM     22  S   UNL A   1      35.025  22.782  24.263  1.00  0.00    -0.077 SA
BRANCH  22  23
ATOM     23  C   UNL A   1      36.581  22.876  24.991  1.00  0.00     0.184 A 
ATOM     24  N   UNL A   1      37.474  21.922  25.040  1.00  0.00    -0.206 NA
ATOM     25  N   UNL A   1      36.995  23.939  25.735  1.00  0.00    -0.254 N 
ATOM     26  C   UNL A   1      38.445  22.461  25.845  1.00  0.00     0.148 A 
ATOM     27  N   UNL A   1      38.188  23.693  26.304  1.00  0.00    -0.158 NA
ATOM     28  H   UNL A   1      36.487  24.776  25.842  1.00  0.00     0.192 HD
ATOM     29  C   UNL A   1      39.664  21.712  26.204  1.00  0.00     0.092 C 
ENDBRANCH  22  23
ENDBRANCH  21  22
ENDBRANCH  19  21
ENDBRANCH   9  19
ENDBRANCH   3   6
ENDBRANCH   1   2
BRANCH   1  30
ATOM     30  C   UNL A   1      33.605  28.840  26.645  1.00  0.00     0.042 C 
BRANCH  30  31
ATOM     31  C   UNL A   1      35.018  28.779  27.193  1.00  0.00     0.118 C 
BRANCH  31  32
ATOM     32  N   UNL A   1      35.248  29.739  28.269  1.00  0.00    -0.352 N 
ATOM     33  C   UNL A   1      36.345  29.828  29.102  1.00  0.00     0.251 C 
ATOM     34  H   UNL A   1      34.536  30.403  28.417  1.00  0.00     0.163 HD
ATOM     35  O   UNL A   1      36.252  30.434  30.168  1.00  0.00    -0.269 OA
BRANCH  33  36
ATOM     36  C   UNL A   1      37.604  29.164  28.713  1.00  0.00     0.039 A 
ATOM     37  C   UNL A   1      38.302  29.569  27.576  1.00  0.00     0.014 A 
ATOM     38  C   UNL A   1      38.108  28.149  29.525  1.00  0.00     0.014 A 
ATOM     39  C   UNL A   1      39.555  29.013  27.325  1.00  0.00     0.010 A 
ATOM     40  C   UNL A   1      39.404  27.717  29.365  1.00  0.00     0.010 A 
ATOM     41  C   UNL A   1      40.122  28.113  28.246  1.00  0.00    -0.014 A 
BRANCH  41  42
ATOM     42  C   UNL A   1      41.527  27.719  28.128  1.00  0.00     0.031 A 
ATOM     43  C   UNL A   1      41.726  26.451  27.384  1.00  0.00     0.074 A 
ATOM     44  C   UNL A   1      42.585  28.490  28.468  1.00  0.00     0.049 A 
ATOM     45  N   UNL A   1      42.003  25.296  27.888  1.00  0.00    -0.248 NA
ATOM     46  C   UNL A   1      41.382  26.403  25.954  1.00  0.00     0.031 C 
ATOM     47  C   UNL A   1      42.574  29.870  28.957  1.00  0.00     0.029 A 
ATOM     48  N   UNL A   1      43.921  28.229  28.348  1.00  0.00    -0.354 N 
ATOM     49  C   UNL A   1      42.175  24.447  26.803  1.00  0.00     0.074 A 
ATOM     50  C   UNL A   1      41.531  25.102  25.697  1.00  0.00     0.031 C 
ATOM     51  C   UNL A   1      43.817  30.393  28.872  1.00  0.00     0.029 A 
ATOM     52  C   UNL A   1      44.744  29.347  28.474  1.00  0.00     0.049 A 
ATOM     53  H   UNL A   1      44.273  27.323  28.186  1.00  0.00     0.167 HD
ATOM     54  C   UNL A   1      43.096  23.444  26.853  1.00  0.00     0.034 A 
ATOM     55  C   UNL A   1      46.087  29.426  28.258  1.00  0.00     0.034 A 
ATOM     56  C   UNL A   1      43.515  23.198  28.225  1.00  0.00     0.049 A 
ATOM     57  C   UNL A   1      46.628  28.055  28.418  1.00  0.00     0.074 A 
ATOM     58  C   UNL A   1      42.844  22.955  29.411  1.00  0.00     0.029 A 
ATOM     59  N   UNL A   1      44.781  23.595  28.606  1.00  0.00    -0.354 N 
ATOM     60  N   UNL A   1      46.641  27.427  29.561  1.00  0.00    -0.248 NA
ATOM     61  C   UNL A   1      46.693  27.196  27.245  1.00  0.00     0.031 C 
ATOM     62  C   UNL A   1      43.543  23.720  30.393  1.00  0.00     0.029 A 
ATOM     63  C   UNL A   1      44.660  24.292  29.783  1.00  0.00     0.049 A 
ATOM     64  H   UNL A   1      45.619  23.411  28.123  1.00  0.00     0.167 HD
ATOM     65  C   UNL A   1      46.236  26.138  29.262  1.00  0.00     0.074 A 
ATOM     66  C   UNL A   1      46.398  26.022  27.812  1.00  0.00     0.031 C 
ATOM     67  C   UNL A   1      45.532  25.389  30.165  1.00  0.00     0.034 A 
BRANCH  54  68
ATOM     68  C   UNL A   1      43.932  22.989  25.671  1.00  0.00     0.023 A 
ATOM     69  C   UNL A   1      43.968  21.603  25.429  1.00  0.00     0.031 A 
ATOM     70  C   UNL A   1      44.912  23.751  24.996  1.00  0.00     0.131 A 
ATOM     71  C   UNL A   1      45.027  21.024  24.711  1.00  0.00     0.055 A 
ATOM     72  C   UNL A   1      45.919  23.175  24.214  1.00  0.00     0.041 A 
ATOM     73  F   UNL A   1      45.019  25.078  25.112  1.00  0.00    -0.206 F 
ATOM     74  C   UNL A   1      46.008  21.800  24.105  1.00  0.00     0.022 A 
BRANCH  71  75
ATOM     75  S   UNL A   1      45.206  19.226  24.783  1.00  0.00     0.124 S 
ATOM     76  O   UNL A   1      44.150  18.876  25.725  1.00  0.00    -0.237 OA
ATOM     77  O   UNL A   1      44.982  18.847  23.392  1.00  0.00    -0.237 OA
ATOM     78  O   UNL A   1      46.571  19.042  25.269  1.00  0.00    -0.744 OA
ENDBRANCH  71  75
ENDBRANCH  54  68
BRANCH  55  79
ATOM     79  C   UNL A   1      46.873  30.568  27.707  1.00  0.00     0.023 A 
ATOM     80  C   UNL A   1      46.277  31.689  27.083  1.00  0.00     0.031 A 
ATOM     81  C   UNL A   1      48.247  30.682  28.023  1.00  0.00     0.131 A 
ATOM     82  C   UNL A   1      47.045  32.849  26.811  1.00  0.00     0.055 A 
ATOM     83  C   UNL A   1      48.999  31.826  27.748  1.00  0.00     0.041 A 
ATOM     84  F   UNL A   1      48.888  29.714  28.698  1.00  0.00    -0.206 F 
ATOM     85  C   UNL A   1      48.397  32.921  27.150  1.00  0.00     0.022 A 
BRANCH  82  86
ATOM     86  S   UNL A   1      46.267  34.343  26.106  1.00  0.00     0.124 S 
ATOM     87  O   UNL A   1      47.127  34.634  24.963  1.00  0.00    -0.237 OA
ATOM     88  O   UNL A   1      44.916  33.886  25.805  1.00  0.00    -0.237 OA
ATOM     89  O   UNL A   1      46.350  35.317  27.196  1.00  0.00    -0.744 OA
ENDBRANCH  82  86
ENDBRANCH  55  79
BRANCH  67  90
ATOM     90  C   UNL A   1      45.491  25.846  31.614  1.00  0.00     0.023 A 
ATOM     91  C   UNL A   1      44.356  26.370  32.273  1.00  0.00     0.031 A 
ATOM     92  C   UNL A   1      46.656  25.664  32.382  1.00  0.00     0.131 A 
ATOM     93  C   UNL A   1      44.426  26.722  33.637  1.00  0.00     0.055 A 
ATOM     94  C   UNL A   1      46.716  25.988  33.737  1.00  0.00     0.041 A 
ATOM     95  F   UNL A   1      47.766  25.146  31.829  1.00  0.00    -0.206 F 
ATOM     96  C   UNL A   1      45.603  26.530  34.367  1.00  0.00     0.022 A 
BRANCH  93  97
ATOM     97  S   UNL A   1      43.000  27.481  34.480  1.00  0.00     0.124 S 
ATOM     98  O   UNL A   1      43.611  28.332  35.495  1.00  0.00    -0.237 OA
ATOM     99  O   UNL A   1      42.324  28.176  33.389  1.00  0.00    -0.237 OA
ATOM    100  O   UNL A   1      42.270  26.328  35.012  1.00  0.00    -0.744 OA
ENDBRANCH  93  97
ENDBRANCH  67  90
ENDBRANCH  41  42
ENDBRANCH  33  36
ENDBRANCH  31  32
ENDBRANCH  30  31
ENDBRANCH   1  30
TORSDOF 19
ENDMDL
MODEL 3
REMARK VINA RESULT:     -12.6      2.492      6.818
REMARK SMILES COc1cccc([C@@H]2CN(C(=O)CSc3nc(C)n[nH]3)C[C@H]2C(=O)NCCCNC(=O)c2ccc(-c3c4nc(c(-c5cc(S(=O)(=O)[O-])ccc5F)c5ccc([nH]5)c(-c5cc(S(=O)(=O)[O-])ccc5F)c5nc(c(-c6cc(S(=O)(=O)[O-])ccc6F)c6ccc3[nH]6)C=C5)C=C4)cc2)c1
REMARK SMILES IDX 26 1 25 2 23 3 24 4 22 6 8 7 9 8 10 9 21 10 7 11 3 12 4 13
REMARK SMILES IDX 95 14 5 15 6 16 2 17 1 18 11 19 12 20 13 21 14 22 15 23
REMARK SMILES IDX 16 24 20 25 17 26 19 27 18 29 27 30 28 31 29 32 30 33 31 35
REMARK SMILES IDX 32 36 33 37 94 38 34 39 93 40 35 41 36 42 37 43 87 44 38 45
REMARK SMILES IDX 92 46 86 47 88 48 39 49 91 50 85 51 84 52 40 54 72 55 52 56
REMARK SMILES IDX 71 57 53 58 56 59 70 60 89 61 54 62 55 63 69 65 90 66 57 67
REMARK SMILES IDX 41 68 42 69 50 70 43 71 49 72 51 73 48 74 44 75 45 76 46 77
REMARK SMILES IDX 47 78 73 79 74 80 82 81 75 82 81 83 83 84 80 85 76 86 77 87
REMARK SMILES IDX 78 88 79 89 58 90 59 91 67 92 60 93 66 94 68 95 65 96 61 97
REMARK SMILES IDX 62 98 63 99 64 100
REMARK H PARENT 25 5 20 28 29 34 88 53 56 64
REMARK Flexibility Score: inf
ROOT
ATOM      1  C   UNL A   1      32.295  30.006  25.639  1.00  0.00     0.117 C 
ENDROOT
BRANCH   1   2
ATOM      2  N   UNL A   1      33.249  29.707  24.577  1.00  0.00    -0.356 N 
ATOM      3  C   UNL A   1      33.494  28.577  23.859  1.00  0.00     0.225 C 
ATOM      4  O   UNL A   1      34.276  28.662  22.909  1.00  0.00    -0.275 OA
ATOM      5  H   UNL A   1      33.826  30.466  24.334  1.00  0.00     0.163 HD
BRANCH   3   6
ATOM      6  C   UNL A   1      32.857  27.238  24.182  1.00  0.00     0.107 C 
ATOM      7  C   UNL A   1      31.943  26.728  23.054  1.00  0.00     0.053 C 
ATOM      8  C   UNL A   1      32.165  25.217  23.042  1.00  0.00     0.128 C 
ATOM      9  N   UNL A   1      33.521  25.047  23.538  1.00  0.00    -0.341 N 
ATOM     10  C   UNL A   1      33.881  26.137  24.437  1.00  0.00     0.133 C 
BRANCH   7  11
ATOM     11  C   UNL A   1      30.485  27.113  23.156  1.00  0.00    -0.039 A 
ATOM     12  C   UNL A   1      28.665  28.692  22.803  1.00  0.00     0.119 A 
ATOM     13  C   UNL A   1      27.791  27.827  23.459  1.00  0.00     0.046 A 
ATOM     14  C   UNL A   1      30.008  28.338  22.660  1.00  0.00     0.050 A 
ATOM     15  C   UNL A   1      28.244  26.600  23.941  1.00  0.00     0.004 A 
ATOM     16  C   UNL A   1      29.584  26.244  23.788  1.00  0.00     0.004 A 
BRANCH  12  17
ATOM     17  O   UNL A   1      28.124  29.879  22.389  1.00  0.00    -0.497 OA
ATOM     18  C   UNL A   1      28.645  31.041  23.025  1.00  0.00     0.278 C 
ENDBRANCH  12  17
ENDBRANCH   7  11
BRANCH   9  19
ATOM     19  C   UNL A   1      34.408  24.033  23.250  1.00  0.00     0.233 C 
ATOM     20  O   UNL A   1      34.343  23.424  22.181  1.00  0.00    -0.274 OA
BRANCH  19  21
ATOM     21  C   UNL A   1      35.486  23.688  24.262  1.00  0.00     0.178 C 
BRANCH  21  22
ATOM     22  S   UNL A   1      35.227  22.060  25.015  1.00  0.00    -0.077 SA
BRANCH  22  23
ATOM     23  C   UNL A   1      33.527  22.034  25.276  1.00  0.00     0.184 A 
ATOM     24  N   UNL A   1      32.846  22.848  26.040  1.00  0.00    -0.206 NA
ATOM     25  N   UNL A   1      32.715  21.046  24.808  1.00  0.00    -0.254 N 
ATOM     26  C   UNL A   1      31.587  22.305  26.010  1.00  0.00     0.148 A 
ATOM     27  N   UNL A   1      31.462  21.192  25.275  1.00  0.00    -0.158 NA
ATOM     28  H   UNL A   1      33.006  20.321  24.209  1.00  0.00     0.192 HD
ATOM     29  C   UNL A   1      30.467  22.894  26.768  1.00  0.00     0.092 C 
ENDBRANCH  22  23
ENDBRANCH  21  22
ENDBRANCH  19  21
ENDBRANCH   9  19
ENDBRANCH   3   6
ENDBRANCH   1   2
BRANCH   1  30
ATOM     30  C   UNL A   1      32.782  29.639  27.043  1.00  0.00     0.042 C 
BRANCH  30  31
ATOM     31  C   UNL A   1      34.212  30.071  27.304  1.00  0.00     0.118 C 
BRANCH  31  32
ATOM     32  N   UNL A   1      34.317  31.477  27.684  1.00  0.00    -0.352 N 
ATOM     33  C   UNL A   1      35.127  32.032  28.653  1.00  0.00     0.251 C 
ATOM     34  H   UNL A   1      33.741  32.103  27.189  1.00  0.00     0.163 HD
ATOM     35  O   UNL A   1      34.861  33.144  29.106  1.00  0.00    -0.269 OA
BRANCH  33  36
ATOM     36  C   UNL A   1      36.284  31.266  29.154  1.00  0.00     0.039 A 
ATOM     37  C   UNL A   1      36.191  29.890  29.365  1.00  0.00     0.014 A 
ATOM     38  C   UNL A   1      37.488  31.932  29.375  1.00  0.00     0.014 A 
ATOM     39  C   UNL A   1      37.344  29.184  29.703  1.00  0.00     0.010 A 
ATOM     40  C   UNL A   1      38.650  31.217  29.554  1.00  0.00     0.010 A 
ATOM     41  C   UNL A   1      38.584  29.847  29.758  1.00  0.00    -0.014 A 
BRANCH  41  42
ATOM     42  C   UNL A   1      39.828  29.083  29.859  1.00  0.00     0.031 A 
ATOM     43  C   UNL A   1      40.245  28.814  31.258  1.00  0.00     0.074 A 
ATOM     44  C   UNL A   1      40.468  28.490  28.825  1.00  0.00     0.049 A 
ATOM     45  N   UNL A   1      41.187  29.408  31.910  1.00  0.00    -0.248 NA
ATOM     46  C   UNL A   1      39.405  27.943  32.095  1.00  0.00     0.031 C 
ATOM     47  C   UNL A   1      40.046  28.424  27.424  1.00  0.00     0.029 A 
ATOM     48  N   UNL A   1      41.597  27.722  28.831  1.00  0.00    -0.354 N 
ATOM     49  C   UNL A   1      41.255  28.761  33.137  1.00  0.00     0.074 A 
ATOM     50  C   UNL A   1      39.997  28.081  33.284  1.00  0.00     0.031 C 
ATOM     51  C   UNL A   1      40.767  27.483  26.776  1.00  0.00     0.029 A 
ATOM     52  C   UNL A   1      41.806  26.990  27.663  1.00  0.00     0.049 A 
ATOM     53  H   UNL A   1      42.214  27.689  29.599  1.00  0.00     0.167 HD
ATOM     54  C   UNL A   1      42.455  28.595  33.761  1.00  0.00     0.034 A 
ATOM     55  C   UNL A   1      42.751  26.035  27.432  1.00  0.00     0.034 A 
ATOM     56  C   UNL A   1      43.461  29.473  33.184  1.00  0.00     0.049 A 
ATOM     57  C   UNL A   1      43.858  26.287  28.386  1.00  0.00     0.074 A 
ATOM     58  C   UNL A   1      43.523  30.830  32.921  1.00  0.00     0.029 A 
ATOM     59  N   UNL A   1      44.449  28.913  32.399  1.00  0.00    -0.354 N 
ATOM     60  N   UNL A   1      44.617  27.346  28.327  1.00  0.00    -0.248 NA
ATOM     61  C   UNL A   1      43.809  25.638  29.689  1.00  0.00     0.031 C 
ATOM     62  C   UNL A   1      44.142  30.930  31.639  1.00  0.00     0.029 A 
ATOM     63  C   UNL A   1      44.526  29.649  31.242  1.00  0.00     0.049 A 
ATOM     64  H   UNL A   1      44.999  28.129  32.627  1.00  0.00     0.167 HD
ATOM     65  C   UNL A   1      44.745  27.764  29.641  1.00  0.00     0.074 A 
ATOM     66  C   UNL A   1      44.330  26.612  30.443  1.00  0.00     0.031 C 
ATOM     67  C   UNL A   1      44.889  29.089  29.952  1.00  0.00     0.034 A 
BRANCH  54  68
ATOM     68  C   UNL A   1      42.836  27.371  34.572  1.00  0.00     0.023 A 
ATOM     69  C   UNL A   1      43.782  26.506  33.990  1.00  0.00     0.031 A 
ATOM     70  C   UNL A   1      42.128  26.844  35.677  1.00  0.00     0.131 A 
ATOM     71  C   UNL A   1      43.865  25.160  34.381  1.00  0.00     0.055 A 
ATOM     72  C   UNL A   1      42.274  25.523  36.115  1.00  0.00     0.041 A 
ATOM     73  F   UNL A   1      41.197  27.530  36.346  1.00  0.00    -0.206 F 
ATOM     74  C   UNL A   1      43.113  24.658  35.437  1.00  0.00     0.022 A 
BRANCH  71  75
ATOM     75  S   UNL A   1      44.814  24.037  33.328  1.00  0.00     0.124 S 
ATOM     76  O   UNL A   1      45.201  23.010  34.288  1.00  0.00    -0.237 OA
ATOM     77  O   UNL A   1      43.818  23.648  32.334  1.00  0.00    -0.237 OA
ATOM     78  O   UNL A   1      45.900  24.876  32.831  1.00  0.00    -0.744 OA
ENDBRANCH  71  75
ENDBRANCH  54  68
BRANCH  55  79
ATOM     79  C   UNL A   1      42.643  24.805  26.597  1.00  0.00     0.023 A 
ATOM     80  C   UNL A   1      43.632  24.413  25.664  1.00  0.00     0.031 A 
ATOM     81  C   UNL A   1      41.650  23.844  26.899  1.00  0.00     0.131 A 
ATOM     82  C   UNL A   1      43.601  23.117  25.089  1.00  0.00     0.055 A 
ATOM     83  C   UNL A   1      41.623  22.571  26.326  1.00  0.00     0.041 A 
ATOM     84  F   UNL A   1      40.719  24.079  27.838  1.00  0.00    -0.206 F 
ATOM     85  C   UNL A   1      42.607  22.198  25.426  1.00  0.00     0.022 A 
BRANCH  82  86
ATOM     86  S   UNL A   1      44.929  22.557  23.967  1.00  0.00     0.124 S 
ATOM     87  O   UNL A   1      44.199  22.274  22.736  1.00  0.00    -0.237 OA
ATOM     88  O   UNL A   1      45.828  23.705  23.942  1.00  0.00    -0.237 OA
ATOM     89  O   UNL A   1      45.470  21.377  24.644  1.00  0.00    -0.744 OA
ENDBRANCH  82  86
ENDBRANCH  55  79
BRANCH  67  90
ATOM     90  C   UNL A   1      45.249  30.061  28.841  1.00  0.00     0.023 A 
ATOM     91  C   UNL A   1      46.562  30.461  28.500  1.00  0.00     0.031 A 
ATOM     92  C   UNL A   1      44.199  30.547  28.040  1.00  0.00     0.131 A 
ATOM     93  C   UNL A   1      46.778  31.339  27.418  1.00  0.00     0.055 A 
ATOM     94  C   UNL A   1      44.418  31.394  26.955  1.00  0.00     0.041 A 
ATOM     95  F   UNL A   1      42.928  30.189  28.288  1.00  0.00    -0.206 F 
ATOM     96  C   UNL A   1      45.709  31.804  26.647  1.00  0.00     0.022 A 
BRANCH  93  97
ATOM     97  S   UNL A   1      48.454  31.934  27.019  1.00  0.00     0.124 S 
ATOM     98  O   UNL A   1      48.224  32.974  26.024  1.00  0.00    -0.237 OA
ATOM     99  O   UNL A   1      48.941  32.392  28.318  1.00  0.00    -0.237 OA
ATOM    100  O   UNL A   1      49.124  30.738  26.507  1.00  0.00    -0.744 OA
ENDBRANCH  93  97
ENDBRANCH  67  90
ENDBRANCH  41  42
ENDBRANCH  33  36
ENDBRANCH  31  32
ENDBRANCH  30  31
ENDBRANCH   1  30
TORSDOF 19
ENDMDL
