MODEL 1
REMARK VINA RESULT:     -12.7      0.000      0.000
REMARK SMILES Nc1nccc(N2CCC[C@@](Cc3ccc(F)cc3F)(C(=O)NCCCNC(=O)c3ccc(-c4c5nc(c(-c6cc(S(=O)(=O)[O-])ccc6F)c6ccc([nH]6)c(-c6cc(S(=O)(=O)[O-])ccc6F)c6nc(c(-c7cc(S(=O)(=O)[O-])ccc7F)c7ccc4[nH]7)C=C6)C=C5)cc3)C2)n1
REMARK SMILES IDX 25 1 24 2 23 3 21 4 22 5 11 7 7 8 8 9 93 10 9 11 10 12 6 13
REMARK SMILES IDX 2 14 3 15 94 16 4 17 5 18 1 19 12 22 13 23 14 24 19 25 15 26
REMARK SMILES IDX 18 27 20 28 16 29 17 30 26 31 27 32 28 33 29 35 30 36 31 37
REMARK SMILES IDX 92 38 32 39 91 40 33 41 34 42 35 43 85 44 36 45 90 46 84 47
REMARK SMILES IDX 86 48 37 49 89 50 83 51 82 52 38 54 70 55 50 56 69 57 51 58
REMARK SMILES IDX 54 59 68 60 87 61 52 62 53 63 67 65 88 66 55 67 39 68 40 69
REMARK SMILES IDX 48 70 41 71 47 72 49 73 46 74 42 75 43 76 44 77 45 78 71 79
REMARK SMILES IDX 72 80 80 81 73 82 79 83 81 84 78 85 74 86 75 87 76 88 77 89
REMARK SMILES IDX 56 90 57 91 65 92 58 93 64 94 66 95 63 96 59 97 60 98 61 99
REMARK SMILES IDX 62 100
REMARK H PARENT 23 6 1 20 1 21 27 34 86 53 54 64
REMARK Flexibility Score: inf
ROOT
ATOM      1  C   UNL A   1      31.787  32.094  26.724  1.00  0.00     0.042 C 
ENDROOT
BRANCH   1   2
ATOM      2  C   UNL A   1      31.761  30.614  27.012  1.00  0.00     0.117 C 
BRANCH   2   3
ATOM      3  N   UNL A   1      33.032  30.026  27.360  1.00  0.00    -0.355 N 
ATOM      4  C   UNL A   1      33.660  28.946  26.815  1.00  0.00     0.228 C 
ATOM      5  O   UNL A   1      34.881  28.895  26.990  1.00  0.00    -0.274 OA
ATOM      6  H   UNL A   1      33.515  30.468  28.095  1.00  0.00     0.163 HD
BRANCH   4   7
ATOM      7  C   UNL A   1      32.907  27.846  26.031  1.00  0.00     0.071 C 
ATOM      8  N   UNL A   1      33.159  25.461  25.508  1.00  0.00    -0.355 N 
ATOM      9  C   UNL A   1      32.020  24.964  26.252  1.00  0.00     0.118 C 
ATOM     10  C   UNL A   1      33.865  26.603  26.079  1.00  0.00     0.135 C 
ATOM     11  C   UNL A   1      30.996  26.085  26.324  1.00  0.00     0.023 C 
ATOM     12  C   UNL A   1      31.609  27.413  26.782  1.00  0.00     0.021 C 
BRANCH   8  13
ATOM     13  C   UNL A   1      33.848  24.601  24.683  1.00  0.00     0.134 A 
ATOM     14  C   UNL A   1      35.801  23.673  23.948  1.00  0.00     0.221 A 
ATOM     15  N   UNL A   1      35.215  23.014  22.945  1.00  0.00    -0.222 NA
ATOM     16  N   UNL A   1      35.176  24.477  24.812  1.00  0.00    -0.196 NA
ATOM     17  C   UNL A   1      33.888  23.175  22.831  1.00  0.00     0.119 A 
ATOM     18  C   UNL A   1      33.149  23.944  23.690  1.00  0.00     0.067 A 
BRANCH  14  19
ATOM     19  N   UNL A   1      37.145  23.504  24.107  1.00  0.00    -0.368 N 
ATOM     20  H   UNL A   1      37.706  24.260  24.393  1.00  0.00     0.159 HD
ATOM     21  H   UNL A   1      37.555  22.624  23.936  1.00  0.00     0.159 HD
ENDBRANCH  14  19
ENDBRANCH   8  13
BRANCH   7  22
ATOM     22  C   UNL A   1      32.754  28.198  24.507  1.00  0.00     0.057 C 
BRANCH  22  23
ATOM     23  C   UNL A   1      31.408  28.543  23.917  1.00  0.00    -0.011 A 
ATOM     24  C   UNL A   1      30.871  29.834  24.060  1.00  0.00     0.010 A 
ATOM     25  C   UNL A   1      30.648  27.579  23.240  1.00  0.00     0.129 A 
ATOM     26  C   UNL A   1      29.570  30.108  23.624  1.00  0.00     0.040 A 
ATOM     27  C   UNL A   1      29.356  27.843  22.801  1.00  0.00     0.078 A 
ATOM     28  F   UNL A   1      31.151  26.352  23.042  1.00  0.00    -0.207 F 
ATOM     29  C   UNL A   1      28.820  29.104  23.018  1.00  0.00     0.126 A 
ATOM     30  F   UNL A   1      27.557  29.353  22.652  1.00  0.00    -0.207 F 
ENDBRANCH  22  23
ENDBRANCH   7  22
ENDBRANCH   4   7
ENDBRANCH   2   3
ENDBRANCH   1   2
BRANCH   1  31
ATOM     31  C   UNL A   1      32.952  32.796  27.399  1.00  0.00     0.118 C 
BRANCH  31  32
ATOM     32  N   UNL A   1      32.655  34.183  27.763  1.00  0.00    -0.352 N 
ATOM     33  C   UNL A   1      33.143  34.969  28.776  1.00  0.00     0.251 C 
ATOM     34  H   UNL A   1      31.994  34.626  27.184  1.00  0.00     0.163 HD
ATOM     35  O   UNL A   1      32.604  36.048  29.016  1.00  0.00    -0.269 OA
BRANCH  33  36
ATOM     36  C   UNL A   1      34.294  34.509  29.575  1.00  0.00     0.039 A 
ATOM     37  C   UNL A   1      34.080  33.925  30.823  1.00  0.00     0.014 A 
ATOM     38  C   UNL A   1      35.590  34.635  29.073  1.00  0.00     0.014 A 
ATOM     39  C   UNL A   1      35.162  33.390  31.522  1.00  0.00     0.010 A 
ATOM     40  C   UNL A   1      36.638  33.981  29.699  1.00  0.00     0.010 A 
ATOM     41  C   UNL A   1      36.441  33.363  30.940  1.00  0.00    -0.014 A 
BRANCH  41  42
ATOM     42  C   UNL A   1      37.587  32.701  31.612  1.00  0.00     0.031 A 
ATOM     43  C   UNL A   1      38.295  31.556  30.935  1.00  0.00     0.074 A 
ATOM     44  C   UNL A   1      37.934  33.089  32.856  1.00  0.00     0.049 A 
ATOM     45  N   UNL A   1      39.276  30.815  31.382  1.00  0.00    -0.248 NA
ATOM     46  C   UNL A   1      37.814  31.163  29.599  1.00  0.00     0.031 C 
ATOM     47  C   UNL A   1      37.264  34.136  33.635  1.00  0.00     0.029 A 
ATOM     48  N   UNL A   1      38.931  32.651  33.689  1.00  0.00    -0.354 N 
ATOM     49  C   UNL A   1      39.512  29.863  30.395  1.00  0.00     0.074 A 
ATOM     50  C   UNL A   1      38.529  30.076  29.357  1.00  0.00     0.031 C 
ATOM     51  C   UNL A   1      37.896  34.286  34.810  1.00  0.00     0.029 A 
ATOM     52  C   UNL A   1      38.977  33.313  34.896  1.00  0.00     0.049 A 
ATOM     53  H   UNL A   1      39.556  31.930  33.447  1.00  0.00     0.167 HD
ATOM     54  C   UNL A   1      40.479  28.916  30.349  1.00  0.00     0.034 A 
ATOM     55  C   UNL A   1      39.795  33.146  35.955  1.00  0.00     0.034 A 
ATOM     56  C   UNL A   1      41.471  28.745  31.380  1.00  0.00     0.049 A 
ATOM     57  C   UNL A   1      40.875  32.096  35.864  1.00  0.00     0.074 A 
ATOM     58  C   UNL A   1      42.551  27.880  31.399  1.00  0.00     0.029 A 
ATOM     59  N   UNL A   1      41.504  29.449  32.577  1.00  0.00    -0.354 N 
ATOM     60  N   UNL A   1      41.137  31.264  34.883  1.00  0.00    -0.248 NA
ATOM     61  C   UNL A   1      41.777  31.975  37.015  1.00  0.00     0.031 C 
ATOM     62  C   UNL A   1      43.185  28.002  32.638  1.00  0.00     0.029 A 
ATOM     63  C   UNL A   1      42.560  29.009  33.358  1.00  0.00     0.049 A 
ATOM     64  H   UNL A   1      40.869  30.158  32.833  1.00  0.00     0.167 HD
ATOM     65  C   UNL A   1      42.255  30.540  35.290  1.00  0.00     0.074 A 
ATOM     66  C   UNL A   1      42.633  31.060  36.587  1.00  0.00     0.031 C 
ATOM     67  C   UNL A   1      42.910  29.533  34.656  1.00  0.00     0.034 A 
BRANCH  54  68
ATOM     68  C   UNL A   1      40.503  27.983  29.162  1.00  0.00     0.023 A 
ATOM     69  C   UNL A   1      41.425  28.135  28.112  1.00  0.00     0.031 A 
ATOM     70  C   UNL A   1      39.596  26.910  29.090  1.00  0.00     0.131 A 
ATOM     71  C   UNL A   1      41.389  27.261  27.015  1.00  0.00     0.055 A 
ATOM     72  C   UNL A   1      39.615  25.999  28.033  1.00  0.00     0.041 A 
ATOM     73  F   UNL A   1      38.674  26.730  30.049  1.00  0.00    -0.206 F 
ATOM     74  C   UNL A   1      40.510  26.177  26.982  1.00  0.00     0.022 A 
BRANCH  71  75
ATOM     75  S   UNL A   1      42.434  27.625  25.578  1.00  0.00     0.124 S 
ATOM     76  O   UNL A   1      42.252  26.423  24.768  1.00  0.00    -0.237 OA
ATOM     77  O   UNL A   1      41.835  28.846  25.052  1.00  0.00    -0.237 OA
ATOM     78  O   UNL A   1      43.768  27.784  26.155  1.00  0.00    -0.744 OA
ENDBRANCH  71  75
ENDBRANCH  54  68
BRANCH  55  79
ATOM     79  C   UNL A   1      39.627  33.967  37.191  1.00  0.00     0.023 A 
ATOM     80  C   UNL A   1      38.994  33.443  38.330  1.00  0.00     0.031 A 
ATOM     81  C   UNL A   1      40.033  35.313  37.229  1.00  0.00     0.131 A 
ATOM     82  C   UNL A   1      38.719  34.277  39.426  1.00  0.00     0.055 A 
ATOM     83  C   UNL A   1      39.821  36.118  38.349  1.00  0.00     0.041 A 
ATOM     84  F   UNL A   1      40.647  35.867  36.172  1.00  0.00    -0.206 F 
ATOM     85  C   UNL A   1      39.142  35.607  39.450  1.00  0.00     0.022 A 
BRANCH  82  86
ATOM     86  S   UNL A   1      37.681  33.630  40.767  1.00  0.00     0.124 S 
ATOM     87  O   UNL A   1      37.322  34.851  41.479  1.00  0.00    -0.237 OA
ATOM     88  O   UNL A   1      36.606  32.977  40.029  1.00  0.00    -0.237 OA
ATOM     89  O   UNL A   1      38.581  32.730  41.486  1.00  0.00    -0.744 OA
ENDBRANCH  82  86
ENDBRANCH  55  79
BRANCH  67  90
ATOM     90  C   UNL A   1      44.122  28.964  35.353  1.00  0.00     0.023 A 
ATOM     91  C   UNL A   1      44.016  27.884  36.247  1.00  0.00     0.031 A 
ATOM     92  C   UNL A   1      45.392  29.529  35.146  1.00  0.00     0.131 A 
ATOM     93  C   UNL A   1      45.145  27.456  36.959  1.00  0.00     0.055 A 
ATOM     94  C   UNL A   1      46.525  29.047  35.799  1.00  0.00     0.041 A 
ATOM     95  F   UNL A   1      45.552  30.565  34.305  1.00  0.00    -0.206 F 
ATOM     96  C   UNL A   1      46.403  28.017  36.727  1.00  0.00     0.022 A 
BRANCH  93  97
ATOM     97  S   UNL A   1      44.919  26.246  38.291  1.00  0.00     0.124 S 
ATOM     98  O   UNL A   1      43.585  26.580  38.780  1.00  0.00    -0.237 OA
ATOM     99  O   UNL A   1      45.038  24.977  37.582  1.00  0.00    -0.237 OA
ATOM    100  O   UNL A   1      46.012  26.545  39.214  1.00  0.00    -0.744 OA
ENDBRANCH  93  97
ENDBRANCH  67  90
ENDBRANCH  41  42
ENDBRANCH  33  36
ENDBRANCH  31  32
ENDBRANCH   1  31
TORSDOF 17
ENDMDL
MODEL 2
REMARK VINA RESULT:     -12.7      1.721      3.316
REMARK SMILES Nc1nccc(N2CCC[C@@](Cc3ccc(F)cc3F)(C(=O)NCCCNC(=O)c3ccc(-c4c5nc(c(-c6cc(S(=O)(=O)[O-])ccc6F)c6ccc([nH]6)c(-c6cc(S(=O)(=O)[O-])ccc6F)c6nc(c(-c7cc(S(=O)(=O)[O-])ccc7F)c7ccc4[nH]7)C=C6)C=C5)cc3)C2)n1
REMARK SMILES IDX 25 1 24 2 23 3 21 4 22 5 11 7 7 8 8 9 93 10 9 11 10 12 6 13
REMARK SMILES IDX 2 14 3 15 94 16 4 17 5 18 1 19 12 22 13 23 14 24 19 25 15 26
REMARK SMILES IDX 18 27 20 28 16 29 17 30 26 31 27 32 28 33 29 35 30 36 31 37
REMARK SMILES IDX 92 38 32 39 91 40 33 41 34 42 35 43 85 44 36 45 90 46 84 47
REMARK SMILES IDX 86 48 37 49 89 50 83 51 82 52 38 54 70 55 50 56 69 57 51 58
REMARK SMILES IDX 54 59 68 60 87 61 52 62 53 63 67 65 88 66 55 67 39 68 40 69
REMARK SMILES IDX 48 70 41 71 47 72 49 73 46 74 42 75 43 76 44 77 45 78 71 79
REMARK SMILES IDX 72 80 80 81 73 82 79 83 81 84 78 85 74 86 75 87 76 88 77 89
REMARK SMILES IDX 56 90 57 91 65 92 58 93 64 94 66 95 63 96 59 97 60 98 61 99
REMARK SMILES IDX 62 100
REMARK H PARENT 23 6 1 20 1 21 27 34 86 53 54 64
REMARK Flexibility Score: inf
ROOT
ATOM      1  C   UNL A   1      34.023  31.469  27.242  1.00  0.00     0.042 C 
ENDROOT
BRANCH   1   2
ATOM      2  C   UNL A   1      33.996  29.982  26.994  1.00  0.00     0.117 C 
BRANCH   2   3
ATOM      3  N   UNL A   1      32.973  29.252  27.705  1.00  0.00    -0.355 N 
ATOM      4  C   UNL A   1      32.261  28.160  27.307  1.00  0.00     0.228 C 
ATOM      5  O   UNL A   1      31.766  27.488  28.217  1.00  0.00    -0.274 OA
ATOM      6  H   UNL A   1      32.761  29.590  28.604  1.00  0.00     0.163 HD
BRANCH   4   7
ATOM      7  C   UNL A   1      32.070  27.779  25.821  1.00  0.00     0.071 C 
ATOM      8  N   UNL A   1      31.307  28.827  23.737  1.00  0.00    -0.355 N 
ATOM      9  C   UNL A   1      32.568  28.816  23.025  1.00  0.00     0.118 C 
ATOM     10  C   UNL A   1      31.371  29.031  25.180  1.00  0.00     0.135 C 
ATOM     11  C   UNL A   1      33.389  27.656  23.566  1.00  0.00     0.023 C 
ATOM     12  C   UNL A   1      33.446  27.641  25.097  1.00  0.00     0.021 C 
BRANCH   8  13
ATOM     13  C   UNL A   1      30.161  29.196  23.067  1.00  0.00     0.134 A 
ATOM     14  C   UNL A   1      27.919  28.998  22.686  1.00  0.00     0.221 A 
ATOM     15  N   UNL A   1      27.934  29.819  21.632  1.00  0.00    -0.222 NA
ATOM     16  N   UNL A   1      28.987  28.648  23.407  1.00  0.00    -0.196 NA
ATOM     17  C   UNL A   1      29.129  30.334  21.306  1.00  0.00     0.119 A 
ATOM     18  C   UNL A   1      30.276  30.071  22.006  1.00  0.00     0.067 A 
BRANCH  14  19
ATOM     19  N   UNL A   1      26.712  28.483  23.060  1.00  0.00    -0.368 N 
ATOM     20  H   UNL A   1      26.373  28.635  23.972  1.00  0.00     0.159 HD
ATOM     21  H   UNL A   1      26.180  27.959  22.418  1.00  0.00     0.159 HD
ENDBRANCH  14  19
ENDBRANCH   8  13
BRANCH   7  22
ATOM     22  C   UNL A   1      31.055  26.594  25.635  1.00  0.00     0.057 C 
BRANCH  22  23
ATOM     23  C   UNL A   1      31.529  25.212  25.251  1.00  0.00    -0.011 A 
ATOM     24  C   UNL A   1      32.170  24.386  26.190  1.00  0.00     0.010 A 
ATOM     25  C   UNL A   1      31.371  24.734  23.942  1.00  0.00     0.129 A 
ATOM     26  C   UNL A   1      32.720  23.163  25.791  1.00  0.00     0.040 A 
ATOM     27  C   UNL A   1      31.913  23.519  23.539  1.00  0.00     0.078 A 
ATOM     28  F   UNL A   1      30.721  25.475  23.035  1.00  0.00    -0.207 F 
ATOM     29  C   UNL A   1      32.604  22.753  24.466  1.00  0.00     0.126 A 
ATOM     30  F   UNL A   1      33.179  21.608  24.076  1.00  0.00    -0.207 F 
ENDBRANCH  22  23
ENDBRANCH   7  22
ENDBRANCH   4   7
ENDBRANCH   2   3
ENDBRANCH   1   2
BRANCH   1  31
ATOM     31  C   UNL A   1      32.658  32.021  27.610  1.00  0.00     0.118 C 
BRANCH  31  32
ATOM     32  N   UNL A   1      32.618  33.484  27.642  1.00  0.00    -0.352 N 
ATOM     33  C   UNL A   1      33.301  34.384  28.421  1.00  0.00     0.251 C 
ATOM     34  H   UNL A   1      31.998  33.891  26.995  1.00  0.00     0.163 HD
ATOM     35  O   UNL A   1      32.964  35.566  28.414  1.00  0.00    -0.269 OA
BRANCH  33  36
ATOM     36  C   UNL A   1      34.417  33.924  29.268  1.00  0.00     0.039 A 
ATOM     37  C   UNL A   1      34.154  33.143  30.393  1.00  0.00     0.014 A 
ATOM     38  C   UNL A   1      35.732  34.250  28.933  1.00  0.00     0.014 A 
ATOM     39  C   UNL A   1      35.219  32.618  31.125  1.00  0.00     0.010 A 
ATOM     40  C   UNL A   1      36.783  33.615  29.572  1.00  0.00     0.010 A 
ATOM     41  C   UNL A   1      36.542  32.803  30.687  1.00  0.00    -0.014 A 
BRANCH  41  42
ATOM     42  C   UNL A   1      37.687  32.163  31.381  1.00  0.00     0.031 A 
ATOM     43  C   UNL A   1      38.447  31.049  30.708  1.00  0.00     0.074 A 
ATOM     44  C   UNL A   1      37.988  32.541  32.640  1.00  0.00     0.049 A 
ATOM     45  N   UNL A   1      39.436  30.329  31.171  1.00  0.00    -0.248 NA
ATOM     46  C   UNL A   1      38.016  30.664  29.353  1.00  0.00     0.031 C 
ATOM     47  C   UNL A   1      37.267  33.556  33.416  1.00  0.00     0.029 A 
ATOM     48  N   UNL A   1      38.974  32.118  33.495  1.00  0.00    -0.354 N 
ATOM     49  C   UNL A   1      39.727  29.400  30.177  1.00  0.00     0.074 A 
ATOM     50  C   UNL A   1      38.767  29.602  29.115  1.00  0.00     0.031 C 
ATOM     51  C   UNL A   1      37.860  33.705  34.611  1.00  0.00     0.029 A 
ATOM     52  C   UNL A   1      38.967  32.762  34.712  1.00  0.00     0.049 A 
ATOM     53  H   UNL A   1      39.626  31.419  33.260  1.00  0.00     0.167 HD
ATOM     54  C   UNL A   1      40.722  28.482  30.145  1.00  0.00     0.034 A 
ATOM     55  C   UNL A   1      39.759  32.602  35.792  1.00  0.00     0.034 A 
ATOM     56  C   UNL A   1      41.689  28.323  31.201  1.00  0.00     0.049 A 
ATOM     57  C   UNL A   1      40.870  31.584  35.716  1.00  0.00     0.074 A 
ATOM     58  C   UNL A   1      42.792  27.489  31.237  1.00  0.00     0.029 A 
ATOM     59  N   UNL A   1      41.668  29.009  32.408  1.00  0.00    -0.354 N 
ATOM     60  N   UNL A   1      41.184  30.775  34.730  1.00  0.00    -0.248 NA
ATOM     61  C   UNL A   1      41.743  31.470  36.890  1.00  0.00     0.031 C 
ATOM     62  C   UNL A   1      43.387  27.610  32.496  1.00  0.00     0.029 A 
ATOM     63  C   UNL A   1      42.713  28.586  33.212  1.00  0.00     0.049 A 
ATOM     64  H   UNL A   1      41.006  29.695  32.657  1.00  0.00     0.167 HD
ATOM     65  C   UNL A   1      42.311  30.077  35.158  1.00  0.00     0.074 A 
ATOM     66  C   UNL A   1      42.637  30.587  36.473  1.00  0.00     0.031 C 
ATOM     67  C   UNL A   1      43.012  29.100  34.528  1.00  0.00     0.034 A 
BRANCH  54  68
ATOM     68  C   UNL A   1      40.806  27.570  28.944  1.00  0.00     0.023 A 
ATOM     69  C   UNL A   1      41.755  27.762  27.926  1.00  0.00     0.031 A 
ATOM     70  C   UNL A   1      39.930  26.474  28.829  1.00  0.00     0.131 A 
ATOM     71  C   UNL A   1      41.775  26.905  26.815  1.00  0.00     0.055 A 
ATOM     72  C   UNL A   1      40.005  25.581  27.759  1.00  0.00     0.041 A 
ATOM     73  F   UNL A   1      38.985  26.255  29.756  1.00  0.00    -0.206 F 
ATOM     74  C   UNL A   1      40.926  25.799  26.739  1.00  0.00     0.022 A 
BRANCH  71  75
ATOM     75  S   UNL A   1      42.853  27.319  25.416  1.00  0.00     0.124 S 
ATOM     76  O   UNL A   1      44.068  27.756  26.098  1.00  0.00    -0.237 OA
ATOM     77  O   UNL A   1      42.942  26.052  24.700  1.00  0.00    -0.237 OA
ATOM     78  O   UNL A   1      42.122  28.377  24.721  1.00  0.00    -0.744 OA
ENDBRANCH  71  75
ENDBRANCH  54  68
BRANCH  55  79
ATOM     79  C   UNL A   1      39.532  33.397  37.035  1.00  0.00     0.023 A 
ATOM     80  C   UNL A   1      38.880  32.838  38.146  1.00  0.00     0.031 A 
ATOM     81  C   UNL A   1      39.901  34.753  37.105  1.00  0.00     0.131 A 
ATOM     82  C   UNL A   1      38.551  33.646  39.246  1.00  0.00     0.055 A 
ATOM     83  C   UNL A   1      39.635  35.534  38.231  1.00  0.00     0.041 A 
ATOM     84  F   UNL A   1      40.531  35.340  36.076  1.00  0.00    -0.206 F 
ATOM     85  C   UNL A   1      38.937  34.987  39.304  1.00  0.00     0.022 A 
BRANCH  82  86
ATOM     86  S   UNL A   1      37.492  32.951  40.546  1.00  0.00     0.124 S 
ATOM     87  O   UNL A   1      38.160  31.686  40.828  1.00  0.00    -0.237 OA
ATOM     88  O   UNL A   1      37.581  33.971  41.586  1.00  0.00    -0.237 OA
ATOM     89  O   UNL A   1      36.188  32.838  39.895  1.00  0.00    -0.744 OA
ENDBRANCH  82  86
ENDBRANCH  55  79
BRANCH  67  90
ATOM     90  C   UNL A   1      44.219  28.554  35.251  1.00  0.00     0.023 A 
ATOM     91  C   UNL A   1      44.107  27.508  36.183  1.00  0.00     0.031 A 
ATOM     92  C   UNL A   1      45.491  29.108  35.028  1.00  0.00     0.131 A 
ATOM     93  C   UNL A   1      45.232  27.104  36.916  1.00  0.00     0.055 A 
ATOM     94  C   UNL A   1      46.621  28.648  35.703  1.00  0.00     0.041 A 
ATOM     95  F   UNL A   1      45.657  30.112  34.151  1.00  0.00    -0.206 F 
ATOM     96  C   UNL A   1      46.493  27.654  36.669  1.00  0.00     0.022 A 
BRANCH  93  97
ATOM     97  S   UNL A   1      44.999  25.944  38.290  1.00  0.00     0.124 S 
ATOM     98  O   UNL A   1      44.109  24.950  37.699  1.00  0.00    -0.237 OA
ATOM     99  O   UNL A   1      46.362  25.500  38.558  1.00  0.00    -0.237 OA
ATOM    100  O   UNL A   1      44.398  26.770  39.336  1.00  0.00    -0.744 OA
ENDBRANCH  93  97
ENDBRANCH  67  90
ENDBRANCH  41  42
ENDBRANCH  33  36
ENDBRANCH  31  32
ENDBRANCH   1  31
TORSDOF 17
ENDMDL
MODEL 3
REMARK VINA RESULT:     -12.6      2.821      4.602
REMARK SMILES Nc1nccc(N2CCC[C@@](Cc3ccc(F)cc3F)(C(=O)NCCCNC(=O)c3ccc(-c4c5nc(c(-c6cc(S(=O)(=O)[O-])ccc6F)c6ccc([nH]6)c(-c6cc(S(=O)(=O)[O-])ccc6F)c6nc(c(-c7cc(S(=O)(=O)[O-])ccc7F)c7ccc4[nH]7)C=C6)C=C5)cc3)C2)n1
REMARK SMILES IDX 25 1 24 2 23 3 21 4 22 5 11 7 7 8 8 9 93 10 9 11 10 12 6 13
REMARK SMILES IDX 2 14 3 15 94 16 4 17 5 18 1 19 12 22 13 23 14 24 19 25 15 26
REMARK SMILES IDX 18 27 20 28 16 29 17 30 26 31 27 32 28 33 29 35 30 36 31 37
REMARK SMILES IDX 92 38 32 39 91 40 33 41 34 42 35 43 85 44 36 45 90 46 84 47
REMARK SMILES IDX 86 48 37 49 89 50 83 51 82 52 38 54 70 55 50 56 69 57 51 58
REMARK SMILES IDX 54 59 68 60 87 61 52 62 53 63 67 65 88 66 55 67 39 68 40 69
REMARK SMILES IDX 48 70 41 71 47 72 49 73 46 74 42 75 43 76 44 77 45 78 71 79
REMARK SMILES IDX 72 80 80 81 73 82 79 83 81 84 78 85 74 86 75 87 76 88 77 89
REMARK SMILES IDX 56 90 57 91 65 92 58 93 64 94 66 95 63 96 59 97 60 98 61 99
REMARK SMILES IDX 62 100
REMARK H PARENT 23 6 1 20 1 21 27 34 86 53 54 64
REMARK Flexibility Score: inf
ROOT
ATOM      1  C   UNL A   1      31.800  28.084  25.711  1.00  0.00     0.042 C 
ENDROOT
BRANCH   1   2
ATOM      2  C   UNL A   1      32.230  26.758  26.288  1.00  0.00     0.117 C 
BRANCH   2   3
ATOM      3  N   UNL A   1      31.166  25.814  26.536  1.00  0.00    -0.355 N 
ATOM      4  C   UNL A   1      31.191  24.453  26.472  1.00  0.00     0.228 C 
ATOM      5  O   UNL A   1      30.309  23.873  27.113  1.00  0.00    -0.274 OA
ATOM      6  H   UNL A   1      30.301  26.209  26.787  1.00  0.00     0.163 HD
BRANCH   4   7
ATOM      7  C   UNL A   1      32.243  23.671  25.651  1.00  0.00     0.071 C 
ATOM      8  N   UNL A   1      32.335  21.726  24.158  1.00  0.00    -0.355 N 
ATOM      9  C   UNL A   1      32.677  22.419  22.933  1.00  0.00     0.118 C 
ATOM     10  C   UNL A   1      31.460  22.431  25.088  1.00  0.00     0.135 C 
ATOM     11  C   UNL A   1      33.425  23.685  23.318  1.00  0.00     0.023 C 
ATOM     12  C   UNL A   1      32.701  24.490  24.403  1.00  0.00     0.021 C 
BRANCH   8  13
ATOM     13  C   UNL A   1      32.345  20.348  24.173  1.00  0.00     0.134 A 
ATOM     14  C   UNL A   1      32.523  18.364  25.290  1.00  0.00     0.221 A 
ATOM     15  N   UNL A   1      32.517  17.632  24.172  1.00  0.00    -0.222 NA
ATOM     16  N   UNL A   1      32.461  19.698  25.339  1.00  0.00    -0.196 NA
ATOM     17  C   UNL A   1      32.419  18.315  23.022  1.00  0.00     0.119 A 
ATOM     18  C   UNL A   1      32.308  19.679  22.966  1.00  0.00     0.067 A 
BRANCH  14  19
ATOM     19  N   UNL A   1      32.590  17.695  26.476  1.00  0.00    -0.368 N 
ATOM     20  H   UNL A   1      33.317  17.051  26.637  1.00  0.00     0.159 HD
ATOM     21  H   UNL A   1      31.912  17.856  27.172  1.00  0.00     0.159 HD
ENDBRANCH  14  19
ENDBRANCH   8  13
BRANCH   7  22
ATOM     22  C   UNL A   1      33.380  23.072  26.555  1.00  0.00     0.057 C 
BRANCH  22  23
ATOM     23  C   UNL A   1      34.769  22.837  26.011  1.00  0.00    -0.011 A 
ATOM     24  C   UNL A   1      35.223  21.535  25.741  1.00  0.00     0.010 A 
ATOM     25  C   UNL A   1      35.647  23.907  25.791  1.00  0.00     0.129 A 
ATOM     26  C   UNL A   1      36.552  21.318  25.360  1.00  0.00     0.040 A 
ATOM     27  C   UNL A   1      36.968  23.701  25.411  1.00  0.00     0.078 A 
ATOM     28  F   UNL A   1      35.230  25.165  25.991  1.00  0.00    -0.207 F 
ATOM     29  C   UNL A   1      37.415  22.401  25.220  1.00  0.00     0.126 A 
ATOM     30  F   UNL A   1      38.700  22.187  24.910  1.00  0.00    -0.207 F 
ENDBRANCH  22  23
ENDBRANCH   7  22
ENDBRANCH   4   7
ENDBRANCH   2   3
ENDBRANCH   1   2
BRANCH   1  31
ATOM     31  C   UNL A   1      32.944  29.077  25.624  1.00  0.00     0.118 C 
BRANCH  31  32
ATOM     32  N   UNL A   1      32.566  30.428  26.045  1.00  0.00    -0.352 N 
ATOM     33  C   UNL A   1      33.132  31.272  26.968  1.00  0.00     0.251 C 
ATOM     34  H   UNL A   1      31.774  30.792  25.589  1.00  0.00     0.163 HD
ATOM     35  O   UNL A   1      32.528  32.289  27.305  1.00  0.00    -0.269 OA
BRANCH  33  36
ATOM     36  C   UNL A   1      34.443  30.945  27.556  1.00  0.00     0.039 A 
ATOM     37  C   UNL A   1      35.389  31.954  27.740  1.00  0.00     0.014 A 
ATOM     38  C   UNL A   1      34.729  29.636  27.948  1.00  0.00     0.014 A 
ATOM     39  C   UNL A   1      36.582  31.659  28.400  1.00  0.00     0.010 A 
ATOM     40  C   UNL A   1      35.846  29.378  28.725  1.00  0.00     0.010 A 
ATOM     41  C   UNL A   1      36.796  30.383  28.948  1.00  0.00    -0.014 A 
BRANCH  41  42
ATOM     42  C   UNL A   1      38.005  30.074  29.751  1.00  0.00     0.031 A 
ATOM     43  C   UNL A   1      39.031  29.104  29.223  1.00  0.00     0.074 A 
ATOM     44  C   UNL A   1      38.135  30.614  30.979  1.00  0.00     0.049 A 
ATOM     45  N   UNL A   1      40.121  28.664  29.796  1.00  0.00    -0.248 NA
ATOM     46  C   UNL A   1      38.781  28.520  27.893  1.00  0.00     0.031 C 
ATOM     47  C   UNL A   1      37.162  31.505  31.621  1.00  0.00     0.029 A 
ATOM     48  N   UNL A   1      39.132  30.495  31.914  1.00  0.00    -0.354 N 
ATOM     49  C   UNL A   1      40.669  27.741  28.911  1.00  0.00     0.074 A 
ATOM     50  C   UNL A   1      39.760  27.634  27.793  1.00  0.00     0.031 C 
ATOM     51  C   UNL A   1      37.631  31.883  32.820  1.00  0.00     0.029 A 
ATOM     52  C   UNL A   1      38.907  31.222  33.062  1.00  0.00     0.049 A 
ATOM     53  H   UNL A   1      39.934  29.940  31.777  1.00  0.00     0.167 HD
ATOM     54  C   UNL A   1      41.840  27.068  29.012  1.00  0.00     0.034 A 
ATOM     55  C   UNL A   1      39.643  31.333  34.186  1.00  0.00     0.034 A 
ATOM     56  C   UNL A   1      42.748  27.218  30.120  1.00  0.00     0.049 A 
ATOM     57  C   UNL A   1      40.952  30.585  34.258  1.00  0.00     0.074 A 
ATOM     58  C   UNL A   1      44.002  26.656  30.285  1.00  0.00     0.029 A 
ATOM     59  N   UNL A   1      42.501  27.981  31.253  1.00  0.00    -0.354 N 
ATOM     60  N   UNL A   1      41.497  29.786  33.369  1.00  0.00    -0.248 NA
ATOM     61  C   UNL A   1      41.751  30.768  35.475  1.00  0.00     0.031 C 
ATOM     62  C   UNL A   1      44.474  27.012  31.552  1.00  0.00     0.029 A 
ATOM     63  C   UNL A   1      43.559  27.871  32.140  1.00  0.00     0.049 A 
ATOM     64  H   UNL A   1      41.691  28.522  31.405  1.00  0.00     0.167 HD
ATOM     65  C   UNL A   1      42.718  29.395  33.913  1.00  0.00     0.074 A 
ATOM     66  C   UNL A   1      42.840  30.074  35.186  1.00  0.00     0.031 C 
ATOM     67  C   UNL A   1      43.654  28.548  33.412  1.00  0.00     0.034 A 
BRANCH  54  68
ATOM     68  C   UNL A   1      42.198  26.099  27.910  1.00  0.00     0.023 A 
ATOM     69  C   UNL A   1      41.759  24.764  27.919  1.00  0.00     0.031 A 
ATOM     70  C   UNL A   1      42.979  26.528  26.821  1.00  0.00     0.131 A 
ATOM     71  C   UNL A   1      42.142  23.893  26.888  1.00  0.00     0.055 A 
ATOM     72  C   UNL A   1      43.293  25.677  25.760  1.00  0.00     0.041 A 
ATOM     73  F   UNL A   1      43.449  27.783  26.770  1.00  0.00    -0.206 F 
ATOM     74  C   UNL A   1      42.882  24.348  25.794  1.00  0.00     0.022 A 
BRANCH  71  75
ATOM     75  S   UNL A   1      41.754  22.129  27.049  1.00  0.00     0.124 S 
ATOM     76  O   UNL A   1      40.390  22.173  27.570  1.00  0.00    -0.237 OA
ATOM     77  O   UNL A   1      41.900  21.646  25.681  1.00  0.00    -0.237 OA
ATOM     78  O   UNL A   1      42.758  21.641  27.993  1.00  0.00    -0.744 OA
ENDBRANCH  71  75
ENDBRANCH  54  68
BRANCH  55  79
ATOM     79  C   UNL A   1      39.170  32.161  35.335  1.00  0.00     0.023 A 
ATOM     80  C   UNL A   1      38.593  31.566  36.469  1.00  0.00     0.031 A 
ATOM     81  C   UNL A   1      39.221  33.566  35.286  1.00  0.00     0.131 A 
ATOM     82  C   UNL A   1      38.025  32.370  37.471  1.00  0.00     0.055 A 
ATOM     83  C   UNL A   1      38.719  34.360  36.318  1.00  0.00     0.041 A 
ATOM     84  F   UNL A   1      39.764  34.190  34.230  1.00  0.00    -0.206 F 
ATOM     85  C   UNL A   1      38.098  33.763  37.411  1.00  0.00     0.022 A 
BRANCH  82  86
ATOM     86  S   UNL A   1      37.072  31.567  38.790  1.00  0.00     0.124 S 
ATOM     87  O   UNL A   1      36.932  30.212  38.271  1.00  0.00    -0.237 OA
ATOM     88  O   UNL A   1      37.955  31.726  39.940  1.00  0.00    -0.237 OA
ATOM     89  O   UNL A   1      35.838  32.349  38.839  1.00  0.00    -0.744 OA
ENDBRANCH  82  86
ENDBRANCH  55  79
BRANCH  67  90
ATOM     90  C   UNL A   1      44.902  28.347  34.236  1.00  0.00     0.023 A 
ATOM     91  C   UNL A   1      44.997  27.315  35.187  1.00  0.00     0.031 A 
ATOM     92  C   UNL A   1      45.996  29.217  34.094  1.00  0.00     0.131 A 
ATOM     93  C   UNL A   1      46.127  27.229  36.011  1.00  0.00     0.055 A 
ATOM     94  C   UNL A   1      47.150  29.078  34.863  1.00  0.00     0.041 A 
ATOM     95  F   UNL A   1      45.959  30.223  33.204  1.00  0.00    -0.206 F 
ATOM     96  C   UNL A   1      47.213  28.092  35.843  1.00  0.00     0.022 A 
BRANCH  93  97
ATOM     97  S   UNL A   1      46.101  26.058  37.396  1.00  0.00     0.124 S 
ATOM     98  O   UNL A   1      46.124  24.773  36.705  1.00  0.00    -0.237 OA
ATOM     99  O   UNL A   1      47.313  26.411  38.126  1.00  0.00    -0.237 OA
ATOM    100  O   UNL A   1      44.849  26.370  38.083  1.00  0.00    -0.744 OA
ENDBRANCH  93  97
ENDBRANCH  67  90
ENDBRANCH  41  42
ENDBRANCH  33  36
ENDBRANCH  31  32
ENDBRANCH   1  31
TORSDOF 17
ENDMDL
