MODEL 1
REMARK VINA RESULT:     -13.1      0.000      0.000
REMARK SMILES O=C(CC1CCN(C(=O)c2ccc3[nH]ccc3c2)CC1)NCCCNC(=O)c1ccc(-c2c3nc(c(-c4cc(S(=O)(=O)[O-])ccc4F)c4ccc([nH]4)c(-c4cc(S(=O)(=O)[O-])ccc4F)c4nc(c(-c5cc(S(=O)(=O)[O-])ccc5F)c5ccc2[nH]5)C=C4)C=C3)cc1
REMARK SMILES IDX 23 1 22 2 21 3 1 4 2 5 3 7 4 8 5 9 20 10 6 11 19 12 7 13
REMARK SMILES IDX 8 14 9 15 10 16 11 17 18 18 12 19 17 20 13 21 16 22 14 23
REMARK SMILES IDX 15 24 24 26 25 27 26 28 27 30 28 31 29 32 90 33 30 34 89 35
REMARK SMILES IDX 31 36 32 37 33 38 83 39 34 40 88 41 82 42 84 43 35 44 87 45
REMARK SMILES IDX 81 46 80 47 36 49 68 50 48 51 67 52 49 53 52 54 66 55 85 56
REMARK SMILES IDX 50 57 51 58 65 60 86 61 53 62 37 63 38 64 46 65 39 66 45 67
REMARK SMILES IDX 47 68 44 69 40 70 41 71 42 72 43 73 69 74 70 75 78 76 71 77
REMARK SMILES IDX 77 78 79 79 76 80 72 81 73 82 74 83 75 84 54 85 55 86 63 87
REMARK SMILES IDX 56 88 62 89 64 90 61 91 57 92 58 93 59 94 60 95
REMARK H PARENT 21 6 14 25 25 29 84 48 52 59
REMARK Flexibility Score: inf
ROOT
ATOM      1  C   UNL A   1      32.256  30.565  27.111  1.00  0.00     0.042 C 
ENDROOT
BRANCH   1   2
ATOM      2  C   UNL A   1      31.567  30.588  25.753  1.00  0.00     0.117 C 
BRANCH   2   3
ATOM      3  N   UNL A   1      31.757  29.364  25.003  1.00  0.00    -0.356 N 
ATOM      4  O   UNL A   1      29.931  29.669  23.642  1.00  0.00    -0.275 OA
ATOM      5  C   UNL A   1      30.931  29.031  23.952  1.00  0.00     0.220 C 
ATOM      6  H   UNL A   1      32.492  28.756  25.249  1.00  0.00     0.163 HD
BRANCH   5   7
ATOM      7  C   UNL A   1      31.415  27.837  23.157  1.00  0.00     0.103 C 
BRANCH   7   8
ATOM      8  C   UNL A   1      30.500  26.593  23.225  1.00  0.00     0.002 C 
ATOM      9  C   UNL A   1      29.833  26.470  24.607  1.00  0.00     0.026 C 
ATOM     10  C   UNL A   1      31.127  25.234  22.867  1.00  0.00     0.026 C 
ATOM     11  C   UNL A   1      30.801  25.956  25.671  1.00  0.00     0.120 C 
ATOM     12  C   UNL A   1      32.045  24.663  23.945  1.00  0.00     0.120 C 
ATOM     13  N   UNL A   1      31.436  24.703  25.274  1.00  0.00    -0.339 N 
ATOM     14  C   UNL A   1      31.526  23.675  26.215  1.00  0.00     0.253 C 
ATOM     15  O   UNL A   1      30.918  23.673  27.282  1.00  0.00    -0.269 OA
BRANCH  14  16
ATOM     16  C   UNL A   1      32.410  22.524  25.925  1.00  0.00     0.040 A 
ATOM     17  C   UNL A   1      33.752  22.569  26.308  1.00  0.00     0.016 A 
ATOM     18  C   UNL A   1      31.869  21.399  25.287  1.00  0.00     0.024 A 
ATOM     19  C   UNL A   1      34.608  21.507  26.010  1.00  0.00     0.027 A 
ATOM     20  C   UNL A   1      32.724  20.323  24.977  1.00  0.00     0.000 A 
ATOM     21  C   UNL A   1      34.069  20.408  25.335  1.00  0.00     0.045 A 
ATOM     22  C   UNL A   1      32.546  19.063  24.341  1.00  0.00     0.028 A 
ATOM     23  N   UNL A   1      34.681  19.247  24.921  1.00  0.00    -0.361 N 
ATOM     24  C   UNL A   1      33.766  18.428  24.313  1.00  0.00     0.083 A 
ATOM     25  H   UNL A   1      35.635  19.036  25.044  1.00  0.00     0.166 HD
ENDBRANCH  14  16
ENDBRANCH   7   8
ENDBRANCH   5   7
ENDBRANCH   2   3
ENDBRANCH   1   2
BRANCH   1  26
ATOM     26  C   UNL A   1      33.378  31.588  27.275  1.00  0.00     0.118 C 
BRANCH  26  27
ATOM     27  N   UNL A   1      32.899  32.956  27.407  1.00  0.00    -0.352 N 
ATOM     28  C   UNL A   1      33.283  33.937  28.294  1.00  0.00     0.251 C 
ATOM     29  H   UNL A   1      32.196  33.218  26.770  1.00  0.00     0.163 HD
ATOM     30  O   UNL A   1      32.624  34.974  28.357  1.00  0.00    -0.269 OA
BRANCH  28  31
ATOM     31  C   UNL A   1      34.440  33.742  29.202  1.00  0.00     0.039 A 
ATOM     32  C   UNL A   1      34.235  33.015  30.379  1.00  0.00     0.014 A 
ATOM     33  C   UNL A   1      35.718  34.218  28.896  1.00  0.00     0.014 A 
ATOM     34  C   UNL A   1      35.325  32.642  31.167  1.00  0.00     0.010 A 
ATOM     35  C   UNL A   1      36.814  33.783  29.641  1.00  0.00     0.010 A 
ATOM     36  C   UNL A   1      36.631  32.951  30.755  1.00  0.00    -0.014 A 
BRANCH  36  37
ATOM     37  C   UNL A   1      37.805  32.313  31.406  1.00  0.00     0.031 A 
ATOM     38  C   UNL A   1      38.521  31.166  30.756  1.00  0.00     0.074 A 
ATOM     39  C   UNL A   1      38.164  32.726  32.640  1.00  0.00     0.049 A 
ATOM     40  N   UNL A   1      39.502  30.436  31.221  1.00  0.00    -0.248 NA
ATOM     41  C   UNL A   1      38.054  30.772  29.419  1.00  0.00     0.031 C 
ATOM     42  C   UNL A   1      37.510  33.803  33.392  1.00  0.00     0.029 A 
ATOM     43  N   UNL A   1      39.152  32.291  33.487  1.00  0.00    -0.354 N 
ATOM     44  C   UNL A   1      39.770  29.490  30.238  1.00  0.00     0.074 A 
ATOM     45  C   UNL A   1      38.810  29.711  29.175  1.00  0.00     0.031 C 
ATOM     46  C   UNL A   1      38.127  33.956  34.573  1.00  0.00     0.029 A 
ATOM     47  C   UNL A   1      39.185  32.959  34.690  1.00  0.00     0.049 A 
ATOM     48  H   UNL A   1      39.779  31.567  33.256  1.00  0.00     0.167 HD
ATOM     49  C   UNL A   1      40.737  28.538  30.220  1.00  0.00     0.034 A 
ATOM     50  C   UNL A   1      39.964  32.781  35.775  1.00  0.00     0.034 A 
ATOM     51  C   UNL A   1      41.682  28.334  31.292  1.00  0.00     0.049 A 
ATOM     52  C   UNL A   1      41.014  31.702  35.742  1.00  0.00     0.074 A 
ATOM     53  C   UNL A   1      42.728  27.429  31.360  1.00  0.00     0.029 A 
ATOM     54  N   UNL A   1      41.692  29.037  32.490  1.00  0.00    -0.354 N 
ATOM     55  N   UNL A   1      41.283  30.845  34.784  1.00  0.00    -0.248 NA
ATOM     56  C   UNL A   1      41.867  31.568  36.929  1.00  0.00     0.031 C 
ATOM     57  C   UNL A   1      43.329  27.543  32.619  1.00  0.00     0.029 A 
ATOM     58  C   UNL A   1      42.705  28.567  33.313  1.00  0.00     0.049 A 
ATOM     59  H   UNL A   1      41.070  29.764  32.722  1.00  0.00     0.167 HD
ATOM     60  C   UNL A   1      42.360  30.094  35.241  1.00  0.00     0.074 A 
ATOM     61  C   UNL A   1      42.692  30.600  36.558  1.00  0.00     0.031 C 
ATOM     62  C   UNL A   1      43.020  29.081  34.624  1.00  0.00     0.034 A 
BRANCH  49  63
ATOM     63  C   UNL A   1      40.794  27.631  29.014  1.00  0.00     0.023 A 
ATOM     64  C   UNL A   1      41.743  27.822  27.994  1.00  0.00     0.031 A 
ATOM     65  C   UNL A   1      39.872  26.580  28.866  1.00  0.00     0.131 A 
ATOM     66  C   UNL A   1      41.700  27.028  26.839  1.00  0.00     0.055 A 
ATOM     67  C   UNL A   1      39.885  25.742  27.749  1.00  0.00     0.041 A 
ATOM     68  F   UNL A   1      38.932  26.360  29.798  1.00  0.00    -0.206 F 
ATOM     69  C   UNL A   1      40.793  25.973  26.720  1.00  0.00     0.022 A 
BRANCH  66  70
ATOM     70  S   UNL A   1      42.754  27.486  25.435  1.00  0.00     0.124 S 
ATOM     71  O   UNL A   1      42.705  26.273  24.622  1.00  0.00    -0.237 OA
ATOM     72  O   UNL A   1      42.064  28.648  24.889  1.00  0.00    -0.237 OA
ATOM     73  O   UNL A   1      44.048  27.762  26.055  1.00  0.00    -0.744 OA
ENDBRANCH  66  70
ENDBRANCH  49  63
BRANCH  50  74
ATOM     74  C   UNL A   1      39.777  33.631  36.986  1.00  0.00     0.023 A 
ATOM     75  C   UNL A   1      39.198  33.111  38.153  1.00  0.00     0.031 A 
ATOM     76  C   UNL A   1      40.154  34.986  36.984  1.00  0.00     0.131 A 
ATOM     77  C   UNL A   1      38.975  33.948  39.256  1.00  0.00     0.055 A 
ATOM     78  C   UNL A   1      39.975  35.804  38.101  1.00  0.00     0.041 A 
ATOM     79  F   UNL A   1      40.721  35.532  35.896  1.00  0.00    -0.206 F 
ATOM     80  C   UNL A   1      39.371  35.288  39.243  1.00  0.00     0.022 A 
BRANCH  77  81
ATOM     81  S   UNL A   1      38.087  33.280  40.689  1.00  0.00     0.124 S 
ATOM     82  O   UNL A   1      38.716  31.974  40.846  1.00  0.00    -0.237 OA
ATOM     83  O   UNL A   1      38.390  34.266  41.719  1.00  0.00    -0.237 OA
ATOM     84  O   UNL A   1      36.694  33.253  40.245  1.00  0.00    -0.744 OA
ENDBRANCH  77  81
ENDBRANCH  50  74
BRANCH  62  85
ATOM     85  C   UNL A   1      44.205  28.495  35.349  1.00  0.00     0.023 A 
ATOM     86  C   UNL A   1      44.056  27.500  36.329  1.00  0.00     0.031 A 
ATOM     87  C   UNL A   1      45.503  28.942  35.045  1.00  0.00     0.131 A 
ATOM     88  C   UNL A   1      45.186  27.010  37.001  1.00  0.00     0.055 A 
ATOM     89  C   UNL A   1      46.627  28.415  35.680  1.00  0.00     0.041 A 
ATOM     90  F   UNL A   1      45.698  29.893  34.117  1.00  0.00    -0.206 F 
ATOM     91  C   UNL A   1      46.472  27.449  36.671  1.00  0.00     0.022 A 
BRANCH  88  92
ATOM     92  S   UNL A   1      44.953  25.829  38.358  1.00  0.00     0.124 S 
ATOM     93  O   UNL A   1      43.972  26.517  39.193  1.00  0.00    -0.237 OA
ATOM     94  O   UNL A   1      44.474  24.640  37.660  1.00  0.00    -0.237 OA
ATOM     95  O   UNL A   1      46.287  25.708  38.941  1.00  0.00    -0.744 OA
ENDBRANCH  88  92
ENDBRANCH  62  85
ENDBRANCH  36  37
ENDBRANCH  28  31
ENDBRANCH  26  27
ENDBRANCH   1  26
TORSDOF 15
ENDMDL
MODEL 2
REMARK VINA RESULT:     -12.9      5.645     11.136
REMARK SMILES O=C(CC1CCN(C(=O)c2ccc3[nH]ccc3c2)CC1)NCCCNC(=O)c1ccc(-c2c3nc(c(-c4cc(S(=O)(=O)[O-])ccc4F)c4ccc([nH]4)c(-c4cc(S(=O)(=O)[O-])ccc4F)c4nc(c(-c5cc(S(=O)(=O)[O-])ccc5F)c5ccc2[nH]5)C=C4)C=C3)cc1
REMARK SMILES IDX 23 1 22 2 21 3 1 4 2 5 3 7 4 8 5 9 20 10 6 11 19 12 7 13
REMARK SMILES IDX 8 14 9 15 10 16 11 17 18 18 12 19 17 20 13 21 16 22 14 23
REMARK SMILES IDX 15 24 24 26 25 27 26 28 27 30 28 31 29 32 90 33 30 34 89 35
REMARK SMILES IDX 31 36 32 37 33 38 83 39 34 40 88 41 82 42 84 43 35 44 87 45
REMARK SMILES IDX 81 46 80 47 36 49 68 50 48 51 67 52 49 53 52 54 66 55 85 56
REMARK SMILES IDX 50 57 51 58 65 60 86 61 53 62 37 63 38 64 46 65 39 66 45 67
REMARK SMILES IDX 47 68 44 69 40 70 41 71 42 72 43 73 69 74 70 75 78 76 71 77
REMARK SMILES IDX 77 78 79 79 76 80 72 81 73 82 74 83 75 84 54 85 55 86 63 87
REMARK SMILES IDX 56 88 62 89 64 90 61 91 57 92 58 93 59 94 60 95
REMARK H PARENT 21 6 14 25 25 29 84 48 52 59
REMARK Flexibility Score: inf
ROOT
ATOM      1  C   UNL A   1      37.350  19.955  24.456  1.00  0.00     0.042 C 
ENDROOT
BRANCH   1   2
ATOM      2  C   UNL A   1      36.010  19.485  25.005  1.00  0.00     0.117 C 
BRANCH   2   3
ATOM      3  N   UNL A   1      35.023  20.543  25.066  1.00  0.00    -0.356 N 
ATOM      4  O   UNL A   1      33.233  19.185  24.584  1.00  0.00    -0.275 OA
ATOM      5  C   UNL A   1      33.681  20.282  24.898  1.00  0.00     0.220 C 
ATOM      6  H   UNL A   1      35.317  21.469  25.231  1.00  0.00     0.163 HD
BRANCH   5   7
ATOM      7  C   UNL A   1      32.792  21.467  25.212  1.00  0.00     0.103 C 
BRANCH   7   8
ATOM      8  C   UNL A   1      31.889  21.933  24.046  1.00  0.00     0.002 C 
ATOM      9  C   UNL A   1      32.711  22.148  22.763  1.00  0.00     0.026 C 
ATOM     10  C   UNL A   1      31.021  23.181  24.281  1.00  0.00     0.026 C 
ATOM     11  C   UNL A   1      33.519  23.444  22.805  1.00  0.00     0.120 C 
ATOM     12  C   UNL A   1      31.794  24.497  24.259  1.00  0.00     0.120 C 
ATOM     13  N   UNL A   1      32.682  24.602  23.100  1.00  0.00    -0.339 N 
ATOM     14  C   UNL A   1      32.861  25.763  22.345  1.00  0.00     0.253 C 
ATOM     15  O   UNL A   1      33.521  25.807  21.311  1.00  0.00    -0.269 OA
BRANCH  14  16
ATOM     16  C   UNL A   1      32.234  27.018  22.815  1.00  0.00     0.040 A 
ATOM     17  C   UNL A   1      32.910  27.829  23.730  1.00  0.00     0.016 A 
ATOM     18  C   UNL A   1      30.976  27.377  22.311  1.00  0.00     0.024 A 
ATOM     19  C   UNL A   1      32.317  28.998  24.210  1.00  0.00     0.027 A 
ATOM     20  C   UNL A   1      30.365  28.552  22.793  1.00  0.00     0.000 A 
ATOM     21  C   UNL A   1      31.044  29.324  23.735  1.00  0.00     0.045 A 
ATOM     22  C   UNL A   1      29.130  29.207  22.536  1.00  0.00     0.028 A 
ATOM     23  N   UNL A   1      30.242  30.400  24.042  1.00  0.00    -0.361 N 
ATOM     24  C   UNL A   1      29.078  30.335  23.323  1.00  0.00     0.083 A 
ATOM     25  H   UNL A   1      30.472  31.110  24.683  1.00  0.00     0.166 HD
ENDBRANCH  14  16
ENDBRANCH   7   8
ENDBRANCH   5   7
ENDBRANCH   2   3
ENDBRANCH   1   2
BRANCH   1  26
ATOM     26  C   UNL A   1      38.239  20.675  25.467  1.00  0.00     0.118 C 
BRANCH  26  27
ATOM     27  N   UNL A   1      39.433  19.924  25.826  1.00  0.00    -0.352 N 
ATOM     28  C   UNL A   1      40.590  20.356  26.435  1.00  0.00     0.251 C 
ATOM     29  H   UNL A   1      39.411  18.966  25.600  1.00  0.00     0.163 HD
ATOM     30  O   UNL A   1      41.556  19.597  26.486  1.00  0.00    -0.269 OA
BRANCH  28  31
ATOM     31  C   UNL A   1      40.704  21.732  26.980  1.00  0.00     0.039 A 
ATOM     32  C   UNL A   1      41.483  21.921  28.126  1.00  0.00     0.014 A 
ATOM     33  C   UNL A   1      40.101  22.831  26.364  1.00  0.00     0.014 A 
ATOM     34  C   UNL A   1      41.777  23.214  28.563  1.00  0.00     0.010 A 
ATOM     35  C   UNL A   1      40.454  24.123  26.754  1.00  0.00     0.010 A 
ATOM     36  C   UNL A   1      41.334  24.324  27.828  1.00  0.00    -0.014 A 
BRANCH  36  37
ATOM     37  C   UNL A   1      41.879  25.681  28.096  1.00  0.00     0.031 A 
ATOM     38  C   UNL A   1      41.040  26.735  28.757  1.00  0.00     0.074 A 
ATOM     39  C   UNL A   1      43.118  25.979  27.650  1.00  0.00     0.049 A 
ATOM     40  N   UNL A   1      41.323  27.992  28.984  1.00  0.00    -0.248 NA
ATOM     41  C   UNL A   1      39.698  26.328  29.195  1.00  0.00     0.031 C 
ATOM     42  C   UNL A   1      44.009  25.047  26.951  1.00  0.00     0.029 A 
ATOM     43  N   UNL A   1      43.842  27.144  27.704  1.00  0.00    -0.354 N 
ATOM     44  C   UNL A   1      40.193  28.532  29.588  1.00  0.00     0.074 A 
ATOM     45  C   UNL A   1      39.204  27.474  29.642  1.00  0.00     0.031 C 
ATOM     46  C   UNL A   1      45.161  25.669  26.663  1.00  0.00     0.029 A 
ATOM     47  C   UNL A   1      45.079  27.056  27.107  1.00  0.00     0.049 A 
ATOM     48  H   UNL A   1      43.507  27.966  28.131  1.00  0.00     0.167 HD
ATOM     49  C   UNL A   1      40.008  29.789  30.064  1.00  0.00     0.034 A 
ATOM     50  C   UNL A   1      46.033  27.987  26.918  1.00  0.00     0.034 A 
ATOM     51  C   UNL A   1      41.006  30.829  29.998  1.00  0.00     0.049 A 
ATOM     52  C   UNL A   1      45.795  29.382  27.434  1.00  0.00     0.074 A 
ATOM     53  C   UNL A   1      40.940  32.123  30.487  1.00  0.00     0.029 A 
ATOM     54  N   UNL A   1      42.252  30.700  29.394  1.00  0.00    -0.354 N 
ATOM     55  N   UNL A   1      44.737  29.864  28.044  1.00  0.00    -0.248 NA
ATOM     56  C   UNL A   1      46.877  30.356  27.243  1.00  0.00     0.031 C 
ATOM     57  C   UNL A   1      42.116  32.791  30.127  1.00  0.00     0.029 A 
ATOM     58  C   UNL A   1      42.948  31.897  29.475  1.00  0.00     0.049 A 
ATOM     59  H   UNL A   1      42.590  29.878  28.971  1.00  0.00     0.167 HD
ATOM     60  C   UNL A   1      45.041  31.188  28.340  1.00  0.00     0.074 A 
ATOM     61  C   UNL A   1      46.381  31.428  27.844  1.00  0.00     0.031 C 
ATOM     62  C   UNL A   1      44.283  32.119  28.972  1.00  0.00     0.034 A 
BRANCH  49  63
ATOM     63  C   UNL A   1      38.662  30.108  30.672  1.00  0.00     0.023 A 
ATOM     64  C   UNL A   1      37.662  30.770  29.939  1.00  0.00     0.031 A 
ATOM     65  C   UNL A   1      38.384  29.771  32.008  1.00  0.00     0.131 A 
ATOM     66  C   UNL A   1      36.464  31.143  30.566  1.00  0.00     0.055 A 
ATOM     67  C   UNL A   1      37.158  30.075  32.605  1.00  0.00     0.041 A 
ATOM     68  F   UNL A   1      39.306  29.154  32.763  1.00  0.00    -0.206 F 
ATOM     69  C   UNL A   1      36.195  30.779  31.887  1.00  0.00     0.022 A 
BRANCH  66  70
ATOM     70  S   UNL A   1      35.324  32.234  29.672  1.00  0.00     0.124 S 
ATOM     71  O   UNL A   1      36.231  33.271  29.184  1.00  0.00    -0.237 OA
ATOM     72  O   UNL A   1      34.766  31.346  28.660  1.00  0.00    -0.237 OA
ATOM     73  O   UNL A   1      34.387  32.671  30.706  1.00  0.00    -0.744 OA
ENDBRANCH  66  70
ENDBRANCH  49  63
BRANCH  50  74
ATOM     74  C   UNL A   1      47.293  27.641  26.200  1.00  0.00     0.023 A 
ATOM     75  C   UNL A   1      47.421  27.850  24.819  1.00  0.00     0.031 A 
ATOM     76  C   UNL A   1      48.384  27.074  26.885  1.00  0.00     0.131 A 
ATOM     77  C   UNL A   1      48.594  27.456  24.157  1.00  0.00     0.055 A 
ATOM     78  C   UNL A   1      49.568  26.729  26.232  1.00  0.00     0.041 A 
ATOM     79  F   UNL A   1      48.318  26.863  28.210  1.00  0.00    -0.206 F 
ATOM     80  C   UNL A   1      49.673  26.909  24.856  1.00  0.00     0.022 A 
BRANCH  77  81
ATOM     81  S   UNL A   1      48.662  27.599  22.351  1.00  0.00     0.124 S 
ATOM     82  O   UNL A   1      49.878  28.381  22.161  1.00  0.00    -0.237 OA
ATOM     83  O   UNL A   1      48.727  26.201  21.940  1.00  0.00    -0.237 OA
ATOM     84  O   UNL A   1      47.417  28.288  22.016  1.00  0.00    -0.744 OA
ENDBRANCH  77  81
ENDBRANCH  50  74
BRANCH  62  85
ATOM     85  C   UNL A   1      44.914  33.467  29.210  1.00  0.00     0.023 A 
ATOM     86  C   UNL A   1      44.756  34.530  28.306  1.00  0.00     0.031 A 
ATOM     87  C   UNL A   1      45.683  33.686  30.368  1.00  0.00     0.131 A 
ATOM     88  C   UNL A   1      45.391  35.757  28.555  1.00  0.00     0.055 A 
ATOM     89  C   UNL A   1      46.271  34.921  30.635  1.00  0.00     0.041 A 
ATOM     90  F   UNL A   1      45.866  32.700  31.261  1.00  0.00    -0.206 F 
ATOM     91  C   UNL A   1      46.134  35.963  29.721  1.00  0.00     0.022 A 
BRANCH  88  92
ATOM     92  S   UNL A   1      45.285  37.066  27.304  1.00  0.00     0.124 S 
ATOM     93  O   UNL A   1      43.894  36.961  26.873  1.00  0.00    -0.237 OA
ATOM     94  O   UNL A   1      45.626  38.260  28.070  1.00  0.00    -0.237 OA
ATOM     95  O   UNL A   1      46.275  36.667  26.306  1.00  0.00    -0.744 OA
ENDBRANCH  88  92
ENDBRANCH  62  85
ENDBRANCH  36  37
ENDBRANCH  28  31
ENDBRANCH  26  27
ENDBRANCH   1  26
TORSDOF 15
ENDMDL
MODEL 3
REMARK VINA RESULT:     -12.8      5.709     11.784
REMARK SMILES O=C(CC1CCN(C(=O)c2ccc3[nH]ccc3c2)CC1)NCCCNC(=O)c1ccc(-c2c3nc(c(-c4cc(S(=O)(=O)[O-])ccc4F)c4ccc([nH]4)c(-c4cc(S(=O)(=O)[O-])ccc4F)c4nc(c(-c5cc(S(=O)(=O)[O-])ccc5F)c5ccc2[nH]5)C=C4)C=C3)cc1
REMARK SMILES IDX 23 1 22 2 21 3 1 4 2 5 3 7 4 8 5 9 20 10 6 11 19 12 7 13
REMARK SMILES IDX 8 14 9 15 10 16 11 17 18 18 12 19 17 20 13 21 16 22 14 23
REMARK SMILES IDX 15 24 24 26 25 27 26 28 27 30 28 31 29 32 90 33 30 34 89 35
REMARK SMILES IDX 31 36 32 37 33 38 83 39 34 40 88 41 82 42 84 43 35 44 87 45
REMARK SMILES IDX 81 46 80 47 36 49 68 50 48 51 67 52 49 53 52 54 66 55 85 56
REMARK SMILES IDX 50 57 51 58 65 60 86 61 53 62 37 63 38 64 46 65 39 66 45 67
REMARK SMILES IDX 47 68 44 69 40 70 41 71 42 72 43 73 69 74 70 75 78 76 71 77
REMARK SMILES IDX 77 78 79 79 76 80 72 81 73 82 74 83 75 84 54 85 55 86 63 87
REMARK SMILES IDX 56 88 62 89 64 90 61 91 57 92 58 93 59 94 60 95
REMARK H PARENT 21 6 14 25 25 29 84 48 52 59
REMARK Flexibility Score: inf
ROOT
ATOM      1  C   UNL A   1      38.139  21.376  24.976  1.00  0.00     0.042 C 
ENDROOT
BRANCH   1   2
ATOM      2  C   UNL A   1      36.893  20.504  25.037  1.00  0.00     0.117 C 
BRANCH   2   3
ATOM      3  N   UNL A   1      35.678  21.269  25.228  1.00  0.00    -0.356 N 
ATOM      4  O   UNL A   1      34.261  19.564  24.624  1.00  0.00    -0.275 OA
ATOM      5  C   UNL A   1      34.436  20.700  25.051  1.00  0.00     0.220 C 
ATOM      6  H   UNL A   1      35.740  22.217  25.491  1.00  0.00     0.163 HD
BRANCH   5   7
ATOM      7  C   UNL A   1      33.295  21.584  25.507  1.00  0.00     0.103 C 
BRANCH   7   8
ATOM      8  C   UNL A   1      32.256  21.925  24.413  1.00  0.00     0.002 C 
ATOM      9  C   UNL A   1      32.927  22.060  23.035  1.00  0.00     0.026 C 
ATOM     10  C   UNL A   1      31.368  23.159  24.643  1.00  0.00     0.026 C 
ATOM     11  C   UNL A   1      33.683  23.380  22.887  1.00  0.00     0.120 C 
ATOM     12  C   UNL A   1      32.081  24.493  24.434  1.00  0.00     0.120 C 
ATOM     13  N   UNL A   1      32.836  24.531  23.181  1.00  0.00    -0.339 N 
ATOM     14  C   UNL A   1      32.887  25.632  22.323  1.00  0.00     0.253 C 
ATOM     15  O   UNL A   1      33.431  25.612  21.222  1.00  0.00    -0.269 OA
BRANCH  14  16
ATOM     16  C   UNL A   1      32.263  26.900  22.759  1.00  0.00     0.040 A 
ATOM     17  C   UNL A   1      32.982  27.784  23.567  1.00  0.00     0.016 A 
ATOM     18  C   UNL A   1      30.961  27.198  22.330  1.00  0.00     0.024 A 
ATOM     19  C   UNL A   1      32.396  28.968  24.016  1.00  0.00     0.027 A 
ATOM     20  C   UNL A   1      30.357  28.388  22.782  1.00  0.00     0.000 A 
ATOM     21  C   UNL A   1      31.083  29.234  23.620  1.00  0.00     0.045 A 
ATOM     22  C   UNL A   1      29.089  28.998  22.579  1.00  0.00     0.028 A 
ATOM     23  N   UNL A   1      30.278  30.310  23.918  1.00  0.00    -0.361 N 
ATOM     24  C   UNL A   1      29.065  30.172  23.296  1.00  0.00     0.083 A 
ATOM     25  H   UNL A   1      30.535  31.065  24.494  1.00  0.00     0.166 HD
ENDBRANCH  14  16
ENDBRANCH   7   8
ENDBRANCH   5   7
ENDBRANCH   2   3
ENDBRANCH   1   2
BRANCH   1  26
ATOM     26  C   UNL A   1      39.100  21.201  26.150  1.00  0.00     0.118 C 
BRANCH  26  27
ATOM     27  N   UNL A   1      39.889  19.981  26.075  1.00  0.00    -0.352 N 
ATOM     28  C   UNL A   1      41.256  19.816  26.129  1.00  0.00     0.251 C 
ATOM     29  H   UNL A   1      39.371  19.150  25.968  1.00  0.00     0.163 HD
ATOM     30  O   UNL A   1      41.734  18.714  25.863  1.00  0.00    -0.269 OA
BRANCH  28  31
ATOM     31  C   UNL A   1      42.154  20.952  26.448  1.00  0.00     0.039 A 
ATOM     32  C   UNL A   1      42.608  21.748  25.391  1.00  0.00     0.014 A 
ATOM     33  C   UNL A   1      42.518  21.270  27.759  1.00  0.00     0.014 A 
ATOM     34  C   UNL A   1      43.294  22.934  25.656  1.00  0.00     0.010 A 
ATOM     35  C   UNL A   1      43.137  22.491  28.029  1.00  0.00     0.010 A 
ATOM     36  C   UNL A   1      43.488  23.356  26.981  1.00  0.00    -0.014 A 
BRANCH  36  37
ATOM     37  C   UNL A   1      43.938  24.740  27.281  1.00  0.00     0.031 A 
ATOM     38  C   UNL A   1      42.977  25.772  27.795  1.00  0.00     0.074 A 
ATOM     39  C   UNL A   1      45.213  25.081  26.998  1.00  0.00     0.049 A 
ATOM     40  N   UNL A   1      43.178  27.045  28.023  1.00  0.00    -0.248 NA
ATOM     41  C   UNL A   1      41.606  25.318  28.061  1.00  0.00     0.031 C 
ATOM     42  C   UNL A   1      46.226  24.172  26.449  1.00  0.00     0.029 A 
ATOM     43  N   UNL A   1      45.878  26.276  27.116  1.00  0.00    -0.354 N 
ATOM     44  C   UNL A   1      41.957  27.550  28.455  1.00  0.00     0.074 A 
ATOM     45  C   UNL A   1      41.012  26.452  28.406  1.00  0.00     0.031 C 
ATOM     46  C   UNL A   1      47.382  24.836  26.301  1.00  0.00     0.029 A 
ATOM     47  C   UNL A   1      47.186  26.227  26.691  1.00  0.00     0.049 A 
ATOM     48  H   UNL A   1      45.457  27.092  27.471  1.00  0.00     0.167 HD
ATOM     49  C   UNL A   1      41.660  28.808  28.868  1.00  0.00     0.034 A 
ATOM     50  C   UNL A   1      48.120  27.194  26.606  1.00  0.00     0.034 A 
ATOM     51  C   UNL A   1      42.617  29.888  28.907  1.00  0.00     0.049 A 
ATOM     52  C   UNL A   1      47.760  28.589  27.047  1.00  0.00     0.074 A 
ATOM     53  C   UNL A   1      42.435  31.188  29.347  1.00  0.00     0.029 A 
ATOM     54  N   UNL A   1      43.936  29.798  28.479  1.00  0.00    -0.354 N 
ATOM     55  N   UNL A   1      46.611  29.038  27.497  1.00  0.00    -0.248 NA
ATOM     56  C   UNL A   1      48.819  29.603  26.975  1.00  0.00     0.031 C 
ATOM     57  C   UNL A   1      43.621  31.897  29.129  1.00  0.00     0.029 A 
ATOM     58  C   UNL A   1      44.569  31.025  28.619  1.00  0.00     0.049 A 
ATOM     59  H   UNL A   1      44.361  28.982  28.128  1.00  0.00     0.167 HD
ATOM     60  C   UNL A   1      46.821  30.380  27.793  1.00  0.00     0.074 A 
ATOM     61  C   UNL A   1      48.205  30.666  27.475  1.00  0.00     0.031 C 
ATOM     62  C   UNL A   1      45.949  31.292  28.292  1.00  0.00     0.034 A 
BRANCH  49  63
ATOM     63  C   UNL A   1      40.234  29.082  29.281  1.00  0.00     0.023 A 
ATOM     64  C   UNL A   1      39.844  29.074  30.632  1.00  0.00     0.031 A 
ATOM     65  C   UNL A   1      39.244  29.327  28.313  1.00  0.00     0.131 A 
ATOM     66  C   UNL A   1      38.492  29.228  30.972  1.00  0.00     0.055 A 
ATOM     67  C   UNL A   1      37.912  29.559  28.663  1.00  0.00     0.041 A 
ATOM     68  F   UNL A   1      39.552  29.330  27.006  1.00  0.00    -0.206 F 
ATOM     69  C   UNL A   1      37.526  29.494  29.999  1.00  0.00     0.022 A 
BRANCH  66  70
ATOM     70  S   UNL A   1      37.995  28.933  32.692  1.00  0.00     0.124 S 
ATOM     71  O   UNL A   1      38.108  27.480  32.786  1.00  0.00    -0.237 OA
ATOM     72  O   UNL A   1      38.983  29.700  33.442  1.00  0.00    -0.237 OA
ATOM     73  O   UNL A   1      36.629  29.451  32.747  1.00  0.00    -0.744 OA
ENDBRANCH  66  70
ENDBRANCH  49  63
BRANCH  50  74
ATOM     74  C   UNL A   1      49.478  26.886  26.074  1.00  0.00     0.023 A 
ATOM     75  C   UNL A   1      49.836  27.227  24.761  1.00  0.00     0.031 A 
ATOM     76  C   UNL A   1      50.433  26.223  26.866  1.00  0.00     0.131 A 
ATOM     77  C   UNL A   1      51.098  26.869  24.263  1.00  0.00     0.055 A 
ATOM     78  C   UNL A   1      51.706  25.912  26.384  1.00  0.00     0.041 A 
ATOM     79  F   UNL A   1      50.146  25.882  28.133  1.00  0.00    -0.206 F 
ATOM     80  C   UNL A   1      52.040  26.225  25.070  1.00  0.00     0.022 A 
BRANCH  77  81
ATOM     81  S   UNL A   1      51.467  27.189  22.517  1.00  0.00     0.124 S 
ATOM     82  O   UNL A   1      50.289  26.637  21.858  1.00  0.00    -0.237 OA
ATOM     83  O   UNL A   1      51.591  28.643  22.497  1.00  0.00    -0.237 OA
ATOM     84  O   UNL A   1      52.711  26.456  22.292  1.00  0.00    -0.744 OA
ENDBRANCH  77  81
ENDBRANCH  50  74
BRANCH  62  85
ATOM     85  C   UNL A   1      46.490  32.671  28.576  1.00  0.00     0.023 A 
ATOM     86  C   UNL A   1      46.482  33.684  27.604  1.00  0.00     0.031 A 
ATOM     87  C   UNL A   1      47.015  32.969  29.846  1.00  0.00     0.131 A 
ATOM     88  C   UNL A   1      47.027  34.942  27.905  1.00  0.00     0.055 A 
ATOM     89  C   UNL A   1      47.510  34.236  30.155  1.00  0.00     0.041 A 
ATOM     90  F   UNL A   1      47.047  32.034  30.808  1.00  0.00    -0.206 F 
ATOM     91  C   UNL A   1      47.526  35.229  29.179  1.00  0.00     0.022 A 
BRANCH  88  92
ATOM     92  S   UNL A   1      47.131  36.187  26.590  1.00  0.00     0.124 S 
ATOM     93  O   UNL A   1      48.146  37.096  27.113  1.00  0.00    -0.237 OA
ATOM     94  O   UNL A   1      47.525  35.389  25.434  1.00  0.00    -0.237 OA
ATOM     95  O   UNL A   1      45.778  36.736  26.529  1.00  0.00    -0.744 OA
ENDBRANCH  88  92
ENDBRANCH  62  85
ENDBRANCH  36  37
ENDBRANCH  28  31
ENDBRANCH  26  27
ENDBRANCH   1  26
TORSDOF 15
ENDMDL
