MODEL 1
REMARK VINA RESULT:     -10.7      0.000      0.000
REMARK SMILES C[C@@H]1CC[C@@H](C(=O)NCCCNC(=O)c2ccc(-c3c4nc(c(-c5cc(S(=O)(=O)[O-])ccc5F)c5ccc([nH]5)c(-c5cc(S(=O)(=O)[O-])ccc5F)c5nc(c(-c6cc(S(=O)(=O)[O-])ccc6F)c6ccc3[nH]6)C=C5)C=C4)cc2)[C@H](SCC[NH+](C)C)C1
REMARK SMILES IDX 9 1 8 2 6 3 7 4 5 6 1 7 2 8 3 9 85 10 4 11 78 12 79 13 80 14
REMARK SMILES IDX 81 15 82 16 83 17 84 18 10 20 11 21 12 22 13 23 14 25 15 26
REMARK SMILES IDX 16 27 77 28 17 29 76 30 18 31 19 32 20 33 70 34 21 35 75 36
REMARK SMILES IDX 69 37 71 38 22 39 74 40 68 41 67 42 23 44 55 45 35 46 54 47
REMARK SMILES IDX 36 48 39 49 53 50 72 51 37 52 38 53 52 55 73 56 40 57 24 58
REMARK SMILES IDX 25 59 33 60 26 61 32 62 34 63 31 64 27 65 28 66 29 67 30 68
REMARK SMILES IDX 56 69 57 70 65 71 58 72 64 73 66 74 63 75 59 76 60 77 61 78
REMARK SMILES IDX 62 79 41 80 42 81 50 82 43 83 49 84 51 85 48 86 44 87 45 88
REMARK SMILES IDX 46 89 47 90
REMARK H PARENT 8 5 82 19 12 24 71 43 39 54
REMARK Flexibility Score: inf
ROOT
ATOM      1  C   UNL A   1      32.176  27.869  27.368  1.00  0.00     0.117 C 
ENDROOT
BRANCH   1   2
ATOM      2  N   UNL A   1      31.042  27.019  27.091  1.00  0.00    -0.356 N 
ATOM      3  C   UNL A   1      30.753  26.196  26.060  1.00  0.00     0.224 C 
ATOM      4  O   UNL A   1      29.701  25.557  26.174  1.00  0.00    -0.275 OA
ATOM      5  H   UNL A   1      30.348  27.043  27.788  1.00  0.00     0.163 HD
BRANCH   3   6
ATOM      6  C   UNL A   1      31.615  26.113  24.777  1.00  0.00     0.091 C 
ATOM      7  C   UNL A   1      32.169  22.359  23.110  1.00  0.00     0.007 C 
ATOM      8  C   UNL A   1      31.383  23.154  24.154  1.00  0.00    -0.013 C 
ATOM      9  C   UNL A   1      30.384  24.153  23.539  1.00  0.00     0.004 C 
ATOM     10  C   UNL A   1      32.325  23.696  25.228  1.00  0.00     0.018 C 
ATOM     11  C   UNL A   1      30.580  25.663  23.737  1.00  0.00     0.015 C 
ATOM     12  C   UNL A   1      32.799  25.147  25.037  1.00  0.00     0.059 C 
BRANCH  12  13
ATOM     13  S   UNL A   1      34.549  25.077  24.317  1.00  0.00    -0.152 SA
BRANCH  13  14
ATOM     14  C   UNL A   1      35.650  23.803  25.060  1.00  0.00     0.131 C 
BRANCH  14  15
ATOM     15  C   UNL A   1      35.749  22.417  24.334  1.00  0.00     0.272 C 
BRANCH  15  16
ATOM     16  N   UNL A   1      35.832  21.187  25.152  1.00  0.00    -0.339 N 
ATOM     17  C   UNL A   1      34.701  20.278  24.938  1.00  0.00     0.332 C 
ATOM     18  C   UNL A   1      37.076  20.493  24.944  1.00  0.00     0.332 C 
ATOM     19  H   UNL A   1      35.790  21.498  26.122  1.00  0.00     0.347 HD
ENDBRANCH  15  16
ENDBRANCH  14  15
ENDBRANCH  13  14
ENDBRANCH  12  13
ENDBRANCH   3   6
ENDBRANCH   1   2
BRANCH   1  20
ATOM     20  C   UNL A   1      31.885  29.349  27.139  1.00  0.00     0.042 C 
BRANCH  20  21
ATOM     21  C   UNL A   1      33.004  30.155  26.478  1.00  0.00     0.118 C 
BRANCH  21  22
ATOM     22  N   UNL A   1      33.035  31.554  26.879  1.00  0.00    -0.352 N 
ATOM     23  C   UNL A   1      33.914  32.243  27.682  1.00  0.00     0.251 C 
ATOM     24  H   UNL A   1      32.303  32.101  26.512  1.00  0.00     0.163 HD
ATOM     25  O   UNL A   1      33.652  33.400  27.992  1.00  0.00    -0.269 OA
BRANCH  23  26
ATOM     26  C   UNL A   1      35.143  31.597  28.197  1.00  0.00     0.039 A 
ATOM     27  C   UNL A   1      36.330  32.335  28.212  1.00  0.00     0.014 A 
ATOM     28  C   UNL A   1      35.144  30.272  28.639  1.00  0.00     0.014 A 
ATOM     29  C   UNL A   1      37.496  31.769  28.737  1.00  0.00     0.010 A 
ATOM     30  C   UNL A   1      36.285  29.739  29.238  1.00  0.00     0.010 A 
ATOM     31  C   UNL A   1      37.475  30.481  29.295  1.00  0.00    -0.014 A 
BRANCH  31  32
ATOM     32  C   UNL A   1      38.687  29.904  29.941  1.00  0.00     0.031 A 
ATOM     33  C   UNL A   1      39.122  30.373  31.303  1.00  0.00     0.074 A 
ATOM     34  C   UNL A   1      39.423  28.990  29.276  1.00  0.00     0.049 A 
ATOM     35  N   UNL A   1      40.169  30.021  32.005  1.00  0.00    -0.248 NA
ATOM     36  C   UNL A   1      38.282  31.393  31.950  1.00  0.00     0.031 C 
ATOM     37  C   UNL A   1      39.129  28.486  27.932  1.00  0.00     0.029 A 
ATOM     38  N   UNL A   1      40.567  28.321  29.633  1.00  0.00    -0.354 N 
ATOM     39  C   UNL A   1      40.121  30.782  33.170  1.00  0.00     0.074 A 
ATOM     40  C   UNL A   1      38.979  31.662  33.044  1.00  0.00     0.031 C 
ATOM     41  C   UNL A   1      40.046  27.566  27.595  1.00  0.00     0.029 A 
ATOM     42  C   UNL A   1      41.023  27.446  28.673  1.00  0.00     0.049 A 
ATOM     43  H   UNL A   1      41.020  28.454  30.497  1.00  0.00     0.167 HD
ATOM     44  C   UNL A   1      40.938  30.732  34.251  1.00  0.00     0.034 A 
ATOM     45  C   UNL A   1      42.109  26.647  28.654  1.00  0.00     0.034 A 
ATOM     46  C   UNL A   1      42.069  29.843  34.361  1.00  0.00     0.049 A 
ATOM     47  C   UNL A   1      43.018  26.630  29.857  1.00  0.00     0.074 A 
ATOM     48  C   UNL A   1      42.935  29.678  35.429  1.00  0.00     0.029 A 
ATOM     49  N   UNL A   1      42.503  28.977  33.365  1.00  0.00    -0.354 N 
ATOM     50  N   UNL A   1      42.929  27.320  30.972  1.00  0.00    -0.248 NA
ATOM     51  C   UNL A   1      44.167  25.717  29.806  1.00  0.00     0.031 C 
ATOM     52  C   UNL A   1      43.932  28.772  35.052  1.00  0.00     0.029 A 
ATOM     53  C   UNL A   1      43.639  28.299  33.782  1.00  0.00     0.049 A 
ATOM     54  H   UNL A   1      42.067  28.860  32.491  1.00  0.00     0.167 HD
ATOM     55  C   UNL A   1      43.986  26.891  31.769  1.00  0.00     0.074 A 
ATOM     56  C   UNL A   1      44.692  25.878  31.012  1.00  0.00     0.031 C 
ATOM     57  C   UNL A   1      44.339  27.293  33.017  1.00  0.00     0.034 A 
BRANCH  44  58
ATOM     58  C   UNL A   1      40.647  31.686  35.389  1.00  0.00     0.023 A 
ATOM     59  C   UNL A   1      39.523  31.527  36.218  1.00  0.00     0.031 A 
ATOM     60  C   UNL A   1      41.493  32.782  35.636  1.00  0.00     0.131 A 
ATOM     61  C   UNL A   1      39.230  32.489  37.198  1.00  0.00     0.055 A 
ATOM     62  C   UNL A   1      41.246  33.685  36.671  1.00  0.00     0.041 A 
ATOM     63  F   UNL A   1      42.570  33.001  34.867  1.00  0.00    -0.206 F 
ATOM     64  C   UNL A   1      40.099  33.552  37.449  1.00  0.00     0.022 A 
BRANCH  61  65
ATOM     65  S   UNL A   1      37.621  32.414  38.030  1.00  0.00     0.124 S 
ATOM     66  O   UNL A   1      36.762  33.110  37.075  1.00  0.00    -0.237 OA
ATOM     67  O   UNL A   1      37.400  30.979  38.161  1.00  0.00    -0.237 OA
ATOM     68  O   UNL A   1      37.851  33.128  39.285  1.00  0.00    -0.744 OA
ENDBRANCH  61  65
ENDBRANCH  44  58
BRANCH  45  69
ATOM     69  C   UNL A   1      42.404  25.799  27.463  1.00  0.00     0.023 A 
ATOM     70  C   UNL A   1      41.956  24.470  27.388  1.00  0.00     0.031 A 
ATOM     71  C   UNL A   1      43.182  26.289  26.398  1.00  0.00     0.131 A 
ATOM     72  C   UNL A   1      42.330  23.663  26.303  1.00  0.00     0.055 A 
ATOM     73  C   UNL A   1      43.500  25.501  25.291  1.00  0.00     0.041 A 
ATOM     74  F   UNL A   1      43.636  27.553  26.414  1.00  0.00    -0.206 F 
ATOM     75  C   UNL A   1      43.086  24.174  25.246  1.00  0.00     0.022 A 
BRANCH  72  76
ATOM     76  S   UNL A   1      41.897  21.902  26.339  1.00  0.00     0.124 S 
ATOM     77  O   UNL A   1      42.746  21.366  25.282  1.00  0.00    -0.237 OA
ATOM     78  O   UNL A   1      42.257  21.530  27.704  1.00  0.00    -0.237 OA
ATOM     79  O   UNL A   1      40.463  21.898  26.052  1.00  0.00    -0.744 OA
ENDBRANCH  72  76
ENDBRANCH  45  69
BRANCH  57  80
ATOM     80  C   UNL A   1      45.507  26.587  33.667  1.00  0.00     0.023 A 
ATOM     81  C   UNL A   1      45.339  25.432  34.450  1.00  0.00     0.031 A 
ATOM     82  C   UNL A   1      46.810  27.092  33.506  1.00  0.00     0.131 A 
ATOM     83  C   UNL A   1      46.446  24.857  35.092  1.00  0.00     0.055 A 
ATOM     84  C   UNL A   1      47.917  26.475  34.089  1.00  0.00     0.041 A 
ATOM     85  F   UNL A   1      47.030  28.195  32.772  1.00  0.00    -0.206 F 
ATOM     86  C   UNL A   1      47.737  25.360  34.900  1.00  0.00     0.022 A 
BRANCH  83  87
ATOM     87  S   UNL A   1      46.167  23.506  36.269  1.00  0.00     0.124 S 
ATOM     88  O   UNL A   1      47.476  22.860  36.305  1.00  0.00    -0.237 OA
ATOM     89  O   UNL A   1      45.775  24.220  37.479  1.00  0.00    -0.237 OA
ATOM     90  O   UNL A   1      45.105  22.719  35.643  1.00  0.00    -0.744 OA
ENDBRANCH  83  87
ENDBRANCH  57  80
ENDBRANCH  31  32
ENDBRANCH  23  26
ENDBRANCH  21  22
ENDBRANCH  20  21
ENDBRANCH   1  20
TORSDOF 17
ENDMDL
MODEL 2
REMARK VINA RESULT:     -10.6      4.885     10.250
REMARK SMILES C[C@@H]1CC[C@@H](C(=O)NCCCNC(=O)c2ccc(-c3c4nc(c(-c5cc(S(=O)(=O)[O-])ccc5F)c5ccc([nH]5)c(-c5cc(S(=O)(=O)[O-])ccc5F)c5nc(c(-c6cc(S(=O)(=O)[O-])ccc6F)c6ccc3[nH]6)C=C5)C=C4)cc2)[C@H](SCC[NH+](C)C)C1
REMARK SMILES IDX 9 1 8 2 6 3 7 4 5 6 1 7 2 8 3 9 85 10 4 11 78 12 79 13 80 14
REMARK SMILES IDX 81 15 82 16 83 17 84 18 10 20 11 21 12 22 13 23 14 25 15 26
REMARK SMILES IDX 16 27 77 28 17 29 76 30 18 31 19 32 20 33 70 34 21 35 75 36
REMARK SMILES IDX 69 37 71 38 22 39 74 40 68 41 67 42 23 44 55 45 35 46 54 47
REMARK SMILES IDX 36 48 39 49 53 50 72 51 37 52 38 53 52 55 73 56 40 57 24 58
REMARK SMILES IDX 25 59 33 60 26 61 32 62 34 63 31 64 27 65 28 66 29 67 30 68
REMARK SMILES IDX 56 69 57 70 65 71 58 72 64 73 66 74 63 75 59 76 60 77 61 78
REMARK SMILES IDX 62 79 41 80 42 81 50 82 43 83 49 84 51 85 48 86 44 87 45 88
REMARK SMILES IDX 46 89 47 90
REMARK H PARENT 8 5 82 19 12 24 71 43 39 54
REMARK Flexibility Score: inf
ROOT
ATOM      1  C   UNL A   1      33.877  22.204  25.655  1.00  0.00     0.117 C 
ENDROOT
BRANCH   1   2
ATOM      2  N   UNL A   1      32.902  22.885  26.474  1.00  0.00    -0.356 N 
ATOM      3  C   UNL A   1      32.153  23.990  26.268  1.00  0.00     0.224 C 
ATOM      4  O   UNL A   1      31.358  24.265  27.173  1.00  0.00    -0.275 OA
ATOM      5  H   UNL A   1      32.754  22.462  27.351  1.00  0.00     0.163 HD
BRANCH   3   6
ATOM      6  C   UNL A   1      32.326  24.910  25.035  1.00  0.00     0.091 C 
ATOM      7  C   UNL A   1      32.336  28.999  25.715  1.00  0.00     0.007 C 
ATOM      8  C   UNL A   1      32.385  27.625  26.386  1.00  0.00    -0.013 C 
ATOM      9  C   UNL A   1      33.699  26.864  26.127  1.00  0.00     0.004 C 
ATOM     10  C   UNL A   1      31.086  26.863  26.130  1.00  0.00     0.018 C 
ATOM     11  C   UNL A   1      33.688  25.556  25.320  1.00  0.00     0.015 C 
ATOM     12  C   UNL A   1      31.109  25.868  24.957  1.00  0.00     0.059 C 
BRANCH  12  13
ATOM     13  S   UNL A   1      30.261  26.709  23.488  1.00  0.00    -0.152 SA
BRANCH  13  14
ATOM     14  C   UNL A   1      28.459  27.019  23.698  1.00  0.00     0.131 C 
BRANCH  14  15
ATOM     15  C   UNL A   1      27.883  28.363  23.134  1.00  0.00     0.272 C 
BRANCH  15  16
ATOM     16  N   UNL A   1      28.807  29.319  22.482  1.00  0.00    -0.339 N 
ATOM     17  C   UNL A   1      28.139  30.188  21.507  1.00  0.00     0.332 C 
ATOM     18  C   UNL A   1      29.522  30.110  23.449  1.00  0.00     0.332 C 
ATOM     19  H   UNL A   1      29.476  28.747  21.968  1.00  0.00     0.347 HD
ENDBRANCH  15  16
ENDBRANCH  14  15
ENDBRANCH  13  14
ENDBRANCH  12  13
ENDBRANCH   3   6
ENDBRANCH   1   2
BRANCH   1  20
ATOM     20  C   UNL A   1      35.184  21.924  26.390  1.00  0.00     0.042 C 
BRANCH  20  21
ATOM     21  C   UNL A   1      36.463  22.343  25.662  1.00  0.00     0.118 C 
BRANCH  21  22
ATOM     22  N   UNL A   1      37.549  21.381  25.782  1.00  0.00    -0.352 N 
ATOM     23  C   UNL A   1      38.864  21.547  26.149  1.00  0.00     0.251 C 
ATOM     24  H   UNL A   1      37.300  20.453  25.565  1.00  0.00     0.163 HD
ATOM     25  O   UNL A   1      39.634  20.600  26.039  1.00  0.00    -0.269 OA
BRANCH  23  26
ATOM     26  C   UNL A   1      39.360  22.855  26.636  1.00  0.00     0.039 A 
ATOM     27  C   UNL A   1      40.371  22.868  27.603  1.00  0.00     0.014 A 
ATOM     28  C   UNL A   1      38.826  24.060  26.174  1.00  0.00     0.014 A 
ATOM     29  C   UNL A   1      40.894  24.086  28.047  1.00  0.00     0.010 A 
ATOM     30  C   UNL A   1      39.405  25.270  26.557  1.00  0.00     0.010 A 
ATOM     31  C   UNL A   1      40.446  25.298  27.497  1.00  0.00    -0.014 A 
BRANCH  31  32
ATOM     32  C   UNL A   1      41.060  26.595  27.895  1.00  0.00     0.031 A 
ATOM     33  C   UNL A   1      42.500  26.890  27.568  1.00  0.00     0.074 A 
ATOM     34  C   UNL A   1      40.332  27.489  28.595  1.00  0.00     0.049 A 
ATOM     35  N   UNL A   1      43.219  27.942  27.869  1.00  0.00    -0.248 NA
ATOM     36  C   UNL A   1      43.235  25.853  26.828  1.00  0.00     0.031 C 
ATOM     37  C   UNL A   1      38.939  27.301  29.011  1.00  0.00     0.029 A 
ATOM     38  N   UNL A   1      40.655  28.730  29.083  1.00  0.00    -0.354 N 
ATOM     39  C   UNL A   1      44.492  27.690  27.365  1.00  0.00     0.074 A 
ATOM     40  C   UNL A   1      44.459  26.357  26.801  1.00  0.00     0.031 C 
ATOM     41  C   UNL A   1      38.520  28.399  29.658  1.00  0.00     0.029 A 
ATOM     42  C   UNL A   1      39.622  29.351  29.751  1.00  0.00     0.049 A 
ATOM     43  H   UNL A   1      41.542  29.140  28.967  1.00  0.00     0.167 HD
ATOM     44  C   UNL A   1      45.576  28.504  27.351  1.00  0.00     0.034 A 
ATOM     45  C   UNL A   1      39.570  30.544  30.377  1.00  0.00     0.034 A 
ATOM     46  C   UNL A   1      45.588  29.833  27.913  1.00  0.00     0.049 A 
ATOM     47  C   UNL A   1      40.798  31.420  30.373  1.00  0.00     0.074 A 
ATOM     48  C   UNL A   1      46.617  30.760  27.913  1.00  0.00     0.029 A 
ATOM     49  N   UNL A   1      44.525  30.424  28.586  1.00  0.00    -0.354 N 
ATOM     50  N   UNL A   1      41.979  31.187  29.847  1.00  0.00    -0.248 NA
ATOM     51  C   UNL A   1      40.683  32.726  31.034  1.00  0.00     0.031 C 
ATOM     52  C   UNL A   1      46.205  31.875  28.649  1.00  0.00     0.029 A 
ATOM     53  C   UNL A   1      44.886  31.688  29.031  1.00  0.00     0.049 A 
ATOM     54  H   UNL A   1      43.646  30.007  28.726  1.00  0.00     0.167 HD
ATOM     55  C   UNL A   1      42.732  32.335  30.079  1.00  0.00     0.074 A 
ATOM     56  C   UNL A   1      41.868  33.261  30.782  1.00  0.00     0.031 C 
ATOM     57  C   UNL A   1      44.018  32.603  29.736  1.00  0.00     0.034 A 
BRANCH  44  58
ATOM     58  C   UNL A   1      46.845  27.964  26.730  1.00  0.00     0.023 A 
ATOM     59  C   UNL A   1      47.115  28.106  25.358  1.00  0.00     0.031 A 
ATOM     60  C   UNL A   1      47.790  27.278  27.515  1.00  0.00     0.131 A 
ATOM     61  C   UNL A   1      48.254  27.505  24.799  1.00  0.00     0.055 A 
ATOM     62  C   UNL A   1      48.965  26.760  26.969  1.00  0.00     0.041 A 
ATOM     63  F   UNL A   1      47.580  27.090  28.827  1.00  0.00    -0.206 F 
ATOM     64  C   UNL A   1      49.195  26.856  25.600  1.00  0.00     0.022 A 
BRANCH  61  65
ATOM     65  S   UNL A   1      48.404  27.449  22.992  1.00  0.00     0.124 S 
ATOM     66  O   UNL A   1      48.309  26.014  22.733  1.00  0.00    -0.237 OA
ATOM     67  O   UNL A   1      47.270  28.253  22.556  1.00  0.00    -0.237 OA
ATOM     68  O   UNL A   1      49.720  28.033  22.739  1.00  0.00    -0.744 OA
ENDBRANCH  61  65
ENDBRANCH  44  58
BRANCH  45  69
ATOM     69  C   UNL A   1      38.321  30.986  31.061  1.00  0.00     0.023 A 
ATOM     70  C   UNL A   1      37.287  31.618  30.350  1.00  0.00     0.031 A 
ATOM     71  C   UNL A   1      38.160  30.827  32.450  1.00  0.00     0.131 A 
ATOM     72  C   UNL A   1      36.165  32.111  31.034  1.00  0.00     0.055 A 
ATOM     73  C   UNL A   1      37.015  31.265  33.116  1.00  0.00     0.041 A 
ATOM     74  F   UNL A   1      39.115  30.228  33.180  1.00  0.00    -0.206 F 
ATOM     75  C   UNL A   1      36.015  31.926  32.410  1.00  0.00     0.022 A 
BRANCH  72  76
ATOM     76  S   UNL A   1      34.948  33.091  30.113  1.00  0.00     0.124 S 
ATOM     77  O   UNL A   1      34.033  33.499  31.173  1.00  0.00    -0.237 OA
ATOM     78  O   UNL A   1      35.779  34.145  29.539  1.00  0.00    -0.237 OA
ATOM     79  O   UNL A   1      34.402  32.136  29.149  1.00  0.00    -0.744 OA
ENDBRANCH  72  76
ENDBRANCH  45  69
BRANCH  57  80
ATOM     80  C   UNL A   1      44.548  33.980  30.063  1.00  0.00     0.023 A 
ATOM     81  C   UNL A   1      44.414  35.062  29.176  1.00  0.00     0.031 A 
ATOM     82  C   UNL A   1      45.211  34.206  31.283  1.00  0.00     0.131 A 
ATOM     83  C   UNL A   1      44.988  36.302  29.494  1.00  0.00     0.055 A 
ATOM     84  C   UNL A   1      45.718  35.460  31.626  1.00  0.00     0.041 A 
ATOM     85  F   UNL A   1      45.373  33.208  32.168  1.00  0.00    -0.206 F 
ATOM     86  C   UNL A   1      45.622  36.512  30.722  1.00  0.00     0.022 A 
BRANCH  83  87
ATOM     87  S   UNL A   1      44.990  37.610  28.238  1.00  0.00     0.124 S 
ATOM     88  O   UNL A   1      44.624  38.784  29.023  1.00  0.00    -0.237 OA
ATOM     89  O   UNL A   1      46.364  37.573  27.750  1.00  0.00    -0.237 OA
ATOM     90  O   UNL A   1      43.980  37.167  27.278  1.00  0.00    -0.744 OA
ENDBRANCH  83  87
ENDBRANCH  57  80
ENDBRANCH  31  32
ENDBRANCH  23  26
ENDBRANCH  21  22
ENDBRANCH  20  21
ENDBRANCH   1  20
TORSDOF 17
ENDMDL
MODEL 3
REMARK VINA RESULT:     -10.5      5.086     10.197
REMARK SMILES C[C@@H]1CC[C@@H](C(=O)NCCCNC(=O)c2ccc(-c3c4nc(c(-c5cc(S(=O)(=O)[O-])ccc5F)c5ccc([nH]5)c(-c5cc(S(=O)(=O)[O-])ccc5F)c5nc(c(-c6cc(S(=O)(=O)[O-])ccc6F)c6ccc3[nH]6)C=C5)C=C4)cc2)[C@H](SCC[NH+](C)C)C1
REMARK SMILES IDX 9 1 8 2 6 3 7 4 5 6 1 7 2 8 3 9 85 10 4 11 78 12 79 13 80 14
REMARK SMILES IDX 81 15 82 16 83 17 84 18 10 20 11 21 12 22 13 23 14 25 15 26
REMARK SMILES IDX 16 27 77 28 17 29 76 30 18 31 19 32 20 33 70 34 21 35 75 36
REMARK SMILES IDX 69 37 71 38 22 39 74 40 68 41 67 42 23 44 55 45 35 46 54 47
REMARK SMILES IDX 36 48 39 49 53 50 72 51 37 52 38 53 52 55 73 56 40 57 24 58
REMARK SMILES IDX 25 59 33 60 26 61 32 62 34 63 31 64 27 65 28 66 29 67 30 68
REMARK SMILES IDX 56 69 57 70 65 71 58 72 64 73 66 74 63 75 59 76 60 77 61 78
REMARK SMILES IDX 62 79 41 80 42 81 50 82 43 83 49 84 51 85 48 86 44 87 45 88
REMARK SMILES IDX 46 89 47 90
REMARK H PARENT 8 5 82 19 12 24 71 43 39 54
REMARK Flexibility Score: inf
ROOT
ATOM      1  C   UNL A   1      35.693  22.839  23.132  1.00  0.00     0.117 C 
ENDROOT
BRANCH   1   2
ATOM      2  N   UNL A   1      35.101  24.095  23.530  1.00  0.00    -0.356 N 
ATOM      3  C   UNL A   1      33.829  24.454  23.807  1.00  0.00     0.224 C 
ATOM      4  O   UNL A   1      33.680  25.621  24.185  1.00  0.00    -0.275 OA
ATOM      5  H   UNL A   1      35.750  24.831  23.618  1.00  0.00     0.163 HD
BRANCH   3   6
ATOM      6  C   UNL A   1      32.619  23.514  23.587  1.00  0.00     0.091 C 
ATOM      7  C   UNL A   1      30.133  22.838  26.834  1.00  0.00     0.007 C 
ATOM      8  C   UNL A   1      31.288  23.691  26.306  1.00  0.00    -0.013 C 
ATOM      9  C   UNL A   1      30.872  24.655  25.179  1.00  0.00     0.004 C 
ATOM     10  C   UNL A   1      32.516  22.820  26.048  1.00  0.00     0.018 C 
ATOM     11  C   UNL A   1      31.440  24.481  23.762  1.00  0.00     0.015 C 
ATOM     12  C   UNL A   1      32.710  22.343  24.599  1.00  0.00     0.059 C 
BRANCH  12  13
ATOM     13  S   UNL A   1      32.102  20.551  24.510  1.00  0.00    -0.152 SA
BRANCH  13  14
ATOM     14  C   UNL A   1      33.325  19.284  25.043  1.00  0.00     0.131 C 
BRANCH  14  15
ATOM     15  C   UNL A   1      32.795  18.074  25.886  1.00  0.00     0.272 C 
BRANCH  15  16
ATOM     16  N   UNL A   1      33.522  16.786  25.824  1.00  0.00    -0.339 N 
ATOM     17  C   UNL A   1      32.638  15.638  25.598  1.00  0.00     0.332 C 
ATOM     18  C   UNL A   1      34.568  16.813  24.834  1.00  0.00     0.332 C 
ATOM     19  H   UNL A   1      33.946  16.665  26.744  1.00  0.00     0.347 HD
ENDBRANCH  15  16
ENDBRANCH  14  15
ENDBRANCH  13  14
ENDBRANCH  12  13
ENDBRANCH   3   6
ENDBRANCH   1   2
BRANCH   1  20
ATOM     20  C   UNL A   1      37.009  22.546  23.845  1.00  0.00     0.042 C 
BRANCH  20  21
ATOM     21  C   UNL A   1      36.892  22.063  25.292  1.00  0.00     0.118 C 
BRANCH  21  22
ATOM     22  N   UNL A   1      37.881  21.060  25.658  1.00  0.00    -0.352 N 
ATOM     23  C   UNL A   1      39.143  21.190  26.188  1.00  0.00     0.251 C 
ATOM     24  H   UNL A   1      37.598  20.130  25.501  1.00  0.00     0.163 HD
ATOM     25  O   UNL A   1      39.852  20.194  26.282  1.00  0.00    -0.269 OA
BRANCH  23  26
ATOM     26  C   UNL A   1      39.661  22.511  26.610  1.00  0.00     0.039 A 
ATOM     27  C   UNL A   1      40.706  22.555  27.537  1.00  0.00     0.014 A 
ATOM     28  C   UNL A   1      39.114  23.701  26.124  1.00  0.00     0.014 A 
ATOM     29  C   UNL A   1      41.249  23.786  27.918  1.00  0.00     0.010 A 
ATOM     30  C   UNL A   1      39.710  24.922  26.441  1.00  0.00     0.010 A 
ATOM     31  C   UNL A   1      40.785  24.979  27.342  1.00  0.00    -0.014 A 
BRANCH  31  32
ATOM     32  C   UNL A   1      41.418  26.287  27.670  1.00  0.00     0.031 A 
ATOM     33  C   UNL A   1      42.810  26.602  27.194  1.00  0.00     0.074 A 
ATOM     34  C   UNL A   1      40.752  27.173  28.439  1.00  0.00     0.049 A 
ATOM     35  N   UNL A   1      43.541  27.665  27.415  1.00  0.00    -0.248 NA
ATOM     36  C   UNL A   1      43.480  25.573  26.384  1.00  0.00     0.031 C 
ATOM     37  C   UNL A   1      39.414  26.966  28.998  1.00  0.00     0.029 A 
ATOM     38  N   UNL A   1      41.105  28.421  28.888  1.00  0.00    -0.354 N 
ATOM     39  C   UNL A   1      44.758  27.431  26.783  1.00  0.00     0.074 A 
ATOM     40  C   UNL A   1      44.688  26.095  26.229  1.00  0.00     0.031 C 
ATOM     41  C   UNL A   1      39.047  28.061  29.683  1.00  0.00     0.029 A 
ATOM     42  C   UNL A   1      40.139  29.029  29.657  1.00  0.00     0.049 A 
ATOM     43  H   UNL A   1      41.969  28.843  28.678  1.00  0.00     0.167 HD
ATOM     44  C   UNL A   1      45.823  28.261  26.654  1.00  0.00     0.034 A 
ATOM     45  C   UNL A   1      40.134  30.224  30.282  1.00  0.00     0.034 A 
ATOM     46  C   UNL A   1      45.873  29.592  27.207  1.00  0.00     0.049 A 
ATOM     47  C   UNL A   1      41.341  31.118  30.148  1.00  0.00     0.074 A 
ATOM     48  C   UNL A   1      46.882  30.534  27.098  1.00  0.00     0.029 A 
ATOM     49  N   UNL A   1      44.877  30.170  27.986  1.00  0.00    -0.354 N 
ATOM     50  N   UNL A   1      42.464  30.901  29.502  1.00  0.00    -0.248 NA
ATOM     51  C   UNL A   1      41.275  32.425  30.814  1.00  0.00     0.031 C 
ATOM     52  C   UNL A   1      46.532  31.647  27.870  1.00  0.00     0.029 A 
ATOM     53  C   UNL A   1      45.262  31.441  28.387  1.00  0.00     0.049 A 
ATOM     54  H   UNL A   1      44.023  29.741  28.218  1.00  0.00     0.167 HD
ATOM     55  C   UNL A   1      43.219  32.061  29.652  1.00  0.00     0.074 A 
ATOM     56  C   UNL A   1      42.419  32.976  30.438  1.00  0.00     0.031 C 
ATOM     57  C   UNL A   1      44.458  32.346  29.176  1.00  0.00     0.034 A 
BRANCH  44  58
ATOM     58  C   UNL A   1      47.028  27.737  25.905  1.00  0.00     0.023 A 
ATOM     59  C   UNL A   1      47.256  28.054  24.555  1.00  0.00     0.031 A 
ATOM     60  C   UNL A   1      47.953  26.890  26.543  1.00  0.00     0.131 A 
ATOM     61  C   UNL A   1      48.329  27.469  23.865  1.00  0.00     0.055 A 
ATOM     62  C   UNL A   1      49.070  26.383  25.876  1.00  0.00     0.041 A 
ATOM     63  F   UNL A   1      47.781  26.532  27.824  1.00  0.00    -0.206 F 
ATOM     64  C   UNL A   1      49.254  26.657  24.524  1.00  0.00     0.022 A 
BRANCH  61  65
ATOM     65  S   UNL A   1      48.407  27.659  22.064  1.00  0.00     0.124 S 
ATOM     66  O   UNL A   1      47.097  28.236  21.771  1.00  0.00    -0.237 OA
ATOM     67  O   UNL A   1      49.550  28.547  21.889  1.00  0.00    -0.237 OA
ATOM     68  O   UNL A   1      48.598  26.291  21.582  1.00  0.00    -0.744 OA
ENDBRANCH  61  65
ENDBRANCH  44  58
BRANCH  45  69
ATOM     69  C   UNL A   1      38.956  30.651  31.092  1.00  0.00     0.023 A 
ATOM     70  C   UNL A   1      37.958  31.475  30.545  1.00  0.00     0.031 A 
ATOM     71  C   UNL A   1      38.832  30.279  32.443  1.00  0.00     0.131 A 
ATOM     72  C   UNL A   1      36.912  31.942  31.355  1.00  0.00     0.055 A 
ATOM     73  C   UNL A   1      37.757  30.696  33.229  1.00  0.00     0.041 A 
ATOM     74  F   UNL A   1      39.754  29.491  33.018  1.00  0.00    -0.206 F 
ATOM     75  C   UNL A   1      36.796  31.545  32.690  1.00  0.00     0.022 A 
BRANCH  72  76
ATOM     76  S   UNL A   1      35.756  33.157  30.667  1.00  0.00     0.124 S 
ATOM     77  O   UNL A   1      35.893  34.263  31.608  1.00  0.00    -0.237 OA
ATOM     78  O   UNL A   1      36.305  33.376  29.332  1.00  0.00    -0.237 OA
ATOM     79  O   UNL A   1      34.470  32.463  30.703  1.00  0.00    -0.744 OA
ENDBRANCH  72  76
ENDBRANCH  45  69
BRANCH  57  80
ATOM     80  C   UNL A   1      44.999  33.732  29.442  1.00  0.00     0.023 A 
ATOM     81  C   UNL A   1      44.891  34.770  28.500  1.00  0.00     0.031 A 
ATOM     82  C   UNL A   1      45.645  34.012  30.661  1.00  0.00     0.131 A 
ATOM     83  C   UNL A   1      45.474  36.018  28.765  1.00  0.00     0.055 A 
ATOM     84  C   UNL A   1      46.161  35.277  30.948  1.00  0.00     0.041 A 
ATOM     85  F   UNL A   1      45.782  33.059  31.596  1.00  0.00    -0.206 F 
ATOM     86  C   UNL A   1      46.090  36.284  29.991  1.00  0.00     0.022 A 
BRANCH  83  87
ATOM     87  S   UNL A   1      45.510  37.261  27.445  1.00  0.00     0.124 S 
ATOM     88  O   UNL A   1      46.403  38.271  28.005  1.00  0.00    -0.237 OA
ATOM     89  O   UNL A   1      46.035  36.503  26.315  1.00  0.00    -0.237 OA
ATOM     90  O   UNL A   1      44.112  37.671  27.320  1.00  0.00    -0.744 OA
ENDBRANCH  83  87
ENDBRANCH  57  80
ENDBRANCH  31  32
ENDBRANCH  23  26
ENDBRANCH  21  22
ENDBRANCH  20  21
ENDBRANCH   1  20
TORSDOF 17
ENDMDL
