MODEL 1
REMARK VINA RESULT:     -12.2      0.000      0.000
REMARK SMILES CC(C)(CCc1ccc(Cl)c2ccccc12)C(=O)NCCCNC(=O)c1ccc(-c2c3nc(c(-c4cc(S(=O)(=O)[O-])ccc4F)c4ccc([nH]4)c(-c4cc(S(=O)(=O)[O-])ccc4F)c4nc(c(-c5cc(S(=O)(=O)[O-])ccc5F)c5ccc2[nH]5)C=C4)C=C3)cc1
REMARK SMILES IDX 21 1 20 2 19 3 17 4 18 5 2 7 1 8 3 9 4 10 5 11 6 12 7 13
REMARK SMILES IDX 16 14 8 15 11 16 15 17 9 18 12 19 14 20 10 21 13 22 22 23
REMARK SMILES IDX 23 24 24 25 25 27 26 28 27 29 88 30 28 31 87 32 29 33 30 34
REMARK SMILES IDX 31 35 81 36 32 37 86 38 80 39 82 40 33 41 85 42 79 43 78 44
REMARK SMILES IDX 34 46 66 47 46 48 65 49 47 50 50 51 64 52 83 53 48 54 49 55
REMARK SMILES IDX 63 57 84 58 51 59 35 60 36 61 44 62 37 63 43 64 45 65 42 66
REMARK SMILES IDX 38 67 39 68 40 69 41 70 67 71 68 72 76 73 69 74 75 75 77 76
REMARK SMILES IDX 74 77 70 78 71 79 72 80 73 81 52 82 53 83 61 84 54 85 60 86
REMARK SMILES IDX 62 87 59 88 55 89 56 90 57 91 58 92
REMARK H PARENT 19 6 23 26 82 45 50 56
REMARK Flexibility Score: inf
ROOT
ATOM      1  C   UNL A   1      31.765  31.226  26.499  1.00  0.00     0.042 C 
ENDROOT
BRANCH   1   2
ATOM      2  C   UNL A   1      31.987  29.868  25.782  1.00  0.00     0.117 C 
BRANCH   2   3
ATOM      3  N   UNL A   1      32.866  29.712  24.616  1.00  0.00    -0.356 N 
ATOM      4  C   UNL A   1      33.217  28.728  23.727  1.00  0.00     0.225 C 
ATOM      5  O   UNL A   1      33.894  29.111  22.764  1.00  0.00    -0.275 OA
ATOM      6  H   UNL A   1      33.339  30.552  24.417  1.00  0.00     0.163 HD
BRANCH   4   7
ATOM      7  C   UNL A   1      32.819  27.240  23.845  1.00  0.00     0.044 C 
ATOM      8  C   UNL A   1      33.459  26.405  22.707  1.00  0.00     0.021 C 
ATOM      9  C   UNL A   1      31.295  27.196  23.570  1.00  0.00     0.021 C 
BRANCH   7  10
ATOM     10  C   UNL A   1      33.165  26.587  25.212  1.00  0.00     0.021 C 
BRANCH  10  11
ATOM     11  C   UNL A   1      34.372  25.619  25.429  1.00  0.00     0.037 C 
BRANCH  11  12
ATOM     12  C   UNL A   1      34.559  24.098  25.288  1.00  0.00    -0.040 A 
ATOM     13  C   UNL A   1      33.360  23.418  24.982  1.00  0.00     0.006 A 
ATOM     14  C   UNL A   1      35.720  23.288  25.421  1.00  0.00    -0.014 A 
ATOM     15  C   UNL A   1      33.311  22.036  24.801  1.00  0.00     0.021 A 
ATOM     16  C   UNL A   1      35.706  21.881  25.187  1.00  0.00     0.001 A 
ATOM     17  C   UNL A   1      36.936  23.810  25.826  1.00  0.00     0.009 A 
ATOM     18  C   UNL A   1      34.473  21.276  24.888  1.00  0.00     0.048 A 
ATOM     19  C   UNL A   1      36.919  21.141  25.285  1.00  0.00     0.010 A 
ATOM     20  C   UNL A   1      38.134  23.090  25.886  1.00  0.00     0.001 A 
ATOM     21  Cl  UNL A   1      34.313  19.568  24.638  1.00  0.00    -0.084 Cl
ATOM     22  C   UNL A   1      38.129  21.744  25.609  1.00  0.00     0.001 A 
ENDBRANCH  11  12
ENDBRANCH  10  11
ENDBRANCH   7  10
ENDBRANCH   4   7
ENDBRANCH   2   3
ENDBRANCH   1   2
BRANCH   1  23
ATOM     23  C   UNL A   1      32.879  32.108  27.083  1.00  0.00     0.118 C 
BRANCH  23  24
ATOM     24  N   UNL A   1      32.519  33.439  27.502  1.00  0.00    -0.352 N 
ATOM     25  C   UNL A   1      33.187  34.250  28.399  1.00  0.00     0.251 C 
ATOM     26  H   UNL A   1      31.701  33.815  27.102  1.00  0.00     0.163 HD
ATOM     27  O   UNL A   1      32.751  35.372  28.630  1.00  0.00    -0.269 OA
BRANCH  25  28
ATOM     28  C   UNL A   1      34.387  33.761  29.132  1.00  0.00     0.039 A 
ATOM     29  C   UNL A   1      34.192  32.849  30.174  1.00  0.00     0.014 A 
ATOM     30  C   UNL A   1      35.680  34.217  28.851  1.00  0.00     0.014 A 
ATOM     31  C   UNL A   1      35.287  32.350  30.893  1.00  0.00     0.010 A 
ATOM     32  C   UNL A   1      36.780  33.695  29.559  1.00  0.00     0.010 A 
ATOM     33  C   UNL A   1      36.599  32.741  30.576  1.00  0.00    -0.014 A 
BRANCH  33  34
ATOM     34  C   UNL A   1      37.762  32.094  31.262  1.00  0.00     0.031 A 
ATOM     35  C   UNL A   1      38.549  30.984  30.608  1.00  0.00     0.074 A 
ATOM     36  C   UNL A   1      38.106  32.502  32.503  1.00  0.00     0.049 A 
ATOM     37  N   UNL A   1      39.583  30.324  31.068  1.00  0.00    -0.248 NA
ATOM     38  C   UNL A   1      38.113  30.558  29.272  1.00  0.00     0.031 C 
ATOM     39  C   UNL A   1      37.417  33.549  33.260  1.00  0.00     0.029 A 
ATOM     40  N   UNL A   1      39.110  32.093  33.350  1.00  0.00    -0.354 N 
ATOM     41  C   UNL A   1      39.919  29.396  30.086  1.00  0.00     0.074 A 
ATOM     42  C   UNL A   1      38.956  29.565  29.016  1.00  0.00     0.031 C 
ATOM     43  C   UNL A   1      38.021  33.707  34.448  1.00  0.00     0.029 A 
ATOM     44  C   UNL A   1      39.112  32.743  34.566  1.00  0.00     0.049 A 
ATOM     45  H   UNL A   1      39.766  31.399  33.112  1.00  0.00     0.167 HD
ATOM     46  C   UNL A   1      40.936  28.496  30.076  1.00  0.00     0.034 A 
ATOM     47  C   UNL A   1      39.883  32.575  35.662  1.00  0.00     0.034 A 
ATOM     48  C   UNL A   1      41.896  28.339  31.147  1.00  0.00     0.049 A 
ATOM     49  C   UNL A   1      40.985  31.543  35.633  1.00  0.00     0.074 A 
ATOM     50  C   UNL A   1      43.003  27.506  31.192  1.00  0.00     0.029 A 
ATOM     51  N   UNL A   1      41.855  29.003  32.365  1.00  0.00    -0.354 N 
ATOM     52  N   UNL A   1      41.332  30.731  34.660  1.00  0.00    -0.248 NA
ATOM     53  C   UNL A   1      41.811  31.414  36.843  1.00  0.00     0.031 C 
ATOM     54  C   UNL A   1      43.575  27.600  32.465  1.00  0.00     0.029 A 
ATOM     55  C   UNL A   1      42.887  28.563  33.184  1.00  0.00     0.049 A 
ATOM     56  H   UNL A   1      41.192  29.687  32.613  1.00  0.00     0.167 HD
ATOM     57  C   UNL A   1      42.433  30.020  35.132  1.00  0.00     0.074 A 
ATOM     58  C   UNL A   1      42.706  30.515  36.465  1.00  0.00     0.031 C 
ATOM     59  C   UNL A   1      43.153  29.049  34.518  1.00  0.00     0.034 A 
BRANCH  46  60
ATOM     60  C   UNL A   1      41.052  27.566  28.888  1.00  0.00     0.023 A 
ATOM     61  C   UNL A   1      42.049  27.724  27.911  1.00  0.00     0.031 A 
ATOM     62  C   UNL A   1      40.170  26.477  28.757  1.00  0.00     0.131 A 
ATOM     63  C   UNL A   1      42.109  26.837  26.822  1.00  0.00     0.055 A 
ATOM     64  C   UNL A   1      40.279  25.558  27.712  1.00  0.00     0.041 A 
ATOM     65  F   UNL A   1      39.188  26.283  29.652  1.00  0.00    -0.206 F 
ATOM     66  C   UNL A   1      41.248  25.741  26.730  1.00  0.00     0.022 A 
BRANCH  63  67
ATOM     67  S   UNL A   1      43.262  27.197  25.468  1.00  0.00     0.124 S 
ATOM     68  O   UNL A   1      44.261  28.022  26.142  1.00  0.00    -0.237 OA
ATOM     69  O   UNL A   1      43.700  25.866  25.065  1.00  0.00    -0.237 OA
ATOM     70  O   UNL A   1      42.435  27.905  24.492  1.00  0.00    -0.744 OA
ENDBRANCH  63  67
ENDBRANCH  46  60
BRANCH  47  71
ATOM     71  C   UNL A   1      39.622  33.363  36.906  1.00  0.00     0.023 A 
ATOM     72  C   UNL A   1      38.905  32.818  37.983  1.00  0.00     0.031 A 
ATOM     73  C   UNL A   1      40.021  34.709  36.999  1.00  0.00     0.131 A 
ATOM     74  C   UNL A   1      38.555  33.630  39.074  1.00  0.00     0.055 A 
ATOM     75  C   UNL A   1      39.731  35.494  38.117  1.00  0.00     0.041 A 
ATOM     76  F   UNL A   1      40.707  35.288  35.999  1.00  0.00    -0.206 F 
ATOM     77  C   UNL A   1      38.976  34.959  39.156  1.00  0.00     0.022 A 
BRANCH  74  78
ATOM     78  S   UNL A   1      37.429  32.960  40.332  1.00  0.00     0.124 S 
ATOM     79  O   UNL A   1      38.140  31.760  40.756  1.00  0.00    -0.237 OA
ATOM     80  O   UNL A   1      37.374  34.052  41.299  1.00  0.00    -0.237 OA
ATOM     81  O   UNL A   1      36.193  32.725  39.588  1.00  0.00    -0.744 OA
ENDBRANCH  74  78
ENDBRANCH  47  71
BRANCH  59  82
ATOM     82  C   UNL A   1      44.341  28.488  35.266  1.00  0.00     0.023 A 
ATOM     83  C   UNL A   1      44.207  27.451  36.208  1.00  0.00     0.031 A 
ATOM     84  C   UNL A   1      45.628  29.009  35.042  1.00  0.00     0.131 A 
ATOM     85  C   UNL A   1      45.327  27.011  36.931  1.00  0.00     0.055 A 
ATOM     86  C   UNL A   1      46.750  28.521  35.715  1.00  0.00     0.041 A 
ATOM     87  F   UNL A   1      45.819  30.005  34.161  1.00  0.00    -0.206 F 
ATOM     88  C   UNL A   1      46.601  27.526  36.676  1.00  0.00     0.022 A 
BRANCH  85  89
ATOM     89  S   UNL A   1      45.084  25.828  38.285  1.00  0.00     0.124 S 
ATOM     90  O   UNL A   1      46.456  25.548  38.693  1.00  0.00    -0.237 OA
ATOM     91  O   UNL A   1      44.282  26.596  39.231  1.00  0.00    -0.237 OA
ATOM     92  O   UNL A   1      44.388  24.712  37.646  1.00  0.00    -0.744 OA
ENDBRANCH  85  89
ENDBRANCH  59  82
ENDBRANCH  33  34
ENDBRANCH  25  28
ENDBRANCH  23  24
ENDBRANCH   1  23
TORSDOF 16
ENDMDL
MODEL 2
REMARK VINA RESULT:     -12.0      1.491      1.660
REMARK SMILES CC(C)(CCc1ccc(Cl)c2ccccc12)C(=O)NCCCNC(=O)c1ccc(-c2c3nc(c(-c4cc(S(=O)(=O)[O-])ccc4F)c4ccc([nH]4)c(-c4cc(S(=O)(=O)[O-])ccc4F)c4nc(c(-c5cc(S(=O)(=O)[O-])ccc5F)c5ccc2[nH]5)C=C4)C=C3)cc1
REMARK SMILES IDX 21 1 20 2 19 3 17 4 18 5 2 7 1 8 3 9 4 10 5 11 6 12 7 13
REMARK SMILES IDX 16 14 8 15 11 16 15 17 9 18 12 19 14 20 10 21 13 22 22 23
REMARK SMILES IDX 23 24 24 25 25 27 26 28 27 29 88 30 28 31 87 32 29 33 30 34
REMARK SMILES IDX 31 35 81 36 32 37 86 38 80 39 82 40 33 41 85 42 79 43 78 44
REMARK SMILES IDX 34 46 66 47 46 48 65 49 47 50 50 51 64 52 83 53 48 54 49 55
REMARK SMILES IDX 63 57 84 58 51 59 35 60 36 61 44 62 37 63 43 64 45 65 42 66
REMARK SMILES IDX 38 67 39 68 40 69 41 70 67 71 68 72 76 73 69 74 75 75 77 76
REMARK SMILES IDX 74 77 70 78 71 79 72 80 73 81 52 82 53 83 61 84 54 85 60 86
REMARK SMILES IDX 62 87 59 88 55 89 56 90 57 91 58 92
REMARK H PARENT 19 6 23 26 82 45 50 56
REMARK Flexibility Score: inf
ROOT
ATOM      1  C   UNL A   1      31.651  31.679  26.482  1.00  0.00     0.042 C 
ENDROOT
BRANCH   1   2
ATOM      2  C   UNL A   1      31.816  30.250  25.902  1.00  0.00     0.117 C 
BRANCH   2   3
ATOM      3  N   UNL A   1      31.262  29.843  24.604  1.00  0.00    -0.356 N 
ATOM      4  C   UNL A   1      31.466  28.858  23.671  1.00  0.00     0.225 C 
ATOM      5  O   UNL A   1      30.618  28.805  22.772  1.00  0.00    -0.275 OA
ATOM      6  H   UNL A   1      30.540  30.450  24.323  1.00  0.00     0.163 HD
BRANCH   4   7
ATOM      7  C   UNL A   1      32.634  27.847  23.687  1.00  0.00     0.044 C 
ATOM      8  C   UNL A   1      33.990  28.565  23.475  1.00  0.00     0.021 C 
ATOM      9  C   UNL A   1      32.440  26.971  22.424  1.00  0.00     0.021 C 
BRANCH   7  10
ATOM     10  C   UNL A   1      32.716  26.974  24.970  1.00  0.00     0.021 C 
BRANCH  10  11
ATOM     11  C   UNL A   1      33.876  25.969  25.263  1.00  0.00     0.037 C 
BRANCH  11  12
ATOM     12  C   UNL A   1      34.027  24.444  25.121  1.00  0.00    -0.040 A 
ATOM     13  C   UNL A   1      32.813  23.793  24.810  1.00  0.00     0.006 A 
ATOM     14  C   UNL A   1      35.168  23.607  25.257  1.00  0.00    -0.014 A 
ATOM     15  C   UNL A   1      32.733  22.413  24.627  1.00  0.00     0.021 A 
ATOM     16  C   UNL A   1      35.122  22.201  25.021  1.00  0.00     0.001 A 
ATOM     17  C   UNL A   1      36.395  24.100  25.666  1.00  0.00     0.009 A 
ATOM     18  C   UNL A   1      33.877  21.626  24.718  1.00  0.00     0.048 A 
ATOM     19  C   UNL A   1      36.317  21.433  25.123  1.00  0.00     0.010 A 
ATOM     20  C   UNL A   1      37.575  23.352  25.729  1.00  0.00     0.001 A 
ATOM     21  Cl  UNL A   1      33.677  19.922  24.466  1.00  0.00    -0.084 Cl
ATOM     22  C   UNL A   1      37.540  22.007  25.451  1.00  0.00     0.001 A 
ENDBRANCH  11  12
ENDBRANCH  10  11
ENDBRANCH   7  10
ENDBRANCH   4   7
ENDBRANCH   2   3
ENDBRANCH   1   2
BRANCH   1  23
ATOM     23  C   UNL A   1      32.760  32.482  27.178  1.00  0.00     0.118 C 
BRANCH  23  24
ATOM     24  N   UNL A   1      32.438  33.820  27.609  1.00  0.00    -0.352 N 
ATOM     25  C   UNL A   1      33.137  34.608  28.502  1.00  0.00     0.251 C 
ATOM     26  H   UNL A   1      31.625  34.218  27.222  1.00  0.00     0.163 HD
ATOM     27  O   UNL A   1      32.733  35.740  28.744  1.00  0.00    -0.269 OA
BRANCH  25  28
ATOM     28  C   UNL A   1      34.334  34.086  29.216  1.00  0.00     0.039 A 
ATOM     29  C   UNL A   1      34.126  33.281  30.341  1.00  0.00     0.014 A 
ATOM     30  C   UNL A   1      35.642  34.410  28.836  1.00  0.00     0.014 A 
ATOM     31  C   UNL A   1      35.216  32.756  31.048  1.00  0.00     0.010 A 
ATOM     32  C   UNL A   1      36.734  33.861  29.534  1.00  0.00     0.010 A 
ATOM     33  C   UNL A   1      36.536  33.012  30.638  1.00  0.00    -0.014 A 
BRANCH  33  34
ATOM     34  C   UNL A   1      37.680  32.331  31.320  1.00  0.00     0.031 A 
ATOM     35  C   UNL A   1      38.417  31.182  30.676  1.00  0.00     0.074 A 
ATOM     36  C   UNL A   1      38.055  32.744  32.551  1.00  0.00     0.049 A 
ATOM     37  N   UNL A   1      39.430  30.489  31.136  1.00  0.00    -0.248 NA
ATOM     38  C   UNL A   1      37.951  30.752  29.352  1.00  0.00     0.031 C 
ATOM     39  C   UNL A   1      37.415  33.829  33.299  1.00  0.00     0.029 A 
ATOM     40  N   UNL A   1      39.051  32.310  33.394  1.00  0.00    -0.354 N 
ATOM     41  C   UNL A   1      39.720  29.534  30.165  1.00  0.00     0.074 A 
ATOM     42  C   UNL A   1      38.751  29.723  29.102  1.00  0.00     0.031 C 
ATOM     43  C   UNL A   1      38.038  33.982  34.478  1.00  0.00     0.029 A 
ATOM     44  C   UNL A   1      39.092  32.978  34.599  1.00  0.00     0.049 A 
ATOM     45  H   UNL A   1      39.677  31.588  33.160  1.00  0.00     0.167 HD
ATOM     46  C   UNL A   1      40.701  28.595  30.158  1.00  0.00     0.034 A 
ATOM     47  C   UNL A   1      39.868  32.798  35.689  1.00  0.00     0.034 A 
ATOM     48  C   UNL A   1      41.666  28.418  31.221  1.00  0.00     0.049 A 
ATOM     49  C   UNL A   1      40.930  31.724  35.665  1.00  0.00     0.074 A 
ATOM     50  C   UNL A   1      42.741  27.544  31.267  1.00  0.00     0.029 A 
ATOM     51  N   UNL A   1      41.665  29.102  32.429  1.00  0.00    -0.354 N 
ATOM     52  N   UNL A   1      41.234  30.885  34.702  1.00  0.00    -0.248 NA
ATOM     53  C   UNL A   1      41.763  31.582  36.868  1.00  0.00     0.031 C 
ATOM     54  C   UNL A   1      43.331  27.636  32.532  1.00  0.00     0.029 A 
ATOM     55  C   UNL A   1      42.688  28.635  33.243  1.00  0.00     0.049 A 
ATOM     56  H   UNL A   1      41.031  29.815  32.672  1.00  0.00     0.167 HD
ATOM     57  C   UNL A   1      42.312  30.139  35.173  1.00  0.00     0.074 A 
ATOM     58  C   UNL A   1      42.619  30.643  36.495  1.00  0.00     0.031 C 
ATOM     59  C   UNL A   1      42.987  29.131  34.566  1.00  0.00     0.034 A 
BRANCH  46  60
ATOM     60  C   UNL A   1      40.768  27.644  28.984  1.00  0.00     0.023 A 
ATOM     61  C   UNL A   1      41.704  27.799  27.948  1.00  0.00     0.031 A 
ATOM     62  C   UNL A   1      39.901  26.536  28.925  1.00  0.00     0.131 A 
ATOM     63  C   UNL A   1      41.720  26.892  26.875  1.00  0.00     0.055 A 
ATOM     64  C   UNL A   1      39.969  25.598  27.893  1.00  0.00     0.041 A 
ATOM     65  F   UNL A   1      38.975  26.343  29.878  1.00  0.00    -0.206 F 
ATOM     66  C   UNL A   1      40.877  25.779  26.854  1.00  0.00     0.022 A 
BRANCH  63  67
ATOM     67  S   UNL A   1      42.788  27.244  25.452  1.00  0.00     0.124 S 
ATOM     68  O   UNL A   1      44.074  27.488  26.100  1.00  0.00    -0.237 OA
ATOM     69  O   UNL A   1      42.688  26.018  24.670  1.00  0.00    -0.237 OA
ATOM     70  O   UNL A   1      42.172  28.423  24.844  1.00  0.00    -0.744 OA
ENDBRANCH  63  67
ENDBRANCH  46  60
BRANCH  47  71
ATOM     71  C   UNL A   1      39.652  33.614  36.923  1.00  0.00     0.023 A 
ATOM     72  C   UNL A   1      40.459  34.725  37.219  1.00  0.00     0.031 A 
ATOM     73  C   UNL A   1      38.679  33.241  37.870  1.00  0.00     0.131 A 
ATOM     74  C   UNL A   1      40.322  35.382  38.453  1.00  0.00     0.055 A 
ATOM     75  C   UNL A   1      38.500  33.940  39.065  1.00  0.00     0.041 A 
ATOM     76  F   UNL A   1      37.879  32.186  37.645  1.00  0.00    -0.206 F 
ATOM     77  C   UNL A   1      39.338  35.007  39.371  1.00  0.00     0.022 A 
BRANCH  74  78
ATOM     78  S   UNL A   1      41.536  36.656  38.900  1.00  0.00     0.124 S 
ATOM     79  O   UNL A   1      42.384  36.686  37.714  1.00  0.00    -0.237 OA
ATOM     80  O   UNL A   1      40.684  37.822  39.111  1.00  0.00    -0.237 OA
ATOM     81  O   UNL A   1      42.164  36.118  40.105  1.00  0.00    -0.744 OA
ENDBRANCH  74  78
ENDBRANCH  47  71
BRANCH  59  82
ATOM     82  C   UNL A   1      44.161  28.536  35.311  1.00  0.00     0.023 A 
ATOM     83  C   UNL A   1      44.002  27.494  36.243  1.00  0.00     0.031 A 
ATOM     84  C   UNL A   1      45.460  29.031  35.094  1.00  0.00     0.131 A 
ATOM     85  C   UNL A   1      45.112  27.022  36.962  1.00  0.00     0.055 A 
ATOM     86  C   UNL A   1      46.570  28.511  35.763  1.00  0.00     0.041 A 
ATOM     87  F   UNL A   1      45.674  30.030  34.222  1.00  0.00    -0.206 F 
ATOM     88  C   UNL A   1      46.397  27.510  36.715  1.00  0.00     0.022 A 
BRANCH  85  89
ATOM     89  S   UNL A   1      44.840  25.831  38.304  1.00  0.00     0.124 S 
ATOM     90  O   UNL A   1      46.205  25.468  38.669  1.00  0.00    -0.237 OA
ATOM     91  O   UNL A   1      44.108  26.626  39.285  1.00  0.00    -0.237 OA
ATOM     92  O   UNL A   1      44.065  24.767  37.668  1.00  0.00    -0.744 OA
ENDBRANCH  85  89
ENDBRANCH  59  82
ENDBRANCH  33  34
ENDBRANCH  25  28
ENDBRANCH  23  24
ENDBRANCH   1  23
TORSDOF 16
ENDMDL
MODEL 3
REMARK VINA RESULT:     -12.0      0.931      1.655
REMARK SMILES CC(C)(CCc1ccc(Cl)c2ccccc12)C(=O)NCCCNC(=O)c1ccc(-c2c3nc(c(-c4cc(S(=O)(=O)[O-])ccc4F)c4ccc([nH]4)c(-c4cc(S(=O)(=O)[O-])ccc4F)c4nc(c(-c5cc(S(=O)(=O)[O-])ccc5F)c5ccc2[nH]5)C=C4)C=C3)cc1
REMARK SMILES IDX 21 1 20 2 19 3 17 4 18 5 2 7 1 8 3 9 4 10 5 11 6 12 7 13
REMARK SMILES IDX 16 14 8 15 11 16 15 17 9 18 12 19 14 20 10 21 13 22 22 23
REMARK SMILES IDX 23 24 24 25 25 27 26 28 27 29 88 30 28 31 87 32 29 33 30 34
REMARK SMILES IDX 31 35 81 36 32 37 86 38 80 39 82 40 33 41 85 42 79 43 78 44
REMARK SMILES IDX 34 46 66 47 46 48 65 49 47 50 50 51 64 52 83 53 48 54 49 55
REMARK SMILES IDX 63 57 84 58 51 59 35 60 36 61 44 62 37 63 43 64 45 65 42 66
REMARK SMILES IDX 38 67 39 68 40 69 41 70 67 71 68 72 76 73 69 74 75 75 77 76
REMARK SMILES IDX 74 77 70 78 71 79 72 80 73 81 52 82 53 83 61 84 54 85 60 86
REMARK SMILES IDX 62 87 59 88 55 89 56 90 57 91 58 92
REMARK H PARENT 19 6 23 26 82 45 50 56
REMARK Flexibility Score: inf
ROOT
ATOM      1  C   UNL A   1      31.638  31.590  26.527  1.00  0.00     0.042 C 
ENDROOT
BRANCH   1   2
ATOM      2  C   UNL A   1      31.820  30.215  25.832  1.00  0.00     0.117 C 
BRANCH   2   3
ATOM      3  N   UNL A   1      31.502  28.939  26.486  1.00  0.00    -0.356 N 
ATOM      4  C   UNL A   1      31.907  27.629  26.419  1.00  0.00     0.225 C 
ATOM      5  O   UNL A   1      31.464  26.899  27.314  1.00  0.00    -0.275 OA
ATOM      6  H   UNL A   1      30.800  29.056  27.165  1.00  0.00     0.163 HD
BRANCH   4   7
ATOM      7  C   UNL A   1      32.852  27.044  25.346  1.00  0.00     0.044 C 
ATOM      8  C   UNL A   1      33.961  28.059  24.974  1.00  0.00     0.021 C 
ATOM      9  C   UNL A   1      31.988  26.902  24.068  1.00  0.00     0.021 C 
BRANCH   7  10
ATOM     10  C   UNL A   1      33.510  25.691  25.735  1.00  0.00     0.021 C 
BRANCH  10  11
ATOM     11  C   UNL A   1      34.633  25.000  24.896  1.00  0.00     0.037 C 
BRANCH  11  12
ATOM     12  C   UNL A   1      35.213  23.576  24.859  1.00  0.00    -0.040 A 
ATOM     13  C   UNL A   1      36.624  23.550  24.907  1.00  0.00     0.006 A 
ATOM     14  C   UNL A   1      34.568  22.312  24.777  1.00  0.00    -0.014 A 
ATOM     15  C   UNL A   1      37.349  22.359  24.896  1.00  0.00     0.021 A 
ATOM     16  C   UNL A   1      35.284  21.079  24.818  1.00  0.00     0.001 A 
ATOM     17  C   UNL A   1      33.199  22.197  24.612  1.00  0.00     0.009 A 
ATOM     18  C   UNL A   1      36.688  21.136  24.865  1.00  0.00     0.048 A 
ATOM     19  C   UNL A   1      34.567  19.849  24.787  1.00  0.00     0.010 A 
ATOM     20  C   UNL A   1      32.492  20.989  24.619  1.00  0.00     0.001 A 
ATOM     21  Cl  UNL A   1      37.676  19.711  24.863  1.00  0.00    -0.084 Cl
ATOM     22  C   UNL A   1      33.180  19.803  24.712  1.00  0.00     0.001 A 
ENDBRANCH  11  12
ENDBRANCH  10  11
ENDBRANCH   7  10
ENDBRANCH   4   7
ENDBRANCH   2   3
ENDBRANCH   1   2
BRANCH   1  23
ATOM     23  C   UNL A   1      32.770  32.418  27.154  1.00  0.00     0.118 C 
BRANCH  23  24
ATOM     24  N   UNL A   1      32.446  33.750  27.601  1.00  0.00    -0.352 N 
ATOM     25  C   UNL A   1      33.148  34.531  28.498  1.00  0.00     0.251 C 
ATOM     26  H   UNL A   1      31.630  34.150  27.222  1.00  0.00     0.163 HD
ATOM     27  O   UNL A   1      32.742  35.658  28.755  1.00  0.00    -0.269 OA
BRANCH  25  28
ATOM     28  C   UNL A   1      34.350  34.004  29.201  1.00  0.00     0.039 A 
ATOM     29  C   UNL A   1      34.151  33.187  30.318  1.00  0.00     0.014 A 
ATOM     30  C   UNL A   1      35.655  34.337  28.817  1.00  0.00     0.014 A 
ATOM     31  C   UNL A   1      35.246  32.657  31.014  1.00  0.00     0.010 A 
ATOM     32  C   UNL A   1      36.753  33.784  29.503  1.00  0.00     0.010 A 
ATOM     33  C   UNL A   1      36.563  32.922  30.599  1.00  0.00    -0.014 A 
BRANCH  33  34
ATOM     34  C   UNL A   1      37.713  32.237  31.268  1.00  0.00     0.031 A 
ATOM     35  C   UNL A   1      38.454  31.102  30.605  1.00  0.00     0.074 A 
ATOM     36  C   UNL A   1      38.088  32.634  32.504  1.00  0.00     0.049 A 
ATOM     37  N   UNL A   1      39.472  30.408  31.052  1.00  0.00    -0.248 NA
ATOM     38  C   UNL A   1      37.986  30.689  29.276  1.00  0.00     0.031 C 
ATOM     39  C   UNL A   1      37.445  33.704  33.270  1.00  0.00     0.029 A 
ATOM     40  N   UNL A   1      39.089  32.193  33.338  1.00  0.00    -0.354 N 
ATOM     41  C   UNL A   1      39.764  29.469  30.066  1.00  0.00     0.074 A 
ATOM     42  C   UNL A   1      38.791  29.668  29.009  1.00  0.00     0.031 C 
ATOM     43  C   UNL A   1      38.070  33.842  34.449  1.00  0.00     0.029 A 
ATOM     44  C   UNL A   1      39.130  32.843  34.553  1.00  0.00     0.049 A 
ATOM     45  H   UNL A   1      39.719  31.477  33.091  1.00  0.00     0.167 HD
ATOM     46  C   UNL A   1      40.750  28.536  30.042  1.00  0.00     0.034 A 
ATOM     47  C   UNL A   1      39.910  32.650  35.638  1.00  0.00     0.034 A 
ATOM     48  C   UNL A   1      41.719  28.348  31.100  1.00  0.00     0.049 A 
ATOM     49  C   UNL A   1      40.978  31.583  35.594  1.00  0.00     0.074 A 
ATOM     50  C   UNL A   1      42.799  27.479  31.130  1.00  0.00     0.029 A 
ATOM     51  N   UNL A   1      41.717  29.014  32.318  1.00  0.00    -0.354 N 
ATOM     52  N   UNL A   1      41.284  30.760  34.618  1.00  0.00    -0.248 NA
ATOM     53  C   UNL A   1      41.816  31.427  36.793  1.00  0.00     0.031 C 
ATOM     54  C   UNL A   1      43.392  27.555  32.395  1.00  0.00     0.029 A 
ATOM     55  C   UNL A   1      42.746  28.540  33.122  1.00  0.00     0.049 A 
ATOM     56  H   UNL A   1      41.081  29.719  32.574  1.00  0.00     0.167 HD
ATOM     57  C   UNL A   1      42.367  30.013  35.075  1.00  0.00     0.074 A 
ATOM     58  C   UNL A   1      42.675  30.499  36.403  1.00  0.00     0.031 C 
ATOM     59  C   UNL A   1      43.046  29.018  34.452  1.00  0.00     0.034 A 
BRANCH  46  60
ATOM     60  C   UNL A   1      40.819  27.602  28.854  1.00  0.00     0.023 A 
ATOM     61  C   UNL A   1      41.793  27.739  27.851  1.00  0.00     0.031 A 
ATOM     62  C   UNL A   1      39.914  26.529  28.748  1.00  0.00     0.131 A 
ATOM     63  C   UNL A   1      41.810  26.850  26.763  1.00  0.00     0.055 A 
ATOM     64  C   UNL A   1      39.979  25.607  27.702  1.00  0.00     0.041 A 
ATOM     65  F   UNL A   1      38.951  26.355  29.668  1.00  0.00    -0.206 F 
ATOM     66  C   UNL A   1      40.926  25.770  26.696  1.00  0.00     0.022 A 
BRANCH  63  67
ATOM     67  S   UNL A   1      42.935  27.185  25.380  1.00  0.00     0.124 S 
ATOM     68  O   UNL A   1      42.214  28.232  24.660  1.00  0.00    -0.237 OA
ATOM     69  O   UNL A   1      44.155  27.602  26.059  1.00  0.00    -0.237 OA
ATOM     70  O   UNL A   1      43.015  25.902  24.684  1.00  0.00    -0.744 OA
ENDBRANCH  63  67
ENDBRANCH  46  60
BRANCH  47  71
ATOM     71  C   UNL A   1      39.693  33.448  36.884  1.00  0.00     0.023 A 
ATOM     72  C   UNL A   1      39.000  32.916  37.984  1.00  0.00     0.031 A 
ATOM     73  C   UNL A   1      40.110  34.790  36.960  1.00  0.00     0.131 A 
ATOM     74  C   UNL A   1      38.690  33.737  39.080  1.00  0.00     0.055 A 
ATOM     75  C   UNL A   1      39.860  35.583  38.081  1.00  0.00     0.041 A 
ATOM     76  F   UNL A   1      40.774  35.355  35.938  1.00  0.00    -0.206 F 
ATOM     77  C   UNL A   1      39.129  35.062  39.144  1.00  0.00     0.022 A 
BRANCH  74  78
ATOM     78  S   UNL A   1      37.592  33.087  40.372  1.00  0.00     0.124 S 
ATOM     79  O   UNL A   1      38.356  31.947  40.864  1.00  0.00    -0.237 OA
ATOM     80  O   UNL A   1      37.482  34.227  41.276  1.00  0.00    -0.237 OA
ATOM     81  O   UNL A   1      36.371  32.753  39.641  1.00  0.00    -0.744 OA
ENDBRANCH  74  78
ENDBRANCH  47  71
BRANCH  59  82
ATOM     82  C   UNL A   1      44.226  28.418  35.184  1.00  0.00     0.023 A 
ATOM     83  C   UNL A   1      44.064  27.439  36.181  1.00  0.00     0.031 A 
ATOM     84  C   UNL A   1      45.533  28.845  34.888  1.00  0.00     0.131 A 
ATOM     85  C   UNL A   1      45.183  26.963  36.884  1.00  0.00     0.055 A 
ATOM     86  C   UNL A   1      46.648  28.319  35.544  1.00  0.00     0.041 A 
ATOM     87  F   UNL A   1      45.750  29.784  33.952  1.00  0.00    -0.206 F 
ATOM     88  C   UNL A   1      46.475  27.382  36.558  1.00  0.00     0.022 A 
BRANCH  85  89
ATOM     89  S   UNL A   1      44.919  25.863  38.303  1.00  0.00     0.124 S 
ATOM     90  O   UNL A   1      43.724  26.437  38.913  1.00  0.00    -0.237 OA
ATOM     91  O   UNL A   1      44.746  24.563  37.663  1.00  0.00    -0.237 OA
ATOM     92  O   UNL A   1      46.146  26.010  39.085  1.00  0.00    -0.744 OA
ENDBRANCH  85  89
ENDBRANCH  59  82
ENDBRANCH  33  34
ENDBRANCH  25  28
ENDBRANCH  23  24
ENDBRANCH   1  23
TORSDOF 16
ENDMDL
