MODEL 1
REMARK VINA RESULT:     -11.4      0.000      0.000
REMARK SMILES C[C@@](NC(=O)COc1ccccc1C#N)(C(=O)NCCCNC(=O)c1ccc(-c2c3nc(c(-c4cc(S(=O)(=O)[O-])ccc4F)c4ccc([nH]4)c(-c4cc(S(=O)(=O)[O-])ccc4F)c4nc(c(-c5cc(S(=O)(=O)[O-])ccc5F)c5ccc2[nH]5)C=C4)C=C3)cc1)C1CC1
REMARK SMILES IDX 19 1 18 2 16 3 17 4 2 6 1 7 3 8 4 9 5 11 6 12 7 13 8 14 9 15
REMARK SMILES IDX 13 16 10 17 12 18 11 19 14 20 15 21 88 22 89 23 90 24 20 25
REMARK SMILES IDX 21 26 22 27 23 28 24 30 25 31 26 32 87 33 27 34 86 35 28 36
REMARK SMILES IDX 29 37 30 38 80 39 31 40 85 41 79 42 81 43 32 44 84 45 78 46
REMARK SMILES IDX 77 47 33 49 65 50 45 51 64 52 46 53 49 54 63 55 82 56 47 57
REMARK SMILES IDX 48 58 62 60 83 61 50 62 34 63 35 64 43 65 36 66 42 67 44 68
REMARK SMILES IDX 41 69 37 70 38 71 39 72 40 73 66 74 67 75 75 76 68 77 74 78
REMARK SMILES IDX 76 79 73 80 69 81 70 82 71 83 72 84 51 85 52 86 60 87 53 88
REMARK SMILES IDX 59 89 61 90 58 91 54 92 55 93 56 94 57 95
REMARK H PARENT 18 5 3 10 22 29 81 48 49 59
REMARK Flexibility Score: inf
ROOT
ATOM      1  C   UNL A   1      31.955  29.002  24.311  1.00  0.00     0.117 C 
ENDROOT
BRANCH   1   2
ATOM      2  N   UNL A   1      30.878  28.429  23.526  1.00  0.00    -0.354 N 
ATOM      3  C   UNL A   1      30.341  27.175  23.561  1.00  0.00     0.245 C 
ATOM      4  O   UNL A   1      29.146  27.137  23.252  1.00  0.00    -0.272 OA
ATOM      5  H   UNL A   1      30.474  29.037  22.866  1.00  0.00     0.163 HD
BRANCH   3   6
ATOM      6  C   UNL A   1      31.166  25.904  23.965  1.00  0.00     0.119 C 
ATOM      7  C   UNL A   1      30.443  24.684  23.301  1.00  0.00     0.046 C 
BRANCH   6   8
ATOM      8  N   UNL A   1      32.570  25.884  23.485  1.00  0.00    -0.339 N 
ATOM      9  C   UNL A   1      33.063  25.374  22.314  1.00  0.00     0.258 C 
ATOM     10  H   UNL A   1      33.233  26.292  24.088  1.00  0.00     0.164 HD
ATOM     11  O   UNL A   1      33.631  26.139  21.530  1.00  0.00    -0.271 OA
BRANCH   9  12
ATOM     12  C   UNL A   1      33.106  23.862  22.085  1.00  0.00     0.329 C 
BRANCH  12  13
ATOM     13  O   UNL A   1      34.374  23.249  22.369  1.00  0.00    -0.482 OA
BRANCH  13  14
ATOM     14  C   UNL A   1      34.696  22.970  23.673  1.00  0.00     0.137 A 
ATOM     15  C   UNL A   1      35.577  23.850  24.320  1.00  0.00     0.048 A 
ATOM     16  C   UNL A   1      34.041  21.998  24.446  1.00  0.00     0.094 A 
ATOM     17  C   UNL A   1      35.836  23.732  25.695  1.00  0.00     0.004 A 
ATOM     18  C   UNL A   1      34.309  21.894  25.826  1.00  0.00     0.023 A 
ATOM     19  C   UNL A   1      35.206  22.753  26.450  1.00  0.00     0.002 A 
BRANCH  16  20
ATOM     20  C   UNL A   1      33.077  21.080  23.928  1.00  0.00     0.103 C 
ATOM     21  N   UNL A   1      32.389  20.242  23.504  1.00  0.00    -0.192 NA
ENDBRANCH  16  20
ENDBRANCH  13  14
ENDBRANCH  12  13
ENDBRANCH   9  12
ENDBRANCH   6   8
BRANCH   6  22
ATOM     22  C   UNL A   1      31.155  25.550  25.483  1.00  0.00     0.024 C 
ATOM     23  C   UNL A   1      32.344  24.985  26.232  1.00  0.00     0.007 C 
ATOM     24  C   UNL A   1      31.809  26.331  26.608  1.00  0.00     0.007 C 
ENDBRANCH   6  22
ENDBRANCH   3   6
ENDBRANCH   1   2
BRANCH   1  25
ATOM     25  C   UNL A   1      31.500  29.678  25.593  1.00  0.00     0.042 C 
BRANCH  25  26
ATOM     26  C   UNL A   1      32.607  30.461  26.300  1.00  0.00     0.118 C 
BRANCH  26  27
ATOM     27  N   UNL A   1      32.255  31.840  26.634  1.00  0.00    -0.352 N 
ATOM     28  C   UNL A   1      32.906  32.756  27.434  1.00  0.00     0.251 C 
ATOM     29  H   UNL A   1      31.422  32.166  26.223  1.00  0.00     0.163 HD
ATOM     30  O   UNL A   1      32.385  33.836  27.690  1.00  0.00    -0.269 OA
BRANCH  28  31
ATOM     31  C   UNL A   1      34.219  32.411  28.008  1.00  0.00     0.039 A 
ATOM     32  C   UNL A   1      35.274  33.328  27.980  1.00  0.00     0.014 A 
ATOM     33  C   UNL A   1      34.382  31.161  28.598  1.00  0.00     0.014 A 
ATOM     34  C   UNL A   1      36.473  33.013  28.629  1.00  0.00     0.010 A 
ATOM     35  C   UNL A   1      35.518  30.902  29.342  1.00  0.00     0.010 A 
ATOM     36  C   UNL A   1      36.584  31.814  29.346  1.00  0.00    -0.014 A 
BRANCH  36  37
ATOM     37  C   UNL A   1      37.815  31.408  30.065  1.00  0.00     0.031 A 
ATOM     38  C   UNL A   1      38.699  30.367  29.434  1.00  0.00     0.074 A 
ATOM     39  C   UNL A   1      38.048  31.855  31.314  1.00  0.00     0.049 A 
ATOM     40  N   UNL A   1      39.676  29.679  29.958  1.00  0.00    -0.248 NA
ATOM     41  C   UNL A   1      38.397  30.017  28.035  1.00  0.00     0.031 C 
ATOM     42  C   UNL A   1      37.237  32.846  32.024  1.00  0.00     0.029 A 
ATOM     43  N   UNL A   1      39.017  31.509  32.218  1.00  0.00    -0.354 N 
ATOM     44  C   UNL A   1      40.084  28.795  28.965  1.00  0.00     0.074 A 
ATOM     45  C   UNL A   1      39.200  28.984  27.838  1.00  0.00     0.031 C 
ATOM     46  C   UNL A   1      37.751  33.035  33.250  1.00  0.00     0.029 A 
ATOM     47  C   UNL A   1      38.884  32.135  33.437  1.00  0.00     0.049 A 
ATOM     48  H   UNL A   1      39.742  30.873  32.015  1.00  0.00     0.167 HD
ATOM     49  C   UNL A   1      41.120  27.920  28.989  1.00  0.00     0.034 A 
ATOM     50  C   UNL A   1      39.581  31.973  34.579  1.00  0.00     0.034 A 
ATOM     51  C   UNL A   1      41.989  27.765  30.126  1.00  0.00     0.049 A 
ATOM     52  C   UNL A   1      40.703  30.963  34.597  1.00  0.00     0.074 A 
ATOM     53  C   UNL A   1      43.103  26.958  30.254  1.00  0.00     0.029 A 
ATOM     54  N   UNL A   1      41.834  28.428  31.339  1.00  0.00    -0.354 N 
ATOM     55  N   UNL A   1      41.112  30.166  33.636  1.00  0.00    -0.248 NA
ATOM     56  C   UNL A   1      41.457  30.833  35.849  1.00  0.00     0.031 C 
ATOM     57  C   UNL A   1      43.568  27.064  31.567  1.00  0.00     0.029 A 
ATOM     58  C   UNL A   1      42.806  28.013  32.233  1.00  0.00     0.049 A 
ATOM     59  H   UNL A   1      41.136  29.093  31.533  1.00  0.00     0.167 HD
ATOM     60  C   UNL A   1      42.194  29.463  34.160  1.00  0.00     0.074 A 
ATOM     61  C   UNL A   1      42.383  29.948  35.513  1.00  0.00     0.031 C 
ATOM     62  C   UNL A   1      42.964  28.505  33.581  1.00  0.00     0.034 A 
BRANCH  49  63
ATOM     63  C   UNL A   1      41.338  27.060  27.767  1.00  0.00     0.023 A 
ATOM     64  C   UNL A   1      40.989  25.698  27.750  1.00  0.00     0.031 A 
ATOM     65  C   UNL A   1      41.927  27.600  26.611  1.00  0.00     0.131 A 
ATOM     66  C   UNL A   1      41.308  24.906  26.637  1.00  0.00     0.055 A 
ATOM     67  C   UNL A   1      42.155  26.827  25.470  1.00  0.00     0.041 A 
ATOM     68  F   UNL A   1      42.309  28.886  26.575  1.00  0.00    -0.206 F 
ATOM     69  C   UNL A   1      41.859  25.468  25.484  1.00  0.00     0.022 A 
BRANCH  66  70
ATOM     70  S   UNL A   1      41.140  23.106  26.782  1.00  0.00     0.124 S 
ATOM     71  O   UNL A   1      41.686  22.866  28.116  1.00  0.00    -0.237 OA
ATOM     72  O   UNL A   1      39.703  22.910  26.636  1.00  0.00    -0.237 OA
ATOM     73  O   UNL A   1      41.955  22.596  25.682  1.00  0.00    -0.744 OA
ENDBRANCH  66  70
ENDBRANCH  49  63
BRANCH  50  74
ATOM     74  C   UNL A   1      39.240  32.764  35.797  1.00  0.00     0.023 A 
ATOM     75  C   UNL A   1      39.745  34.063  35.976  1.00  0.00     0.031 A 
ATOM     76  C   UNL A   1      38.440  32.226  36.822  1.00  0.00     0.131 A 
ATOM     77  C   UNL A   1      39.490  34.756  37.168  1.00  0.00     0.055 A 
ATOM     78  C   UNL A   1      38.134  32.946  37.978  1.00  0.00     0.041 A 
ATOM     79  F   UNL A   1      37.930  30.989  36.707  1.00  0.00    -0.206 F 
ATOM     80  C   UNL A   1      38.673  34.216  38.163  1.00  0.00     0.022 A 
BRANCH  77  81
ATOM     81  S   UNL A   1      40.335  36.337  37.445  1.00  0.00     0.124 S 
ATOM     82  O   UNL A   1      40.315  36.920  36.107  1.00  0.00    -0.237 OA
ATOM     83  O   UNL A   1      39.471  36.973  38.435  1.00  0.00    -0.237 OA
ATOM     84  O   UNL A   1      41.652  35.937  37.934  1.00  0.00    -0.744 OA
ENDBRANCH  77  81
ENDBRANCH  50  74
BRANCH  62  85
ATOM     85  C   UNL A   1      44.102  27.952  34.403  1.00  0.00     0.023 A 
ATOM     86  C   UNL A   1      43.934  26.835  35.239  1.00  0.00     0.031 A 
ATOM     87  C   UNL A   1      45.373  28.554  34.350  1.00  0.00     0.131 A 
ATOM     88  C   UNL A   1      44.999  26.396  36.036  1.00  0.00     0.055 A 
ATOM     89  C   UNL A   1      46.450  28.062  35.085  1.00  0.00     0.041 A 
ATOM     90  F   UNL A   1      45.589  29.628  33.573  1.00  0.00    -0.206 F 
ATOM     91  C   UNL A   1      46.263  26.985  35.948  1.00  0.00     0.022 A 
BRANCH  88  92
ATOM     92  S   UNL A   1      44.676  25.117  37.280  1.00  0.00     0.124 S 
ATOM     93  O   UNL A   1      45.853  25.226  38.136  1.00  0.00    -0.237 OA
ATOM     94  O   UNL A   1      43.417  25.563  37.868  1.00  0.00    -0.237 OA
ATOM     95  O   UNL A   1      44.592  23.888  36.494  1.00  0.00    -0.744 OA
ENDBRANCH  88  92
ENDBRANCH  62  85
ENDBRANCH  36  37
ENDBRANCH  28  31
ENDBRANCH  26  27
ENDBRANCH  25  26
ENDBRANCH   1  25
TORSDOF 19
ENDMDL
MODEL 2
REMARK VINA RESULT:     -11.4      2.172      2.711
REMARK SMILES C[C@@](NC(=O)COc1ccccc1C#N)(C(=O)NCCCNC(=O)c1ccc(-c2c3nc(c(-c4cc(S(=O)(=O)[O-])ccc4F)c4ccc([nH]4)c(-c4cc(S(=O)(=O)[O-])ccc4F)c4nc(c(-c5cc(S(=O)(=O)[O-])ccc5F)c5ccc2[nH]5)C=C4)C=C3)cc1)C1CC1
REMARK SMILES IDX 19 1 18 2 16 3 17 4 2 6 1 7 3 8 4 9 5 11 6 12 7 13 8 14 9 15
REMARK SMILES IDX 13 16 10 17 12 18 11 19 14 20 15 21 88 22 89 23 90 24 20 25
REMARK SMILES IDX 21 26 22 27 23 28 24 30 25 31 26 32 87 33 27 34 86 35 28 36
REMARK SMILES IDX 29 37 30 38 80 39 31 40 85 41 79 42 81 43 32 44 84 45 78 46
REMARK SMILES IDX 77 47 33 49 65 50 45 51 64 52 46 53 49 54 63 55 82 56 47 57
REMARK SMILES IDX 48 58 62 60 83 61 50 62 34 63 35 64 43 65 36 66 42 67 44 68
REMARK SMILES IDX 41 69 37 70 38 71 39 72 40 73 66 74 67 75 75 76 68 77 74 78
REMARK SMILES IDX 76 79 73 80 69 81 70 82 71 83 72 84 51 85 52 86 60 87 53 88
REMARK SMILES IDX 59 89 61 90 58 91 54 92 55 93 56 94 57 95
REMARK H PARENT 18 5 3 10 22 29 81 48 49 59
REMARK Flexibility Score: inf
ROOT
ATOM      1  C   UNL A   1      32.541  29.808  25.795  1.00  0.00     0.117 C 
ENDROOT
BRANCH   1   2
ATOM      2  N   UNL A   1      31.970  29.840  24.462  1.00  0.00    -0.354 N 
ATOM      3  C   UNL A   1      31.245  28.894  23.798  1.00  0.00     0.245 C 
ATOM      4  O   UNL A   1      30.434  29.363  22.993  1.00  0.00    -0.272 OA
ATOM      5  H   UNL A   1      32.130  30.671  23.960  1.00  0.00     0.163 HD
BRANCH   3   6
ATOM      6  C   UNL A   1      31.423  27.355  24.041  1.00  0.00     0.119 C 
ATOM      7  C   UNL A   1      30.304  26.647  23.207  1.00  0.00     0.046 C 
BRANCH   6   8
ATOM      8  N   UNL A   1      32.718  26.790  23.589  1.00  0.00    -0.339 N 
ATOM      9  C   UNL A   1      33.155  26.581  22.308  1.00  0.00     0.258 C 
ATOM     10  H   UNL A   1      33.347  26.533  24.302  1.00  0.00     0.164 HD
ATOM     11  O   UNL A   1      34.172  27.167  21.927  1.00  0.00    -0.271 OA
BRANCH   9  12
ATOM     12  C   UNL A   1      32.529  25.483  21.446  1.00  0.00     0.329 C 
BRANCH  12  13
ATOM     13  O   UNL A   1      33.119  24.183  21.609  1.00  0.00    -0.482 OA
BRANCH  13  14
ATOM     14  C   UNL A   1      32.995  23.549  22.820  1.00  0.00     0.137 A 
ATOM     15  C   UNL A   1      31.695  23.255  23.261  1.00  0.00     0.048 A 
ATOM     16  C   UNL A   1      34.077  23.000  23.525  1.00  0.00     0.094 A 
ATOM     17  C   UNL A   1      31.482  22.473  24.408  1.00  0.00     0.004 A 
ATOM     18  C   UNL A   1      33.846  22.213  24.671  1.00  0.00     0.023 A 
ATOM     19  C   UNL A   1      32.555  21.952  25.117  1.00  0.00     0.002 A 
BRANCH  16  20
ATOM     20  C   UNL A   1      35.445  23.168  23.151  1.00  0.00     0.103 C 
ATOM     21  N   UNL A   1      36.565  23.174  22.836  1.00  0.00    -0.192 NA
ENDBRANCH  16  20
ENDBRANCH  13  14
ENDBRANCH  12  13
ENDBRANCH   9  12
ENDBRANCH   6   8
BRANCH   6  22
ATOM     22  C   UNL A   1      31.153  26.870  25.498  1.00  0.00     0.024 C 
ATOM     23  C   UNL A   1      30.445  25.577  25.845  1.00  0.00     0.007 C 
ATOM     24  C   UNL A   1      31.876  25.761  26.241  1.00  0.00     0.007 C 
ENDBRANCH   6  22
ENDBRANCH   3   6
ENDBRANCH   1   2
BRANCH   1  25
ATOM     25  C   UNL A   1      32.072  30.932  26.702  1.00  0.00     0.042 C 
BRANCH  25  26
ATOM     26  C   UNL A   1      33.211  31.771  27.280  1.00  0.00     0.118 C 
BRANCH  26  27
ATOM     27  N   UNL A   1      32.852  33.156  27.579  1.00  0.00    -0.352 N 
ATOM     28  C   UNL A   1      33.361  34.024  28.522  1.00  0.00     0.251 C 
ATOM     29  H   UNL A   1      32.135  33.529  27.018  1.00  0.00     0.163 HD
ATOM     30  O   UNL A   1      32.841  35.120  28.700  1.00  0.00    -0.269 OA
BRANCH  28  31
ATOM     31  C   UNL A   1      34.515  33.608  29.340  1.00  0.00     0.039 A 
ATOM     32  C   UNL A   1      34.350  32.729  30.415  1.00  0.00     0.014 A 
ATOM     33  C   UNL A   1      35.777  34.091  29.008  1.00  0.00     0.014 A 
ATOM     34  C   UNL A   1      35.477  32.268  31.102  1.00  0.00     0.010 A 
ATOM     35  C   UNL A   1      36.896  33.542  29.605  1.00  0.00     0.010 A 
ATOM     36  C   UNL A   1      36.758  32.642  30.673  1.00  0.00    -0.014 A 
BRANCH  36  37
ATOM     37  C   UNL A   1      38.002  32.194  31.342  1.00  0.00     0.031 A 
ATOM     38  C   UNL A   1      38.800  31.092  30.699  1.00  0.00     0.074 A 
ATOM     39  C   UNL A   1      38.320  32.662  32.563  1.00  0.00     0.049 A 
ATOM     40  N   UNL A   1      39.767  30.369  31.195  1.00  0.00    -0.248 NA
ATOM     41  C   UNL A   1      38.410  30.719  29.328  1.00  0.00     0.031 C 
ATOM     42  C   UNL A   1      37.597  33.712  33.283  1.00  0.00     0.029 A 
ATOM     43  N   UNL A   1      39.317  32.292  33.428  1.00  0.00    -0.354 N 
ATOM     44  C   UNL A   1      40.079  29.438  30.210  1.00  0.00     0.074 A 
ATOM     45  C   UNL A   1      39.149  29.641  29.122  1.00  0.00     0.031 C 
ATOM     46  C   UNL A   1      38.182  33.909  34.476  1.00  0.00     0.029 A 
ATOM     47  C   UNL A   1      39.277  32.957  34.633  1.00  0.00     0.049 A 
ATOM     48  H   UNL A   1      39.997  31.614  33.209  1.00  0.00     0.167 HD
ATOM     49  C   UNL A   1      41.070  28.512  30.208  1.00  0.00     0.034 A 
ATOM     50  C   UNL A   1      40.022  32.792  35.744  1.00  0.00     0.034 A 
ATOM     51  C   UNL A   1      41.987  28.344  31.305  1.00  0.00     0.049 A 
ATOM     52  C   UNL A   1      41.092  31.726  35.736  1.00  0.00     0.074 A 
ATOM     53  C   UNL A   1      43.065  27.484  31.402  1.00  0.00     0.029 A 
ATOM     54  N   UNL A   1      41.928  29.047  32.504  1.00  0.00    -0.354 N 
ATOM     55  N   UNL A   1      41.411  30.882  34.781  1.00  0.00    -0.248 NA
ATOM     56  C   UNL A   1      41.901  31.592  36.953  1.00  0.00     0.031 C 
ATOM     57  C   UNL A   1      43.601  27.603  32.687  1.00  0.00     0.029 A 
ATOM     58  C   UNL A   1      42.922  28.607  33.361  1.00  0.00     0.049 A 
ATOM     59  H   UNL A   1      41.274  29.752  32.712  1.00  0.00     0.167 HD
ATOM     60  C   UNL A   1      42.482  30.140  35.271  1.00  0.00     0.074 A 
ATOM     61  C   UNL A   1      42.764  30.652  36.598  1.00  0.00     0.031 C 
ATOM     62  C   UNL A   1      43.173  29.128  34.684  1.00  0.00     0.034 A 
BRANCH  49  63
ATOM     63  C   UNL A   1      41.182  27.608  29.004  1.00  0.00     0.023 A 
ATOM     64  C   UNL A   1      42.172  27.800  28.025  1.00  0.00     0.031 A 
ATOM     65  C   UNL A   1      40.269  26.556  28.815  1.00  0.00     0.131 A 
ATOM     66  C   UNL A   1      42.176  27.009  26.866  1.00  0.00     0.055 A 
ATOM     67  C   UNL A   1      40.337  25.711  27.705  1.00  0.00     0.041 A 
ATOM     68  F   UNL A   1      39.282  26.340  29.699  1.00  0.00    -0.206 F 
ATOM     69  C   UNL A   1      41.286  25.945  26.714  1.00  0.00     0.022 A 
BRANCH  66  70
ATOM     70  S   UNL A   1      43.257  27.496  25.493  1.00  0.00     0.124 S 
ATOM     71  O   UNL A   1      42.306  28.130  24.583  1.00  0.00    -0.237 OA
ATOM     72  O   UNL A   1      44.211  28.386  26.142  1.00  0.00    -0.237 OA
ATOM     73  O   UNL A   1      43.805  26.226  25.023  1.00  0.00    -0.744 OA
ENDBRANCH  66  70
ENDBRANCH  49  63
BRANCH  50  74
ATOM     74  C   UNL A   1      39.784  33.632  36.953  1.00  0.00     0.023 A 
ATOM     75  C   UNL A   1      39.172  33.092  38.095  1.00  0.00     0.031 A 
ATOM     76  C   UNL A   1      40.123  34.998  36.975  1.00  0.00     0.131 A 
ATOM     77  C   UNL A   1      38.871  33.919  39.188  1.00  0.00     0.055 A 
ATOM     78  C   UNL A   1      39.883  35.802  38.091  1.00  0.00     0.041 A 
ATOM     79  F   UNL A   1      40.710  35.570  35.912  1.00  0.00    -0.206 F 
ATOM     80  C   UNL A   1      39.239  35.265  39.202  1.00  0.00     0.022 A 
BRANCH  77  81
ATOM     81  S   UNL A   1      37.893  33.229  40.550  1.00  0.00     0.124 S 
ATOM     82  O   UNL A   1      37.958  34.304  41.534  1.00  0.00    -0.237 OA
ATOM     83  O   UNL A   1      36.596  33.016  39.914  1.00  0.00    -0.237 OA
ATOM     84  O   UNL A   1      38.618  32.011  40.905  1.00  0.00    -0.744 OA
ENDBRANCH  77  81
ENDBRANCH  50  74
BRANCH  62  85
ATOM     85  C   UNL A   1      44.322  28.540  35.465  1.00  0.00     0.023 A 
ATOM     86  C   UNL A   1      44.135  27.482  36.370  1.00  0.00     0.031 A 
ATOM     87  C   UNL A   1      45.624  29.049  35.302  1.00  0.00     0.131 A 
ATOM     88  C   UNL A   1      45.217  27.011  37.124  1.00  0.00     0.055 A 
ATOM     89  C   UNL A   1      46.712  28.522  35.997  1.00  0.00     0.041 A 
ATOM     90  F   UNL A   1      45.860  30.064  34.455  1.00  0.00    -0.206 F 
ATOM     91  C   UNL A   1      46.509  27.505  36.927  1.00  0.00     0.022 A 
BRANCH  88  92
ATOM     92  S   UNL A   1      44.892  25.823  38.454  1.00  0.00     0.124 S 
ATOM     93  O   UNL A   1      44.226  24.742  37.736  1.00  0.00    -0.237 OA
ATOM     94  O   UNL A   1      46.234  25.529  38.948  1.00  0.00    -0.237 OA
ATOM     95  O   UNL A   1      44.041  26.570  39.379  1.00  0.00    -0.744 OA
ENDBRANCH  88  92
ENDBRANCH  62  85
ENDBRANCH  36  37
ENDBRANCH  28  31
ENDBRANCH  26  27
ENDBRANCH  25  26
ENDBRANCH   1  25
TORSDOF 19
ENDMDL
MODEL 3
REMARK VINA RESULT:     -11.3      2.182      2.942
REMARK SMILES C[C@@](NC(=O)COc1ccccc1C#N)(C(=O)NCCCNC(=O)c1ccc(-c2c3nc(c(-c4cc(S(=O)(=O)[O-])ccc4F)c4ccc([nH]4)c(-c4cc(S(=O)(=O)[O-])ccc4F)c4nc(c(-c5cc(S(=O)(=O)[O-])ccc5F)c5ccc2[nH]5)C=C4)C=C3)cc1)C1CC1
REMARK SMILES IDX 19 1 18 2 16 3 17 4 2 6 1 7 3 8 4 9 5 11 6 12 7 13 8 14 9 15
REMARK SMILES IDX 13 16 10 17 12 18 11 19 14 20 15 21 88 22 89 23 90 24 20 25
REMARK SMILES IDX 21 26 22 27 23 28 24 30 25 31 26 32 87 33 27 34 86 35 28 36
REMARK SMILES IDX 29 37 30 38 80 39 31 40 85 41 79 42 81 43 32 44 84 45 78 46
REMARK SMILES IDX 77 47 33 49 65 50 45 51 64 52 46 53 49 54 63 55 82 56 47 57
REMARK SMILES IDX 48 58 62 60 83 61 50 62 34 63 35 64 43 65 36 66 42 67 44 68
REMARK SMILES IDX 41 69 37 70 38 71 39 72 40 73 66 74 67 75 75 76 68 77 74 78
REMARK SMILES IDX 76 79 73 80 69 81 70 82 71 83 72 84 51 85 52 86 60 87 53 88
REMARK SMILES IDX 59 89 61 90 58 91 54 92 55 93 56 94 57 95
REMARK H PARENT 18 5 3 10 22 29 81 48 49 59
REMARK Flexibility Score: inf
ROOT
ATOM      1  C   UNL A   1      33.502  26.474  25.735  1.00  0.00     0.117 C 
ENDROOT
BRANCH   1   2
ATOM      2  N   UNL A   1      33.956  26.285  24.371  1.00  0.00    -0.354 N 
ATOM      3  C   UNL A   1      33.692  25.273  23.493  1.00  0.00     0.245 C 
ATOM      4  O   UNL A   1      33.699  25.628  22.310  1.00  0.00    -0.272 OA
ATOM      5  H   UNL A   1      34.545  26.994  24.025  1.00  0.00     0.163 HD
BRANCH   3   6
ATOM      6  C   UNL A   1      33.400  23.802  23.949  1.00  0.00     0.119 C 
ATOM      7  C   UNL A   1      33.776  22.885  22.737  1.00  0.00     0.046 C 
BRANCH   6   8
ATOM      8  N   UNL A   1      34.197  23.331  25.108  1.00  0.00    -0.339 N 
ATOM      9  C   UNL A   1      34.556  22.049  25.431  1.00  0.00     0.258 C 
ATOM     10  H   UNL A   1      34.510  24.031  25.726  1.00  0.00     0.164 HD
ATOM     11  O   UNL A   1      35.756  21.769  25.490  1.00  0.00    -0.271 OA
BRANCH   9  12
ATOM     12  C   UNL A   1      33.505  21.050  25.918  1.00  0.00     0.329 C 
BRANCH  12  13
ATOM     13  O   UNL A   1      33.836  19.670  25.684  1.00  0.00    -0.482 OA
BRANCH  13  14
ATOM     14  C   UNL A   1      33.352  19.058  24.555  1.00  0.00     0.137 A 
ATOM     15  C   UNL A   1      32.543  19.826  23.704  1.00  0.00     0.048 A 
ATOM     16  C   UNL A   1      33.786  17.802  24.105  1.00  0.00     0.094 A 
ATOM     17  C   UNL A   1      32.136  19.332  22.455  1.00  0.00     0.004 A 
ATOM     18  C   UNL A   1      33.373  17.321  22.846  1.00  0.00     0.023 A 
ATOM     19  C   UNL A   1      32.547  18.078  22.024  1.00  0.00     0.002 A 
BRANCH  16  20
ATOM     20  C   UNL A   1      34.660  16.945  24.842  1.00  0.00     0.103 C 
ATOM     21  N   UNL A   1      35.315  16.146  25.377  1.00  0.00    -0.192 NA
ENDBRANCH  16  20
ENDBRANCH  13  14
ENDBRANCH  12  13
ENDBRANCH   9  12
ENDBRANCH   6   8
BRANCH   6  22
ATOM     22  C   UNL A   1      31.901  23.464  24.208  1.00  0.00     0.024 C 
ATOM     23  C   UNL A   1      31.186  23.722  25.518  1.00  0.00     0.007 C 
ATOM     24  C   UNL A   1      30.743  24.443  24.284  1.00  0.00     0.007 C 
ENDBRANCH   6  22
ENDBRANCH   3   6
ENDBRANCH   1   2
BRANCH   1  25
ATOM     25  C   UNL A   1      32.671  27.727  25.948  1.00  0.00     0.042 C 
BRANCH  25  26
ATOM     26  C   UNL A   1      33.356  29.008  25.474  1.00  0.00     0.118 C 
BRANCH  26  27
ATOM     27  N   UNL A   1      32.729  30.241  25.945  1.00  0.00    -0.352 N 
ATOM     28  C   UNL A   1      33.142  31.138  26.908  1.00  0.00     0.251 C 
ATOM     29  H   UNL A   1      31.878  30.468  25.506  1.00  0.00     0.163 HD
ATOM     30  O   UNL A   1      32.410  32.061  27.249  1.00  0.00    -0.269 OA
BRANCH  28  31
ATOM     31  C   UNL A   1      34.457  30.957  27.549  1.00  0.00     0.039 A 
ATOM     32  C   UNL A   1      35.347  32.029  27.669  1.00  0.00     0.014 A 
ATOM     33  C   UNL A   1      34.787  29.703  28.053  1.00  0.00     0.014 A 
ATOM     34  C   UNL A   1      36.539  31.853  28.379  1.00  0.00     0.010 A 
ATOM     35  C   UNL A   1      35.902  29.563  28.857  1.00  0.00     0.010 A 
ATOM     36  C   UNL A   1      36.802  30.629  29.009  1.00  0.00    -0.014 A 
BRANCH  36  37
ATOM     37  C   UNL A   1      38.037  30.362  29.784  1.00  0.00     0.031 A 
ATOM     38  C   UNL A   1      39.046  29.405  29.210  1.00  0.00     0.074 A 
ATOM     39  C   UNL A   1      38.173  30.852  31.031  1.00  0.00     0.049 A 
ATOM     40  N   UNL A   1      40.066  28.828  29.787  1.00  0.00    -0.248 NA
ATOM     41  C   UNL A   1      38.839  29.002  27.809  1.00  0.00     0.031 C 
ATOM     42  C   UNL A   1      37.238  31.768  31.688  1.00  0.00     0.029 A 
ATOM     43  N   UNL A   1      39.135  30.622  31.979  1.00  0.00    -0.354 N 
ATOM     44  C   UNL A   1      40.601  27.972  28.830  1.00  0.00     0.074 A 
ATOM     45  C   UNL A   1      39.749  28.052  27.665  1.00  0.00     0.031 C 
ATOM     46  C   UNL A   1      37.681  32.030  32.929  1.00  0.00     0.029 A 
ATOM     47  C   UNL A   1      38.890  31.252  33.178  1.00  0.00     0.049 A 
ATOM     48  H   UNL A   1      39.927  30.059  31.819  1.00  0.00     0.167 HD
ATOM     49  C   UNL A   1      41.717  27.208  28.912  1.00  0.00     0.034 A 
ATOM     50  C   UNL A   1      39.551  31.182  34.350  1.00  0.00     0.034 A 
ATOM     51  C   UNL A   1      42.550  27.162  30.086  1.00  0.00     0.049 A 
ATOM     52  C   UNL A   1      40.768  30.291  34.434  1.00  0.00     0.074 A 
ATOM     53  C   UNL A   1      43.734  26.473  30.274  1.00  0.00     0.029 A 
ATOM     54  N   UNL A   1      42.280  27.826  31.277  1.00  0.00    -0.354 N 
ATOM     55  N   UNL A   1      41.294  29.522  33.506  1.00  0.00    -0.248 NA
ATOM     56  C   UNL A   1      41.479  30.260  35.716  1.00  0.00     0.031 C 
ATOM     57  C   UNL A   1      44.132  26.649  31.602  1.00  0.00     0.029 A 
ATOM     58  C   UNL A   1      43.251  27.528  32.217  1.00  0.00     0.049 A 
ATOM     59  H   UNL A   1      41.511  28.421  31.429  1.00  0.00     0.167 HD
ATOM     60  C   UNL A   1      42.419  28.942  34.087  1.00  0.00     0.074 A 
ATOM     61  C   UNL A   1      42.502  29.467  35.435  1.00  0.00     0.031 C 
ATOM     62  C   UNL A   1      43.304  28.057  33.560  1.00  0.00     0.034 A 
BRANCH  49  63
ATOM     63  C   UNL A   1      42.070  26.353  27.719  1.00  0.00     0.023 A 
ATOM     64  C   UNL A   1      41.811  24.971  27.697  1.00  0.00     0.031 A 
ATOM     65  C   UNL A   1      42.699  26.920  26.597  1.00  0.00     0.131 A 
ATOM     66  C   UNL A   1      42.253  24.192  26.617  1.00  0.00     0.055 A 
ATOM     67  C   UNL A   1      43.051  26.154  25.484  1.00  0.00     0.041 A 
ATOM     68  F   UNL A   1      43.000  28.227  26.569  1.00  0.00    -0.206 F 
ATOM     69  C   UNL A   1      42.842  24.778  25.496  1.00  0.00     0.022 A 
BRANCH  66  70
ATOM     70  S   UNL A   1      42.191  22.386  26.774  1.00  0.00     0.124 S 
ATOM     71  O   UNL A   1      43.576  22.019  26.489  1.00  0.00    -0.237 OA
ATOM     72  O   UNL A   1      41.753  22.203  28.152  1.00  0.00    -0.237 OA
ATOM     73  O   UNL A   1      41.225  21.986  25.753  1.00  0.00    -0.744 OA
ENDBRANCH  66  70
ENDBRANCH  49  63
BRANCH  50  74
ATOM     74  C   UNL A   1      39.083  31.956  35.537  1.00  0.00     0.023 A 
ATOM     75  C   UNL A   1      38.433  31.314  36.603  1.00  0.00     0.031 A 
ATOM     76  C   UNL A   1      39.240  33.352  35.610  1.00  0.00     0.131 A 
ATOM     77  C   UNL A   1      37.917  32.069  37.667  1.00  0.00     0.055 A 
ATOM     78  C   UNL A   1      38.784  34.091  36.703  1.00  0.00     0.041 A 
ATOM     79  F   UNL A   1      39.854  34.020  34.620  1.00  0.00    -0.206 F 
ATOM     80  C   UNL A   1      38.104  33.450  37.734  1.00  0.00     0.022 A 
BRANCH  77  81
ATOM     81  S   UNL A   1      36.902  31.227  38.911  1.00  0.00     0.124 S 
ATOM     82  O   UNL A   1      37.776  31.262  40.078  1.00  0.00    -0.237 OA
ATOM     83  O   UNL A   1      35.720  32.082  38.967  1.00  0.00    -0.237 OA
ATOM     84  O   UNL A   1      36.684  29.903  38.332  1.00  0.00    -0.744 OA
ENDBRANCH  77  81
ENDBRANCH  50  74
BRANCH  62  85
ATOM     85  C   UNL A   1      44.457  27.637  34.436  1.00  0.00     0.023 A 
ATOM     86  C   UNL A   1      44.397  26.478  35.230  1.00  0.00     0.031 A 
ATOM     87  C   UNL A   1      45.633  28.408  34.480  1.00  0.00     0.131 A 
ATOM     88  C   UNL A   1      45.464  26.161  36.081  1.00  0.00     0.055 A 
ATOM     89  C   UNL A   1      46.723  28.042  35.269  1.00  0.00     0.041 A 
ATOM     90  F   UNL A   1      45.743  29.528  33.747  1.00  0.00    -0.206 F 
ATOM     91  C   UNL A   1      46.637  26.920  36.088  1.00  0.00     0.022 A 
BRANCH  88  92
ATOM     92  S   UNL A   1      45.249  24.807  37.268  1.00  0.00     0.124 S 
ATOM     93  O   UNL A   1      46.569  24.736  37.885  1.00  0.00    -0.237 OA
ATOM     94  O   UNL A   1      44.173  25.306  38.119  1.00  0.00    -0.237 OA
ATOM     95  O   UNL A   1      44.895  23.666  36.425  1.00  0.00    -0.744 OA
ENDBRANCH  88  92
ENDBRANCH  62  85
ENDBRANCH  36  37
ENDBRANCH  28  31
ENDBRANCH  26  27
ENDBRANCH  25  26
ENDBRANCH   1  25
TORSDOF 19
ENDMDL
