MODEL 1
REMARK VINA RESULT:     -12.7      0.000      0.000
REMARK SMILES CS(=O)(=O)c1ccc(-c2cc(Cl)cnc2-c2ccc(C(=O)NCCCNC(=O)c3ccc(-c4c5nc(c(-c6cc(S(=O)(=O)[O-])ccc6F)c6ccc([nH]6)c(-c6cc(S(=O)(=O)[O-])ccc6F)c6nc(c(-c7cc(S(=O)(=O)[O-])ccc7F)c7ccc4[nH]7)C=C6)C=C5)cc3)nc2)cc1
REMARK SMILES IDX 24 1 23 2 22 3 20 4 21 5 19 7 16 8 17 9 93 10 18 11 92 12
REMARK SMILES IDX 15 13 9 14 10 15 11 16 14 17 12 18 13 19 8 20 5 21 6 22
REMARK SMILES IDX 95 23 7 24 94 25 2 26 1 27 3 28 4 29 25 30 26 31 27 32 28 34
REMARK SMILES IDX 29 35 30 36 91 37 31 38 90 39 32 40 33 41 34 42 84 43 35 44
REMARK SMILES IDX 89 45 83 46 85 47 36 48 88 49 82 50 81 51 37 53 69 54 49 55
REMARK SMILES IDX 68 56 50 57 53 58 67 59 86 60 51 61 52 62 66 64 87 65 54 66
REMARK SMILES IDX 38 67 39 68 47 69 40 70 46 71 48 72 45 73 41 74 42 75 43 76
REMARK SMILES IDX 44 77 70 78 71 79 79 80 72 81 78 82 80 83 77 84 73 85 74 86
REMARK SMILES IDX 75 87 76 88 55 89 56 90 64 91 57 92 63 93 65 94 62 95 58 96
REMARK SMILES IDX 59 97 60 98 61 99
REMARK H PARENT 22 6 26 33 85 52 53 63
REMARK Flexibility Score: inf
ROOT
ATOM      1  C   UNL A   1      31.504  32.157  26.751  1.00  0.00     0.042 C 
ENDROOT
BRANCH   1   2
ATOM      2  C   UNL A   1      31.769  30.655  26.865  1.00  0.00     0.118 C 
BRANCH   2   3
ATOM      3  N   UNL A   1      33.044  30.393  27.508  1.00  0.00    -0.351 N 
ATOM      4  C   UNL A   1      33.864  29.286  27.557  1.00  0.00     0.269 C 
ATOM      5  O   UNL A   1      34.933  29.427  28.155  1.00  0.00    -0.268 OA
ATOM      6  H   UNL A   1      33.395  31.163  28.011  1.00  0.00     0.163 HD
BRANCH   4   7
ATOM      7  C   UNL A   1      33.544  27.972  26.891  1.00  0.00     0.128 A 
ATOM      8  C   UNL A   1      33.060  25.697  25.386  1.00  0.00     0.019 A 
ATOM      9  C   UNL A   1      32.108  26.147  26.303  1.00  0.00     0.014 A 
ATOM     10  C   UNL A   1      34.270  26.377  25.359  1.00  0.00     0.122 A 
ATOM     11  C   UNL A   1      32.360  27.276  27.081  1.00  0.00     0.035 A 
ATOM     12  N   UNL A   1      34.520  27.507  26.061  1.00  0.00    -0.250 NA
BRANCH   8  13
ATOM     13  C   UNL A   1      32.736  24.635  24.433  1.00  0.00     0.080 A 
ATOM     14  C   UNL A   1      31.636  24.742  23.549  1.00  0.00     0.010 A 
ATOM     15  C   UNL A   1      31.301  23.599  22.808  1.00  0.00     0.033 A 
ATOM     16  C   UNL A   1      32.056  22.437  22.943  1.00  0.00     0.060 A 
ATOM     17  N   UNL A   1      33.501  23.520  24.547  1.00  0.00    -0.254 NA
ATOM     18  Cl  UNL A   1      31.640  21.021  22.068  1.00  0.00    -0.083 Cl
ATOM     19  C   UNL A   1      33.142  22.448  23.802  1.00  0.00     0.132 A 
BRANCH  14  20
ATOM     20  C   UNL A   1      30.845  25.983  23.420  1.00  0.00    -0.016 A 
ATOM     21  C   UNL A   1      29.234  28.243  22.972  1.00  0.00     0.067 A 
ATOM     22  C   UNL A   1      28.727  27.172  23.705  1.00  0.00     0.021 A 
ATOM     23  C   UNL A   1      30.539  28.211  22.475  1.00  0.00     0.021 A 
ATOM     24  C   UNL A   1      29.539  26.060  23.941  1.00  0.00     0.010 A 
ATOM     25  C   UNL A   1      31.340  27.087  22.705  1.00  0.00     0.010 A 
BRANCH  21  26
ATOM     26  S   UNL A   1      28.182  29.624  22.594  1.00  0.00     0.175 S 
ATOM     27  C   UNL A   1      28.917  30.957  23.503  1.00  0.00     0.163 C 
ATOM     28  O   UNL A   1      26.879  29.360  23.163  1.00  0.00    -0.224 OA
ATOM     29  O   UNL A   1      28.336  29.904  21.176  1.00  0.00    -0.224 OA
ENDBRANCH  21  26
ENDBRANCH  14  20
ENDBRANCH   8  13
ENDBRANCH   4   7
ENDBRANCH   2   3
ENDBRANCH   1   2
BRANCH   1  30
ATOM     30  C   UNL A   1      32.769  33.007  26.863  1.00  0.00     0.118 C 
BRANCH  30  31
ATOM     31  N   UNL A   1      32.531  34.234  27.611  1.00  0.00    -0.352 N 
ATOM     32  C   UNL A   1      33.068  34.666  28.798  1.00  0.00     0.251 C 
ATOM     33  H   UNL A   1      31.884  34.852  27.200  1.00  0.00     0.163 HD
ATOM     34  O   UNL A   1      32.541  35.606  29.387  1.00  0.00    -0.269 OA
BRANCH  32  35
ATOM     35  C   UNL A   1      34.260  34.004  29.376  1.00  0.00     0.039 A 
ATOM     36  C   UNL A   1      35.529  34.457  29.007  1.00  0.00     0.014 A 
ATOM     37  C   UNL A   1      34.132  32.917  30.245  1.00  0.00     0.014 A 
ATOM     38  C   UNL A   1      36.668  33.866  29.563  1.00  0.00     0.010 A 
ATOM     39  C   UNL A   1      35.264  32.376  30.852  1.00  0.00     0.010 A 
ATOM     40  C   UNL A   1      36.543  32.849  30.523  1.00  0.00    -0.014 A 
BRANCH  40  41
ATOM     41  C   UNL A   1      37.735  32.286  31.213  1.00  0.00     0.031 A 
ATOM     42  C   UNL A   1      38.546  31.199  30.560  1.00  0.00     0.074 A 
ATOM     43  C   UNL A   1      38.031  32.701  32.462  1.00  0.00     0.049 A 
ATOM     44  N   UNL A   1      39.549  30.515  31.044  1.00  0.00    -0.248 NA
ATOM     45  C   UNL A   1      38.162  30.814  29.193  1.00  0.00     0.031 C 
ATOM     46  C   UNL A   1      37.295  33.726  33.207  1.00  0.00     0.029 A 
ATOM     47  N   UNL A   1      39.013  32.305  33.335  1.00  0.00    -0.354 N 
ATOM     48  C   UNL A   1      39.901  29.602  30.055  1.00  0.00     0.074 A 
ATOM     49  C   UNL A   1      38.977  29.797  28.957  1.00  0.00     0.031 C 
ATOM     50  C   UNL A   1      37.861  33.889  34.413  1.00  0.00     0.029 A 
ATOM     51  C   UNL A   1      38.961  32.942  34.555  1.00  0.00     0.049 A 
ATOM     52  H   UNL A   1      39.693  31.628  33.110  1.00  0.00     0.167 HD
ATOM     53  C   UNL A   1      40.908  28.694  30.062  1.00  0.00     0.034 A 
ATOM     54  C   UNL A   1      39.698  32.765  35.671  1.00  0.00     0.034 A 
ATOM     55  C   UNL A   1      41.833  28.534  31.157  1.00  0.00     0.049 A 
ATOM     56  C   UNL A   1      40.789  31.720  35.659  1.00  0.00     0.074 A 
ATOM     57  C   UNL A   1      42.946  27.714  31.228  1.00  0.00     0.029 A 
ATOM     58  N   UNL A   1      41.745  29.190  32.378  1.00  0.00    -0.354 N 
ATOM     59  N   UNL A   1      41.160  30.926  34.682  1.00  0.00    -0.248 NA
ATOM     60  C   UNL A   1      41.563  31.553  36.896  1.00  0.00     0.031 C 
ATOM     61  C   UNL A   1      43.477  27.808  32.517  1.00  0.00     0.029 A 
ATOM     62  C   UNL A   1      42.752  28.752  33.225  1.00  0.00     0.049 A 
ATOM     63  H   UNL A   1      41.068  29.866  32.608  1.00  0.00     0.167 HD
ATOM     64  C   UNL A   1      42.231  30.187  35.180  1.00  0.00     0.074 A 
ATOM     65  C   UNL A   1      42.459  30.646  36.533  1.00  0.00     0.031 C 
ATOM     66  C   UNL A   1      42.961  29.217  34.575  1.00  0.00     0.034 A 
BRANCH  53  67
ATOM     67  C   UNL A   1      41.047  27.778  28.871  1.00  0.00     0.023 A 
ATOM     68  C   UNL A   1      42.047  27.959  27.901  1.00  0.00     0.031 A 
ATOM     69  C   UNL A   1      40.174  26.684  28.720  1.00  0.00     0.131 A 
ATOM     70  C   UNL A   1      42.119  27.092  26.799  1.00  0.00     0.055 A 
ATOM     71  C   UNL A   1      40.297  25.782  27.662  1.00  0.00     0.041 A 
ATOM     72  F   UNL A   1      39.187  26.472  29.604  1.00  0.00    -0.206 F 
ATOM     73  C   UNL A   1      41.268  25.989  26.687  1.00  0.00     0.022 A 
BRANCH  70  74
ATOM     74  S   UNL A   1      43.272  27.486  25.456  1.00  0.00     0.124 S 
ATOM     75  O   UNL A   1      44.186  28.415  26.115  1.00  0.00    -0.237 OA
ATOM     76  O   UNL A   1      43.824  26.179  25.119  1.00  0.00    -0.237 OA
ATOM     77  O   UNL A   1      42.417  28.085  24.434  1.00  0.00    -0.744 OA
ENDBRANCH  70  74
ENDBRANCH  53  67
BRANCH  54  78
ATOM     78  C   UNL A   1      39.421  33.554  36.907  1.00  0.00     0.023 A 
ATOM     79  C   UNL A   1      40.123  34.740  37.178  1.00  0.00     0.031 A 
ATOM     80  C   UNL A   1      38.512  33.096  37.879  1.00  0.00     0.131 A 
ATOM     81  C   UNL A   1      39.958  35.388  38.413  1.00  0.00     0.055 A 
ATOM     82  C   UNL A   1      38.300  33.781  39.076  1.00  0.00     0.041 A 
ATOM     83  F   UNL A   1      37.813  31.968  37.677  1.00  0.00    -0.206 F 
ATOM     84  C   UNL A   1      39.040  34.925  39.357  1.00  0.00     0.022 A 
BRANCH  81  85
ATOM     85  S   UNL A   1      41.061  36.769  38.819  1.00  0.00     0.124 S 
ATOM     86  O   UNL A   1      41.892  36.846  37.622  1.00  0.00    -0.237 OA
ATOM     87  O   UNL A   1      40.116  37.863  39.016  1.00  0.00    -0.237 OA
ATOM     88  O   UNL A   1      41.745  36.312  40.027  1.00  0.00    -0.744 OA
ENDBRANCH  81  85
ENDBRANCH  54  78
BRANCH  66  89
ATOM     89  C   UNL A   1      44.101  28.621  35.364  1.00  0.00     0.023 A 
ATOM     90  C   UNL A   1      43.906  27.546  36.248  1.00  0.00     0.031 A 
ATOM     91  C   UNL A   1      45.403  29.135  35.224  1.00  0.00     0.131 A 
ATOM     92  C   UNL A   1      44.985  27.053  36.997  1.00  0.00     0.055 A 
ATOM     93  C   UNL A   1      46.484  28.597  35.922  1.00  0.00     0.041 A 
ATOM     94  F   UNL A   1      45.646  30.164  34.396  1.00  0.00    -0.206 F 
ATOM     95  C   UNL A   1      46.276  27.558  36.823  1.00  0.00     0.022 A 
BRANCH  92  96
ATOM     96  S   UNL A   1      44.664  25.794  38.262  1.00  0.00     0.124 S 
ATOM     97  O   UNL A   1      45.865  25.880  39.086  1.00  0.00    -0.237 OA
ATOM     98  O   UNL A   1      43.433  26.275  38.879  1.00  0.00    -0.237 OA
ATOM     99  O   UNL A   1      44.528  24.559  37.491  1.00  0.00    -0.744 OA
ENDBRANCH  92  96
ENDBRANCH  66  89
ENDBRANCH  40  41
ENDBRANCH  32  35
ENDBRANCH  30  31
ENDBRANCH   1  30
TORSDOF 16
ENDMDL
MODEL 2
REMARK VINA RESULT:     -12.6      1.887      2.119
REMARK SMILES CS(=O)(=O)c1ccc(-c2cc(Cl)cnc2-c2ccc(C(=O)NCCCNC(=O)c3ccc(-c4c5nc(c(-c6cc(S(=O)(=O)[O-])ccc6F)c6ccc([nH]6)c(-c6cc(S(=O)(=O)[O-])ccc6F)c6nc(c(-c7cc(S(=O)(=O)[O-])ccc7F)c7ccc4[nH]7)C=C6)C=C5)cc3)nc2)cc1
REMARK SMILES IDX 24 1 23 2 22 3 20 4 21 5 19 7 16 8 17 9 93 10 18 11 92 12
REMARK SMILES IDX 15 13 9 14 10 15 11 16 14 17 12 18 13 19 8 20 5 21 6 22
REMARK SMILES IDX 95 23 7 24 94 25 2 26 1 27 3 28 4 29 25 30 26 31 27 32 28 34
REMARK SMILES IDX 29 35 30 36 91 37 31 38 90 39 32 40 33 41 34 42 84 43 35 44
REMARK SMILES IDX 89 45 83 46 85 47 36 48 88 49 82 50 81 51 37 53 69 54 49 55
REMARK SMILES IDX 68 56 50 57 53 58 67 59 86 60 51 61 52 62 66 64 87 65 54 66
REMARK SMILES IDX 38 67 39 68 47 69 40 70 46 71 48 72 45 73 41 74 42 75 43 76
REMARK SMILES IDX 44 77 70 78 71 79 79 80 72 81 78 82 80 83 77 84 73 85 74 86
REMARK SMILES IDX 75 87 76 88 55 89 56 90 64 91 57 92 63 93 65 94 62 95 58 96
REMARK SMILES IDX 59 97 60 98 61 99
REMARK H PARENT 22 6 26 33 85 52 53 63
REMARK Flexibility Score: inf
ROOT
ATOM      1  C   UNL A   1      31.426  32.156  26.752  1.00  0.00     0.042 C 
ENDROOT
BRANCH   1   2
ATOM      2  C   UNL A   1      31.740  30.661  26.836  1.00  0.00     0.118 C 
BRANCH   2   3
ATOM      3  N   UNL A   1      33.021  30.427  27.477  1.00  0.00    -0.351 N 
ATOM      4  C   UNL A   1      33.868  29.340  27.521  1.00  0.00     0.269 C 
ATOM      5  O   UNL A   1      34.933  29.503  28.120  1.00  0.00    -0.268 OA
ATOM      6  H   UNL A   1      33.353  31.202  27.984  1.00  0.00     0.163 HD
BRANCH   4   7
ATOM      7  C   UNL A   1      33.579  28.022  26.849  1.00  0.00     0.128 A 
ATOM      8  C   UNL A   1      33.139  25.746  25.331  1.00  0.00     0.019 A 
ATOM      9  C   UNL A   1      32.199  26.148  26.282  1.00  0.00     0.014 A 
ATOM     10  C   UNL A   1      34.319  26.474  25.276  1.00  0.00     0.122 A 
ATOM     11  C   UNL A   1      32.430  27.277  27.067  1.00  0.00     0.035 A 
ATOM     12  N   UNL A   1      34.546  27.605  25.985  1.00  0.00    -0.250 NA
BRANCH   8  13
ATOM     13  C   UNL A   1      32.827  24.683  24.376  1.00  0.00     0.080 A 
ATOM     14  C   UNL A   1      31.724  24.777  23.494  1.00  0.00     0.010 A 
ATOM     15  C   UNL A   1      31.404  23.632  22.750  1.00  0.00     0.033 A 
ATOM     16  C   UNL A   1      32.175  22.480  22.880  1.00  0.00     0.060 A 
ATOM     17  N   UNL A   1      33.608  23.578  24.484  1.00  0.00    -0.254 NA
ATOM     18  Cl  UNL A   1      31.778  21.062  22.001  1.00  0.00    -0.083 Cl
ATOM     19  C   UNL A   1      33.263  22.504  23.737  1.00  0.00     0.132 A 
BRANCH  14  20
ATOM     20  C   UNL A   1      30.915  26.008  23.371  1.00  0.00    -0.016 A 
ATOM     21  C   UNL A   1      29.274  28.247  22.932  1.00  0.00     0.067 A 
ATOM     22  C   UNL A   1      28.778  27.162  23.651  1.00  0.00     0.021 A 
ATOM     23  C   UNL A   1      30.583  28.239  22.444  1.00  0.00     0.021 A 
ATOM     24  C   UNL A   1      29.605  26.060  23.883  1.00  0.00     0.010 A 
ATOM     25  C   UNL A   1      31.399  27.125  22.670  1.00  0.00     0.010 A 
BRANCH  21  26
ATOM     26  S   UNL A   1      28.205  29.616  22.559  1.00  0.00     0.175 S 
ATOM     27  C   UNL A   1      28.899  30.946  23.504  1.00  0.00     0.163 C 
ATOM     28  O   UNL A   1      26.897  29.319  23.101  1.00  0.00    -0.224 OA
ATOM     29  O   UNL A   1      28.378  29.924  21.149  1.00  0.00    -0.224 OA
ENDBRANCH  21  26
ENDBRANCH  14  20
ENDBRANCH   8  13
ENDBRANCH   4   7
ENDBRANCH   2   3
ENDBRANCH   1   2
BRANCH   1  30
ATOM     30  C   UNL A   1      32.673  33.040  26.780  1.00  0.00     0.118 C 
BRANCH  30  31
ATOM     31  N   UNL A   1      32.478  34.224  27.606  1.00  0.00    -0.352 N 
ATOM     32  C   UNL A   1      33.062  34.579  28.797  1.00  0.00     0.251 C 
ATOM     33  H   UNL A   1      31.826  34.872  27.255  1.00  0.00     0.163 HD
ATOM     34  O   UNL A   1      32.568  35.489  29.457  1.00  0.00    -0.269 OA
BRANCH  32  35
ATOM     35  C   UNL A   1      34.264  33.871  29.292  1.00  0.00     0.039 A 
ATOM     36  C   UNL A   1      35.526  34.346  28.928  1.00  0.00     0.014 A 
ATOM     37  C   UNL A   1      34.151  32.720  30.078  1.00  0.00     0.014 A 
ATOM     38  C   UNL A   1      36.675  33.711  29.408  1.00  0.00     0.010 A 
ATOM     39  C   UNL A   1      35.295  32.131  30.613  1.00  0.00     0.010 A 
ATOM     40  C   UNL A   1      36.568  32.623  30.290  1.00  0.00    -0.014 A 
BRANCH  40  41
ATOM     41  C   UNL A   1      37.773  32.005  30.906  1.00  0.00     0.031 A 
ATOM     42  C   UNL A   1      38.556  30.960  30.156  1.00  0.00     0.074 A 
ATOM     43  C   UNL A   1      38.108  32.330  32.171  1.00  0.00     0.049 A 
ATOM     44  N   UNL A   1      39.566  30.237  30.562  1.00  0.00    -0.248 NA
ATOM     45  C   UNL A   1      38.130  30.673  28.777  1.00  0.00     0.031 C 
ATOM     46  C   UNL A   1      37.403  33.306  33.006  1.00  0.00     0.029 A 
ATOM     47  N   UNL A   1      39.111  31.867  32.986  1.00  0.00    -0.354 N 
ATOM     48  C   UNL A   1      39.881  29.392  29.503  1.00  0.00     0.074 A 
ATOM     49  C   UNL A   1      38.929  29.669  28.448  1.00  0.00     0.031 C 
ATOM     50  C   UNL A   1      38.004  33.381  34.204  1.00  0.00     0.029 A 
ATOM     51  C   UNL A   1      39.099  32.418  34.249  1.00  0.00     0.049 A 
ATOM     52  H   UNL A   1      39.777  31.203  32.696  1.00  0.00     0.167 HD
ATOM     53  C   UNL A   1      40.879  28.478  29.419  1.00  0.00     0.034 A 
ATOM     54  C   UNL A   1      39.864  32.159  35.329  1.00  0.00     0.034 A 
ATOM     55  C   UNL A   1      41.834  28.236  30.474  1.00  0.00     0.049 A 
ATOM     56  C   UNL A   1      40.945  31.110  35.213  1.00  0.00     0.074 A 
ATOM     57  C   UNL A   1      42.940  27.405  30.456  1.00  0.00     0.029 A 
ATOM     58  N   UNL A   1      41.785  28.806  31.739  1.00  0.00    -0.354 N 
ATOM     59  N   UNL A   1      41.281  30.382  34.173  1.00  0.00    -0.248 NA
ATOM     60  C   UNL A   1      41.751  30.851  36.413  1.00  0.00     0.031 C 
ATOM     61  C   UNL A   1      43.507  27.405  31.733  1.00  0.00     0.029 A 
ATOM     62  C   UNL A   1      42.811  28.303  32.525  1.00  0.00     0.049 A 
ATOM     63  H   UNL A   1      41.121  29.470  32.035  1.00  0.00     0.167 HD
ATOM     64  C   UNL A   1      42.359  29.603  34.588  1.00  0.00     0.074 A 
ATOM     65  C   UNL A   1      42.629  29.966  35.963  1.00  0.00     0.031 C 
ATOM     66  C   UNL A   1      43.063  28.672  33.897  1.00  0.00     0.034 A 
BRANCH  53  67
ATOM     67  C   UNL A   1      40.977  27.646  28.164  1.00  0.00     0.023 A 
ATOM     68  C   UNL A   1      40.539  26.312  28.116  1.00  0.00     0.031 A 
ATOM     69  C   UNL A   1      41.498  28.211  26.985  1.00  0.00     0.131 A 
ATOM     70  C   UNL A   1      40.674  25.573  26.930  1.00  0.00     0.055 A 
ATOM     71  C   UNL A   1      41.562  27.494  25.789  1.00  0.00     0.041 A 
ATOM     72  F   UNL A   1      41.952  29.473  26.976  1.00  0.00    -0.206 F 
ATOM     73  C   UNL A   1      41.158  26.163  25.759  1.00  0.00     0.022 A 
BRANCH  70  74
ATOM     74  S   UNL A   1      40.309  23.797  26.965  1.00  0.00     0.124 S 
ATOM     75  O   UNL A   1      41.306  23.272  26.035  1.00  0.00    -0.237 OA
ATOM     76  O   UNL A   1      40.508  23.461  28.371  1.00  0.00    -0.237 OA
ATOM     77  O   UNL A   1      38.928  23.721  26.494  1.00  0.00    -0.744 OA
ENDBRANCH  70  74
ENDBRANCH  53  67
BRANCH  54  78
ATOM     78  C   UNL A   1      39.630  32.863  36.624  1.00  0.00     0.023 A 
ATOM     79  C   UNL A   1      38.837  32.284  37.627  1.00  0.00     0.031 A 
ATOM     80  C   UNL A   1      40.125  34.161  36.849  1.00  0.00     0.131 A 
ATOM     81  C   UNL A   1      38.505  33.021  38.774  1.00  0.00     0.055 A 
ATOM     82  C   UNL A   1      39.849  34.865  38.022  1.00  0.00     0.041 A 
ATOM     83  F   UNL A   1      40.887  34.768  35.926  1.00  0.00    -0.206 F 
ATOM     84  C   UNL A   1      39.018  34.302  38.985  1.00  0.00     0.022 A 
BRANCH  81  85
ATOM     85  S   UNL A   1      37.282  32.332  39.922  1.00  0.00     0.124 S 
ATOM     86  O   UNL A   1      36.285  31.793  39.003  1.00  0.00    -0.237 OA
ATOM     87  O   UNL A   1      38.075  31.352  40.656  1.00  0.00    -0.237 OA
ATOM     88  O   UNL A   1      36.854  33.493  40.699  1.00  0.00    -0.744 OA
ENDBRANCH  81  85
ENDBRANCH  54  78
BRANCH  66  89
ATOM     89  C   UNL A   1      44.218  28.014  34.610  1.00  0.00     0.023 A 
ATOM     90  C   UNL A   1      44.064  26.803  35.307  1.00  0.00     0.031 A 
ATOM     91  C   UNL A   1      45.494  28.608  34.587  1.00  0.00     0.131 A 
ATOM     92  C   UNL A   1      45.155  26.250  35.996  1.00  0.00     0.055 A 
ATOM     93  C   UNL A   1      46.590  28.018  35.218  1.00  0.00     0.041 A 
ATOM     94  F   UNL A   1      45.697  29.766  33.939  1.00  0.00    -0.206 F 
ATOM     95  C   UNL A   1      46.421  26.839  35.937  1.00  0.00     0.022 A 
BRANCH  92  96
ATOM     96  S   UNL A   1      44.879  24.791  37.036  1.00  0.00     0.124 S 
ATOM     97  O   UNL A   1      45.807  25.025  38.138  1.00  0.00    -0.237 OA
ATOM     98  O   UNL A   1      43.462  24.903  37.363  1.00  0.00    -0.237 OA
ATOM     99  O   UNL A   1      45.225  23.674  36.159  1.00  0.00    -0.744 OA
ENDBRANCH  92  96
ENDBRANCH  66  89
ENDBRANCH  40  41
ENDBRANCH  32  35
ENDBRANCH  30  31
ENDBRANCH   1  30
TORSDOF 16
ENDMDL
MODEL 3
REMARK VINA RESULT:     -12.3      1.486      7.502
REMARK SMILES CS(=O)(=O)c1ccc(-c2cc(Cl)cnc2-c2ccc(C(=O)NCCCNC(=O)c3ccc(-c4c5nc(c(-c6cc(S(=O)(=O)[O-])ccc6F)c6ccc([nH]6)c(-c6cc(S(=O)(=O)[O-])ccc6F)c6nc(c(-c7cc(S(=O)(=O)[O-])ccc7F)c7ccc4[nH]7)C=C6)C=C5)cc3)nc2)cc1
REMARK SMILES IDX 24 1 23 2 22 3 20 4 21 5 19 7 16 8 17 9 93 10 18 11 92 12
REMARK SMILES IDX 15 13 9 14 10 15 11 16 14 17 12 18 13 19 8 20 5 21 6 22
REMARK SMILES IDX 95 23 7 24 94 25 2 26 1 27 3 28 4 29 25 30 26 31 27 32 28 34
REMARK SMILES IDX 29 35 30 36 91 37 31 38 90 39 32 40 33 41 34 42 84 43 35 44
REMARK SMILES IDX 89 45 83 46 85 47 36 48 88 49 82 50 81 51 37 53 69 54 49 55
REMARK SMILES IDX 68 56 50 57 53 58 67 59 86 60 51 61 52 62 66 64 87 65 54 66
REMARK SMILES IDX 38 67 39 68 47 69 40 70 46 71 48 72 45 73 41 74 42 75 43 76
REMARK SMILES IDX 44 77 70 78 71 79 79 80 72 81 78 82 80 83 77 84 73 85 74 86
REMARK SMILES IDX 75 87 76 88 55 89 56 90 64 91 57 92 63 93 65 94 62 95 58 96
REMARK SMILES IDX 59 97 60 98 61 99
REMARK H PARENT 22 6 26 33 85 52 53 63
REMARK Flexibility Score: inf
ROOT
ATOM      1  C   UNL A   1      32.056  33.056  27.271  1.00  0.00     0.042 C 
ENDROOT
BRANCH   1   2
ATOM      2  C   UNL A   1      32.190  31.542  27.095  1.00  0.00     0.118 C 
BRANCH   2   3
ATOM      3  N   UNL A   1      33.415  31.049  27.699  1.00  0.00    -0.351 N 
ATOM      4  C   UNL A   1      34.142  29.888  27.540  1.00  0.00     0.269 C 
ATOM      5  O   UNL A   1      35.194  29.814  28.178  1.00  0.00    -0.268 OA
ATOM      6  H   UNL A   1      33.805  31.669  28.356  1.00  0.00     0.163 HD
BRANCH   4   7
ATOM      7  C   UNL A   1      33.745  28.768  26.614  1.00  0.00     0.128 A 
ATOM      8  C   UNL A   1      33.063  26.504  25.168  1.00  0.00     0.019 A 
ATOM      9  C   UNL A   1      33.916  27.461  24.614  1.00  0.00     0.014 A 
ATOM     10  C   UNL A   1      32.509  26.805  26.404  1.00  0.00     0.122 A 
ATOM     11  C   UNL A   1      34.239  28.614  25.327  1.00  0.00     0.035 A 
ATOM     12  N   UNL A   1      32.848  27.888  27.143  1.00  0.00    -0.250 NA
BRANCH   8  13
ATOM     13  C   UNL A   1      32.868  25.210  24.516  1.00  0.00     0.080 A 
ATOM     14  C   UNL A   1      31.737  24.950  23.705  1.00  0.00     0.010 A 
ATOM     15  C   UNL A   1      31.550  23.627  23.278  1.00  0.00     0.033 A 
ATOM     16  C   UNL A   1      32.470  22.645  23.634  1.00  0.00     0.060 A 
ATOM     17  N   UNL A   1      33.791  24.268  24.839  1.00  0.00    -0.254 NA
ATOM     18  Cl  UNL A   1      32.239  21.016  23.146  1.00  0.00    -0.083 Cl
ATOM     19  C   UNL A   1      33.569  23.009  24.393  1.00  0.00     0.132 A 
BRANCH  14  20
ATOM     20  C   UNL A   1      30.770  26.005  23.339  1.00  0.00    -0.016 A 
ATOM     21  C   UNL A   1      29.035  28.155  22.819  1.00  0.00     0.067 A 
ATOM     22  C   UNL A   1      30.278  28.107  22.190  1.00  0.00     0.021 A 
ATOM     23  C   UNL A   1      28.638  27.137  23.689  1.00  0.00     0.021 A 
ATOM     24  C   UNL A   1      31.127  27.026  22.437  1.00  0.00     0.010 A 
ATOM     25  C   UNL A   1      29.502  26.065  23.940  1.00  0.00     0.010 A 
BRANCH  21  26
ATOM     26  S   UNL A   1      27.983  29.566  22.577  1.00  0.00     0.175 S 
ATOM     27  C   UNL A   1      28.789  30.841  23.509  1.00  0.00     0.163 C 
ATOM     28  O   UNL A   1      26.712  29.287  23.209  1.00  0.00    -0.224 OA
ATOM     29  O   UNL A   1      28.056  29.919  21.169  1.00  0.00    -0.224 OA
ENDBRANCH  21  26
ENDBRANCH  14  20
ENDBRANCH   8  13
ENDBRANCH   4   7
ENDBRANCH   2   3
ENDBRANCH   1   2
BRANCH   1  30
ATOM     30  C   UNL A   1      33.368  33.741  27.653  1.00  0.00     0.118 C 
BRANCH  30  31
ATOM     31  N   UNL A   1      33.168  34.759  28.675  1.00  0.00    -0.352 N 
ATOM     32  C   UNL A   1      33.667  34.844  29.951  1.00  0.00     0.251 C 
ATOM     33  H   UNL A   1      32.584  35.505  28.409  1.00  0.00     0.163 HD
ATOM     34  O   UNL A   1      33.169  35.646  30.737  1.00  0.00    -0.269 OA
BRANCH  32  35
ATOM     35  C   UNL A   1      34.783  33.974  30.388  1.00  0.00     0.039 A 
ATOM     36  C   UNL A   1      36.082  34.286  29.979  1.00  0.00     0.014 A 
ATOM     37  C   UNL A   1      34.549  32.833  31.160  1.00  0.00     0.014 A 
ATOM     38  C   UNL A   1      37.154  33.495  30.403  1.00  0.00     0.010 A 
ATOM     39  C   UNL A   1      35.624  32.087  31.641  1.00  0.00     0.010 A 
ATOM     40  C   UNL A   1      36.938  32.414  31.273  1.00  0.00    -0.014 A 
BRANCH  40  41
ATOM     41  C   UNL A   1      38.074  31.630  31.831  1.00  0.00     0.031 A 
ATOM     42  C   UNL A   1      38.665  31.999  33.166  1.00  0.00     0.074 A 
ATOM     43  C   UNL A   1      38.620  30.643  31.092  1.00  0.00     0.049 A 
ATOM     44  N   UNL A   1      39.715  31.506  33.767  1.00  0.00    -0.248 NA
ATOM     45  C   UNL A   1      38.001  33.081  33.910  1.00  0.00     0.031 C 
ATOM     46  C   UNL A   1      38.151  30.220  29.770  1.00  0.00     0.029 A 
ATOM     47  N   UNL A   1      39.696  29.826  31.334  1.00  0.00    -0.354 N 
ATOM     48  C   UNL A   1      39.856  32.231  34.946  1.00  0.00     0.074 A 
ATOM     49  C   UNL A   1      38.802  33.223  34.956  1.00  0.00     0.031 C 
ATOM     50  C   UNL A   1      38.922  29.214  29.328  1.00  0.00     0.029 A 
ATOM     51  C   UNL A   1      39.977  28.958  30.302  1.00  0.00     0.049 A 
ATOM     52  H   UNL A   1      40.220  29.857  32.168  1.00  0.00     0.167 HD
ATOM     53  C   UNL A   1      40.774  32.074  35.931  1.00  0.00     0.034 A 
ATOM     54  C   UNL A   1      40.984  28.075  30.145  1.00  0.00     0.034 A 
ATOM     55  C   UNL A   1      41.801  31.060  35.912  1.00  0.00     0.049 A 
ATOM     56  C   UNL A   1      42.012  27.948  31.245  1.00  0.00     0.074 A 
ATOM     57  C   UNL A   1      42.720  30.751  36.900  1.00  0.00     0.029 A 
ATOM     58  N   UNL A   1      42.059  30.205  34.849  1.00  0.00    -0.354 N 
ATOM     59  N   UNL A   1      42.077  28.586  32.391  1.00  0.00    -0.248 NA
ATOM     60  C   UNL A   1      43.097  26.982  31.033  1.00  0.00     0.031 C 
ATOM     61  C   UNL A   1      43.586  29.774  36.402  1.00  0.00     0.029 A 
ATOM     62  C   UNL A   1      43.156  29.407  35.137  1.00  0.00     0.049 A 
ATOM     63  H   UNL A   1      41.540  30.171  34.013  1.00  0.00     0.167 HD
ATOM     64  C   UNL A   1      43.193  28.072  33.047  1.00  0.00     0.074 A 
ATOM     65  C   UNL A   1      43.756  27.059  32.180  1.00  0.00     0.031 C 
ATOM     66  C   UNL A   1      43.708  28.405  34.257  1.00  0.00     0.034 A 
BRANCH  53  67
ATOM     67  C   UNL A   1      40.741  33.033  37.094  1.00  0.00     0.023 A 
ATOM     68  C   UNL A   1      40.109  32.715  38.308  1.00  0.00     0.031 A 
ATOM     69  C   UNL A   1      41.378  34.284  36.992  1.00  0.00     0.131 A 
ATOM     70  C   UNL A   1      40.085  33.653  39.353  1.00  0.00     0.055 A 
ATOM     71  C   UNL A   1      41.414  35.183  38.060  1.00  0.00     0.041 A 
ATOM     72  F   UNL A   1      41.979  34.652  35.851  1.00  0.00    -0.206 F 
ATOM     73  C   UNL A   1      40.757  34.874  39.246  1.00  0.00     0.022 A 
BRANCH  70  74
ATOM     74  S   UNL A   1      39.074  33.300  40.816  1.00  0.00     0.124 S 
ATOM     75  O   UNL A   1      38.178  34.453  40.841  1.00  0.00    -0.237 OA
ATOM     76  O   UNL A   1      38.459  32.022  40.474  1.00  0.00    -0.237 OA
ATOM     77  O   UNL A   1      40.048  33.253  41.904  1.00  0.00    -0.744 OA
ENDBRANCH  70  74
ENDBRANCH  53  67
BRANCH  54  78
ATOM     78  C   UNL A   1      41.107  27.263  28.898  1.00  0.00     0.023 A 
ATOM     79  C   UNL A   1      42.104  27.544  27.950  1.00  0.00     0.031 A 
ATOM     80  C   UNL A   1      40.182  26.248  28.594  1.00  0.00     0.131 A 
ATOM     81  C   UNL A   1      42.112  26.871  26.718  1.00  0.00     0.055 A 
ATOM     82  C   UNL A   1      40.236  25.532  27.397  1.00  0.00     0.041 A 
ATOM     83  F   UNL A   1      39.206  25.935  29.460  1.00  0.00    -0.206 F 
ATOM     84  C   UNL A   1      41.194  25.856  26.442  1.00  0.00     0.022 A 
BRANCH  81  85
ATOM     85  S   UNL A   1      43.257  27.436  25.431  1.00  0.00     0.124 S 
ATOM     86  O   UNL A   1      42.357  28.132  24.519  1.00  0.00    -0.237 OA
ATOM     87  O   UNL A   1      44.176  28.276  26.192  1.00  0.00    -0.237 OA
ATOM     88  O   UNL A   1      43.830  26.193  24.918  1.00  0.00    -0.744 OA
ENDBRANCH  81  85
ENDBRANCH  54  78
BRANCH  66  89
ATOM     89  C   UNL A   1      44.918  27.635  34.727  1.00  0.00     0.023 A 
ATOM     90  C   UNL A   1      44.796  26.442  35.459  1.00  0.00     0.031 A 
ATOM     91  C   UNL A   1      46.212  28.103  34.432  1.00  0.00     0.131 A 
ATOM     92  C   UNL A   1      45.948  25.783  35.916  1.00  0.00     0.055 A 
ATOM     93  C   UNL A   1      47.353  27.408  34.832  1.00  0.00     0.041 A 
ATOM     94  F   UNL A   1      46.386  29.240  33.738  1.00  0.00    -0.206 F 
ATOM     95  C   UNL A   1      47.225  26.247  35.589  1.00  0.00     0.022 A 
BRANCH  92  96
ATOM     96  S   UNL A   1      45.755  24.353  37.013  1.00  0.00     0.124 S 
ATOM     97  O   UNL A   1      45.317  23.315  36.084  1.00  0.00    -0.237 OA
ATOM     98  O   UNL A   1      47.098  24.193  37.559  1.00  0.00    -0.237 OA
ATOM     99  O   UNL A   1      44.745  24.791  37.975  1.00  0.00    -0.744 OA
ENDBRANCH  92  96
ENDBRANCH  66  89
ENDBRANCH  40  41
ENDBRANCH  32  35
ENDBRANCH  30  31
ENDBRANCH   1  30
TORSDOF 16
ENDMDL
