MODEL 1
REMARK VINA RESULT:     -11.8      0.000      0.000
REMARK SMILES CC(C)[NH2+][C@]1(C(=O)NCCCNC(=O)c2ccc(-c3c4nc(c(-c5cc(S(=O)(=O)[O-])ccc5F)c5ccc([nH]5)c(-c5cc(S(=O)(=O)[O-])ccc5F)c5nc(c(-c6cc(S(=O)(=O)[O-])ccc6F)c6ccc3[nH]6)C=C5)C=C4)cc2)CCC[C@@H]1CCN1C(=O)CCC1=O
REMARK SMILES IDX 10 1 9 2 8 3 6 4 7 5 5 7 78 8 81 9 79 10 80 11 4 12 2 15
REMARK SMILES IDX 1 16 3 17 82 18 83 19 84 20 85 21 89 22 86 23 87 24 88 25
REMARK SMILES IDX 90 26 11 27 12 28 13 29 14 31 15 32 16 33 77 34 17 35 76 36
REMARK SMILES IDX 18 37 19 38 20 39 70 40 21 41 75 42 69 43 71 44 22 45 74 46
REMARK SMILES IDX 68 47 67 48 23 50 55 51 35 52 54 53 36 54 39 55 53 56 72 57
REMARK SMILES IDX 37 58 38 59 52 61 73 62 40 63 24 64 25 65 33 66 26 67 32 68
REMARK SMILES IDX 34 69 31 70 27 71 28 72 29 73 30 74 56 75 57 76 65 77 58 78
REMARK SMILES IDX 64 79 66 80 63 81 59 82 60 83 61 84 62 85 41 86 42 87 50 88
REMARK SMILES IDX 43 89 49 90 51 91 48 92 44 93 45 94 46 95 47 96
REMARK H PARENT 8 6 4 13 4 14 12 30 71 49 39 60
REMARK Flexibility Score: inf
ROOT
ATOM      1  C   UNL A   1      35.289  22.048  24.280  1.00  0.00     0.042 C 
ENDROOT
BRANCH   1   2
ATOM      2  C   UNL A   1      35.254  23.184  23.261  1.00  0.00     0.118 C 
BRANCH   2   3
ATOM      3  N   UNL A   1      33.950  23.868  23.225  1.00  0.00    -0.351 N 
ATOM      4  C   UNL A   1      33.793  25.225  22.961  1.00  0.00     0.281 C 
ATOM      5  O   UNL A   1      33.950  25.648  21.811  1.00  0.00    -0.268 OA
ATOM      6  H   UNL A   1      33.142  23.334  23.397  1.00  0.00     0.163 HD
BRANCH   4   7
ATOM      7  C   UNL A   1      33.074  26.131  24.071  1.00  0.00     0.178 C 
ATOM      8  C   UNL A   1      33.933  25.928  25.345  1.00  0.00     0.079 C 
ATOM      9  C   UNL A   1      33.213  27.636  23.780  1.00  0.00     0.062 C 
ATOM     10  C   UNL A   1      33.818  27.202  26.160  1.00  0.00     0.008 C 
ATOM     11  C   UNL A   1      33.511  28.310  25.149  1.00  0.00     0.011 C 
BRANCH   7  12
ATOM     12  N   UNL A   1      31.659  25.672  24.288  1.00  0.00    -0.331 N 
ATOM     13  H   UNL A   1      31.105  26.508  24.476  1.00  0.00     0.347 HD
ATOM     14  H   UNL A   1      31.451  25.150  23.437  1.00  0.00     0.347 HD
BRANCH  12  15
ATOM     15  C   UNL A   1      31.347  24.706  25.359  1.00  0.00     0.176 C 
ATOM     16  C   UNL A   1      30.173  25.122  26.259  1.00  0.00     0.075 C 
ATOM     17  C   UNL A   1      30.971  23.352  24.759  1.00  0.00     0.075 C 
ENDBRANCH  12  15
ENDBRANCH   7  12
BRANCH   9  18
ATOM     18  C   UNL A   1      32.071  28.311  22.977  1.00  0.00     0.033 C 
BRANCH  18  19
ATOM     19  C   UNL A   1      31.049  29.229  23.714  1.00  0.00     0.129 C 
BRANCH  19  20
ATOM     20  N   UNL A   1      29.618  29.193  23.363  1.00  0.00    -0.283 N 
ATOM     21  C   UNL A   1      29.006  30.237  22.728  1.00  0.00     0.229 C 
ATOM     22  C   UNL A   1      28.780  28.117  23.350  1.00  0.00     0.229 C 
ATOM     23  O   UNL A   1      29.518  31.293  22.391  1.00  0.00    -0.274 OA
ATOM     24  C   UNL A   1      27.576  29.880  22.427  1.00  0.00     0.110 C 
ATOM     25  C   UNL A   1      27.384  28.544  23.083  1.00  0.00     0.110 C 
ATOM     26  O   UNL A   1      29.025  26.920  23.481  1.00  0.00    -0.274 OA
ENDBRANCH  19  20
ENDBRANCH  18  19
ENDBRANCH   9  18
ENDBRANCH   4   7
ENDBRANCH   2   3
ENDBRANCH   1   2
BRANCH   1  27
ATOM     27  C   UNL A   1      36.409  22.203  25.298  1.00  0.00     0.118 C 
BRANCH  27  28
ATOM     28  N   UNL A   1      37.397  21.131  25.331  1.00  0.00    -0.352 N 
ATOM     29  C   UNL A   1      38.683  21.163  25.846  1.00  0.00     0.251 C 
ATOM     30  H   UNL A   1      37.115  20.275  24.937  1.00  0.00     0.163 HD
ATOM     31  O   UNL A   1      39.405  20.174  25.750  1.00  0.00    -0.269 OA
BRANCH  29  32
ATOM     32  C   UNL A   1      39.206  22.410  26.461  1.00  0.00     0.039 A 
ATOM     33  C   UNL A   1      40.296  22.347  27.332  1.00  0.00     0.014 A 
ATOM     34  C   UNL A   1      38.665  23.652  26.126  1.00  0.00     0.014 A 
ATOM     35  C   UNL A   1      40.895  23.530  27.779  1.00  0.00     0.010 A 
ATOM     36  C   UNL A   1      39.347  24.818  26.450  1.00  0.00     0.010 A 
ATOM     37  C   UNL A   1      40.462  24.776  27.294  1.00  0.00    -0.014 A 
BRANCH  37  38
ATOM     38  C   UNL A   1      41.148  26.041  27.673  1.00  0.00     0.031 A 
ATOM     39  C   UNL A   1      42.566  26.296  27.222  1.00  0.00     0.074 A 
ATOM     40  C   UNL A   1      40.517  26.926  28.471  1.00  0.00     0.049 A 
ATOM     41  N   UNL A   1      43.339  27.324  27.464  1.00  0.00    -0.248 NA
ATOM     42  C   UNL A   1      43.215  25.236  26.436  1.00  0.00     0.031 C 
ATOM     43  C   UNL A   1      39.179  26.745  29.043  1.00  0.00     0.029 A 
ATOM     44  N   UNL A   1      40.907  28.157  28.938  1.00  0.00    -0.354 N 
ATOM     45  C   UNL A   1      44.564  27.022  26.874  1.00  0.00     0.074 A 
ATOM     46  C   UNL A   1      44.457  25.681  26.346  1.00  0.00     0.031 C 
ATOM     47  C   UNL A   1      38.839  27.847  29.730  1.00  0.00     0.029 A 
ATOM     48  C   UNL A   1      39.947  28.793  29.692  1.00  0.00     0.049 A 
ATOM     49  H   UNL A   1      41.790  28.548  28.749  1.00  0.00     0.167 HD
ATOM     50  C   UNL A   1      45.664  27.805  26.750  1.00  0.00     0.034 A 
ATOM     51  C   UNL A   1      39.957  30.006  30.280  1.00  0.00     0.034 A 
ATOM     52  C   UNL A   1      45.738  29.150  27.267  1.00  0.00     0.049 A 
ATOM     53  C   UNL A   1      41.180  30.871  30.108  1.00  0.00     0.074 A 
ATOM     54  C   UNL A   1      46.768  30.066  27.148  1.00  0.00     0.029 A 
ATOM     55  N   UNL A   1      44.739  29.770  28.010  1.00  0.00    -0.354 N 
ATOM     56  N   UNL A   1      42.301  30.603  29.477  1.00  0.00    -0.248 NA
ATOM     57  C   UNL A   1      41.128  32.208  30.708  1.00  0.00     0.031 C 
ATOM     58  C   UNL A   1      46.424  31.208  27.881  1.00  0.00     0.029 A 
ATOM     59  C   UNL A   1      45.142  31.042  28.385  1.00  0.00     0.049 A 
ATOM     60  H   UNL A   1      43.872  29.365  28.237  1.00  0.00     0.167 HD
ATOM     61  C   UNL A   1      43.082  31.750  29.586  1.00  0.00     0.074 A 
ATOM     62  C   UNL A   1      42.284  32.719  30.313  1.00  0.00     0.031 C 
ATOM     63  C   UNL A   1      44.342  31.984  29.135  1.00  0.00     0.034 A 
BRANCH  50  64
ATOM     64  C   UNL A   1      46.869  27.214  26.050  1.00  0.00     0.023 A 
ATOM     65  C   UNL A   1      47.864  26.507  26.751  1.00  0.00     0.031 A 
ATOM     66  C   UNL A   1      47.050  27.395  24.668  1.00  0.00     0.131 A 
ATOM     67  C   UNL A   1      49.029  26.088  26.090  1.00  0.00     0.055 A 
ATOM     68  C   UNL A   1      48.169  26.894  23.997  1.00  0.00     0.041 A 
ATOM     69  F   UNL A   1      46.151  28.080  23.944  1.00  0.00    -0.206 F 
ATOM     70  C   UNL A   1      49.176  26.252  24.712  1.00  0.00     0.022 A 
BRANCH  67  71
ATOM     71  S   UNL A   1      50.418  25.476  27.084  1.00  0.00     0.124 S 
ATOM     72  O   UNL A   1      49.842  24.277  27.690  1.00  0.00    -0.237 OA
ATOM     73  O   UNL A   1      51.450  25.250  26.078  1.00  0.00    -0.237 OA
ATOM     74  O   UNL A   1      50.682  26.570  28.015  1.00  0.00    -0.744 OA
ENDBRANCH  67  71
ENDBRANCH  50  64
BRANCH  51  75
ATOM     75  C   UNL A   1      38.780  30.478  31.068  1.00  0.00     0.023 A 
ATOM     76  C   UNL A   1      37.685  31.098  30.445  1.00  0.00     0.031 A 
ATOM     77  C   UNL A   1      38.746  30.339  32.468  1.00  0.00     0.131 A 
ATOM     78  C   UNL A   1      36.625  31.597  31.219  1.00  0.00     0.055 A 
ATOM     79  C   UNL A   1      37.662  30.785  33.229  1.00  0.00     0.041 A 
ATOM     80  F   UNL A   1      39.762  29.750  33.118  1.00  0.00    -0.206 F 
ATOM     81  C   UNL A   1      36.599  31.429  32.605  1.00  0.00     0.022 A 
BRANCH  78  82
ATOM     82  S   UNL A   1      35.312  32.541  30.397  1.00  0.00     0.124 S 
ATOM     83  O   UNL A   1      36.010  33.773  30.042  1.00  0.00    -0.237 OA
ATOM     84  O   UNL A   1      34.956  31.664  29.288  1.00  0.00    -0.237 OA
ATOM     85  O   UNL A   1      34.292  32.679  31.434  1.00  0.00    -0.744 OA
ENDBRANCH  78  82
ENDBRANCH  51  75
BRANCH  63  86
ATOM     86  C   UNL A   1      44.911  33.357  29.401  1.00  0.00     0.023 A 
ATOM     87  C   UNL A   1      44.728  34.416  28.494  1.00  0.00     0.031 A 
ATOM     88  C   UNL A   1      45.687  33.597  30.548  1.00  0.00     0.131 A 
ATOM     89  C   UNL A   1      45.390  35.634  28.700  1.00  0.00     0.055 A 
ATOM     90  C   UNL A   1      46.275  34.839  30.791  1.00  0.00     0.041 A 
ATOM     91  F   UNL A   1      45.898  32.624  31.448  1.00  0.00    -0.206 F 
ATOM     92  C   UNL A   1      46.146  35.860  29.853  1.00  0.00     0.022 A 
BRANCH  89  93
ATOM     93  S   UNL A   1      45.374  36.862  27.366  1.00  0.00     0.124 S 
ATOM     94  O   UNL A   1      45.712  38.088  28.080  1.00  0.00    -0.237 OA
ATOM     95  O   UNL A   1      46.396  36.350  26.459  1.00  0.00    -0.237 OA
ATOM     96  O   UNL A   1      44.004  36.798  26.858  1.00  0.00    -0.744 OA
ENDBRANCH  89  93
ENDBRANCH  63  86
ENDBRANCH  37  38
ENDBRANCH  29  32
ENDBRANCH  27  28
ENDBRANCH   1  27
TORSDOF 18
ENDMDL
MODEL 2
REMARK VINA RESULT:     -11.8      4.797      9.982
REMARK SMILES CC(C)[NH2+][C@]1(C(=O)NCCCNC(=O)c2ccc(-c3c4nc(c(-c5cc(S(=O)(=O)[O-])ccc5F)c5ccc([nH]5)c(-c5cc(S(=O)(=O)[O-])ccc5F)c5nc(c(-c6cc(S(=O)(=O)[O-])ccc6F)c6ccc3[nH]6)C=C5)C=C4)cc2)CCC[C@@H]1CCN1C(=O)CCC1=O
REMARK SMILES IDX 10 1 9 2 8 3 6 4 7 5 5 7 78 8 81 9 79 10 80 11 4 12 2 15
REMARK SMILES IDX 1 16 3 17 82 18 83 19 84 20 85 21 89 22 86 23 87 24 88 25
REMARK SMILES IDX 90 26 11 27 12 28 13 29 14 31 15 32 16 33 77 34 17 35 76 36
REMARK SMILES IDX 18 37 19 38 20 39 70 40 21 41 75 42 69 43 71 44 22 45 74 46
REMARK SMILES IDX 68 47 67 48 23 50 55 51 35 52 54 53 36 54 39 55 53 56 72 57
REMARK SMILES IDX 37 58 38 59 52 61 73 62 40 63 24 64 25 65 33 66 26 67 32 68
REMARK SMILES IDX 34 69 31 70 27 71 28 72 29 73 30 74 56 75 57 76 65 77 58 78
REMARK SMILES IDX 64 79 66 80 63 81 59 82 60 83 61 84 62 85 41 86 42 87 50 88
REMARK SMILES IDX 43 89 49 90 51 91 48 92 44 93 45 94 46 95 47 96
REMARK H PARENT 8 6 4 13 4 14 12 30 71 49 39 60
REMARK Flexibility Score: inf
ROOT
ATOM      1  C   UNL A   1      33.825  28.631  25.178  1.00  0.00     0.042 C 
ENDROOT
BRANCH   1   2
ATOM      2  C   UNL A   1      33.171  27.421  24.516  1.00  0.00     0.118 C 
BRANCH   2   3
ATOM      3  N   UNL A   1      34.006  26.211  24.603  1.00  0.00    -0.351 N 
ATOM      4  C   UNL A   1      33.713  25.017  23.952  1.00  0.00     0.281 C 
ATOM      5  O   UNL A   1      33.870  24.933  22.729  1.00  0.00    -0.268 OA
ATOM      6  H   UNL A   1      34.819  26.249  25.155  1.00  0.00     0.163 HD
BRANCH   4   7
ATOM      7  C   UNL A   1      33.523  23.698  24.842  1.00  0.00     0.178 C 
ATOM      8  C   UNL A   1      32.980  24.224  26.194  1.00  0.00     0.079 C 
ATOM      9  C   UNL A   1      32.388  22.798  24.324  1.00  0.00     0.062 C 
ATOM     10  C   UNL A   1      32.121  23.121  26.782  1.00  0.00     0.008 C 
ATOM     11  C   UNL A   1      31.622  22.308  25.585  1.00  0.00     0.011 C 
BRANCH   7  12
ATOM     12  N   UNL A   1      34.838  22.991  25.021  1.00  0.00    -0.331 N 
ATOM     13  H   UNL A   1      34.963  22.850  26.023  1.00  0.00     0.347 HD
ATOM     14  H   UNL A   1      34.737  22.160  24.437  1.00  0.00     0.347 HD
BRANCH  12  15
ATOM     15  C   UNL A   1      36.084  23.602  24.520  1.00  0.00     0.176 C 
ATOM     16  C   UNL A   1      37.200  23.708  25.572  1.00  0.00     0.075 C 
ATOM     17  C   UNL A   1      36.656  22.776  23.368  1.00  0.00     0.075 C 
ENDBRANCH  12  15
ENDBRANCH   7  12
BRANCH   9  18
ATOM     18  C   UNL A   1      32.774  21.667  23.336  1.00  0.00     0.033 C 
BRANCH  18  19
ATOM     19  C   UNL A   1      32.189  20.235  23.538  1.00  0.00     0.129 C 
BRANCH  19  20
ATOM     20  N   UNL A   1      33.083  19.076  23.708  1.00  0.00    -0.283 N 
ATOM     21  C   UNL A   1      32.981  17.966  22.918  1.00  0.00     0.229 C 
ATOM     22  C   UNL A   1      34.243  19.004  24.422  1.00  0.00     0.229 C 
ATOM     23  O   UNL A   1      32.176  17.776  22.020  1.00  0.00    -0.274 OA
ATOM     24  C   UNL A   1      34.073  16.992  23.268  1.00  0.00     0.110 C 
ATOM     25  C   UNL A   1      34.752  17.610  24.455  1.00  0.00     0.110 C 
ATOM     26  O   UNL A   1      34.896  19.892  24.967  1.00  0.00    -0.274 OA
ENDBRANCH  19  20
ENDBRANCH  18  19
ENDBRANCH   9  18
ENDBRANCH   4   7
ENDBRANCH   2   3
ENDBRANCH   1   2
BRANCH   1  27
ATOM     27  C   UNL A   1      33.209  28.970  26.527  1.00  0.00     0.118 C 
BRANCH  27  28
ATOM     28  N   UNL A   1      33.264  30.372  26.922  1.00  0.00    -0.352 N 
ATOM     29  C   UNL A   1      34.278  31.037  27.593  1.00  0.00     0.251 C 
ATOM     30  H   UNL A   1      32.480  30.917  26.683  1.00  0.00     0.163 HD
ATOM     31  O   UNL A   1      34.140  32.221  27.891  1.00  0.00    -0.269 OA
BRANCH  29  32
ATOM     32  C   UNL A   1      35.503  30.304  28.003  1.00  0.00     0.039 A 
ATOM     33  C   UNL A   1      36.630  30.326  27.177  1.00  0.00     0.014 A 
ATOM     34  C   UNL A   1      35.564  29.648  29.233  1.00  0.00     0.014 A 
ATOM     35  C   UNL A   1      37.834  29.780  27.635  1.00  0.00     0.010 A 
ATOM     36  C   UNL A   1      36.791  29.241  29.743  1.00  0.00     0.010 A 
ATOM     37  C   UNL A   1      37.940  29.285  28.947  1.00  0.00    -0.014 A 
BRANCH  37  38
ATOM     38  C   UNL A   1      39.235  28.795  29.492  1.00  0.00     0.031 A 
ATOM     39  C   UNL A   1      39.844  29.456  30.704  1.00  0.00     0.074 A 
ATOM     40  C   UNL A   1      39.888  27.799  28.859  1.00  0.00     0.049 A 
ATOM     41  N   UNL A   1      40.969  29.188  31.317  1.00  0.00    -0.248 NA
ATOM     42  C   UNL A   1      39.113  30.597  31.276  1.00  0.00     0.031 C 
ATOM     43  C   UNL A   1      39.441  27.145  27.625  1.00  0.00     0.029 A 
ATOM     44  N   UNL A   1      41.062  27.155  29.162  1.00  0.00    -0.354 N 
ATOM     45  C   UNL A   1      41.084  30.137  32.329  1.00  0.00     0.074 A 
ATOM     46  C   UNL A   1      39.964  31.039  32.188  1.00  0.00     0.031 C 
ATOM     47  C   UNL A   1      40.296  26.158  27.313  1.00  0.00     0.029 A 
ATOM     48  C   UNL A   1      41.376  26.136  28.291  1.00  0.00     0.049 A 
ATOM     49  H   UNL A   1      41.626  27.400  29.931  1.00  0.00     0.167 HD
ATOM     50  C   UNL A   1      42.017  30.227  33.309  1.00  0.00     0.034 A 
ATOM     51  C   UNL A   1      42.415  25.277  28.287  1.00  0.00     0.034 A 
ATOM     52  C   UNL A   1      43.114  29.300  33.440  1.00  0.00     0.049 A 
ATOM     53  C   UNL A   1      43.426  25.377  29.401  1.00  0.00     0.074 A 
ATOM     54  C   UNL A   1      44.084  29.243  34.426  1.00  0.00     0.029 A 
ATOM     55  N   UNL A   1      43.392  28.267  32.552  1.00  0.00    -0.354 N 
ATOM     56  N   UNL A   1      43.477  26.230  30.399  1.00  0.00    -0.248 NA
ATOM     57  C   UNL A   1      44.506  24.385  29.397  1.00  0.00     0.031 C 
ATOM     58  C   UNL A   1      44.988  28.228  34.091  1.00  0.00     0.029 A 
ATOM     59  C   UNL A   1      44.535  27.591  32.946  1.00  0.00     0.049 A 
ATOM     60  H   UNL A   1      42.854  28.048  31.757  1.00  0.00     0.167 HD
ATOM     61  C   UNL A   1      44.585  25.862  31.157  1.00  0.00     0.074 A 
ATOM     62  C   UNL A   1      45.147  24.689  30.516  1.00  0.00     0.031 C 
ATOM     63  C   UNL A   1      45.096  26.439  32.276  1.00  0.00     0.034 A 
BRANCH  50  64
ATOM     64  C   UNL A   1      41.894  31.373  34.290  1.00  0.00     0.023 A 
ATOM     65  C   UNL A   1      40.950  31.360  35.334  1.00  0.00     0.031 A 
ATOM     66  C   UNL A   1      42.699  32.517  34.155  1.00  0.00     0.131 A 
ATOM     67  C   UNL A   1      40.776  32.494  36.141  1.00  0.00     0.055 A 
ATOM     68  C   UNL A   1      42.585  33.608  35.020  1.00  0.00     0.041 A 
ATOM     69  F   UNL A   1      43.602  32.604  33.165  1.00  0.00    -0.206 F 
ATOM     70  C   UNL A   1      41.606  33.609  36.009  1.00  0.00     0.022 A 
BRANCH  67  71
ATOM     71  S   UNL A   1      39.342  32.558  37.252  1.00  0.00     0.124 S 
ATOM     72  O   UNL A   1      39.985  32.544  38.564  1.00  0.00    -0.237 OA
ATOM     73  O   UNL A   1      38.701  33.809  36.868  1.00  0.00    -0.237 OA
ATOM     74  O   UNL A   1      38.597  31.346  36.920  1.00  0.00    -0.744 OA
ENDBRANCH  67  71
ENDBRANCH  50  64
BRANCH  51  75
ATOM     75  C   UNL A   1      42.546  24.249  27.213  1.00  0.00     0.023 A 
ATOM     76  C   UNL A   1      41.834  23.039  27.269  1.00  0.00     0.031 A 
ATOM     77  C   UNL A   1      43.410  24.451  26.121  1.00  0.00     0.131 A 
ATOM     78  C   UNL A   1      42.032  22.061  26.282  1.00  0.00     0.055 A 
ATOM     79  C   UNL A   1      43.560  23.498  25.110  1.00  0.00     0.041 A 
ATOM     80  F   UNL A   1      44.112  25.590  26.011  1.00  0.00    -0.206 F 
ATOM     81  C   UNL A   1      42.878  22.289  25.194  1.00  0.00     0.022 A 
BRANCH  78  82
ATOM     82  S   UNL A   1      41.228  20.446  26.479  1.00  0.00     0.124 S 
ATOM     83  O   UNL A   1      41.571  20.109  27.856  1.00  0.00    -0.237 OA
ATOM     84  O   UNL A   1      39.828  20.772  26.227  1.00  0.00    -0.237 OA
ATOM     85  O   UNL A   1      41.867  19.621  25.457  1.00  0.00    -0.744 OA
ENDBRANCH  78  82
ENDBRANCH  51  75
BRANCH  63  86
ATOM     86  C   UNL A   1      46.313  25.780  32.880  1.00  0.00     0.023 A 
ATOM     87  C   UNL A   1      46.202  24.637  33.692  1.00  0.00     0.031 A 
ATOM     88  C   UNL A   1      47.592  26.328  32.684  1.00  0.00     0.131 A 
ATOM     89  C   UNL A   1      47.332  24.137  34.353  1.00  0.00     0.055 A 
ATOM     90  C   UNL A   1      48.728  25.776  33.278  1.00  0.00     0.041 A 
ATOM     91  F   UNL A   1      47.760  27.420  31.921  1.00  0.00    -0.206 F 
ATOM     92  C   UNL A   1      48.599  24.687  34.135  1.00  0.00     0.022 A 
BRANCH  89  93
ATOM     93  S   UNL A   1      47.099  22.860  35.618  1.00  0.00     0.124 S 
ATOM     94  O   UNL A   1      47.632  21.676  34.954  1.00  0.00    -0.237 OA
ATOM     95  O   UNL A   1      47.888  23.376  36.731  1.00  0.00    -0.237 OA
ATOM     96  O   UNL A   1      45.652  22.852  35.833  1.00  0.00    -0.744 OA
ENDBRANCH  89  93
ENDBRANCH  63  86
ENDBRANCH  37  38
ENDBRANCH  29  32
ENDBRANCH  27  28
ENDBRANCH   1  27
TORSDOF 18
ENDMDL
MODEL 3
REMARK VINA RESULT:     -11.6      3.680      8.902
REMARK SMILES CC(C)[NH2+][C@]1(C(=O)NCCCNC(=O)c2ccc(-c3c4nc(c(-c5cc(S(=O)(=O)[O-])ccc5F)c5ccc([nH]5)c(-c5cc(S(=O)(=O)[O-])ccc5F)c5nc(c(-c6cc(S(=O)(=O)[O-])ccc6F)c6ccc3[nH]6)C=C5)C=C4)cc2)CCC[C@@H]1CCN1C(=O)CCC1=O
REMARK SMILES IDX 10 1 9 2 8 3 6 4 7 5 5 7 78 8 81 9 79 10 80 11 4 12 2 15
REMARK SMILES IDX 1 16 3 17 82 18 83 19 84 20 85 21 89 22 86 23 87 24 88 25
REMARK SMILES IDX 90 26 11 27 12 28 13 29 14 31 15 32 16 33 77 34 17 35 76 36
REMARK SMILES IDX 18 37 19 38 20 39 70 40 21 41 75 42 69 43 71 44 22 45 74 46
REMARK SMILES IDX 68 47 67 48 23 50 55 51 35 52 54 53 36 54 39 55 53 56 72 57
REMARK SMILES IDX 37 58 38 59 52 61 73 62 40 63 24 64 25 65 33 66 26 67 32 68
REMARK SMILES IDX 34 69 31 70 27 71 28 72 29 73 30 74 56 75 57 76 65 77 58 78
REMARK SMILES IDX 64 79 66 80 63 81 59 82 60 83 61 84 62 85 41 86 42 87 50 88
REMARK SMILES IDX 43 89 49 90 51 91 48 92 44 93 45 94 46 95 47 96
REMARK H PARENT 8 6 4 13 4 14 12 30 71 49 39 60
REMARK Flexibility Score: inf
ROOT
ATOM      1  C   UNL A   1      38.256  20.670  25.102  1.00  0.00     0.042 C 
ENDROOT
BRANCH   1   2
ATOM      2  C   UNL A   1      37.512  22.002  25.062  1.00  0.00     0.118 C 
BRANCH   2   3
ATOM      3  N   UNL A   1      36.135  21.895  25.574  1.00  0.00    -0.351 N 
ATOM      4  C   UNL A   1      35.124  21.182  24.937  1.00  0.00     0.281 C 
ATOM      5  O   UNL A   1      35.137  19.947  24.961  1.00  0.00    -0.268 OA
ATOM      6  H   UNL A   1      35.917  22.354  26.416  1.00  0.00     0.163 HD
BRANCH   4   7
ATOM      7  C   UNL A   1      33.800  21.975  24.504  1.00  0.00     0.178 C 
ATOM      8  C   UNL A   1      34.301  23.402  24.170  1.00  0.00     0.079 C 
ATOM      9  C   UNL A   1      33.226  21.473  23.167  1.00  0.00     0.062 C 
ATOM     10  C   UNL A   1      33.363  23.962  23.118  1.00  0.00     0.008 C 
ATOM     11  C   UNL A   1      32.798  22.745  22.382  1.00  0.00     0.011 C 
BRANCH   7  12
ATOM     12  N   UNL A   1      32.806  21.995  25.633  1.00  0.00    -0.331 N 
ATOM     13  H   UNL A   1      31.882  22.072  25.209  1.00  0.00     0.347 HD
ATOM     14  H   UNL A   1      33.020  21.139  26.146  1.00  0.00     0.347 HD
BRANCH  12  15
ATOM     15  C   UNL A   1      32.885  23.038  26.673  1.00  0.00     0.176 C 
ATOM     16  C   UNL A   1      31.614  23.891  26.806  1.00  0.00     0.075 C 
ATOM     17  C   UNL A   1      33.123  22.405  28.044  1.00  0.00     0.075 C 
ENDBRANCH  12  15
ENDBRANCH   7  12
BRANCH   9  18
ATOM     18  C   UNL A   1      32.138  20.371  23.231  1.00  0.00     0.033 C 
BRANCH  18  19
ATOM     19  C   UNL A   1      32.488  18.915  22.793  1.00  0.00     0.129 C 
BRANCH  19  20
ATOM     20  N   UNL A   1      32.785  17.879  23.798  1.00  0.00    -0.283 N 
ATOM     21  C   UNL A   1      33.597  16.816  23.517  1.00  0.00     0.229 C 
ATOM     22  C   UNL A   1      32.561  17.921  25.142  1.00  0.00     0.229 C 
ATOM     23  O   UNL A   1      34.149  16.574  22.456  1.00  0.00    -0.274 OA
ATOM     24  C   UNL A   1      33.781  15.979  24.754  1.00  0.00     0.110 C 
ATOM     25  C   UNL A   1      32.869  16.609  25.766  1.00  0.00     0.110 C 
ATOM     26  O   UNL A   1      32.204  18.854  25.859  1.00  0.00    -0.274 OA
ENDBRANCH  19  20
ENDBRANCH  18  19
ENDBRANCH   9  18
ENDBRANCH   4   7
ENDBRANCH   2   3
ENDBRANCH   1   2
BRANCH   1  27
ATOM     27  C   UNL A   1      39.405  20.666  26.098  1.00  0.00     0.118 C 
BRANCH  27  28
ATOM     28  N   UNL A   1      40.323  19.536  26.013  1.00  0.00    -0.352 N 
ATOM     29  C   UNL A   1      41.705  19.541  26.109  1.00  0.00     0.251 C 
ATOM     30  H   UNL A   1      39.907  18.655  25.869  1.00  0.00     0.163 HD
ATOM     31  O   UNL A   1      42.332  18.495  25.967  1.00  0.00    -0.269 OA
BRANCH  29  32
ATOM     32  C   UNL A   1      42.429  20.820  26.323  1.00  0.00     0.039 A 
ATOM     33  C   UNL A   1      42.771  21.613  25.225  1.00  0.00     0.014 A 
ATOM     34  C   UNL A   1      42.713  21.272  27.613  1.00  0.00     0.014 A 
ATOM     35  C   UNL A   1      43.302  22.891  25.432  1.00  0.00     0.010 A 
ATOM     36  C   UNL A   1      43.098  22.591  27.818  1.00  0.00     0.010 A 
ATOM     37  C   UNL A   1      43.415  23.415  26.733  1.00  0.00    -0.014 A 
BRANCH  37  38
ATOM     38  C   UNL A   1      43.877  24.809  26.974  1.00  0.00     0.031 A 
ATOM     39  C   UNL A   1      42.932  25.827  27.564  1.00  0.00     0.074 A 
ATOM     40  C   UNL A   1      45.123  25.169  26.605  1.00  0.00     0.049 A 
ATOM     41  N   UNL A   1      43.139  27.091  27.831  1.00  0.00    -0.248 NA
ATOM     42  C   UNL A   1      41.561  25.376  27.848  1.00  0.00     0.031 C 
ATOM     43  C   UNL A   1      46.095  24.293  25.943  1.00  0.00     0.029 A 
ATOM     44  N   UNL A   1      45.794  26.359  26.737  1.00  0.00    -0.354 N 
ATOM     45  C   UNL A   1      41.922  27.584  28.296  1.00  0.00     0.074 A 
ATOM     46  C   UNL A   1      40.964  26.508  28.185  1.00  0.00     0.031 C 
ATOM     47  C   UNL A   1      47.251  24.956  25.782  1.00  0.00     0.029 A 
ATOM     48  C   UNL A   1      47.093  26.316  26.283  1.00  0.00     0.049 A 
ATOM     49  H   UNL A   1      45.384  27.166  27.122  1.00  0.00     0.167 HD
ATOM     50  C   UNL A   1      41.638  28.809  28.802  1.00  0.00     0.034 A 
ATOM     51  C   UNL A   1      48.050  27.265  26.278  1.00  0.00     0.034 A 
ATOM     52  C   UNL A   1      42.619  29.860  28.922  1.00  0.00     0.049 A 
ATOM     53  C   UNL A   1      47.721  28.612  26.870  1.00  0.00     0.074 A 
ATOM     54  C   UNL A   1      42.473  31.118  29.479  1.00  0.00     0.029 A 
ATOM     55  N   UNL A   1      43.931  29.776  28.469  1.00  0.00    -0.354 N 
ATOM     56  N   UNL A   1      46.588  29.036  27.381  1.00  0.00    -0.248 NA
ATOM     57  C   UNL A   1      48.807  29.596  26.905  1.00  0.00     0.031 C 
ATOM     58  C   UNL A   1      43.671  31.819  29.294  1.00  0.00     0.029 A 
ATOM     59  C   UNL A   1      44.595  30.971  28.702  1.00  0.00     0.049 A 
ATOM     60  H   UNL A   1      44.330  28.984  28.044  1.00  0.00     0.167 HD
ATOM     61  C   UNL A   1      46.832  30.335  27.819  1.00  0.00     0.074 A 
ATOM     62  C   UNL A   1      48.230  30.603  27.542  1.00  0.00     0.031 C 
ATOM     63  C   UNL A   1      45.983  31.227  28.392  1.00  0.00     0.034 A 
BRANCH  50  64
ATOM     64  C   UNL A   1      40.213  29.072  29.240  1.00  0.00     0.023 A 
ATOM     65  C   UNL A   1      39.830  29.023  30.594  1.00  0.00     0.031 A 
ATOM     66  C   UNL A   1      39.211  29.332  28.289  1.00  0.00     0.131 A 
ATOM     67  C   UNL A   1      38.478  29.142  30.949  1.00  0.00     0.055 A 
ATOM     68  C   UNL A   1      37.880  29.542  28.657  1.00  0.00     0.041 A 
ATOM     69  F   UNL A   1      39.505  29.368  26.980  1.00  0.00    -0.206 F 
ATOM     70  C   UNL A   1      37.503  29.428  29.992  1.00  0.00     0.022 A 
BRANCH  67  71
ATOM     71  S   UNL A   1      37.990  28.751  32.652  1.00  0.00     0.124 S 
ATOM     72  O   UNL A   1      36.645  29.320  32.712  1.00  0.00    -0.237 OA
ATOM     73  O   UNL A   1      38.068  27.295  32.676  1.00  0.00    -0.237 OA
ATOM     74  O   UNL A   1      38.987  29.444  33.463  1.00  0.00    -0.744 OA
ENDBRANCH  67  71
ENDBRANCH  50  64
BRANCH  51  75
ATOM     75  C   UNL A   1      49.401  26.978  25.711  1.00  0.00     0.023 A 
ATOM     76  C   UNL A   1      49.799  27.503  24.470  1.00  0.00     0.031 A 
ATOM     77  C   UNL A   1      50.309  26.147  26.392  1.00  0.00     0.131 A 
ATOM     78  C   UNL A   1      51.047  27.158  23.928  1.00  0.00     0.055 A 
ATOM     79  C   UNL A   1      51.573  25.853  25.876  1.00  0.00     0.041 A 
ATOM     80  F   UNL A   1      49.986  25.621  27.584  1.00  0.00    -0.206 F 
ATOM     81  C   UNL A   1      51.943  26.350  24.631  1.00  0.00     0.022 A 
BRANCH  78  82
ATOM     82  S   UNL A   1      51.456  27.715  22.251  1.00  0.00     0.124 S 
ATOM     83  O   UNL A   1      50.953  26.612  21.440  1.00  0.00    -0.237 OA
ATOM     84  O   UNL A   1      50.715  28.969  22.159  1.00  0.00    -0.237 OA
ATOM     85  O   UNL A   1      52.910  27.854  22.283  1.00  0.00    -0.744 OA
ENDBRANCH  78  82
ENDBRANCH  51  75
BRANCH  63  86
ATOM     86  C   UNL A   1      46.568  32.566  28.775  1.00  0.00     0.023 A 
ATOM     87  C   UNL A   1      46.570  33.650  27.879  1.00  0.00     0.031 A 
ATOM     88  C   UNL A   1      47.175  32.746  30.030  1.00  0.00     0.131 A 
ATOM     89  C   UNL A   1      47.248  34.830  28.213  1.00  0.00     0.055 A 
ATOM     90  C   UNL A   1      47.776  33.953  30.390  1.00  0.00     0.041 A 
ATOM     91  F   UNL A   1      47.205  31.746  30.926  1.00  0.00    -0.206 F 
ATOM     92  C   UNL A   1      47.834  34.997  29.470  1.00  0.00     0.022 A 
BRANCH  89  93
ATOM     93  S   UNL A   1      47.487  36.083  26.924  1.00  0.00     0.124 S 
ATOM     94  O   UNL A   1      48.940  36.203  26.884  1.00  0.00    -0.237 OA
ATOM     95  O   UNL A   1      46.866  35.457  25.762  1.00  0.00    -0.237 OA
ATOM     96  O   UNL A   1      46.782  37.253  27.449  1.00  0.00    -0.744 OA
ENDBRANCH  89  93
ENDBRANCH  63  86
ENDBRANCH  37  38
ENDBRANCH  29  32
ENDBRANCH  27  28
ENDBRANCH   1  27
TORSDOF 18
ENDMDL
