MODEL 1
REMARK VINA RESULT:     -11.7      0.000      0.000
REMARK SMILES CSCC[C@@H](CO)n1ccnc1-c1ccccc1C(=O)NCCCNC(=O)c1ccc(-c2c3nc(c(-c4cc(S(=O)(=O)[O-])ccc4F)c4ccc([nH]4)c(-c4cc(S(=O)(=O)[O-])ccc4F)c4nc(c(-c5cc(S(=O)(=O)[O-])ccc5F)c5ccc2[nH]5)C=C4)C=C3)cc1
REMARK SMILES IDX 22 1 21 2 19 3 20 4 18 6 13 7 14 8 15 9 17 10 16 11 12 12
REMARK SMILES IDX 8 13 9 14 10 15 11 16 5 17 4 18 3 19 2 20 1 21 6 22 7 23
REMARK SMILES IDX 23 25 24 26 25 27 26 28 27 30 28 31 29 32 90 33 30 34 89 35
REMARK SMILES IDX 31 36 32 37 33 38 83 39 34 40 88 41 82 42 84 43 35 44 87 45
REMARK SMILES IDX 81 46 80 47 36 49 68 50 48 51 67 52 49 53 52 54 66 55 85 56
REMARK SMILES IDX 50 57 51 58 65 60 86 61 53 62 37 63 38 64 46 65 39 66 45 67
REMARK SMILES IDX 47 68 44 69 40 70 41 71 42 72 43 73 69 74 70 75 78 76 71 77
REMARK SMILES IDX 77 78 79 79 76 80 72 81 73 82 74 83 75 84 54 85 55 86 63 87
REMARK SMILES IDX 56 88 62 89 64 90 61 91 57 92 58 93 59 94 60 95
REMARK H PARENT 21 5 7 24 25 29 84 48 52 59
REMARK Flexibility Score: inf
ROOT
ATOM      1  C   UNL A   1      32.658  29.885  26.023  1.00  0.00     0.118 C 
ENDROOT
BRANCH   1   2
ATOM      2  N   UNL A   1      33.261  29.597  24.739  1.00  0.00    -0.352 N 
ATOM      3  C   UNL A   1      32.702  28.902  23.690  1.00  0.00     0.252 C 
ATOM      4  O   UNL A   1      33.207  29.001  22.570  1.00  0.00    -0.269 OA
ATOM      5  H   UNL A   1      34.173  29.937  24.600  1.00  0.00     0.163 HD
BRANCH   3   6
ATOM      6  C   UNL A   1      31.556  27.969  23.853  1.00  0.00     0.050 A 
ATOM      7  C   UNL A   1      31.594  26.636  24.300  1.00  0.00     0.030 A 
ATOM      8  C   UNL A   1      30.387  25.901  24.291  1.00  0.00     0.013 A 
ATOM      9  C   UNL A   1      29.170  26.479  23.926  1.00  0.00     0.001 A 
ATOM     10  C   UNL A   1      30.310  28.555  23.531  1.00  0.00     0.014 A 
ATOM     11  C   UNL A   1      29.127  27.816  23.567  1.00  0.00     0.001 A 
BRANCH   7  12
ATOM     12  C   UNL A   1      32.783  25.872  24.703  1.00  0.00     0.141 A 
ATOM     13  N   UNL A   1      33.401  24.811  24.053  1.00  0.00    -0.326 N 
ATOM     14  C   UNL A   1      34.436  24.387  24.855  1.00  0.00     0.108 A 
ATOM     15  C   UNL A   1      34.417  25.203  25.955  1.00  0.00     0.131 A 
ATOM     16  N   UNL A   1      33.419  26.127  25.840  1.00  0.00    -0.237 NA
BRANCH  13  17
ATOM     17  C   UNL A   1      33.055  24.219  22.756  1.00  0.00     0.115 C 
BRANCH  17  18
ATOM     18  C   UNL A   1      31.849  23.268  22.895  1.00  0.00     0.039 C 
BRANCH  18  19
ATOM     19  C   UNL A   1      32.206  21.782  22.947  1.00  0.00     0.071 C 
BRANCH  19  20
ATOM     20  S   UNL A   1      32.325  21.102  24.640  1.00  0.00    -0.165 SA
ATOM     21  C   UNL A   1      34.090  20.689  24.734  1.00  0.00     0.085 C 
ENDBRANCH  19  20
ENDBRANCH  18  19
ENDBRANCH  17  18
BRANCH  17  22
ATOM     22  C   UNL A   1      32.818  25.284  21.664  1.00  0.00     0.181 C 
BRANCH  22  23
ATOM     23  O   UNL A   1      33.898  26.209  21.621  1.00  0.00    -0.394 OA
ATOM     24  H   UNL A   1      34.730  25.741  21.789  1.00  0.00     0.210 HD
ENDBRANCH  22  23
ENDBRANCH  17  22
ENDBRANCH  13  17
ENDBRANCH   7  12
ENDBRANCH   3   6
ENDBRANCH   1   2
BRANCH   1  25
ATOM     25  C   UNL A   1      33.316  29.286  27.253  1.00  0.00     0.042 C 
BRANCH  25  26
ATOM     26  C   UNL A   1      34.816  29.562  27.330  1.00  0.00     0.118 C 
BRANCH  26  27
ATOM     27  N   UNL A   1      35.271  30.360  28.477  1.00  0.00    -0.352 N 
ATOM     28  C   UNL A   1      36.482  30.237  29.143  1.00  0.00     0.251 C 
ATOM     29  H   UNL A   1      34.653  31.051  28.807  1.00  0.00     0.163 HD
ATOM     30  O   UNL A   1      36.733  30.854  30.173  1.00  0.00    -0.269 OA
BRANCH  28  31
ATOM     31  C   UNL A   1      37.462  29.303  28.559  1.00  0.00     0.039 A 
ATOM     32  C   UNL A   1      38.213  29.683  27.448  1.00  0.00     0.014 A 
ATOM     33  C   UNL A   1      37.823  28.206  29.337  1.00  0.00     0.014 A 
ATOM     34  C   UNL A   1      39.441  29.060  27.234  1.00  0.00     0.010 A 
ATOM     35  C   UNL A   1      39.094  27.687  29.197  1.00  0.00     0.010 A 
ATOM     36  C   UNL A   1      39.930  28.125  28.166  1.00  0.00    -0.014 A 
BRANCH  36  37
ATOM     37  C   UNL A   1      41.368  27.800  28.177  1.00  0.00     0.031 A 
ATOM     38  C   UNL A   1      41.771  26.582  27.399  1.00  0.00     0.074 A 
ATOM     39  C   UNL A   1      42.358  28.607  28.618  1.00  0.00     0.049 A 
ATOM     40  N   UNL A   1      42.268  25.480  27.860  1.00  0.00    -0.248 NA
ATOM     41  C   UNL A   1      41.506  26.542  25.952  1.00  0.00     0.031 C 
ATOM     42  C   UNL A   1      42.269  29.970  29.147  1.00  0.00     0.029 A 
ATOM     43  N   UNL A   1      43.705  28.393  28.574  1.00  0.00    -0.354 N 
ATOM     44  C   UNL A   1      42.572  24.679  26.759  1.00  0.00     0.074 A 
ATOM     45  C   UNL A   1      41.943  25.320  25.632  1.00  0.00     0.031 C 
ATOM     46  C   UNL A   1      43.492  30.542  29.141  1.00  0.00     0.029 A 
ATOM     47  C   UNL A   1      44.473  29.529  28.796  1.00  0.00     0.049 A 
ATOM     48  H   UNL A   1      44.100  27.508  28.399  1.00  0.00     0.167 HD
ATOM     49  C   UNL A   1      43.464  23.649  26.847  1.00  0.00     0.034 A 
ATOM     50  C   UNL A   1      45.823  29.645  28.721  1.00  0.00     0.034 A 
ATOM     51  C   UNL A   1      43.722  23.305  28.228  1.00  0.00     0.049 A 
ATOM     52  C   UNL A   1      46.383  28.291  28.939  1.00  0.00     0.074 A 
ATOM     53  C   UNL A   1      42.932  22.920  29.296  1.00  0.00     0.029 A 
ATOM     54  N   UNL A   1      44.915  23.700  28.793  1.00  0.00    -0.354 N 
ATOM     55  N   UNL A   1      46.264  27.644  30.065  1.00  0.00    -0.248 NA
ATOM     56  C   UNL A   1      46.680  27.466  27.780  1.00  0.00     0.031 C 
ATOM     57  C   UNL A   1      43.470  23.628  30.415  1.00  0.00     0.029 A 
ATOM     58  C   UNL A   1      44.596  24.326  29.974  1.00  0.00     0.049 A 
ATOM     59  H   UNL A   1      45.818  23.563  28.425  1.00  0.00     0.167 HD
ATOM     60  C   UNL A   1      46.027  26.330  29.699  1.00  0.00     0.074 A 
ATOM     61  C   UNL A   1      46.410  26.261  28.289  1.00  0.00     0.031 C 
ATOM     62  C   UNL A   1      45.286  25.494  30.485  1.00  0.00     0.034 A 
BRANCH  49  63
ATOM     63  C   UNL A   1      44.361  23.144  25.731  1.00  0.00     0.023 A 
ATOM     64  C   UNL A   1      44.360  21.755  25.475  1.00  0.00     0.031 A 
ATOM     65  C   UNL A   1      45.403  23.872  25.116  1.00  0.00     0.131 A 
ATOM     66  C   UNL A   1      45.408  21.141  24.765  1.00  0.00     0.055 A 
ATOM     67  C   UNL A   1      46.404  23.266  24.347  1.00  0.00     0.041 A 
ATOM     68  F   UNL A   1      45.568  25.187  25.294  1.00  0.00    -0.206 F 
ATOM     69  C   UNL A   1      46.434  21.890  24.198  1.00  0.00     0.022 A 
BRANCH  66  70
ATOM     70  S   UNL A   1      45.510  19.331  24.773  1.00  0.00     0.124 S 
ATOM     71  O   UNL A   1      46.875  19.118  25.243  1.00  0.00    -0.237 OA
ATOM     72  O   UNL A   1      44.445  18.974  25.703  1.00  0.00    -0.237 OA
ATOM     73  O   UNL A   1      45.268  18.972  23.378  1.00  0.00    -0.744 OA
ENDBRANCH  66  70
ENDBRANCH  49  63
BRANCH  50  74
ATOM     74  C   UNL A   1      46.614  30.810  28.255  1.00  0.00     0.023 A 
ATOM     75  C   UNL A   1      46.134  31.704  27.280  1.00  0.00     0.031 A 
ATOM     76  C   UNL A   1      47.775  31.200  28.962  1.00  0.00     0.131 A 
ATOM     77  C   UNL A   1      46.800  32.930  27.049  1.00  0.00     0.055 A 
ATOM     78  C   UNL A   1      48.433  32.408  28.727  1.00  0.00     0.041 A 
ATOM     79  F   UNL A   1      48.257  30.455  29.971  1.00  0.00    -0.206 F 
ATOM     80  C   UNL A   1      47.939  33.286  27.775  1.00  0.00     0.022 A 
BRANCH  77  81
ATOM     81  S   UNL A   1      46.112  34.142  25.878  1.00  0.00     0.124 S 
ATOM     82  O   UNL A   1      47.295  34.558  25.136  1.00  0.00    -0.237 OA
ATOM     83  O   UNL A   1      45.129  33.352  25.144  1.00  0.00    -0.237 OA
ATOM     84  O   UNL A   1      45.540  35.168  26.751  1.00  0.00    -0.744 OA
ENDBRANCH  77  81
ENDBRANCH  50  74
BRANCH  62  85
ATOM     85  C   UNL A   1      44.959  25.920  31.905  1.00  0.00     0.023 A 
ATOM     86  C   UNL A   1      43.775  26.590  32.294  1.00  0.00     0.031 A 
ATOM     87  C   UNL A   1      45.838  25.514  32.924  1.00  0.00     0.131 A 
ATOM     88  C   UNL A   1      43.521  26.841  33.656  1.00  0.00     0.055 A 
ATOM     89  C   UNL A   1      45.573  25.745  34.273  1.00  0.00     0.041 A 
ATOM     90  F   UNL A   1      46.966  24.847  32.626  1.00  0.00    -0.206 F 
ATOM     91  C   UNL A   1      44.414  26.417  34.644  1.00  0.00     0.022 A 
BRANCH  88  92
ATOM     92  S   UNL A   1      42.025  27.747  34.171  1.00  0.00     0.124 S 
ATOM     93  O   UNL A   1      42.536  28.785  35.057  1.00  0.00    -0.237 OA
ATOM     94  O   UNL A   1      41.479  28.209  32.896  1.00  0.00    -0.237 OA
ATOM     95  O   UNL A   1      41.219  26.721  34.838  1.00  0.00    -0.744 OA
ENDBRANCH  88  92
ENDBRANCH  62  85
ENDBRANCH  36  37
ENDBRANCH  28  31
ENDBRANCH  26  27
ENDBRANCH  25  26
ENDBRANCH   1  25
TORSDOF 20
ENDMDL
MODEL 2
REMARK VINA RESULT:     -11.4      2.270      6.879
REMARK SMILES CSCC[C@@H](CO)n1ccnc1-c1ccccc1C(=O)NCCCNC(=O)c1ccc(-c2c3nc(c(-c4cc(S(=O)(=O)[O-])ccc4F)c4ccc([nH]4)c(-c4cc(S(=O)(=O)[O-])ccc4F)c4nc(c(-c5cc(S(=O)(=O)[O-])ccc5F)c5ccc2[nH]5)C=C4)C=C3)cc1
REMARK SMILES IDX 22 1 21 2 19 3 20 4 18 6 13 7 14 8 15 9 17 10 16 11 12 12
REMARK SMILES IDX 8 13 9 14 10 15 11 16 5 17 4 18 3 19 2 20 1 21 6 22 7 23
REMARK SMILES IDX 23 25 24 26 25 27 26 28 27 30 28 31 29 32 90 33 30 34 89 35
REMARK SMILES IDX 31 36 32 37 33 38 83 39 34 40 88 41 82 42 84 43 35 44 87 45
REMARK SMILES IDX 81 46 80 47 36 49 68 50 48 51 67 52 49 53 52 54 66 55 85 56
REMARK SMILES IDX 50 57 51 58 65 60 86 61 53 62 37 63 38 64 46 65 39 66 45 67
REMARK SMILES IDX 47 68 44 69 40 70 41 71 42 72 43 73 69 74 70 75 78 76 71 77
REMARK SMILES IDX 77 78 79 79 76 80 72 81 73 82 74 83 75 84 54 85 55 86 63 87
REMARK SMILES IDX 56 88 62 89 64 90 61 91 57 92 58 93 59 94 60 95
REMARK H PARENT 21 5 7 24 25 29 84 48 52 59
REMARK Flexibility Score: inf
ROOT
ATOM      1  C   UNL A   1      32.586  30.010  25.912  1.00  0.00     0.118 C 
ENDROOT
BRANCH   1   2
ATOM      2  N   UNL A   1      33.186  29.661  24.642  1.00  0.00    -0.352 N 
ATOM      3  C   UNL A   1      32.609  28.954  23.610  1.00  0.00     0.252 C 
ATOM      4  O   UNL A   1      33.124  29.001  22.492  1.00  0.00    -0.269 OA
ATOM      5  H   UNL A   1      34.111  29.964  24.500  1.00  0.00     0.163 HD
BRANCH   3   6
ATOM      6  C   UNL A   1      31.430  28.068  23.794  1.00  0.00     0.050 A 
ATOM      7  C   UNL A   1      31.415  26.755  24.298  1.00  0.00     0.030 A 
ATOM      8  C   UNL A   1      30.184  26.062  24.300  1.00  0.00     0.013 A 
ATOM      9  C   UNL A   1      28.994  26.663  23.889  1.00  0.00     0.001 A 
ATOM     10  C   UNL A   1      30.209  28.681  23.426  1.00  0.00     0.014 A 
ATOM     11  C   UNL A   1      29.002  27.985  23.473  1.00  0.00     0.001 A 
BRANCH   7  12
ATOM     12  C   UNL A   1      32.571  25.970  24.753  1.00  0.00     0.141 A 
ATOM     13  N   UNL A   1      33.222  24.923  24.113  1.00  0.00    -0.326 N 
ATOM     14  C   UNL A   1      34.201  24.468  24.967  1.00  0.00     0.108 A 
ATOM     15  C   UNL A   1      34.118  25.252  26.086  1.00  0.00     0.131 A 
ATOM     16  N   UNL A   1      33.135  26.187  25.935  1.00  0.00    -0.237 NA
BRANCH  13  17
ATOM     17  C   UNL A   1      32.955  24.371  22.780  1.00  0.00     0.115 C 
BRANCH  17  18
ATOM     18  C   UNL A   1      31.841  23.308  22.844  1.00  0.00     0.039 C 
BRANCH  18  19
ATOM     19  C   UNL A   1      32.312  21.868  22.634  1.00  0.00     0.071 C 
BRANCH  19  20
ATOM     20  S   UNL A   1      32.854  21.029  24.166  1.00  0.00    -0.165 SA
ATOM     21  C   UNL A   1      31.723  21.754  25.387  1.00  0.00     0.085 C 
ENDBRANCH  19  20
ENDBRANCH  18  19
ENDBRANCH  17  18
BRANCH  17  22
ATOM     22  C   UNL A   1      32.640  25.466  21.738  1.00  0.00     0.181 C 
BRANCH  22  23
ATOM     23  O   UNL A   1      33.794  26.256  21.477  1.00  0.00    -0.394 OA
ATOM     24  H   UNL A   1      33.521  27.153  21.227  1.00  0.00     0.210 HD
ENDBRANCH  22  23
ENDBRANCH  17  22
ENDBRANCH  13  17
ENDBRANCH   7  12
ENDBRANCH   3   6
ENDBRANCH   1   2
BRANCH   1  25
ATOM     25  C   UNL A   1      33.428  29.812  27.160  1.00  0.00     0.042 C 
BRANCH  25  26
ATOM     26  C   UNL A   1      34.390  30.967  27.429  1.00  0.00     0.118 C 
BRANCH  26  27
ATOM     27  N   UNL A   1      34.371  31.522  28.790  1.00  0.00    -0.352 N 
ATOM     28  C   UNL A   1      35.436  31.571  29.678  1.00  0.00     0.251 C 
ATOM     29  H   UNL A   1      33.517  31.898  29.102  1.00  0.00     0.163 HD
ATOM     30  O   UNL A   1      35.306  31.933  30.842  1.00  0.00    -0.269 OA
BRANCH  28  31
ATOM     31  C   UNL A   1      36.747  31.142  29.158  1.00  0.00     0.039 A 
ATOM     32  C   UNL A   1      37.905  31.817  29.540  1.00  0.00     0.014 A 
ATOM     33  C   UNL A   1      36.804  29.884  28.563  1.00  0.00     0.014 A 
ATOM     34  C   UNL A   1      39.118  31.133  29.489  1.00  0.00     0.010 A 
ATOM     35  C   UNL A   1      37.983  29.171  28.638  1.00  0.00     0.010 A 
ATOM     36  C   UNL A   1      39.146  29.772  29.128  1.00  0.00    -0.014 A 
BRANCH  36  37
ATOM     37  C   UNL A   1      40.321  28.955  29.482  1.00  0.00     0.031 A 
ATOM     38  C   UNL A   1      40.540  28.723  30.948  1.00  0.00     0.074 A 
ATOM     39  C   UNL A   1      41.064  28.223  28.623  1.00  0.00     0.049 A 
ATOM     40  N   UNL A   1      41.528  29.137  31.674  1.00  0.00    -0.248 NA
ATOM     41  C   UNL A   1      39.498  28.031  31.723  1.00  0.00     0.031 C 
ATOM     42  C   UNL A   1      40.884  28.031  27.182  1.00  0.00     0.029 A 
ATOM     43  N   UNL A   1      42.104  27.386  28.907  1.00  0.00    -0.354 N 
ATOM     44  C   UNL A   1      41.351  28.599  32.949  1.00  0.00     0.074 A 
ATOM     45  C   UNL A   1      40.015  28.059  32.955  1.00  0.00     0.031 C 
ATOM     46  C   UNL A   1      41.609  26.968  26.770  1.00  0.00     0.029 A 
ATOM     47  C   UNL A   1      42.449  26.529  27.869  1.00  0.00     0.049 A 
ATOM     48  H   UNL A   1      42.570  27.388  29.774  1.00  0.00     0.167 HD
ATOM     49  C   UNL A   1      42.388  28.490  33.831  1.00  0.00     0.034 A 
ATOM     50  C   UNL A   1      43.369  25.532  27.889  1.00  0.00     0.034 A 
ATOM     51  C   UNL A   1      43.506  29.309  33.417  1.00  0.00     0.049 A 
ATOM     52  C   UNL A   1      44.338  25.863  28.959  1.00  0.00     0.074 A 
ATOM     53  C   UNL A   1      43.675  30.654  33.140  1.00  0.00     0.029 A 
ATOM     54  N   UNL A   1      44.602  28.692  32.855  1.00  0.00    -0.354 N 
ATOM     55  N   UNL A   1      45.121  26.905  28.914  1.00  0.00    -0.248 NA
ATOM     56  C   UNL A   1      44.129  25.302  30.284  1.00  0.00     0.031 C 
ATOM     57  C   UNL A   1      44.515  30.681  31.985  1.00  0.00     0.029 A 
ATOM     58  C   UNL A   1      44.870  29.364  31.687  1.00  0.00     0.049 A 
ATOM     59  H   UNL A   1      45.095  27.920  33.217  1.00  0.00     0.167 HD
ATOM     60  C   UNL A   1      45.139  27.393  30.209  1.00  0.00     0.074 A 
ATOM     61  C   UNL A   1      44.609  26.303  31.027  1.00  0.00     0.031 C 
ATOM     62  C   UNL A   1      45.319  28.723  30.467  1.00  0.00     0.034 A 
BRANCH  49  63
ATOM     63  C   UNL A   1      42.549  27.421  34.896  1.00  0.00     0.023 A 
ATOM     64  C   UNL A   1      43.328  26.289  34.568  1.00  0.00     0.031 A 
ATOM     65  C   UNL A   1      41.773  27.302  36.070  1.00  0.00     0.131 A 
ATOM     66  C   UNL A   1      43.223  25.092  35.298  1.00  0.00     0.055 A 
ATOM     67  C   UNL A   1      41.728  26.131  36.837  1.00  0.00     0.041 A 
ATOM     68  F   UNL A   1      40.950  28.267  36.493  1.00  0.00    -0.206 F 
ATOM     69  C   UNL A   1      42.425  25.005  36.434  1.00  0.00     0.022 A 
BRANCH  66  70
ATOM     70  S   UNL A   1      43.988  23.597  34.616  1.00  0.00     0.124 S 
ATOM     71  O   UNL A   1      42.861  22.981  33.924  1.00  0.00    -0.237 OA
ATOM     72  O   UNL A   1      45.037  24.154  33.770  1.00  0.00    -0.237 OA
ATOM     73  O   UNL A   1      44.456  22.884  35.803  1.00  0.00    -0.744 OA
ENDBRANCH  66  70
ENDBRANCH  49  63
BRANCH  50  74
ATOM     74  C   UNL A   1      43.314  24.226  27.187  1.00  0.00     0.023 A 
ATOM     75  C   UNL A   1      44.173  23.910  26.117  1.00  0.00     0.031 A 
ATOM     76  C   UNL A   1      42.563  23.162  27.737  1.00  0.00     0.131 A 
ATOM     77  C   UNL A   1      44.263  22.581  25.645  1.00  0.00     0.055 A 
ATOM     78  C   UNL A   1      42.650  21.852  27.265  1.00  0.00     0.041 A 
ATOM     79  F   UNL A   1      41.784  23.346  28.816  1.00  0.00    -0.206 F 
ATOM     80  C   UNL A   1      43.512  21.553  26.222  1.00  0.00     0.022 A 
BRANCH  77  81
ATOM     81  S   UNL A   1      45.461  22.147  24.347  1.00  0.00     0.124 S 
ATOM     82  O   UNL A   1      44.632  21.420  23.393  1.00  0.00    -0.237 OA
ATOM     83  O   UNL A   1      45.952  23.452  23.918  1.00  0.00    -0.237 OA
ATOM     84  O   UNL A   1      46.447  21.329  25.056  1.00  0.00    -0.744 OA
ENDBRANCH  77  81
ENDBRANCH  50  74
BRANCH  62  85
ATOM     85  C   UNL A   1      45.784  29.631  29.344  1.00  0.00     0.023 A 
ATOM     86  C   UNL A   1      44.927  30.349  28.477  1.00  0.00     0.031 A 
ATOM     87  C   UNL A   1      47.165  29.871  29.233  1.00  0.00     0.131 A 
ATOM     88  C   UNL A   1      45.464  31.251  27.538  1.00  0.00     0.055 A 
ATOM     89  C   UNL A   1      47.692  30.781  28.318  1.00  0.00     0.041 A 
ATOM     90  F   UNL A   1      48.034  29.245  30.045  1.00  0.00    -0.206 F 
ATOM     91  C   UNL A   1      46.842  31.470  27.460  1.00  0.00     0.022 A 
BRANCH  88  92
ATOM     92  S   UNL A   1      44.376  32.146  26.382  1.00  0.00     0.124 S 
ATOM     93  O   UNL A   1      43.886  33.272  27.167  1.00  0.00    -0.237 OA
ATOM     94  O   UNL A   1      45.284  32.480  25.286  1.00  0.00    -0.237 OA
ATOM     95  O   UNL A   1      43.354  31.154  26.039  1.00  0.00    -0.744 OA
ENDBRANCH  88  92
ENDBRANCH  62  85
ENDBRANCH  36  37
ENDBRANCH  28  31
ENDBRANCH  26  27
ENDBRANCH  25  26
ENDBRANCH   1  25
TORSDOF 20
ENDMDL
MODEL 3
REMARK VINA RESULT:     -11.1      4.427     10.247
REMARK SMILES CSCC[C@@H](CO)n1ccnc1-c1ccccc1C(=O)NCCCNC(=O)c1ccc(-c2c3nc(c(-c4cc(S(=O)(=O)[O-])ccc4F)c4ccc([nH]4)c(-c4cc(S(=O)(=O)[O-])ccc4F)c4nc(c(-c5cc(S(=O)(=O)[O-])ccc5F)c5ccc2[nH]5)C=C4)C=C3)cc1
REMARK SMILES IDX 22 1 21 2 19 3 20 4 18 6 13 7 14 8 15 9 17 10 16 11 12 12
REMARK SMILES IDX 8 13 9 14 10 15 11 16 5 17 4 18 3 19 2 20 1 21 6 22 7 23
REMARK SMILES IDX 23 25 24 26 25 27 26 28 27 30 28 31 29 32 90 33 30 34 89 35
REMARK SMILES IDX 31 36 32 37 33 38 83 39 34 40 88 41 82 42 84 43 35 44 87 45
REMARK SMILES IDX 81 46 80 47 36 49 68 50 48 51 67 52 49 53 52 54 66 55 85 56
REMARK SMILES IDX 50 57 51 58 65 60 86 61 53 62 37 63 38 64 46 65 39 66 45 67
REMARK SMILES IDX 47 68 44 69 40 70 41 71 42 72 43 73 69 74 70 75 78 76 71 77
REMARK SMILES IDX 77 78 79 79 76 80 72 81 73 82 74 83 75 84 54 85 55 86 63 87
REMARK SMILES IDX 56 88 62 89 64 90 61 91 57 92 58 93 59 94 60 95
REMARK H PARENT 21 5 7 24 25 29 84 48 52 59
REMARK Flexibility Score: inf
ROOT
ATOM      1  C   UNL A   1      35.710  23.543  25.837  1.00  0.00     0.118 C 
ENDROOT
BRANCH   1   2
ATOM      2  N   UNL A   1      35.296  23.643  24.453  1.00  0.00    -0.352 N 
ATOM      3  C   UNL A   1      34.066  24.034  23.973  1.00  0.00     0.252 C 
ATOM      4  O   UNL A   1      33.962  24.361  22.790  1.00  0.00    -0.269 OA
ATOM      5  H   UNL A   1      35.972  23.405  23.779  1.00  0.00     0.163 HD
BRANCH   3   6
ATOM      6  C   UNL A   1      32.829  24.010  24.797  1.00  0.00     0.050 A 
ATOM      7  C   UNL A   1      32.158  25.107  25.367  1.00  0.00     0.030 A 
ATOM      8  C   UNL A   1      31.043  24.842  26.194  1.00  0.00     0.013 A 
ATOM      9  C   UNL A   1      30.559  23.548  26.395  1.00  0.00     0.001 A 
ATOM     10  C   UNL A   1      32.300  22.710  24.970  1.00  0.00     0.014 A 
ATOM     11  C   UNL A   1      31.175  22.481  25.762  1.00  0.00     0.001 A 
BRANCH   7  12
ATOM     12  C   UNL A   1      32.539  26.522  25.273  1.00  0.00     0.141 A 
ATOM     13  N   UNL A   1      31.903  27.555  24.596  1.00  0.00    -0.326 N 
ATOM     14  C   UNL A   1      32.678  28.683  24.748  1.00  0.00     0.108 A 
ATOM     15  C   UNL A   1      33.748  28.302  25.514  1.00  0.00     0.131 A 
ATOM     16  N   UNL A   1      33.640  26.985  25.854  1.00  0.00    -0.237 NA
BRANCH  13  17
ATOM     17  C   UNL A   1      30.643  27.505  23.846  1.00  0.00     0.115 C 
BRANCH  17  18
ATOM     18  C   UNL A   1      30.152  28.928  23.511  1.00  0.00     0.039 C 
BRANCH  18  19
ATOM     19  C   UNL A   1      28.760  28.996  22.882  1.00  0.00     0.071 C 
BRANCH  19  20
ATOM     20  S   UNL A   1      28.040  30.677  22.843  1.00  0.00    -0.165 SA
ATOM     21  C   UNL A   1      28.135  31.062  21.072  1.00  0.00     0.085 C 
ENDBRANCH  19  20
ENDBRANCH  18  19
ENDBRANCH  17  18
BRANCH  17  22
ATOM     22  C   UNL A   1      30.740  26.623  22.583  1.00  0.00     0.181 C 
BRANCH  22  23
ATOM     23  O   UNL A   1      31.530  27.260  21.586  1.00  0.00    -0.394 OA
ATOM     24  H   UNL A   1      31.145  28.124  21.372  1.00  0.00     0.210 HD
ENDBRANCH  22  23
ENDBRANCH  17  22
ENDBRANCH  13  17
ENDBRANCH   7  12
ENDBRANCH   3   6
ENDBRANCH   1   2
BRANCH   1  25
ATOM     25  C   UNL A   1      37.140  23.113  26.109  1.00  0.00     0.042 C 
BRANCH  25  26
ATOM     26  C   UNL A   1      38.169  24.191  25.775  1.00  0.00     0.118 C 
BRANCH  26  27
ATOM     27  N   UNL A   1      39.551  23.921  26.195  1.00  0.00    -0.352 N 
ATOM     28  C   UNL A   1      40.341  24.725  27.005  1.00  0.00     0.251 C 
ATOM     29  H   UNL A   1      39.957  23.086  25.870  1.00  0.00     0.163 HD
ATOM     30  O   UNL A   1      41.529  24.492  27.204  1.00  0.00    -0.269 OA
BRANCH  28  31
ATOM     31  C   UNL A   1      39.686  25.900  27.608  1.00  0.00     0.039 A 
ATOM     32  C   UNL A   1      39.049  25.787  28.842  1.00  0.00     0.014 A 
ATOM     33  C   UNL A   1      40.009  27.142  27.069  1.00  0.00     0.014 A 
ATOM     34  C   UNL A   1      38.906  26.933  29.621  1.00  0.00     0.010 A 
ATOM     35  C   UNL A   1      39.984  28.247  27.896  1.00  0.00     0.010 A 
ATOM     36  C   UNL A   1      39.462  28.153  29.190  1.00  0.00    -0.014 A 
BRANCH  36  37
ATOM     37  C   UNL A   1      39.690  29.230  30.170  1.00  0.00     0.031 A 
ATOM     38  C   UNL A   1      38.506  30.096  30.481  1.00  0.00     0.074 A 
ATOM     39  C   UNL A   1      40.775  29.358  30.965  1.00  0.00     0.049 A 
ATOM     40  N   UNL A   1      38.362  31.357  30.230  1.00  0.00    -0.248 NA
ATOM     41  C   UNL A   1      37.300  29.475  31.053  1.00  0.00     0.031 C 
ATOM     42  C   UNL A   1      41.943  28.481  31.080  1.00  0.00     0.029 A 
ATOM     43  N   UNL A   1      41.001  30.282  31.945  1.00  0.00    -0.354 N 
ATOM     44  C   UNL A   1      37.142  31.747  30.785  1.00  0.00     0.074 A 
ATOM     45  C   UNL A   1      36.473  30.521  31.139  1.00  0.00     0.031 C 
ATOM     46  C   UNL A   1      42.616  28.765  32.216  1.00  0.00     0.029 A 
ATOM     47  C   UNL A   1      42.045  29.963  32.803  1.00  0.00     0.049 A 
ATOM     48  H   UNL A   1      40.467  31.105  32.036  1.00  0.00     0.167 HD
ATOM     49  C   UNL A   1      36.867  33.055  31.064  1.00  0.00     0.034 A 
ATOM     50  C   UNL A   1      42.438  30.633  33.916  1.00  0.00     0.034 A 
ATOM     51  C   UNL A   1      37.799  33.934  30.389  1.00  0.00     0.049 A 
ATOM     52  C   UNL A   1      41.981  32.033  33.757  1.00  0.00     0.074 A 
ATOM     53  C   UNL A   1      38.169  34.128  29.071  1.00  0.00     0.029 A 
ATOM     54  N   UNL A   1      38.798  34.526  31.129  1.00  0.00    -0.354 N 
ATOM     55  N   UNL A   1      42.434  32.830  32.830  1.00  0.00    -0.248 NA
ATOM     56  C   UNL A   1      40.701  32.417  34.331  1.00  0.00     0.031 C 
ATOM     57  C   UNL A   1      39.586  34.300  29.117  1.00  0.00     0.029 A 
ATOM     58  C   UNL A   1      39.972  34.286  30.459  1.00  0.00     0.049 A 
ATOM     59  H   UNL A   1      38.693  35.024  31.973  1.00  0.00     0.167 HD
ATOM     60  C   UNL A   1      41.327  33.538  32.394  1.00  0.00     0.074 A 
ATOM     61  C   UNL A   1      40.317  33.327  33.431  1.00  0.00     0.031 C 
ATOM     62  C   UNL A   1      41.235  33.998  31.111  1.00  0.00     0.034 A 
BRANCH  49  63
ATOM     63  C   UNL A   1      35.976  33.564  32.182  1.00  0.00     0.023 A 
ATOM     64  C   UNL A   1      35.020  34.549  31.854  1.00  0.00     0.031 A 
ATOM     65  C   UNL A   1      36.193  33.367  33.564  1.00  0.00     0.131 A 
ATOM     66  C   UNL A   1      34.433  35.358  32.844  1.00  0.00     0.055 A 
ATOM     67  C   UNL A   1      35.550  34.125  34.550  1.00  0.00     0.041 A 
ATOM     68  F   UNL A   1      37.096  32.502  34.037  1.00  0.00    -0.206 F 
ATOM     69  C   UNL A   1      34.693  35.153  34.194  1.00  0.00     0.022 A 
BRANCH  66  70
ATOM     70  S   UNL A   1      33.486  36.812  32.318  1.00  0.00     0.124 S 
ATOM     71  O   UNL A   1      34.403  37.895  32.655  1.00  0.00    -0.237 OA
ATOM     72  O   UNL A   1      33.293  36.548  30.897  1.00  0.00    -0.237 OA
ATOM     73  O   UNL A   1      32.277  36.742  33.136  1.00  0.00    -0.744 OA
ENDBRANCH  66  70
ENDBRANCH  49  63
BRANCH  50  74
ATOM     74  C   UNL A   1      42.980  30.070  35.176  1.00  0.00     0.023 A 
ATOM     75  C   UNL A   1      42.567  28.823  35.683  1.00  0.00     0.031 A 
ATOM     76  C   UNL A   1      44.115  30.659  35.779  1.00  0.00     0.131 A 
ATOM     77  C   UNL A   1      43.282  28.212  36.737  1.00  0.00     0.055 A 
ATOM     78  C   UNL A   1      44.815  30.054  36.824  1.00  0.00     0.041 A 
ATOM     79  F   UNL A   1      44.638  31.803  35.308  1.00  0.00    -0.206 F 
ATOM     80  C   UNL A   1      44.407  28.819  37.301  1.00  0.00     0.022 A 
BRANCH  77  81
ATOM     81  S   UNL A   1      42.827  26.545  37.310  1.00  0.00     0.124 S 
ATOM     82  O   UNL A   1      43.623  26.408  38.523  1.00  0.00    -0.237 OA
ATOM     83  O   UNL A   1      41.383  26.654  37.489  1.00  0.00    -0.237 OA
ATOM     84  O   UNL A   1      43.239  25.683  36.201  1.00  0.00    -0.744 OA
ENDBRANCH  77  81
ENDBRANCH  50  74
BRANCH  62  85
ATOM     85  C   UNL A   1      42.474  33.981  30.235  1.00  0.00     0.023 A 
ATOM     86  C   UNL A   1      42.856  32.907  29.397  1.00  0.00     0.031 A 
ATOM     87  C   UNL A   1      43.231  35.164  30.159  1.00  0.00     0.131 A 
ATOM     88  C   UNL A   1      43.967  33.040  28.541  1.00  0.00     0.055 A 
ATOM     89  C   UNL A   1      44.316  35.299  29.294  1.00  0.00     0.041 A 
ATOM     90  F   UNL A   1      42.904  36.232  30.905  1.00  0.00    -0.206 F 
ATOM     91  C   UNL A   1      44.693  34.233  28.486  1.00  0.00     0.022 A 
BRANCH  88  92
ATOM     92  S   UNL A   1      44.502  31.649  27.492  1.00  0.00     0.124 S 
ATOM     93  O   UNL A   1      44.100  32.052  26.150  1.00  0.00    -0.237 OA
ATOM     94  O   UNL A   1      45.942  31.601  27.739  1.00  0.00    -0.237 OA
ATOM     95  O   UNL A   1      43.758  30.508  28.033  1.00  0.00    -0.744 OA
ENDBRANCH  88  92
ENDBRANCH  62  85
ENDBRANCH  36  37
ENDBRANCH  28  31
ENDBRANCH  26  27
ENDBRANCH  25  26
ENDBRANCH   1  25
TORSDOF 20
ENDMDL
