MODEL 1
REMARK VINA RESULT:     -12.5      0.000      0.000
REMARK SMILES Cc1cc2c(c(C)c1Br)C=C(C(=O)NCCCNC(=O)c1ccc(-c3c4nc(c(-c5cc(S(=O)(=O)[O-])ccc5F)c5ccc([nH]5)c(-c5cc(S(=O)(=O)[O-])ccc5F)c5nc(c(-c6cc(S(=O)(=O)[O-])ccc6F)c6ccc3[nH]6)C=C5)C=C4)cc1)[C@@H](C(F)(F)F)O2
REMARK SMILES IDX 17 1 16 2 15 3 14 4 12 5 13 6 11 8 1 9 2 10 3 11 8 12 4 13
REMARK SMILES IDX 6 14 9 15 5 16 89 17 7 18 10 19 84 20 85 21 86 22 87 23
REMARK SMILES IDX 88 24 18 25 19 26 20 28 21 29 22 30 83 31 23 32 82 33 24 34
REMARK SMILES IDX 25 35 26 36 76 37 27 38 81 39 75 40 77 41 28 42 80 43 74 44
REMARK SMILES IDX 73 45 29 47 61 48 41 49 60 50 42 51 45 52 59 53 78 54 43 55
REMARK SMILES IDX 44 56 58 58 79 59 46 60 30 61 31 62 39 63 32 64 38 65 40 66
REMARK SMILES IDX 37 67 33 68 34 69 35 70 36 71 62 72 63 73 71 74 64 75 70 76
REMARK SMILES IDX 72 77 69 78 65 79 66 80 67 81 68 82 47 83 48 84 56 85 49 86
REMARK SMILES IDX 55 87 57 88 54 89 50 90 51 91 52 92 53 93
REMARK H PARENT 14 7 18 27 77 46 45 57
REMARK Flexibility Score: inf
ROOT
ATOM      1  C   UNL A   1      33.510  29.262  25.148  1.00  0.00     0.118 C 
ENDROOT
BRANCH   1   2
ATOM      2  C   UNL A   1      32.903  28.904  23.797  1.00  0.00     0.042 C 
BRANCH   2   3
ATOM      3  C   UNL A   1      32.025  27.662  23.870  1.00  0.00     0.118 C 
BRANCH   3   4
ATOM      4  N   UNL A   1      31.580  27.391  25.230  1.00  0.00    -0.352 N 
ATOM      5  C   UNL A   1      31.478  26.319  26.047  1.00  0.00     0.251 C 
ATOM      6  O   UNL A   1      31.032  26.559  27.174  1.00  0.00    -0.270 OA
ATOM      7  H   UNL A   1      31.269  28.212  25.675  1.00  0.00     0.163 HD
BRANCH   5   8
ATOM      8  C   UNL A   1      31.866  24.923  25.690  1.00  0.00     0.067 C 
ATOM      9  C   UNL A   1      34.695  19.179  24.550  1.00  0.00     0.046 C 
ATOM     10  C   UNL A   1      34.379  20.607  24.907  1.00  0.00    -0.033 A 
ATOM     11  C   UNL A   1      33.033  20.983  24.952  1.00  0.00     0.051 A 
ATOM     12  C   UNL A   1      35.368  21.580  25.168  1.00  0.00     0.024 A 
ATOM     13  C   UNL A   1      32.675  22.291  25.250  1.00  0.00     0.128 A 
ATOM     14  C   UNL A   1      35.014  22.915  25.496  1.00  0.00    -0.026 A 
ATOM     15  Br  UNL A   1      37.206  21.052  25.057  1.00  0.00    -0.050 Br
ATOM     16  C   UNL A   1      33.640  23.261  25.536  1.00  0.00     0.021 A 
ATOM     17  O   UNL A   1      31.332  22.536  25.280  1.00  0.00    -0.475 OA
ATOM     18  C   UNL A   1      36.044  23.976  25.806  1.00  0.00     0.046 C 
ATOM     19  C   UNL A   1      33.157  24.599  25.897  1.00  0.00     0.026 C 
ATOM     20  C   UNL A   1      30.927  23.917  25.098  1.00  0.00     0.314 C 
BRANCH  20  21
ATOM     21  C   UNL A   1      30.640  24.177  23.608  1.00  0.00     0.429 C 
ATOM     22  F   UNL A   1      29.655  25.099  23.466  1.00  0.00    -0.167 F 
ATOM     23  F   UNL A   1      31.717  24.663  22.946  1.00  0.00    -0.167 F 
ATOM     24  F   UNL A   1      30.249  23.063  22.948  1.00  0.00    -0.167 F 
ENDBRANCH  20  21
ENDBRANCH   5   8
ENDBRANCH   3   4
ENDBRANCH   2   3
ENDBRANCH   1   2
BRANCH   1  25
ATOM     25  N   UNL A   1      32.964  30.511  25.672  1.00  0.00    -0.352 N 
ATOM     26  C   UNL A   1      33.268  31.194  26.824  1.00  0.00     0.251 C 
ATOM     27  H   UNL A   1      32.271  30.929  25.111  1.00  0.00     0.163 HD
ATOM     28  O   UNL A   1      32.497  32.057  27.236  1.00  0.00    -0.269 OA
BRANCH  26  29
ATOM     29  C   UNL A   1      34.509  30.882  27.560  1.00  0.00     0.039 A 
ATOM     30  C   UNL A   1      35.443  31.892  27.794  1.00  0.00     0.014 A 
ATOM     31  C   UNL A   1      34.756  29.580  28.001  1.00  0.00     0.014 A 
ATOM     32  C   UNL A   1      36.592  31.608  28.533  1.00  0.00     0.010 A 
ATOM     33  C   UNL A   1      35.849  29.321  28.817  1.00  0.00     0.010 A 
ATOM     34  C   UNL A   1      36.785  30.329  29.083  1.00  0.00    -0.014 A 
BRANCH  34  35
ATOM     35  C   UNL A   1      37.974  30.012  29.911  1.00  0.00     0.031 A 
ATOM     36  C   UNL A   1      39.051  29.122  29.356  1.00  0.00     0.074 A 
ATOM     37  C   UNL A   1      38.056  30.486  31.170  1.00  0.00     0.049 A 
ATOM     38  N   UNL A   1      40.124  28.660  29.944  1.00  0.00    -0.248 NA
ATOM     39  C   UNL A   1      38.884  28.662  27.966  1.00  0.00     0.031 C 
ATOM     40  C   UNL A   1      37.056  31.334  31.823  1.00  0.00     0.029 A 
ATOM     41  N   UNL A   1      39.028  30.328  32.125  1.00  0.00    -0.354 N 
ATOM     42  C   UNL A   1      40.755  27.858  29.000  1.00  0.00     0.074 A 
ATOM     43  C   UNL A   1      39.909  27.835  27.829  1.00  0.00     0.031 C 
ATOM     44  C   UNL A   1      37.490  31.662  33.050  1.00  0.00     0.029 A 
ATOM     45  C   UNL A   1      38.773  31.012  33.291  1.00  0.00     0.049 A 
ATOM     46  H   UNL A   1      39.832  29.776  31.989  1.00  0.00     0.167 HD
ATOM     47  C   UNL A   1      41.949  27.226  29.091  1.00  0.00     0.034 A 
ATOM     48  C   UNL A   1      39.495  31.103  34.425  1.00  0.00     0.034 A 
ATOM     49  C   UNL A   1      42.797  27.282  30.253  1.00  0.00     0.049 A 
ATOM     50  C   UNL A   1      40.803  30.363  34.516  1.00  0.00     0.074 A 
ATOM     51  C   UNL A   1      44.042  26.709  30.438  1.00  0.00     0.029 A 
ATOM     52  N   UNL A   1      42.489  27.959  31.424  1.00  0.00    -0.354 N 
ATOM     53  N   UNL A   1      41.385  29.609  33.611  1.00  0.00    -0.248 NA
ATOM     54  C   UNL A   1      41.549  30.480  35.775  1.00  0.00     0.031 C 
ATOM     55  C   UNL A   1      44.464  26.996  31.739  1.00  0.00     0.029 A 
ATOM     56  C   UNL A   1      43.510  27.800  32.344  1.00  0.00     0.049 A 
ATOM     57  H   UNL A   1      41.665  28.476  31.578  1.00  0.00     0.167 HD
ATOM     58  C   UNL A   1      42.576  29.180  34.187  1.00  0.00     0.074 A 
ATOM     59  C   UNL A   1      42.633  29.762  35.512  1.00  0.00     0.031 C 
ATOM     60  C   UNL A   1      43.540  28.381  33.664  1.00  0.00     0.034 A 
BRANCH  47  61
ATOM     61  C   UNL A   1      42.407  26.427  27.899  1.00  0.00     0.023 A 
ATOM     62  C   UNL A   1      41.965  25.108  27.693  1.00  0.00     0.031 A 
ATOM     63  C   UNL A   1      43.285  26.986  26.956  1.00  0.00     0.131 A 
ATOM     64  C   UNL A   1      42.446  24.373  26.600  1.00  0.00     0.055 A 
ATOM     65  C   UNL A   1      43.705  26.272  25.831  1.00  0.00     0.041 A 
ATOM     66  F   UNL A   1      43.752  28.235  27.113  1.00  0.00    -0.206 F 
ATOM     67  C   UNL A   1      43.293  24.954  25.654  1.00  0.00     0.022 A 
BRANCH  64  68
ATOM     68  S   UNL A   1      42.017  22.616  26.482  1.00  0.00     0.124 S 
ATOM     69  O   UNL A   1      42.535  22.276  25.159  1.00  0.00    -0.237 OA
ATOM     70  O   UNL A   1      42.729  22.037  27.615  1.00  0.00    -0.237 OA
ATOM     71  O   UNL A   1      40.559  22.612  26.594  1.00  0.00    -0.744 OA
ENDBRANCH  64  68
ENDBRANCH  47  61
BRANCH  48  72
ATOM     72  C   UNL A   1      39.006  31.937  35.557  1.00  0.00     0.023 A 
ATOM     73  C   UNL A   1      38.341  31.349  36.643  1.00  0.00     0.031 A 
ATOM     74  C   UNL A   1      39.199  33.329  35.573  1.00  0.00     0.131 A 
ATOM     75  C   UNL A   1      37.870  32.153  37.693  1.00  0.00     0.055 A 
ATOM     76  C   UNL A   1      38.763  34.121  36.638  1.00  0.00     0.041 A 
ATOM     77  F   UNL A   1      39.842  33.938  34.563  1.00  0.00    -0.206 F 
ATOM     78  C   UNL A   1      38.088  33.533  37.703  1.00  0.00     0.022 A 
BRANCH  75  79
ATOM     79  S   UNL A   1      36.939  31.371  39.039  1.00  0.00     0.124 S 
ATOM     80  O   UNL A   1      36.726  30.028  38.510  1.00  0.00    -0.237 OA
ATOM     81  O   UNL A   1      37.870  31.482  40.157  1.00  0.00    -0.237 OA
ATOM     82  O   UNL A   1      35.740  32.198  39.147  1.00  0.00    -0.744 OA
ENDBRANCH  75  79
ENDBRANCH  48  72
BRANCH  60  83
ATOM     83  C   UNL A   1      44.749  28.106  34.514  1.00  0.00     0.023 A 
ATOM     84  C   UNL A   1      44.821  26.967  35.333  1.00  0.00     0.031 A 
ATOM     85  C   UNL A   1      45.864  28.960  34.454  1.00  0.00     0.131 A 
ATOM     86  C   UNL A   1      45.982  26.724  36.080  1.00  0.00     0.055 A 
ATOM     87  C   UNL A   1      47.032  28.687  35.164  1.00  0.00     0.041 A 
ATOM     88  F   UNL A   1      45.842  30.057  33.680  1.00  0.00    -0.206 F 
ATOM     89  C   UNL A   1      47.094  27.566  35.986  1.00  0.00     0.022 A 
BRANCH  86  90
ATOM     90  S   UNL A   1      46.015  25.295  37.197  1.00  0.00     0.124 S 
ATOM     91  O   UNL A   1      47.407  24.867  37.097  1.00  0.00    -0.237 OA
ATOM     92  O   UNL A   1      45.618  25.882  38.473  1.00  0.00    -0.237 OA
ATOM     93  O   UNL A   1      45.040  24.379  36.609  1.00  0.00    -0.744 OA
ENDBRANCH  86  90
ENDBRANCH  60  83
ENDBRANCH  34  35
ENDBRANCH  26  29
ENDBRANCH   1  25
TORSDOF 14
ENDMDL
MODEL 2
REMARK VINA RESULT:     -12.5      5.212     10.082
REMARK SMILES Cc1cc2c(c(C)c1Br)C=C(C(=O)NCCCNC(=O)c1ccc(-c3c4nc(c(-c5cc(S(=O)(=O)[O-])ccc5F)c5ccc([nH]5)c(-c5cc(S(=O)(=O)[O-])ccc5F)c5nc(c(-c6cc(S(=O)(=O)[O-])ccc6F)c6ccc3[nH]6)C=C5)C=C4)cc1)[C@@H](C(F)(F)F)O2
REMARK SMILES IDX 17 1 16 2 15 3 14 4 12 5 13 6 11 8 1 9 2 10 3 11 8 12 4 13
REMARK SMILES IDX 6 14 9 15 5 16 89 17 7 18 10 19 84 20 85 21 86 22 87 23
REMARK SMILES IDX 88 24 18 25 19 26 20 28 21 29 22 30 83 31 23 32 82 33 24 34
REMARK SMILES IDX 25 35 26 36 76 37 27 38 81 39 75 40 77 41 28 42 80 43 74 44
REMARK SMILES IDX 73 45 29 47 61 48 41 49 60 50 42 51 45 52 59 53 78 54 43 55
REMARK SMILES IDX 44 56 58 58 79 59 46 60 30 61 31 62 39 63 32 64 38 65 40 66
REMARK SMILES IDX 37 67 33 68 34 69 35 70 36 71 62 72 63 73 71 74 64 75 70 76
REMARK SMILES IDX 72 77 69 78 65 79 66 80 67 81 68 82 47 83 48 84 56 85 49 86
REMARK SMILES IDX 55 87 57 88 54 89 50 90 51 91 52 92 53 93
REMARK H PARENT 14 7 18 27 77 46 45 57
REMARK Flexibility Score: inf
ROOT
ATOM      1  C   UNL A   1      35.879  22.268  26.428  1.00  0.00     0.118 C 
ENDROOT
BRANCH   1   2
ATOM      2  C   UNL A   1      34.477  21.684  26.550  1.00  0.00     0.042 C 
BRANCH   2   3
ATOM      3  C   UNL A   1      33.580  22.091  25.390  1.00  0.00     0.118 C 
BRANCH   3   4
ATOM      4  N   UNL A   1      34.350  22.498  24.223  1.00  0.00    -0.352 N 
ATOM      5  C   UNL A   1      34.331  23.504  23.320  1.00  0.00     0.251 C 
ATOM      6  O   UNL A   1      35.219  23.456  22.462  1.00  0.00    -0.270 OA
ATOM      7  H   UNL A   1      35.086  21.869  24.044  1.00  0.00     0.163 HD
BRANCH   5   8
ATOM      8  C   UNL A   1      33.350  24.627  23.304  1.00  0.00     0.067 C 
ATOM      9  C   UNL A   1      29.902  30.100  23.988  1.00  0.00     0.046 C 
ATOM     10  C   UNL A   1      30.921  28.994  24.070  1.00  0.00    -0.033 A 
ATOM     11  C   UNL A   1      30.808  27.937  23.164  1.00  0.00     0.051 A 
ATOM     12  C   UNL A   1      31.958  28.963  25.029  1.00  0.00     0.024 A 
ATOM     13  C   UNL A   1      31.701  26.874  23.204  1.00  0.00     0.128 A 
ATOM     14  C   UNL A   1      32.890  27.894  25.064  1.00  0.00    -0.026 A 
ATOM     15  Br  UNL A   1      32.067  30.402  26.289  1.00  0.00    -0.050 Br
ATOM     16  C   UNL A   1      32.748  26.839  24.128  1.00  0.00     0.021 A 
ATOM     17  O   UNL A   1      31.499  25.907  22.260  1.00  0.00    -0.475 OA
ATOM     18  C   UNL A   1      34.027  27.839  26.059  1.00  0.00     0.046 C 
ATOM     19  C   UNL A   1      33.672  25.701  24.050  1.00  0.00     0.026 C 
ATOM     20  C   UNL A   1      32.055  24.600  22.552  1.00  0.00     0.314 C 
BRANCH  20  21
ATOM     21  C   UNL A   1      30.987  23.730  23.241  1.00  0.00     0.429 C 
ATOM     22  F   UNL A   1      31.185  22.418  22.957  1.00  0.00    -0.167 F 
ATOM     23  F   UNL A   1      31.016  23.837  24.590  1.00  0.00    -0.167 F 
ATOM     24  F   UNL A   1      29.729  24.041  22.854  1.00  0.00    -0.167 F 
ENDBRANCH  20  21
ENDBRANCH   5   8
ENDBRANCH   3   4
ENDBRANCH   2   3
ENDBRANCH   1   2
BRANCH   1  25
ATOM     25  N   UNL A   1      36.866  21.241  26.107  1.00  0.00    -0.352 N 
ATOM     26  C   UNL A   1      38.220  21.350  25.906  1.00  0.00     0.251 C 
ATOM     27  H   UNL A   1      36.505  20.329  26.023  1.00  0.00     0.163 HD
ATOM     28  O   UNL A   1      38.824  20.434  25.354  1.00  0.00    -0.269 OA
BRANCH  26  29
ATOM     29  C   UNL A   1      38.935  22.565  26.344  1.00  0.00     0.039 A 
ATOM     30  C   UNL A   1      40.011  22.450  27.225  1.00  0.00     0.014 A 
ATOM     31  C   UNL A   1      38.524  23.822  25.895  1.00  0.00     0.014 A 
ATOM     32  C   UNL A   1      40.718  23.594  27.600  1.00  0.00     0.010 A 
ATOM     33  C   UNL A   1      39.286  24.945  26.190  1.00  0.00     0.010 A 
ATOM     34  C   UNL A   1      40.385  24.845  27.054  1.00  0.00    -0.014 A 
BRANCH  34  35
ATOM     35  C   UNL A   1      41.147  26.070  27.398  1.00  0.00     0.031 A 
ATOM     36  C   UNL A   1      40.515  27.122  28.266  1.00  0.00     0.074 A 
ATOM     37  C   UNL A   1      42.384  26.250  26.892  1.00  0.00     0.049 A 
ATOM     38  N   UNL A   1      40.979  28.294  28.613  1.00  0.00    -0.248 NA
ATOM     39  C   UNL A   1      39.167  26.833  28.786  1.00  0.00     0.031 C 
ATOM     40  C   UNL A   1      43.085  25.310  26.015  1.00  0.00     0.029 A 
ATOM     41  N   UNL A   1      43.273  27.283  27.047  1.00  0.00    -0.354 N 
ATOM     42  C   UNL A   1      39.983  28.880  29.387  1.00  0.00     0.074 A 
ATOM     43  C   UNL A   1      38.862  27.968  29.396  1.00  0.00     0.031 C 
ATOM     44  C   UNL A   1      44.313  25.785  25.752  1.00  0.00     0.029 A 
ATOM     45  C   UNL A   1      44.470  27.083  26.399  1.00  0.00     0.049 A 
ATOM     46  H   UNL A   1      43.073  28.092  27.571  1.00  0.00     0.167 HD
ATOM     47  C   UNL A   1      40.015  30.056  30.057  1.00  0.00     0.034 A 
ATOM     48  C   UNL A   1      45.570  27.859  26.337  1.00  0.00     0.034 A 
ATOM     49  C   UNL A   1      41.150  30.940  30.064  1.00  0.00     0.049 A 
ATOM     50  C   UNL A   1      45.568  29.179  27.061  1.00  0.00     0.074 A 
ATOM     51  C   UNL A   1      41.303  32.139  30.738  1.00  0.00     0.029 A 
ATOM     52  N   UNL A   1      42.332  30.717  29.371  1.00  0.00    -0.354 N 
ATOM     53  N   UNL A   1      44.617  29.717  27.790  1.00  0.00    -0.248 NA
ATOM     54  C   UNL A   1      46.783  29.999  26.954  1.00  0.00     0.031 C 
ATOM     55  C   UNL A   1      42.555  32.665  30.411  1.00  0.00     0.029 A 
ATOM     56  C   UNL A   1      43.209  31.766  29.583  1.00  0.00     0.049 A 
ATOM     57  H   UNL A   1      42.518  29.929  28.811  1.00  0.00     0.167 HD
ATOM     58  C   UNL A   1      45.127  30.928  28.244  1.00  0.00     0.074 A 
ATOM     59  C   UNL A   1      46.471  31.041  27.714  1.00  0.00     0.031 C 
ATOM     60  C   UNL A   1      44.540  31.861  29.035  1.00  0.00     0.034 A 
BRANCH  47  61
ATOM     61  C   UNL A   1      38.788  30.445  30.839  1.00  0.00     0.023 A 
ATOM     62  C   UNL A   1      37.715  31.114  30.225  1.00  0.00     0.031 A 
ATOM     63  C   UNL A   1      38.685  30.142  32.207  1.00  0.00     0.131 A 
ATOM     64  C   UNL A   1      36.607  31.507  30.989  1.00  0.00     0.055 A 
ATOM     65  C   UNL A   1      37.548  30.474  32.947  1.00  0.00     0.041 A 
ATOM     66  F   UNL A   1      39.688  29.522  32.848  1.00  0.00    -0.206 F 
ATOM     67  C   UNL A   1      36.505  31.169  32.341  1.00  0.00     0.022 A 
BRANCH  64  68
ATOM     68  S   UNL A   1      35.341  32.542  30.210  1.00  0.00     0.124 S 
ATOM     69  O   UNL A   1      34.947  31.717  29.071  1.00  0.00    -0.237 OA
ATOM     70  O   UNL A   1      34.348  32.684  31.269  1.00  0.00    -0.237 OA
ATOM     71  O   UNL A   1      36.064  33.766  29.867  1.00  0.00    -0.744 OA
ENDBRANCH  64  68
ENDBRANCH  47  61
BRANCH  48  72
ATOM     72  C   UNL A   1      46.765  27.404  25.575  1.00  0.00     0.023 A 
ATOM     73  C   UNL A   1      46.952  27.792  24.241  1.00  0.00     0.031 A 
ATOM     74  C   UNL A   1      47.736  26.579  26.169  1.00  0.00     0.131 A 
ATOM     75  C   UNL A   1      48.076  27.338  23.532  1.00  0.00     0.055 A 
ATOM     76  C   UNL A   1      48.872  26.160  25.472  1.00  0.00     0.041 A 
ATOM     77  F   UNL A   1      47.607  26.191  27.448  1.00  0.00    -0.206 F 
ATOM     78  C   UNL A   1      49.042  26.534  24.143  1.00  0.00     0.022 A 
BRANCH  75  79
ATOM     79  S   UNL A   1      48.243  27.788  21.783  1.00  0.00     0.124 S 
ATOM     80  O   UNL A   1      48.473  26.488  21.163  1.00  0.00    -0.237 OA
ATOM     81  O   UNL A   1      46.955  28.415  21.506  1.00  0.00    -0.237 OA
ATOM     82  O   UNL A   1      49.389  28.696  21.775  1.00  0.00    -0.744 OA
ENDBRANCH  75  79
ENDBRANCH  48  72
BRANCH  60  83
ATOM     83  C   UNL A   1      45.351  33.074  29.395  1.00  0.00     0.023 A 
ATOM     84  C   UNL A   1      45.269  34.257  28.641  1.00  0.00     0.031 A 
ATOM     85  C   UNL A   1      46.166  33.065  30.540  1.00  0.00     0.131 A 
ATOM     86  C   UNL A   1      46.009  35.381  29.033  1.00  0.00     0.055 A 
ATOM     87  C   UNL A   1      46.864  34.201  30.949  1.00  0.00     0.041 A 
ATOM     88  F   UNL A   1      46.271  31.959  31.293  1.00  0.00    -0.206 F 
ATOM     89  C   UNL A   1      46.791  35.366  30.191  1.00  0.00     0.022 A 
BRANCH  86  90
ATOM     90  S   UNL A   1      45.953  36.866  27.992  1.00  0.00     0.124 S 
ATOM     91  O   UNL A   1      46.611  36.404  26.774  1.00  0.00    -0.237 OA
ATOM     92  O   UNL A   1      44.521  37.123  27.885  1.00  0.00    -0.237 OA
ATOM     93  O   UNL A   1      46.702  37.854  28.766  1.00  0.00    -0.744 OA
ENDBRANCH  86  90
ENDBRANCH  60  83
ENDBRANCH  34  35
ENDBRANCH  26  29
ENDBRANCH   1  25
TORSDOF 14
ENDMDL
MODEL 3
REMARK VINA RESULT:     -12.5      2.408      3.284
REMARK SMILES Cc1cc2c(c(C)c1Br)C=C(C(=O)NCCCNC(=O)c1ccc(-c3c4nc(c(-c5cc(S(=O)(=O)[O-])ccc5F)c5ccc([nH]5)c(-c5cc(S(=O)(=O)[O-])ccc5F)c5nc(c(-c6cc(S(=O)(=O)[O-])ccc6F)c6ccc3[nH]6)C=C5)C=C4)cc1)[C@@H](C(F)(F)F)O2
REMARK SMILES IDX 17 1 16 2 15 3 14 4 12 5 13 6 11 8 1 9 2 10 3 11 8 12 4 13
REMARK SMILES IDX 6 14 9 15 5 16 89 17 7 18 10 19 84 20 85 21 86 22 87 23
REMARK SMILES IDX 88 24 18 25 19 26 20 28 21 29 22 30 83 31 23 32 82 33 24 34
REMARK SMILES IDX 25 35 26 36 76 37 27 38 81 39 75 40 77 41 28 42 80 43 74 44
REMARK SMILES IDX 73 45 29 47 61 48 41 49 60 50 42 51 45 52 59 53 78 54 43 55
REMARK SMILES IDX 44 56 58 58 79 59 46 60 30 61 31 62 39 63 32 64 38 65 40 66
REMARK SMILES IDX 37 67 33 68 34 69 35 70 36 71 62 72 63 73 71 74 64 75 70 76
REMARK SMILES IDX 72 77 69 78 65 79 66 80 67 81 68 82 47 83 48 84 56 85 49 86
REMARK SMILES IDX 55 87 57 88 54 89 50 90 51 91 52 92 53 93
REMARK H PARENT 14 7 18 27 77 46 45 57
REMARK Flexibility Score: inf
ROOT
ATOM      1  C   UNL A   1      32.633  32.394  27.280  1.00  0.00     0.118 C 
ENDROOT
BRANCH   1   2
ATOM      2  C   UNL A   1      31.471  31.883  26.437  1.00  0.00     0.042 C 
BRANCH   2   3
ATOM      3  C   UNL A   1      31.745  30.505  25.851  1.00  0.00     0.118 C 
BRANCH   3   4
ATOM      4  N   UNL A   1      33.023  29.969  26.298  1.00  0.00    -0.352 N 
ATOM      5  C   UNL A   1      33.729  28.825  26.150  1.00  0.00     0.251 C 
ATOM      6  O   UNL A   1      34.821  28.803  26.727  1.00  0.00    -0.270 OA
ATOM      7  H   UNL A   1      33.505  30.617  26.861  1.00  0.00     0.163 HD
BRANCH   5   8
ATOM      8  C   UNL A   1      33.290  27.640  25.357  1.00  0.00     0.067 C 
ATOM      9  C   UNL A   1      32.084  21.820  22.715  1.00  0.00     0.046 C 
ATOM     10  C   UNL A   1      32.587  22.975  23.541  1.00  0.00    -0.033 A 
ATOM     11  C   UNL A   1      31.963  24.214  23.374  1.00  0.00     0.051 A 
ATOM     12  C   UNL A   1      33.666  22.871  24.446  1.00  0.00     0.024 A 
ATOM     13  C   UNL A   1      32.396  25.325  24.086  1.00  0.00     0.128 A 
ATOM     14  C   UNL A   1      34.102  23.993  25.197  1.00  0.00    -0.026 A 
ATOM     15  Br  UNL A   1      34.534  21.172  24.627  1.00  0.00    -0.050 Br
ATOM     16  C   UNL A   1      33.445  25.235  25.005  1.00  0.00     0.021 A 
ATOM     17  O   UNL A   1      31.701  26.476  23.850  1.00  0.00    -0.475 OA
ATOM     18  C   UNL A   1      35.236  23.914  26.193  1.00  0.00     0.046 C 
ATOM     19  C   UNL A   1      33.788  26.451  25.751  1.00  0.00     0.026 C 
ATOM     20  C   UNL A   1      32.385  27.715  24.166  1.00  0.00     0.314 C 
BRANCH  20  21
ATOM     21  C   UNL A   1      33.102  28.242  22.909  1.00  0.00     0.429 C 
ATOM     22  F   UNL A   1      33.072  27.314  21.920  1.00  0.00    -0.167 F 
ATOM     23  F   UNL A   1      32.521  29.357  22.406  1.00  0.00    -0.167 F 
ATOM     24  F   UNL A   1      34.399  28.549  23.136  1.00  0.00    -0.167 F 
ENDBRANCH  20  21
ENDBRANCH   5   8
ENDBRANCH   3   4
ENDBRANCH   2   3
ENDBRANCH   1   2
BRANCH   1  25
ATOM     25  N   UNL A   1      32.524  33.827  27.536  1.00  0.00    -0.352 N 
ATOM     26  C   UNL A   1      33.091  34.593  28.525  1.00  0.00     0.251 C 
ATOM     27  H   UNL A   1      31.958  34.322  26.900  1.00  0.00     0.163 HD
ATOM     28  O   UNL A   1      32.644  35.715  28.751  1.00  0.00    -0.269 OA
BRANCH  26  29
ATOM     29  C   UNL A   1      34.221  34.062  29.313  1.00  0.00     0.039 A 
ATOM     30  C   UNL A   1      33.968  33.228  30.403  1.00  0.00     0.014 A 
ATOM     31  C   UNL A   1      35.532  34.409  28.981  1.00  0.00     0.014 A 
ATOM     32  C   UNL A   1      35.039  32.686  31.117  1.00  0.00     0.010 A 
ATOM     33  C   UNL A   1      36.596  33.794  29.629  1.00  0.00     0.010 A 
ATOM     34  C   UNL A   1      36.361  32.935  30.710  1.00  0.00    -0.014 A 
BRANCH  34  35
ATOM     35  C   UNL A   1      37.517  32.336  31.421  1.00  0.00     0.031 A 
ATOM     36  C   UNL A   1      38.279  31.207  30.786  1.00  0.00     0.074 A 
ATOM     37  C   UNL A   1      37.844  32.778  32.652  1.00  0.00     0.049 A 
ATOM     38  N   UNL A   1      39.262  30.497  31.274  1.00  0.00    -0.248 NA
ATOM     39  C   UNL A   1      37.859  30.800  29.433  1.00  0.00     0.031 C 
ATOM     40  C   UNL A   1      37.157  33.848  33.379  1.00  0.00     0.029 A 
ATOM     41  N   UNL A   1      38.844  32.388  33.507  1.00  0.00    -0.354 N 
ATOM     42  C   UNL A   1      39.575  29.562  30.294  1.00  0.00     0.074 A 
ATOM     43  C   UNL A   1      38.630  29.745  29.216  1.00  0.00     0.031 C 
ATOM     44  C   UNL A   1      37.785  34.062  34.546  1.00  0.00     0.029 A 
ATOM     45  C   UNL A   1      38.888  33.116  34.674  1.00  0.00     0.049 A 
ATOM     46  H   UNL A   1      39.469  31.655  33.306  1.00  0.00     0.167 HD
ATOM     47  C   UNL A   1      40.581  28.656  30.280  1.00  0.00     0.034 A 
ATOM     48  C   UNL A   1      39.726  33.030  35.725  1.00  0.00     0.034 A 
ATOM     49  C   UNL A   1      41.534  28.504  31.348  1.00  0.00     0.049 A 
ATOM     50  C   UNL A   1      40.814  31.990  35.703  1.00  0.00     0.074 A 
ATOM     51  C   UNL A   1      42.614  27.642  31.422  1.00  0.00     0.029 A 
ATOM     52  N   UNL A   1      41.526  29.239  32.525  1.00  0.00    -0.354 N 
ATOM     53  N   UNL A   1      41.096  31.114  34.766  1.00  0.00    -0.248 NA
ATOM     54  C   UNL A   1      41.695  31.923  36.877  1.00  0.00     0.031 C 
ATOM     55  C   UNL A   1      43.227  27.820  32.665  1.00  0.00     0.029 A 
ATOM     56  C   UNL A   1      42.569  28.835  33.341  1.00  0.00     0.049 A 
ATOM     57  H   UNL A   1      40.875  29.942  32.748  1.00  0.00     0.167 HD
ATOM     58  C   UNL A   1      42.200  30.406  35.229  1.00  0.00     0.074 A 
ATOM     59  C   UNL A   1      42.537  30.959  36.525  1.00  0.00     0.031 C 
ATOM     60  C   UNL A   1      42.878  29.394  34.634  1.00  0.00     0.034 A 
BRANCH  47  61
ATOM     61  C   UNL A   1      40.701  27.766  29.071  1.00  0.00     0.023 A 
ATOM     62  C   UNL A   1      41.609  28.059  28.039  1.00  0.00     0.031 A 
ATOM     63  C   UNL A   1      39.907  26.614  28.948  1.00  0.00     0.131 A 
ATOM     64  C   UNL A   1      41.663  27.239  26.902  1.00  0.00     0.055 A 
ATOM     65  C   UNL A   1      40.016  25.763  27.846  1.00  0.00     0.041 A 
ATOM     66  F   UNL A   1      39.010  26.298  29.895  1.00  0.00    -0.206 F 
ATOM     67  C   UNL A   1      40.891  26.079  26.811  1.00  0.00     0.022 A 
BRANCH  64  68
ATOM     68  S   UNL A   1      42.695  27.760  25.507  1.00  0.00     0.124 S 
ATOM     69  O   UNL A   1      43.973  28.016  26.168  1.00  0.00    -0.237 OA
ATOM     70  O   UNL A   1      42.653  26.597  24.628  1.00  0.00    -0.237 OA
ATOM     71  O   UNL A   1      42.012  28.948  25.001  1.00  0.00    -0.744 OA
ENDBRANCH  64  68
ENDBRANCH  47  61
BRANCH  48  72
ATOM     72  C   UNL A   1      39.578  33.961  36.877  1.00  0.00     0.023 A 
ATOM     73  C   UNL A   1      39.022  33.518  38.087  1.00  0.00     0.031 A 
ATOM     74  C   UNL A   1      39.991  35.301  36.789  1.00  0.00     0.131 A 
ATOM     75  C   UNL A   1      38.873  34.415  39.157  1.00  0.00     0.055 A 
ATOM     76  C   UNL A   1      39.876  36.180  37.868  1.00  0.00     0.041 A 
ATOM     77  F   UNL A   1      40.541  35.769  35.656  1.00  0.00    -0.206 F 
ATOM     78  C   UNL A   1      39.307  35.740  39.059  1.00  0.00     0.022 A 
BRANCH  75  79
ATOM     79  S   UNL A   1      38.072  33.832  40.677  1.00  0.00     0.124 S 
ATOM     80  O   UNL A   1      39.128  33.024  41.276  1.00  0.00    -0.237 OA
ATOM     81  O   UNL A   1      37.758  35.086  41.355  1.00  0.00    -0.237 OA
ATOM     82  O   UNL A   1      36.916  33.087  40.186  1.00  0.00    -0.744 OA
ENDBRANCH  75  79
ENDBRANCH  48  72
BRANCH  60  83
ATOM     83  C   UNL A   1      44.066  28.832  35.364  1.00  0.00     0.023 A 
ATOM     84  C   UNL A   1      43.928  27.773  36.277  1.00  0.00     0.031 A 
ATOM     85  C   UNL A   1      45.356  29.320  35.095  1.00  0.00     0.131 A 
ATOM     86  C   UNL A   1      45.064  27.248  36.907  1.00  0.00     0.055 A 
ATOM     87  C   UNL A   1      46.487  28.763  35.692  1.00  0.00     0.041 A 
ATOM     88  F   UNL A   1      45.538  30.327  34.227  1.00  0.00    -0.206 F 
ATOM     89  C   UNL A   1      46.344  27.724  36.607  1.00  0.00     0.022 A 
BRANCH  86  90
ATOM     90  S   UNL A   1      44.848  25.942  38.146  1.00  0.00     0.124 S 
ATOM     91  O   UNL A   1      43.589  26.329  38.775  1.00  0.00    -0.237 OA
ATOM     92  O   UNL A   1      44.806  24.733  37.328  1.00  0.00    -0.237 OA
ATOM     93  O   UNL A   1      46.031  26.074  38.993  1.00  0.00    -0.744 OA
ENDBRANCH  86  90
ENDBRANCH  60  83
ENDBRANCH  34  35
ENDBRANCH  26  29
ENDBRANCH   1  25
TORSDOF 14
ENDMDL
