MODEL 1
REMARK VINA RESULT:     -11.4      0.000      0.000
REMARK SMILES C[C@@H]([NH2+]C[C@H]1CCC[C@@H]1C(=O)NCCCNC(=O)c1ccc(-c2c3nc(c(-c4cc(S(=O)(=O)[O-])ccc4F)c4ccc([nH]4)c(-c4cc(S(=O)(=O)[O-])ccc4F)c4nc(c(-c5cc(S(=O)(=O)[O-])ccc5F)c5ccc2[nH]5)C=C4)C=C3)cc1)c1cc(F)ccc1O
REMARK SMILES IDX 13 1 12 2 10 3 11 4 9 6 5 7 6 8 7 9 8 10 4 11 3 12 2 15 1 16
REMARK SMILES IDX 82 17 83 18 88 19 84 20 87 21 85 22 86 23 89 24 14 26 15 27
REMARK SMILES IDX 16 28 17 29 18 31 19 32 20 33 81 34 21 35 80 36 22 37 23 38
REMARK SMILES IDX 24 39 74 40 25 41 79 42 73 43 75 44 26 45 78 46 72 47 71 48
REMARK SMILES IDX 27 50 59 51 39 52 58 53 40 54 43 55 57 56 76 57 41 58 42 59
REMARK SMILES IDX 56 61 77 62 44 63 28 64 29 65 37 66 30 67 36 68 38 69 35 70
REMARK SMILES IDX 31 71 32 72 33 73 34 74 60 75 61 76 69 77 62 78 68 79 70 80
REMARK SMILES IDX 67 81 63 82 64 83 65 84 66 85 45 86 46 87 54 88 47 89 53 90
REMARK SMILES IDX 55 91 52 92 48 93 49 94 50 95 51 96
REMARK H PARENT 12 5 3 13 3 14 89 25 16 30 75 49 43 60
REMARK Flexibility Score: inf
ROOT
ATOM      1  C   UNL A   1      31.999  28.339  23.438  1.00  0.00     0.117 C 
ENDROOT
BRANCH   1   2
ATOM      2  N   UNL A   1      32.603  27.681  22.293  1.00  0.00    -0.356 N 
ATOM      3  C   UNL A   1      32.818  26.358  22.054  1.00  0.00     0.223 C 
ATOM      4  O   UNL A   1      33.280  26.035  20.959  1.00  0.00    -0.275 OA
ATOM      5  H   UNL A   1      32.903  28.286  21.576  1.00  0.00     0.163 HD
BRANCH   3   6
ATOM      6  C   UNL A   1      32.517  25.337  23.147  1.00  0.00     0.087 C 
ATOM      7  C   UNL A   1      33.651  25.299  24.196  1.00  0.00     0.057 C 
ATOM      8  C   UNL A   1      34.671  24.369  23.528  1.00  0.00     0.010 C 
ATOM      9  C   UNL A   1      33.846  23.289  22.849  1.00  0.00     0.001 C 
ATOM     10  C   UNL A   1      32.473  23.906  22.585  1.00  0.00     0.014 C 
BRANCH   7  11
ATOM     11  C   UNL A   1      33.105  24.802  25.555  1.00  0.00     0.265 C 
BRANCH  11  12
ATOM     12  N   UNL A   1      33.843  23.730  26.240  1.00  0.00    -0.340 N 
ATOM     13  H   UNL A   1      34.640  23.472  25.658  1.00  0.00     0.346 HD
ATOM     14  H   UNL A   1      34.115  24.105  27.149  1.00  0.00     0.346 HD
BRANCH  12  15
ATOM     15  C   UNL A   1      33.056  22.510  26.510  1.00  0.00     0.214 C 
ATOM     16  C   UNL A   1      33.087  22.255  28.025  1.00  0.00     0.081 C 
BRANCH  15  17
ATOM     17  C   UNL A   1      33.567  21.284  25.778  1.00  0.00     0.054 A 
ATOM     18  C   UNL A   1      32.634  20.363  25.275  1.00  0.00     0.053 A 
ATOM     19  C   UNL A   1      34.931  20.981  25.630  1.00  0.00     0.124 A 
ATOM     20  C   UNL A   1      33.062  19.199  24.643  1.00  0.00     0.123 A 
ATOM     21  C   UNL A   1      35.356  19.812  25.001  1.00  0.00     0.050 A 
ATOM     22  F   UNL A   1      32.151  18.339  24.172  1.00  0.00    -0.207 F 
ATOM     23  C   UNL A   1      34.415  18.914  24.501  1.00  0.00     0.043 A 
BRANCH  19  24
ATOM     24  O   UNL A   1      35.905  21.827  26.085  1.00  0.00    -0.507 OA
ATOM     25  H   UNL A   1      36.765  21.794  25.715  1.00  0.00     0.293 HD
ENDBRANCH  19  24
ENDBRANCH  15  17
ENDBRANCH  12  15
ENDBRANCH  11  12
ENDBRANCH   7  11
ENDBRANCH   3   6
ENDBRANCH   1   2
BRANCH   1  26
ATOM     26  C   UNL A   1      32.960  29.287  24.145  1.00  0.00     0.042 C 
BRANCH  26  27
ATOM     27  C   UNL A   1      32.791  29.368  25.660  1.00  0.00     0.118 C 
BRANCH  27  28
ATOM     28  N   UNL A   1      32.522  30.715  26.139  1.00  0.00    -0.352 N 
ATOM     29  C   UNL A   1      33.183  31.485  27.064  1.00  0.00     0.251 C 
ATOM     30  H   UNL A   1      31.735  31.146  25.732  1.00  0.00     0.163 HD
ATOM     31  O   UNL A   1      32.672  32.550  27.418  1.00  0.00    -0.269 OA
BRANCH  29  32
ATOM     32  C   UNL A   1      34.468  31.049  27.659  1.00  0.00     0.039 A 
ATOM     33  C   UNL A   1      35.454  32.012  27.894  1.00  0.00     0.014 A 
ATOM     34  C   UNL A   1      34.727  29.710  27.963  1.00  0.00     0.014 A 
ATOM     35  C   UNL A   1      36.661  31.646  28.498  1.00  0.00     0.010 A 
ATOM     36  C   UNL A   1      35.899  29.358  28.635  1.00  0.00     0.010 A 
ATOM     37  C   UNL A   1      36.878  30.324  28.917  1.00  0.00    -0.014 A 
BRANCH  37  38
ATOM     38  C   UNL A   1      38.108  29.955  29.671  1.00  0.00     0.031 A 
ATOM     39  C   UNL A   1      38.343  30.474  31.065  1.00  0.00     0.074 A 
ATOM     40  C   UNL A   1      39.037  29.178  29.077  1.00  0.00     0.049 A 
ATOM     41  N   UNL A   1      39.362  30.272  31.862  1.00  0.00    -0.248 NA
ATOM     42  C   UNL A   1      37.309  31.356  31.630  1.00  0.00     0.031 C 
ATOM     43  C   UNL A   1      38.945  28.646  27.714  1.00  0.00     0.029 A 
ATOM     44  N   UNL A   1      40.239  28.697  29.536  1.00  0.00    -0.354 N 
ATOM     45  C   UNL A   1      39.100  31.006  33.014  1.00  0.00     0.074 A 
ATOM     46  C   UNL A   1      37.850  31.700  32.789  1.00  0.00     0.031 C 
ATOM     47  C   UNL A   1      40.022  27.883  27.466  1.00  0.00     0.029 A 
ATOM     48  C   UNL A   1      40.907  27.910  28.624  1.00  0.00     0.049 A 
ATOM     49  H   UNL A   1      40.591  28.897  30.434  1.00  0.00     0.167 HD
ATOM     50  C   UNL A   1      39.827  31.081  34.157  1.00  0.00     0.034 A 
ATOM     51  C   UNL A   1      42.101  27.288  28.707  1.00  0.00     0.034 A 
ATOM     52  C   UNL A   1      41.066  30.371  34.372  1.00  0.00     0.049 A 
ATOM     53  C   UNL A   1      42.899  27.413  29.981  1.00  0.00     0.074 A 
ATOM     54  C   UNL A   1      41.839  30.319  35.519  1.00  0.00     0.029 A 
ATOM     55  N   UNL A   1      41.722  29.602  33.419  1.00  0.00    -0.354 N 
ATOM     56  N   UNL A   1      42.598  28.054  31.087  1.00  0.00    -0.248 NA
ATOM     57  C   UNL A   1      44.193  26.722  30.019  1.00  0.00     0.031 C 
ATOM     58  C   UNL A   1      42.999  29.589  35.237  1.00  0.00     0.029 A 
ATOM     59  C   UNL A   1      42.911  29.110  33.940  1.00  0.00     0.049 A 
ATOM     60  H   UNL A   1      41.393  29.431  32.508  1.00  0.00     0.167 HD
ATOM     61  C   UNL A   1      43.653  27.812  31.963  1.00  0.00     0.074 A 
ATOM     62  C   UNL A   1      44.582  26.946  31.264  1.00  0.00     0.031 C 
ATOM     63  C   UNL A   1      43.840  28.261  33.231  1.00  0.00     0.034 A 
BRANCH  50  64
ATOM     64  C   UNL A   1      39.319  31.986  35.257  1.00  0.00     0.023 A 
ATOM     65  C   UNL A   1      39.743  33.320  35.379  1.00  0.00     0.031 A 
ATOM     66  C   UNL A   1      38.386  31.504  36.193  1.00  0.00     0.131 A 
ATOM     67  C   UNL A   1      39.282  34.108  36.446  1.00  0.00     0.055 A 
ATOM     68  C   UNL A   1      37.872  32.316  37.206  1.00  0.00     0.041 A 
ATOM     69  F   UNL A   1      37.959  30.233  36.142  1.00  0.00    -0.206 F 
ATOM     70  C   UNL A   1      38.330  33.623  37.344  1.00  0.00     0.022 A 
BRANCH  67  71
ATOM     71  S   UNL A   1      40.040  35.733  36.716  1.00  0.00     0.124 S 
ATOM     72  O   UNL A   1      39.652  36.446  35.500  1.00  0.00    -0.237 OA
ATOM     73  O   UNL A   1      39.400  36.178  37.949  1.00  0.00    -0.237 OA
ATOM     74  O   UNL A   1      41.465  35.433  36.826  1.00  0.00    -0.744 OA
ENDBRANCH  67  71
ENDBRANCH  50  64
BRANCH  51  75
ATOM     75  C   UNL A   1      42.632  26.496  27.559  1.00  0.00     0.023 A 
ATOM     76  C   UNL A   1      42.433  25.107  27.488  1.00  0.00     0.031 A 
ATOM     77  C   UNL A   1      43.407  27.100  26.553  1.00  0.00     0.131 A 
ATOM     78  C   UNL A   1      43.054  24.360  26.475  1.00  0.00     0.055 A 
ATOM     79  C   UNL A   1      43.969  26.362  25.509  1.00  0.00     0.041 A 
ATOM     80  F   UNL A   1      43.630  28.424  26.569  1.00  0.00    -0.206 F 
ATOM     81  C   UNL A   1      43.808  24.980  25.477  1.00  0.00     0.022 A 
BRANCH  78  82
ATOM     82  S   UNL A   1      42.956  22.550  26.549  1.00  0.00     0.124 S 
ATOM     83  O   UNL A   1      44.363  22.174  26.471  1.00  0.00    -0.237 OA
ATOM     84  O   UNL A   1      42.304  22.335  27.836  1.00  0.00    -0.237 OA
ATOM     85  O   UNL A   1      42.151  22.206  25.379  1.00  0.00    -0.744 OA
ENDBRANCH  78  82
ENDBRANCH  51  75
BRANCH  63  86
ATOM     86  C   UNL A   1      45.080  27.784  33.950  1.00  0.00     0.023 A 
ATOM     87  C   UNL A   1      45.059  26.659  34.794  1.00  0.00     0.031 A 
ATOM     88  C   UNL A   1      46.292  28.485  33.816  1.00  0.00     0.131 A 
ATOM     89  C   UNL A   1      46.205  26.313  35.527  1.00  0.00     0.055 A 
ATOM     90  C   UNL A   1      47.448  28.093  34.492  1.00  0.00     0.041 A 
ATOM     91  F   UNL A   1      46.371  29.569  33.026  1.00  0.00    -0.206 F 
ATOM     92  C   UNL A   1      47.404  27.013  35.368  1.00  0.00     0.022 A 
BRANCH  89  93
ATOM     93  S   UNL A   1      46.072  25.011  36.784  1.00  0.00     0.124 S 
ATOM     94  O   UNL A   1      45.445  23.928  36.033  1.00  0.00    -0.237 OA
ATOM     95  O   UNL A   1      47.466  24.800  37.163  1.00  0.00    -0.237 OA
ATOM     96  O   UNL A   1      45.234  25.616  37.818  1.00  0.00    -0.744 OA
ENDBRANCH  89  93
ENDBRANCH  63  86
ENDBRANCH  37  38
ENDBRANCH  29  32
ENDBRANCH  27  28
ENDBRANCH  26  27
ENDBRANCH   1  26
TORSDOF 18
ENDMDL
MODEL 2
REMARK VINA RESULT:     -11.2      1.862      2.352
REMARK SMILES C[C@@H]([NH2+]C[C@H]1CCC[C@@H]1C(=O)NCCCNC(=O)c1ccc(-c2c3nc(c(-c4cc(S(=O)(=O)[O-])ccc4F)c4ccc([nH]4)c(-c4cc(S(=O)(=O)[O-])ccc4F)c4nc(c(-c5cc(S(=O)(=O)[O-])ccc5F)c5ccc2[nH]5)C=C4)C=C3)cc1)c1cc(F)ccc1O
REMARK SMILES IDX 13 1 12 2 10 3 11 4 9 6 5 7 6 8 7 9 8 10 4 11 3 12 2 15 1 16
REMARK SMILES IDX 82 17 83 18 88 19 84 20 87 21 85 22 86 23 89 24 14 26 15 27
REMARK SMILES IDX 16 28 17 29 18 31 19 32 20 33 81 34 21 35 80 36 22 37 23 38
REMARK SMILES IDX 24 39 74 40 25 41 79 42 73 43 75 44 26 45 78 46 72 47 71 48
REMARK SMILES IDX 27 50 59 51 39 52 58 53 40 54 43 55 57 56 76 57 41 58 42 59
REMARK SMILES IDX 56 61 77 62 44 63 28 64 29 65 37 66 30 67 36 68 38 69 35 70
REMARK SMILES IDX 31 71 32 72 33 73 34 74 60 75 61 76 69 77 62 78 68 79 70 80
REMARK SMILES IDX 67 81 63 82 64 83 65 84 66 85 45 86 46 87 54 88 47 89 53 90
REMARK SMILES IDX 55 91 52 92 48 93 49 94 50 95 51 96
REMARK H PARENT 12 5 3 13 3 14 89 25 16 30 75 49 43 60
REMARK Flexibility Score: inf
ROOT
ATOM      1  C   UNL A   1      32.790  28.524  22.600  1.00  0.00     0.117 C 
ENDROOT
BRANCH   1   2
ATOM      2  N   UNL A   1      33.047  27.343  21.796  1.00  0.00    -0.356 N 
ATOM      3  C   UNL A   1      32.890  26.024  22.096  1.00  0.00     0.223 C 
ATOM      4  O   UNL A   1      33.102  25.198  21.208  1.00  0.00    -0.275 OA
ATOM      5  H   UNL A   1      33.388  27.524  20.889  1.00  0.00     0.163 HD
BRANCH   3   6
ATOM      6  C   UNL A   1      32.497  25.617  23.513  1.00  0.00     0.087 C 
ATOM      7  C   UNL A   1      32.117  24.122  23.575  1.00  0.00     0.057 C 
ATOM      8  C   UNL A   1      30.654  24.146  23.114  1.00  0.00     0.010 C 
ATOM      9  C   UNL A   1      30.057  25.397  23.737  1.00  0.00     0.001 C 
ATOM     10  C   UNL A   1      31.227  26.350  23.978  1.00  0.00     0.014 C 
BRANCH   7  11
ATOM     11  C   UNL A   1      32.343  23.572  25.002  1.00  0.00     0.265 C 
BRANCH  11  12
ATOM     12  N   UNL A   1      32.699  22.151  25.141  1.00  0.00    -0.340 N 
ATOM     13  H   UNL A   1      31.837  21.619  25.267  1.00  0.00     0.346 HD
ATOM     14  H   UNL A   1      33.208  21.898  24.294  1.00  0.00     0.346 HD
BRANCH  12  15
ATOM     15  C   UNL A   1      33.597  21.845  26.273  1.00  0.00     0.214 C 
ATOM     16  C   UNL A   1      33.368  22.908  27.358  1.00  0.00     0.081 C 
BRANCH  15  17
ATOM     17  C   UNL A   1      35.064  21.815  25.892  1.00  0.00     0.054 A 
ATOM     18  C   UNL A   1      35.843  22.962  26.122  1.00  0.00     0.053 A 
ATOM     19  C   UNL A   1      35.679  20.723  25.258  1.00  0.00     0.124 A 
ATOM     20  C   UNL A   1      37.180  22.995  25.739  1.00  0.00     0.123 A 
ATOM     21  C   UNL A   1      37.019  20.762  24.871  1.00  0.00     0.050 A 
ATOM     22  F   UNL A   1      37.898  24.099  25.970  1.00  0.00    -0.207 F 
ATOM     23  C   UNL A   1      37.776  21.905  25.115  1.00  0.00     0.043 A 
BRANCH  19  24
ATOM     24  O   UNL A   1      34.996  19.566  25.003  1.00  0.00    -0.507 OA
ATOM     25  H   UNL A   1      34.652  19.405  24.147  1.00  0.00     0.293 HD
ENDBRANCH  19  24
ENDBRANCH  15  17
ENDBRANCH  12  15
ENDBRANCH  11  12
ENDBRANCH   7  11
ENDBRANCH   3   6
ENDBRANCH   1   2
BRANCH   1  26
ATOM     26  C   UNL A   1      33.966  28.892  23.496  1.00  0.00     0.042 C 
BRANCH  26  27
ATOM     27  C   UNL A   1      33.670  28.873  24.994  1.00  0.00     0.118 C 
BRANCH  27  28
ATOM     28  N   UNL A   1      32.997  30.074  25.464  1.00  0.00    -0.352 N 
ATOM     29  C   UNL A   1      33.214  30.842  26.581  1.00  0.00     0.251 C 
ATOM     30  H   UNL A   1      32.265  30.388  24.885  1.00  0.00     0.163 HD
ATOM     31  O   UNL A   1      32.408  31.737  26.847  1.00  0.00    -0.269 OA
BRANCH  29  32
ATOM     32  C   UNL A   1      34.368  30.598  27.477  1.00  0.00     0.039 A 
ATOM     33  C   UNL A   1      34.448  29.371  28.143  1.00  0.00     0.014 A 
ATOM     34  C   UNL A   1      35.355  31.564  27.695  1.00  0.00     0.014 A 
ATOM     35  C   UNL A   1      35.546  29.086  28.960  1.00  0.00     0.010 A 
ATOM     36  C   UNL A   1      36.488  31.251  28.448  1.00  0.00     0.010 A 
ATOM     37  C   UNL A   1      36.600  30.006  29.085  1.00  0.00    -0.014 A 
BRANCH  37  38
ATOM     38  C   UNL A   1      37.828  29.658  29.853  1.00  0.00     0.031 A 
ATOM     39  C   UNL A   1      38.045  30.192  31.244  1.00  0.00     0.074 A 
ATOM     40  C   UNL A   1      38.772  28.887  29.274  1.00  0.00     0.049 A 
ATOM     41  N   UNL A   1      39.060  30.009  32.051  1.00  0.00    -0.248 NA
ATOM     42  C   UNL A   1      36.997  31.067  31.792  1.00  0.00     0.031 C 
ATOM     43  C   UNL A   1      38.697  28.342  27.915  1.00  0.00     0.029 A 
ATOM     44  N   UNL A   1      39.975  28.424  29.746  1.00  0.00    -0.354 N 
ATOM     45  C   UNL A   1      38.781  30.751  33.194  1.00  0.00     0.074 A 
ATOM     46  C   UNL A   1      37.524  31.428  32.953  1.00  0.00     0.031 C 
ATOM     47  C   UNL A   1      39.784  27.589  27.682  1.00  0.00     0.029 A 
ATOM     48  C   UNL A   1      40.659  27.637  28.847  1.00  0.00     0.049 A 
ATOM     49  H   UNL A   1      40.317  28.637  30.645  1.00  0.00     0.167 HD
ATOM     50  C   UNL A   1      39.497  30.844  34.342  1.00  0.00     0.034 A 
ATOM     51  C   UNL A   1      41.860  27.029  28.945  1.00  0.00     0.034 A 
ATOM     52  C   UNL A   1      40.743  30.152  34.573  1.00  0.00     0.049 A 
ATOM     53  C   UNL A   1      42.646  27.176  30.225  1.00  0.00     0.074 A 
ATOM     54  C   UNL A   1      41.507  30.119  35.728  1.00  0.00     0.029 A 
ATOM     55  N   UNL A   1      41.416  29.381  33.633  1.00  0.00    -0.354 N 
ATOM     56  N   UNL A   1      42.328  27.823  31.323  1.00  0.00    -0.248 NA
ATOM     57  C   UNL A   1      43.948  26.500  30.279  1.00  0.00     0.031 C 
ATOM     58  C   UNL A   1      42.677  29.399  35.461  1.00  0.00     0.029 A 
ATOM     59  C   UNL A   1      42.606  28.908  34.168  1.00  0.00     0.049 A 
ATOM     60  H   UNL A   1      41.095  29.199  32.721  1.00  0.00     0.167 HD
ATOM     61  C   UNL A   1      43.379  27.601  32.209  1.00  0.00     0.074 A 
ATOM     62  C   UNL A   1      44.324  26.740  31.525  1.00  0.00     0.031 C 
ATOM     63  C   UNL A   1      43.550  28.064  33.474  1.00  0.00     0.034 A 
BRANCH  50  64
ATOM     64  C   UNL A   1      38.969  31.753  35.429  1.00  0.00     0.023 A 
ATOM     65  C   UNL A   1      38.375  31.249  36.598  1.00  0.00     0.031 A 
ATOM     66  C   UNL A   1      39.071  33.150  35.294  1.00  0.00     0.131 A 
ATOM     67  C   UNL A   1      37.853  32.131  37.557  1.00  0.00     0.055 A 
ATOM     68  C   UNL A   1      38.620  34.022  36.287  1.00  0.00     0.041 A 
ATOM     69  F   UNL A   1      39.609  33.693  34.191  1.00  0.00    -0.206 F 
ATOM     70  C   UNL A   1      37.995  33.514  37.422  1.00  0.00     0.022 A 
BRANCH  67  71
ATOM     71  S   UNL A   1      36.874  31.450  38.924  1.00  0.00     0.124 S 
ATOM     72  O   UNL A   1      35.697  32.317  38.905  1.00  0.00    -0.237 OA
ATOM     73  O   UNL A   1      36.659  30.071  38.501  1.00  0.00    -0.237 OA
ATOM     74  O   UNL A   1      37.743  31.618  40.086  1.00  0.00    -0.744 OA
ENDBRANCH  67  71
ENDBRANCH  50  64
BRANCH  51  75
ATOM     75  C   UNL A   1      42.409  26.234  27.809  1.00  0.00     0.023 A 
ATOM     76  C   UNL A   1      42.142  24.860  27.696  1.00  0.00     0.031 A 
ATOM     77  C   UNL A   1      43.268  26.816  26.859  1.00  0.00     0.131 A 
ATOM     78  C   UNL A   1      42.777  24.101  26.700  1.00  0.00     0.055 A 
ATOM     79  C   UNL A   1      43.846  26.070  25.830  1.00  0.00     0.041 A 
ATOM     80  F   UNL A   1      43.559  28.126  26.918  1.00  0.00    -0.206 F 
ATOM     81  C   UNL A   1      43.615  24.699  25.757  1.00  0.00     0.022 A 
BRANCH  78  82
ATOM     82  S   UNL A   1      42.581  22.298  26.727  1.00  0.00     0.124 S 
ATOM     83  O   UNL A   1      41.293  22.130  26.061  1.00  0.00    -0.237 OA
ATOM     84  O   UNL A   1      43.753  21.855  25.979  1.00  0.00    -0.237 OA
ATOM     85  O   UNL A   1      42.594  21.976  28.152  1.00  0.00    -0.744 OA
ENDBRANCH  78  82
ENDBRANCH  51  75
BRANCH  63  86
ATOM     86  C   UNL A   1      44.790  27.608  34.207  1.00  0.00     0.023 A 
ATOM     87  C   UNL A   1      44.802  26.432  34.979  1.00  0.00     0.031 A 
ATOM     88  C   UNL A   1      45.965  28.379  34.162  1.00  0.00     0.131 A 
ATOM     89  C   UNL A   1      45.940  26.101  35.732  1.00  0.00     0.055 A 
ATOM     90  C   UNL A   1      47.118  28.006  34.854  1.00  0.00     0.041 A 
ATOM     91  F   UNL A   1      46.012  29.513  33.444  1.00  0.00    -0.206 F 
ATOM     92  C   UNL A   1      47.104  26.871  35.660  1.00  0.00     0.022 A 
BRANCH  89  93
ATOM     93  S   UNL A   1      45.837  24.717  36.900  1.00  0.00     0.124 S 
ATOM     94  O   UNL A   1      44.463  24.826  37.380  1.00  0.00    -0.237 OA
ATOM     95  O   UNL A   1      46.125  23.567  36.047  1.00  0.00    -0.237 OA
ATOM     96  O   UNL A   1      46.867  25.026  37.890  1.00  0.00    -0.744 OA
ENDBRANCH  89  93
ENDBRANCH  63  86
ENDBRANCH  37  38
ENDBRANCH  29  32
ENDBRANCH  27  28
ENDBRANCH  26  27
ENDBRANCH   1  26
TORSDOF 18
ENDMDL
MODEL 3
REMARK VINA RESULT:     -11.1      4.583      9.900
REMARK SMILES C[C@@H]([NH2+]C[C@H]1CCC[C@@H]1C(=O)NCCCNC(=O)c1ccc(-c2c3nc(c(-c4cc(S(=O)(=O)[O-])ccc4F)c4ccc([nH]4)c(-c4cc(S(=O)(=O)[O-])ccc4F)c4nc(c(-c5cc(S(=O)(=O)[O-])ccc5F)c5ccc2[nH]5)C=C4)C=C3)cc1)c1cc(F)ccc1O
REMARK SMILES IDX 13 1 12 2 10 3 11 4 9 6 5 7 6 8 7 9 8 10 4 11 3 12 2 15 1 16
REMARK SMILES IDX 82 17 83 18 88 19 84 20 87 21 85 22 86 23 89 24 14 26 15 27
REMARK SMILES IDX 16 28 17 29 18 31 19 32 20 33 81 34 21 35 80 36 22 37 23 38
REMARK SMILES IDX 24 39 74 40 25 41 79 42 73 43 75 44 26 45 78 46 72 47 71 48
REMARK SMILES IDX 27 50 59 51 39 52 58 53 40 54 43 55 57 56 76 57 41 58 42 59
REMARK SMILES IDX 56 61 77 62 44 63 28 64 29 65 37 66 30 67 36 68 38 69 35 70
REMARK SMILES IDX 31 71 32 72 33 73 34 74 60 75 61 76 69 77 62 78 68 79 70 80
REMARK SMILES IDX 67 81 63 82 64 83 65 84 66 85 45 86 46 87 54 88 47 89 53 90
REMARK SMILES IDX 55 91 52 92 48 93 49 94 50 95 51 96
REMARK H PARENT 12 5 3 13 3 14 89 25 16 30 75 49 43 60
REMARK Flexibility Score: inf
ROOT
ATOM      1  C   UNL A   1      35.173  21.691  24.725  1.00  0.00     0.117 C 
ENDROOT
BRANCH   1   2
ATOM      2  N   UNL A   1      33.924  20.953  24.665  1.00  0.00    -0.356 N 
ATOM      3  C   UNL A   1      32.638  21.400  24.698  1.00  0.00     0.223 C 
ATOM      4  O   UNL A   1      31.735  20.576  24.549  1.00  0.00    -0.275 OA
ATOM      5  H   UNL A   1      34.022  19.976  24.587  1.00  0.00     0.163 HD
BRANCH   3   6
ATOM      6  C   UNL A   1      32.362  22.879  24.952  1.00  0.00     0.087 C 
ATOM      7  C   UNL A   1      33.102  23.372  26.215  1.00  0.00     0.057 C 
ATOM      8  C   UNL A   1      32.144  22.942  27.333  1.00  0.00     0.010 C 
ATOM      9  C   UNL A   1      30.748  23.186  26.783  1.00  0.00     0.001 C 
ATOM     10  C   UNL A   1      30.876  23.129  25.261  1.00  0.00     0.014 C 
BRANCH   7  11
ATOM     11  C   UNL A   1      33.358  24.894  26.123  1.00  0.00     0.265 C 
BRANCH  11  12
ATOM     12  N   UNL A   1      33.015  25.573  24.864  1.00  0.00    -0.340 N 
ATOM     13  H   UNL A   1      33.788  25.439  24.211  1.00  0.00     0.346 HD
ATOM     14  H   UNL A   1      32.140  25.157  24.543  1.00  0.00     0.346 HD
BRANCH  12  15
ATOM     15  C   UNL A   1      32.766  27.023  24.990  1.00  0.00     0.214 C 
ATOM     16  C   UNL A   1      32.642  27.352  26.485  1.00  0.00     0.081 C 
BRANCH  15  17
ATOM     17  C   UNL A   1      31.520  27.489  24.262  1.00  0.00     0.054 A 
ATOM     18  C   UNL A   1      30.327  26.770  24.441  1.00  0.00     0.053 A 
ATOM     19  C   UNL A   1      31.505  28.567  23.361  1.00  0.00     0.124 A 
ATOM     20  C   UNL A   1      29.174  27.132  23.750  1.00  0.00     0.123 A 
ATOM     21  C   UNL A   1      30.349  28.924  22.668  1.00  0.00     0.050 A 
ATOM     22  F   UNL A   1      28.051  26.431  23.941  1.00  0.00    -0.207 F 
ATOM     23  C   UNL A   1      29.174  28.203  22.865  1.00  0.00     0.043 A 
BRANCH  19  24
ATOM     24  O   UNL A   1      32.622  29.324  23.133  1.00  0.00    -0.507 OA
ATOM     25  H   UNL A   1      33.426  28.911  22.888  1.00  0.00     0.293 HD
ENDBRANCH  19  24
ENDBRANCH  15  17
ENDBRANCH  12  15
ENDBRANCH  11  12
ENDBRANCH   7  11
ENDBRANCH   3   6
ENDBRANCH   1   2
BRANCH   1  26
ATOM     26  C   UNL A   1      36.267  20.936  25.471  1.00  0.00     0.042 C 
BRANCH  26  27
ATOM     27  C   UNL A   1      37.610  20.864  24.751  1.00  0.00     0.118 C 
BRANCH  27  28
ATOM     28  N   UNL A   1      38.549  19.941  25.371  1.00  0.00    -0.352 N 
ATOM     29  C   UNL A   1      39.692  20.178  26.094  1.00  0.00     0.251 C 
ATOM     30  H   UNL A   1      38.327  18.989  25.251  1.00  0.00     0.163 HD
ATOM     31  O   UNL A   1      40.411  19.220  26.390  1.00  0.00    -0.269 OA
BRANCH  29  32
ATOM     32  C   UNL A   1      40.087  21.548  26.492  1.00  0.00     0.039 A 
ATOM     33  C   UNL A   1      41.097  21.700  27.448  1.00  0.00     0.014 A 
ATOM     34  C   UNL A   1      39.465  22.682  25.963  1.00  0.00     0.014 A 
ATOM     35  C   UNL A   1      41.530  22.978  27.814  1.00  0.00     0.010 A 
ATOM     36  C   UNL A   1      39.950  23.955  26.270  1.00  0.00     0.010 A 
ATOM     37  C   UNL A   1      40.992  24.118  27.195  1.00  0.00    -0.014 A 
BRANCH  37  38
ATOM     38  C   UNL A   1      41.536  25.473  27.489  1.00  0.00     0.031 A 
ATOM     39  C   UNL A   1      42.919  25.864  27.039  1.00  0.00     0.074 A 
ATOM     40  C   UNL A   1      40.790  26.342  28.203  1.00  0.00     0.049 A 
ATOM     41  N   UNL A   1      43.560  26.991  27.222  1.00  0.00    -0.248 NA
ATOM     42  C   UNL A   1      43.693  24.849  26.309  1.00  0.00     0.031 C 
ATOM     43  C   UNL A   1      39.451  26.067  28.731  1.00  0.00     0.029 A 
ATOM     44  N   UNL A   1      41.043  27.630  28.608  1.00  0.00    -0.354 N 
ATOM     45  C   UNL A   1      44.813  26.818  26.643  1.00  0.00     0.074 A 
ATOM     46  C   UNL A   1      44.858  25.459  26.148  1.00  0.00     0.031 C 
ATOM     47  C   UNL A   1      38.988  27.163  29.353  1.00  0.00     0.029 A 
ATOM     48  C   UNL A   1      40.011  28.202  29.316  1.00  0.00     0.049 A 
ATOM     49  H   UNL A   1      41.886  28.099  28.410  1.00  0.00     0.167 HD
ATOM     50  C   UNL A   1      45.823  27.716  26.521  1.00  0.00     0.034 A 
ATOM     51  C   UNL A   1      39.902  29.422  29.881  1.00  0.00     0.034 A 
ATOM     52  C   UNL A   1      45.758  29.074  27.007  1.00  0.00     0.049 A 
ATOM     53  C   UNL A   1      41.054  30.388  29.752  1.00  0.00     0.074 A 
ATOM     54  C   UNL A   1      46.695  30.083  26.867  1.00  0.00     0.029 A 
ATOM     55  N   UNL A   1      44.706  29.612  27.738  1.00  0.00    -0.354 N 
ATOM     56  N   UNL A   1      42.203  30.230  29.136  1.00  0.00    -0.248 NA
ATOM     57  C   UNL A   1      40.889  31.700  30.389  1.00  0.00     0.031 C 
ATOM     58  C   UNL A   1      46.249  31.202  27.580  1.00  0.00     0.029 A 
ATOM     59  C   UNL A   1      44.993  30.922  28.094  1.00  0.00     0.049 A 
ATOM     60  H   UNL A   1      43.879  29.133  27.971  1.00  0.00     0.167 HD
ATOM     61  C   UNL A   1      42.880  31.438  29.283  1.00  0.00     0.074 A 
ATOM     62  C   UNL A   1      42.000  32.319  30.023  1.00  0.00     0.031 C 
ATOM     63  C   UNL A   1      44.117  31.789  28.846  1.00  0.00     0.034 A 
BRANCH  50  64
ATOM     64  C   UNL A   1      47.102  27.251  25.861  1.00  0.00     0.023 A 
ATOM     65  C   UNL A   1      48.115  26.596  26.580  1.00  0.00     0.031 A 
ATOM     66  C   UNL A   1      47.303  27.461  24.484  1.00  0.00     0.131 A 
ATOM     67  C   UNL A   1      49.307  26.227  25.936  1.00  0.00     0.055 A 
ATOM     68  C   UNL A   1      48.458  27.021  23.833  1.00  0.00     0.041 A 
ATOM     69  F   UNL A   1      46.381  28.099  23.747  1.00  0.00    -0.206 F 
ATOM     70  C   UNL A   1      49.474  26.412  24.562  1.00  0.00     0.022 A 
BRANCH  67  71
ATOM     71  S   UNL A   1      50.687  25.617  26.942  1.00  0.00     0.124 S 
ATOM     72  O   UNL A   1      51.695  25.336  25.923  1.00  0.00    -0.237 OA
ATOM     73  O   UNL A   1      50.962  26.749  27.820  1.00  0.00    -0.237 OA
ATOM     74  O   UNL A   1      50.134  24.436  27.602  1.00  0.00    -0.744 OA
ENDBRANCH  67  71
ENDBRANCH  50  64
BRANCH  51  75
ATOM     75  C   UNL A   1      38.671  29.812  30.629  1.00  0.00     0.023 A 
ATOM     76  C   UNL A   1      37.660  30.565  30.010  1.00  0.00     0.031 A 
ATOM     77  C   UNL A   1      38.517  29.502  31.992  1.00  0.00     0.131 A 
ATOM     78  C   UNL A   1      36.575  31.038  30.764  1.00  0.00     0.055 A 
ATOM     79  C   UNL A   1      37.403  29.919  32.724  1.00  0.00     0.041 A 
ATOM     80  F   UNL A   1      39.452  28.784  32.636  1.00  0.00    -0.206 F 
ATOM     81  C   UNL A   1      36.432  30.707  32.113  1.00  0.00     0.022 A 
BRANCH  78  82
ATOM     82  S   UNL A   1      35.412  32.190  29.983  1.00  0.00     0.124 S 
ATOM     83  O   UNL A   1      34.401  32.341  31.024  1.00  0.00    -0.237 OA
ATOM     84  O   UNL A   1      36.258  33.353  29.736  1.00  0.00    -0.237 OA
ATOM     85  O   UNL A   1      34.976  31.473  28.787  1.00  0.00    -0.744 OA
ENDBRANCH  78  82
ENDBRANCH  51  75
BRANCH  63  86
ATOM     86  C   UNL A   1      44.564  33.205  29.127  1.00  0.00     0.023 A 
ATOM     87  C   UNL A   1      45.269  33.540  30.297  1.00  0.00     0.031 A 
ATOM     88  C   UNL A   1      44.251  34.240  28.228  1.00  0.00     0.131 A 
ATOM     89  C   UNL A   1      45.571  34.882  30.572  1.00  0.00     0.055 A 
ATOM     90  C   UNL A   1      44.619  35.564  28.472  1.00  0.00     0.041 A 
ATOM     91  F   UNL A   1      43.577  33.981  27.095  1.00  0.00    -0.206 F 
ATOM     92  C   UNL A   1      45.266  35.894  29.658  1.00  0.00     0.022 A 
BRANCH  89  93
ATOM     93  S   UNL A   1      46.261  35.302  32.196  1.00  0.00     0.124 S 
ATOM     94  O   UNL A   1      45.456  34.477  33.091  1.00  0.00    -0.237 OA
ATOM     95  O   UNL A   1      47.660  34.910  32.053  1.00  0.00    -0.237 OA
ATOM     96  O   UNL A   1      46.031  36.742  32.305  1.00  0.00    -0.744 OA
ENDBRANCH  89  93
ENDBRANCH  63  86
ENDBRANCH  37  38
ENDBRANCH  29  32
ENDBRANCH  27  28
ENDBRANCH  26  27
ENDBRANCH   1  26
TORSDOF 18
ENDMDL
