MODEL 1
REMARK VINA RESULT:     -13.2      0.000      0.000
REMARK SMILES Cc1ccc(C(=O)NCCCNC(=O)c2ccc(-c3c4nc(c(-c5cc(S(=O)(=O)[O-])ccc5F)c5ccc([nH]5)c(-c5cc(S(=O)(=O)[O-])ccc5F)c5nc(c(-c6cc(S(=O)(=O)[O-])ccc6F)c6ccc3[nH]6)C=C5)C=C4)cc2)cc1NC(=O)c1ccc(Br)o1
REMARK SMILES IDX 10 1 9 2 8 3 6 4 7 5 5 7 1 8 2 9 3 10 79 11 4 12 78 13 80 14
REMARK SMILES IDX 81 15 82 17 83 18 84 19 88 20 85 21 86 22 87 23 11 24 12 25
REMARK SMILES IDX 13 26 14 28 15 29 16 30 77 31 17 32 76 33 18 34 19 35 20 36
REMARK SMILES IDX 70 37 21 38 75 39 69 40 71 41 22 42 74 43 68 44 67 45 23 47
REMARK SMILES IDX 55 48 35 49 54 50 36 51 39 52 53 53 72 54 37 55 38 56 52 58
REMARK SMILES IDX 73 59 40 60 24 61 25 62 33 63 26 64 32 65 34 66 31 67 27 68
REMARK SMILES IDX 28 69 29 70 30 71 56 72 57 73 65 74 58 75 64 76 66 77 63 78
REMARK SMILES IDX 59 79 60 80 61 81 62 82 41 83 42 84 50 85 43 86 49 87 51 88
REMARK SMILES IDX 48 89 44 90 45 91 46 92 47 93
REMARK H PARENT 8 6 80 16 12 27 71 46 39 57
REMARK Flexibility Score: inf
ROOT
ATOM      1  C   UNL A   1      33.385  31.765  27.862  1.00  0.00     0.042 C 
ENDROOT
BRANCH   1   2
ATOM      2  C   UNL A   1      33.013  30.427  27.267  1.00  0.00     0.118 C 
BRANCH   2   3
ATOM      3  N   UNL A   1      32.081  30.488  26.157  1.00  0.00    -0.352 N 
ATOM      4  C   UNL A   1      31.644  29.483  25.328  1.00  0.00     0.251 C 
ATOM      5  O   UNL A   1      30.870  29.739  24.406  1.00  0.00    -0.269 OA
ATOM      6  H   UNL A   1      31.708  31.380  25.970  1.00  0.00     0.163 HD
BRANCH   4   7
ATOM      7  C   UNL A   1      32.165  28.092  25.455  1.00  0.00     0.041 A 
ATOM      8  C   UNL A   1      34.101  24.313  26.170  1.00  0.00     0.046 C 
ATOM      9  C   UNL A   1      33.331  25.584  25.914  1.00  0.00    -0.027 A 
ATOM     10  C   UNL A   1      34.080  26.636  25.353  1.00  0.00     0.006 A 
ATOM     11  C   UNL A   1      31.957  25.776  26.202  1.00  0.00     0.045 A 
ATOM     12  C   UNL A   1      33.510  27.888  25.154  1.00  0.00     0.014 A 
ATOM     13  C   UNL A   1      31.385  27.002  25.874  1.00  0.00     0.040 A 
BRANCH  11  14
ATOM     14  N   UNL A   1      31.260  24.749  26.866  1.00  0.00    -0.319 N 
ATOM     15  C   UNL A   1      30.790  23.488  26.578  1.00  0.00     0.291 C 
ATOM     16  H   UNL A   1      31.048  25.005  27.793  1.00  0.00     0.170 HD
ATOM     17  O   UNL A   1      29.992  23.054  27.420  1.00  0.00    -0.265 OA
BRANCH  15  18
ATOM     18  C   UNL A   1      31.119  22.707  25.414  1.00  0.00     0.193 A 
ATOM     19  C   UNL A   1      31.338  23.021  24.085  1.00  0.00     0.057 A 
ATOM     20  O   UNL A   1      31.538  21.419  25.641  1.00  0.00    -0.444 OA
ATOM     21  C   UNL A   1      31.949  21.884  23.489  1.00  0.00     0.059 A 
ATOM     22  C   UNL A   1      32.048  20.937  24.480  1.00  0.00     0.170 A 
ATOM     23  Br  UNL A   1      32.822  19.247  24.317  1.00  0.00    -0.008 Br
ENDBRANCH  15  18
ENDBRANCH  11  14
ENDBRANCH   4   7
ENDBRANCH   2   3
ENDBRANCH   1   2
BRANCH   1  24
ATOM     24  C   UNL A   1      34.885  32.004  27.885  1.00  0.00     0.118 C 
BRANCH  24  25
ATOM     25  N   UNL A   1      35.418  32.239  29.236  1.00  0.00    -0.352 N 
ATOM     26  C   UNL A   1      36.059  31.403  30.136  1.00  0.00     0.251 C 
ATOM     27  H   UNL A   1      35.297  33.161  29.560  1.00  0.00     0.163 HD
ATOM     28  O   UNL A   1      36.517  31.817  31.198  1.00  0.00    -0.269 OA
BRANCH  26  29
ATOM     29  C   UNL A   1      36.343  30.014  29.730  1.00  0.00     0.039 A 
ATOM     30  C   UNL A   1      36.976  29.254  30.719  1.00  0.00     0.014 A 
ATOM     31  C   UNL A   1      36.537  29.759  28.379  1.00  0.00     0.014 A 
ATOM     32  C   UNL A   1      38.122  28.558  30.374  1.00  0.00     0.010 A 
ATOM     33  C   UNL A   1      37.716  29.121  28.045  1.00  0.00     0.010 A 
ATOM     34  C   UNL A   1      38.564  28.644  29.056  1.00  0.00    -0.014 A 
BRANCH  34  35
ATOM     35  C   UNL A   1      39.944  28.366  28.682  1.00  0.00     0.031 A 
ATOM     36  C   UNL A   1      40.298  26.975  28.362  1.00  0.00     0.074 A 
ATOM     37  C   UNL A   1      40.910  29.314  28.693  1.00  0.00     0.049 A 
ATOM     38  N   UNL A   1      41.409  26.414  28.691  1.00  0.00    -0.248 NA
ATOM     39  C   UNL A   1      39.364  26.074  27.700  1.00  0.00     0.031 C 
ATOM     40  C   UNL A   1      42.288  29.169  28.223  1.00  0.00     0.029 A 
ATOM     41  N   UNL A   1      40.911  30.565  29.284  1.00  0.00    -0.354 N 
ATOM     42  C   UNL A   1      41.452  25.190  28.065  1.00  0.00     0.074 A 
ATOM     43  C   UNL A   1      40.126  24.995  27.531  1.00  0.00     0.031 C 
ATOM     44  C   UNL A   1      43.040  30.150  28.750  1.00  0.00     0.029 A 
ATOM     45  C   UNL A   1      42.209  30.901  29.674  1.00  0.00     0.049 A 
ATOM     46  H   UNL A   1      40.116  31.131  29.412  1.00  0.00     0.167 HD
ATOM     47  C   UNL A   1      42.641  24.540  27.937  1.00  0.00     0.034 A 
ATOM     48  C   UNL A   1      42.527  31.177  30.973  1.00  0.00     0.034 A 
ATOM     49  C   UNL A   1      43.730  25.309  28.541  1.00  0.00     0.049 A 
ATOM     50  C   UNL A   1      43.453  30.148  31.587  1.00  0.00     0.074 A 
ATOM     51  C   UNL A   1      44.659  26.181  27.997  1.00  0.00     0.029 A 
ATOM     52  N   UNL A   1      43.770  25.504  29.918  1.00  0.00    -0.354 N 
ATOM     53  N   UNL A   1      43.763  29.011  31.025  1.00  0.00    -0.248 NA
ATOM     54  C   UNL A   1      44.067  30.305  32.902  1.00  0.00     0.031 C 
ATOM     55  C   UNL A   1      45.202  26.957  29.053  1.00  0.00     0.029 A 
ATOM     56  C   UNL A   1      44.638  26.532  30.244  1.00  0.00     0.049 A 
ATOM     57  H   UNL A   1      43.251  24.982  30.571  1.00  0.00     0.167 HD
ATOM     58  C   UNL A   1      44.503  28.254  31.897  1.00  0.00     0.074 A 
ATOM     59  C   UNL A   1      44.723  29.139  33.029  1.00  0.00     0.031 C 
ATOM     60  C   UNL A   1      44.826  26.950  31.631  1.00  0.00     0.034 A 
BRANCH  47  61
ATOM     61  C   UNL A   1      42.857  23.401  26.966  1.00  0.00     0.023 A 
ATOM     62  C   UNL A   1      42.288  22.145  27.248  1.00  0.00     0.031 A 
ATOM     63  C   UNL A   1      43.639  23.457  25.795  1.00  0.00     0.131 A 
ATOM     64  C   UNL A   1      42.595  21.011  26.477  1.00  0.00     0.055 A 
ATOM     65  C   UNL A   1      44.008  22.317  25.070  1.00  0.00     0.041 A 
ATOM     66  F   UNL A   1      44.033  24.623  25.265  1.00  0.00    -0.206 F 
ATOM     67  C   UNL A   1      43.495  21.079  25.418  1.00  0.00     0.022 A 
BRANCH  64  68
ATOM     68  S   UNL A   1      41.780  19.439  26.867  1.00  0.00     0.124 S 
ATOM     69  O   UNL A   1      42.912  18.570  27.169  1.00  0.00    -0.237 OA
ATOM     70  O   UNL A   1      40.927  19.807  27.992  1.00  0.00    -0.237 OA
ATOM     71  O   UNL A   1      41.064  19.115  25.633  1.00  0.00    -0.744 OA
ENDBRANCH  64  68
ENDBRANCH  47  61
BRANCH  48  72
ATOM     72  C   UNL A   1      41.436  31.883  31.702  1.00  0.00     0.023 A 
ATOM     73  C   UNL A   1      40.571  31.087  32.478  1.00  0.00     0.031 A 
ATOM     74  C   UNL A   1      41.534  33.246  32.010  1.00  0.00     0.131 A 
ATOM     75  C   UNL A   1      39.996  31.612  33.644  1.00  0.00     0.055 A 
ATOM     76  C   UNL A   1      40.908  33.776  33.143  1.00  0.00     0.041 A 
ATOM     77  F   UNL A   1      42.358  34.046  31.317  1.00  0.00    -0.206 F 
ATOM     78  C   UNL A   1      40.182  32.947  33.998  1.00  0.00     0.022 A 
BRANCH  75  79
ATOM     79  S   UNL A   1      39.265  30.446  34.827  1.00  0.00     0.124 S 
ATOM     80  O   UNL A   1      38.767  31.332  35.873  1.00  0.00    -0.237 OA
ATOM     81  O   UNL A   1      38.258  29.784  34.004  1.00  0.00    -0.237 OA
ATOM     82  O   UNL A   1      40.377  29.579  35.209  1.00  0.00    -0.744 OA
ENDBRANCH  75  79
ENDBRANCH  48  72
BRANCH  60  83
ATOM     83  C   UNL A   1      45.423  25.986  32.637  1.00  0.00     0.023 A 
ATOM     84  C   UNL A   1      44.647  25.115  33.415  1.00  0.00     0.031 A 
ATOM     85  C   UNL A   1      46.822  25.878  32.819  1.00  0.00     0.131 A 
ATOM     86  C   UNL A   1      45.225  24.307  34.409  1.00  0.00     0.055 A 
ATOM     87  C   UNL A   1      47.406  24.992  33.732  1.00  0.00     0.041 A 
ATOM     88  F   UNL A   1      47.686  26.625  32.117  1.00  0.00    -0.206 F 
ATOM     89  C   UNL A   1      46.604  24.220  34.559  1.00  0.00     0.022 A 
BRANCH  86  90
ATOM     90  S   UNL A   1      44.116  23.475  35.574  1.00  0.00     0.124 S 
ATOM     91  O   UNL A   1      43.997  24.472  36.636  1.00  0.00    -0.237 OA
ATOM     92  O   UNL A   1      42.917  23.261  34.770  1.00  0.00    -0.237 OA
ATOM     93  O   UNL A   1      44.847  22.264  35.940  1.00  0.00    -0.744 OA
ENDBRANCH  86  90
ENDBRANCH  60  83
ENDBRANCH  34  35
ENDBRANCH  26  29
ENDBRANCH  24  25
ENDBRANCH   1  24
TORSDOF 15
ENDMDL
MODEL 2
REMARK VINA RESULT:     -13.0      2.329      2.813
REMARK SMILES Cc1ccc(C(=O)NCCCNC(=O)c2ccc(-c3c4nc(c(-c5cc(S(=O)(=O)[O-])ccc5F)c5ccc([nH]5)c(-c5cc(S(=O)(=O)[O-])ccc5F)c5nc(c(-c6cc(S(=O)(=O)[O-])ccc6F)c6ccc3[nH]6)C=C5)C=C4)cc2)cc1NC(=O)c1ccc(Br)o1
REMARK SMILES IDX 10 1 9 2 8 3 6 4 7 5 5 7 1 8 2 9 3 10 79 11 4 12 78 13 80 14
REMARK SMILES IDX 81 15 82 17 83 18 84 19 88 20 85 21 86 22 87 23 11 24 12 25
REMARK SMILES IDX 13 26 14 28 15 29 16 30 77 31 17 32 76 33 18 34 19 35 20 36
REMARK SMILES IDX 70 37 21 38 75 39 69 40 71 41 22 42 74 43 68 44 67 45 23 47
REMARK SMILES IDX 55 48 35 49 54 50 36 51 39 52 53 53 72 54 37 55 38 56 52 58
REMARK SMILES IDX 73 59 40 60 24 61 25 62 33 63 26 64 32 65 34 66 31 67 27 68
REMARK SMILES IDX 28 69 29 70 30 71 56 72 57 73 65 74 58 75 64 76 66 77 63 78
REMARK SMILES IDX 59 79 60 80 61 81 62 82 41 83 42 84 50 85 43 86 49 87 51 88
REMARK SMILES IDX 48 89 44 90 45 91 46 92 47 93
REMARK H PARENT 8 6 80 16 12 27 71 46 39 57
REMARK Flexibility Score: inf
ROOT
ATOM      1  C   UNL A   1      34.565  31.233  27.509  1.00  0.00     0.042 C 
ENDROOT
BRANCH   1   2
ATOM      2  C   UNL A   1      34.146  29.883  26.975  1.00  0.00     0.118 C 
BRANCH   2   3
ATOM      3  N   UNL A   1      33.023  29.275  27.662  1.00  0.00    -0.352 N 
ATOM      4  C   UNL A   1      32.276  28.176  27.312  1.00  0.00     0.251 C 
ATOM      5  O   UNL A   1      31.326  27.829  28.013  1.00  0.00    -0.269 OA
ATOM      6  H   UNL A   1      32.757  29.714  28.503  1.00  0.00     0.163 HD
BRANCH   4   7
ATOM      7  C   UNL A   1      32.526  27.444  26.037  1.00  0.00     0.041 A 
ATOM      8  C   UNL A   1      33.377  25.869  22.121  1.00  0.00     0.046 C 
ATOM      9  C   UNL A   1      33.116  26.330  23.534  1.00  0.00    -0.027 A 
ATOM     10  C   UNL A   1      32.125  27.322  23.667  1.00  0.00     0.006 A 
ATOM     11  C   UNL A   1      33.787  25.849  24.684  1.00  0.00     0.045 A 
ATOM     12  C   UNL A   1      31.854  27.896  24.903  1.00  0.00     0.014 A 
ATOM     13  C   UNL A   1      33.405  26.354  25.924  1.00  0.00     0.040 A 
BRANCH  11  14
ATOM     14  N   UNL A   1      34.849  24.942  24.513  1.00  0.00    -0.319 N 
ATOM     15  C   UNL A   1      35.021  23.578  24.444  1.00  0.00     0.291 C 
ATOM     16  H   UNL A   1      35.708  25.414  24.415  1.00  0.00     0.170 HD
ATOM     17  O   UNL A   1      36.204  23.224  24.544  1.00  0.00    -0.265 OA
BRANCH  15  18
ATOM     18  C   UNL A   1      33.974  22.598  24.311  1.00  0.00     0.193 A 
ATOM     19  C   UNL A   1      32.836  22.519  23.530  1.00  0.00     0.057 A 
ATOM     20  O   UNL A   1      34.214  21.368  24.874  1.00  0.00    -0.444 OA
ATOM     21  C   UNL A   1      32.385  21.172  23.596  1.00  0.00     0.059 A 
ATOM     22  C   UNL A   1      33.259  20.514  24.427  1.00  0.00     0.170 A 
ATOM     23  Br  UNL A   1      33.219  18.699  24.856  1.00  0.00    -0.008 Br
ENDBRANCH  15  18
ENDBRANCH  11  14
ENDBRANCH   4   7
ENDBRANCH   2   3
ENDBRANCH   1   2
BRANCH   1  24
ATOM     24  C   UNL A   1      34.813  31.224  29.008  1.00  0.00     0.118 C 
BRANCH  24  25
ATOM     25  N   UNL A   1      36.161  31.682  29.380  1.00  0.00    -0.352 N 
ATOM     26  C   UNL A   1      37.357  31.001  29.542  1.00  0.00     0.251 C 
ATOM     27  H   UNL A   1      36.225  32.650  29.544  1.00  0.00     0.163 HD
ATOM     28  O   UNL A   1      38.413  31.584  29.772  1.00  0.00    -0.269 OA
BRANCH  26  29
ATOM     29  C   UNL A   1      37.387  29.552  29.265  1.00  0.00     0.039 A 
ATOM     30  C   UNL A   1      37.774  28.775  30.362  1.00  0.00     0.014 A 
ATOM     31  C   UNL A   1      37.632  29.145  27.960  1.00  0.00     0.014 A 
ATOM     32  C   UNL A   1      38.780  27.842  30.178  1.00  0.00     0.010 A 
ATOM     33  C   UNL A   1      38.681  28.264  27.787  1.00  0.00     0.010 A 
ATOM     34  C   UNL A   1      39.333  27.723  28.906  1.00  0.00    -0.014 A 
BRANCH  34  35
ATOM     35  C   UNL A   1      40.655  27.151  28.686  1.00  0.00     0.031 A 
ATOM     36  C   UNL A   1      40.741  25.701  28.450  1.00  0.00     0.074 A 
ATOM     37  C   UNL A   1      41.791  27.882  28.766  1.00  0.00     0.049 A 
ATOM     38  N   UNL A   1      41.674  24.944  28.911  1.00  0.00    -0.248 NA
ATOM     39  C   UNL A   1      39.706  24.975  27.725  1.00  0.00     0.031 C 
ATOM     40  C   UNL A   1      43.147  27.434  28.446  1.00  0.00     0.029 A 
ATOM     41  N   UNL A   1      41.996  29.135  29.313  1.00  0.00    -0.354 N 
ATOM     42  C   UNL A   1      41.521  23.706  28.333  1.00  0.00     0.074 A 
ATOM     43  C   UNL A   1      40.240  23.756  27.671  1.00  0.00     0.031 C 
ATOM     44  C   UNL A   1      44.033  28.269  29.016  1.00  0.00     0.029 A 
ATOM     45  C   UNL A   1      43.293  29.221  29.823  1.00  0.00     0.049 A 
ATOM     46  H   UNL A   1      41.328  29.858  29.339  1.00  0.00     0.167 HD
ATOM     47  C   UNL A   1      42.555  22.822  28.351  1.00  0.00     0.034 A 
ATOM     48  C   UNL A   1      43.537  29.496  31.139  1.00  0.00     0.034 A 
ATOM     49  C   UNL A   1      43.719  23.384  29.038  1.00  0.00     0.049 A 
ATOM     50  C   UNL A   1      44.166  28.334  31.879  1.00  0.00     0.074 A 
ATOM     51  C   UNL A   1      44.856  24.018  28.565  1.00  0.00     0.029 A 
ATOM     52  N   UNL A   1      43.667  23.640  30.405  1.00  0.00    -0.354 N 
ATOM     53  N   UNL A   1      44.285  27.129  31.390  1.00  0.00    -0.248 NA
ATOM     54  C   UNL A   1      44.672  28.432  33.245  1.00  0.00     0.031 C 
ATOM     55  C   UNL A   1      45.446  24.723  29.646  1.00  0.00     0.029 A 
ATOM     56  C   UNL A   1      44.696  24.486  30.786  1.00  0.00     0.049 A 
ATOM     57  H   UNL A   1      42.992  23.271  31.018  1.00  0.00     0.167 HD
ATOM     58  C   UNL A   1      44.765  26.285  32.359  1.00  0.00     0.074 A 
ATOM     59  C   UNL A   1      45.056  27.167  33.477  1.00  0.00     0.031 C 
ATOM     60  C   UNL A   1      44.834  24.930  32.170  1.00  0.00     0.034 A 
BRANCH  47  61
ATOM     61  C   UNL A   1      42.621  21.612  27.445  1.00  0.00     0.023 A 
ATOM     62  C   UNL A   1      43.650  21.531  26.487  1.00  0.00     0.031 A 
ATOM     63  C   UNL A   1      41.697  20.548  27.427  1.00  0.00     0.131 A 
ATOM     64  C   UNL A   1      43.662  20.522  25.508  1.00  0.00     0.055 A 
ATOM     65  C   UNL A   1      41.663  19.587  26.409  1.00  0.00     0.041 A 
ATOM     66  F   UNL A   1      40.824  20.356  28.424  1.00  0.00    -0.206 F 
ATOM     67  C   UNL A   1      42.645  19.577  25.431  1.00  0.00     0.022 A 
BRANCH  64  68
ATOM     68  S   UNL A   1      45.049  20.449  24.343  1.00  0.00     0.124 S 
ATOM     69  O   UNL A   1      44.783  21.591  23.474  1.00  0.00    -0.237 OA
ATOM     70  O   UNL A   1      46.202  20.565  25.230  1.00  0.00    -0.237 OA
ATOM     71  O   UNL A   1      44.890  19.141  23.710  1.00  0.00    -0.744 OA
ENDBRANCH  64  68
ENDBRANCH  47  61
BRANCH  48  72
ATOM     72  C   UNL A   1      42.552  30.447  31.727  1.00  0.00     0.023 A 
ATOM     73  C   UNL A   1      41.654  29.924  32.678  1.00  0.00     0.031 A 
ATOM     74  C   UNL A   1      42.793  31.827  31.733  1.00  0.00     0.131 A 
ATOM     75  C   UNL A   1      41.186  30.739  33.719  1.00  0.00     0.055 A 
ATOM     76  C   UNL A   1      42.273  32.645  32.742  1.00  0.00     0.041 A 
ATOM     77  F   UNL A   1      43.654  32.375  30.864  1.00  0.00    -0.206 F 
ATOM     78  C   UNL A   1      41.513  32.093  33.773  1.00  0.00     0.022 A 
BRANCH  75  79
ATOM     79  S   UNL A   1      40.405  29.930  35.143  1.00  0.00     0.124 S 
ATOM     80  O   UNL A   1      38.993  30.242  34.945  1.00  0.00    -0.237 OA
ATOM     81  O   UNL A   1      40.795  28.538  34.941  1.00  0.00    -0.237 OA
ATOM     82  O   UNL A   1      41.035  30.556  36.302  1.00  0.00    -0.744 OA
ENDBRANCH  75  79
ENDBRANCH  48  72
BRANCH  60  83
ATOM     83  C   UNL A   1      45.120  23.921  33.263  1.00  0.00     0.023 A 
ATOM     84  C   UNL A   1      46.343  23.859  33.946  1.00  0.00     0.031 A 
ATOM     85  C   UNL A   1      44.138  22.997  33.694  1.00  0.00     0.131 A 
ATOM     86  C   UNL A   1      46.610  22.847  34.884  1.00  0.00     0.055 A 
ATOM     87  C   UNL A   1      44.368  22.058  34.707  1.00  0.00     0.041 A 
ATOM     88  F   UNL A   1      42.912  22.965  33.154  1.00  0.00    -0.206 F 
ATOM     89  C   UNL A   1      45.622  21.957  35.289  1.00  0.00     0.022 A 
BRANCH  86  90
ATOM     90  S   UNL A   1      48.317  22.655  35.459  1.00  0.00     0.124 S 
ATOM     91  O   UNL A   1      48.175  22.888  36.895  1.00  0.00    -0.237 OA
ATOM     92  O   UNL A   1      48.628  21.284  35.069  1.00  0.00    -0.237 OA
ATOM     93  O   UNL A   1      49.044  23.692  34.732  1.00  0.00    -0.744 OA
ENDBRANCH  86  90
ENDBRANCH  60  83
ENDBRANCH  34  35
ENDBRANCH  26  29
ENDBRANCH  24  25
ENDBRANCH   1  24
TORSDOF 15
ENDMDL
MODEL 3
REMARK VINA RESULT:     -13.0      4.638     10.177
REMARK SMILES Cc1ccc(C(=O)NCCCNC(=O)c2ccc(-c3c4nc(c(-c5cc(S(=O)(=O)[O-])ccc5F)c5ccc([nH]5)c(-c5cc(S(=O)(=O)[O-])ccc5F)c5nc(c(-c6cc(S(=O)(=O)[O-])ccc6F)c6ccc3[nH]6)C=C5)C=C4)cc2)cc1NC(=O)c1ccc(Br)o1
REMARK SMILES IDX 10 1 9 2 8 3 6 4 7 5 5 7 1 8 2 9 3 10 79 11 4 12 78 13 80 14
REMARK SMILES IDX 81 15 82 17 83 18 84 19 88 20 85 21 86 22 87 23 11 24 12 25
REMARK SMILES IDX 13 26 14 28 15 29 16 30 77 31 17 32 76 33 18 34 19 35 20 36
REMARK SMILES IDX 70 37 21 38 75 39 69 40 71 41 22 42 74 43 68 44 67 45 23 47
REMARK SMILES IDX 55 48 35 49 54 50 36 51 39 52 53 53 72 54 37 55 38 56 52 58
REMARK SMILES IDX 73 59 40 60 24 61 25 62 33 63 26 64 32 65 34 66 31 67 27 68
REMARK SMILES IDX 28 69 29 70 30 71 56 72 57 73 65 74 58 75 64 76 66 77 63 78
REMARK SMILES IDX 59 79 60 80 61 81 62 82 41 83 42 84 50 85 43 86 49 87 51 88
REMARK SMILES IDX 48 89 44 90 45 91 46 92 47 93
REMARK H PARENT 8 6 80 16 12 27 71 46 39 57
REMARK Flexibility Score: inf
ROOT
ATOM      1  C   UNL A   1      40.906  22.028  26.381  1.00  0.00     0.042 C 
ENDROOT
BRANCH   1   2
ATOM      2  C   UNL A   1      39.410  21.897  26.214  1.00  0.00     0.118 C 
BRANCH   2   3
ATOM      3  N   UNL A   1      38.959  20.608  25.726  1.00  0.00    -0.352 N 
ATOM      4  C   UNL A   1      37.807  20.285  25.049  1.00  0.00     0.251 C 
ATOM      5  O   UNL A   1      37.580  19.114  24.747  1.00  0.00    -0.269 OA
ATOM      6  H   UNL A   1      39.566  19.854  25.908  1.00  0.00     0.163 HD
BRANCH   4   7
ATOM      7  C   UNL A   1      36.768  21.312  24.753  1.00  0.00     0.041 A 
ATOM      8  C   UNL A   1      33.831  24.116  23.322  1.00  0.00     0.046 C 
ATOM      9  C   UNL A   1      34.803  23.126  23.913  1.00  0.00    -0.027 A 
ATOM     10  C   UNL A   1      36.108  23.181  23.387  1.00  0.00     0.006 A 
ATOM     11  C   UNL A   1      34.490  22.178  24.918  1.00  0.00     0.045 A 
ATOM     12  C   UNL A   1      37.074  22.262  23.781  1.00  0.00     0.014 A 
ATOM     13  C   UNL A   1      35.513  21.354  25.382  1.00  0.00     0.040 A 
BRANCH  11  14
ATOM     14  N   UNL A   1      33.154  22.067  25.345  1.00  0.00    -0.319 N 
ATOM     15  C   UNL A   1      32.101  21.197  25.175  1.00  0.00     0.291 C 
ATOM     16  H   UNL A   1      32.902  22.821  25.926  1.00  0.00     0.170 HD
ATOM     17  O   UNL A   1      31.014  21.659  25.549  1.00  0.00    -0.265 OA
BRANCH  15  18
ATOM     18  C   UNL A   1      32.173  19.882  24.593  1.00  0.00     0.193 A 
ATOM     19  C   UNL A   1      32.435  19.417  23.318  1.00  0.00     0.057 A 
ATOM     20  O   UNL A   1      32.230  18.828  25.471  1.00  0.00    -0.444 OA
ATOM     21  C   UNL A   1      32.696  18.024  23.433  1.00  0.00     0.059 A 
ATOM     22  C   UNL A   1      32.557  17.716  24.765  1.00  0.00     0.170 A 
ATOM     23  Br  UNL A   1      32.835  16.045  25.546  1.00  0.00    -0.008 Br
ENDBRANCH  15  18
ENDBRANCH  11  14
ENDBRANCH   4   7
ENDBRANCH   2   3
ENDBRANCH   1   2
BRANCH   1  24
ATOM     24  C   UNL A   1      41.413  23.428  26.076  1.00  0.00     0.118 C 
BRANCH  24  25
ATOM     25  N   UNL A   1      42.182  24.023  27.181  1.00  0.00    -0.352 N 
ATOM     26  C   UNL A   1      41.993  25.178  27.922  1.00  0.00     0.251 C 
ATOM     27  H   UNL A   1      42.977  23.505  27.441  1.00  0.00     0.163 HD
ATOM     28  O   UNL A   1      42.708  25.463  28.880  1.00  0.00    -0.269 OA
BRANCH  26  29
ATOM     29  C   UNL A   1      40.797  26.001  27.654  1.00  0.00     0.039 A 
ATOM     30  C   UNL A   1      41.069  27.178  26.948  1.00  0.00     0.014 A 
ATOM     31  C   UNL A   1      39.735  25.912  28.542  1.00  0.00     0.014 A 
ATOM     32  C   UNL A   1      40.576  28.369  27.453  1.00  0.00     0.010 A 
ATOM     33  C   UNL A   1      39.298  27.104  29.087  1.00  0.00     0.010 A 
ATOM     34  C   UNL A   1      39.825  28.319  28.625  1.00  0.00    -0.014 A 
BRANCH  34  35
ATOM     35  C   UNL A   1      39.654  29.481  29.486  1.00  0.00     0.031 A 
ATOM     36  C   UNL A   1      38.615  30.456  29.118  1.00  0.00     0.074 A 
ATOM     37  C   UNL A   1      40.454  29.728  30.549  1.00  0.00     0.049 A 
ATOM     38  N   UNL A   1      38.741  31.731  29.240  1.00  0.00    -0.248 NA
ATOM     39  C   UNL A   1      37.362  30.051  28.497  1.00  0.00     0.031 C 
ATOM     40  C   UNL A   1      40.293  30.793  31.541  1.00  0.00     0.029 A 
ATOM     41  N   UNL A   1      41.681  29.180  30.875  1.00  0.00    -0.354 N 
ATOM     42  C   UNL A   1      37.513  32.291  28.975  1.00  0.00     0.074 A 
ATOM     43  C   UNL A   1      36.716  31.214  28.440  1.00  0.00     0.031 C 
ATOM     44  C   UNL A   1      41.458  30.976  32.185  1.00  0.00     0.029 A 
ATOM     45  C   UNL A   1      42.452  30.122  31.560  1.00  0.00     0.049 A 
ATOM     46  H   UNL A   1      41.968  28.265  30.657  1.00  0.00     0.167 HD
ATOM     47  C   UNL A   1      37.255  33.568  29.372  1.00  0.00     0.034 A 
ATOM     48  C   UNL A   1      43.668  30.538  31.097  1.00  0.00     0.034 A 
ATOM     49  C   UNL A   1      38.415  34.156  30.044  1.00  0.00     0.049 A 
ATOM     50  C   UNL A   1      43.676  31.994  30.682  1.00  0.00     0.074 A 
ATOM     51  C   UNL A   1      38.741  34.282  31.384  1.00  0.00     0.029 A 
ATOM     52  N   UNL A   1      39.581  34.413  29.330  1.00  0.00    -0.354 N 
ATOM     53  N   UNL A   1      42.606  32.734  30.577  1.00  0.00    -0.248 NA
ATOM     54  C   UNL A   1      44.891  32.716  30.312  1.00  0.00     0.031 C 
ATOM     55  C   UNL A   1      40.133  34.540  31.473  1.00  0.00     0.029 A 
ATOM     56  C   UNL A   1      40.648  34.615  30.190  1.00  0.00     0.049 A 
ATOM     57  H   UNL A   1      39.640  34.447  28.349  1.00  0.00     0.167 HD
ATOM     58  C   UNL A   1      42.942  33.955  30.048  1.00  0.00     0.074 A 
ATOM     59  C   UNL A   1      44.392  33.914  29.967  1.00  0.00     0.031 C 
ATOM     60  C   UNL A   1      41.992  34.869  29.677  1.00  0.00     0.034 A 
BRANCH  47  61
ATOM     61  C   UNL A   1      35.856  34.135  29.463  1.00  0.00     0.023 A 
ATOM     62  C   UNL A   1      35.352  34.512  30.723  1.00  0.00     0.031 A 
ATOM     63  C   UNL A   1      34.957  34.282  28.388  1.00  0.00     0.131 A 
ATOM     64  C   UNL A   1      34.007  34.881  30.894  1.00  0.00     0.055 A 
ATOM     65  C   UNL A   1      33.599  34.576  28.565  1.00  0.00     0.041 A 
ATOM     66  F   UNL A   1      35.364  34.208  27.113  1.00  0.00    -0.206 F 
ATOM     67  C   UNL A   1      33.112  34.866  29.829  1.00  0.00     0.022 A 
BRANCH  64  68
ATOM     68  S   UNL A   1      33.444  35.406  32.535  1.00  0.00     0.124 S 
ATOM     69  O   UNL A   1      33.740  36.835  32.521  1.00  0.00    -0.237 OA
ATOM     70  O   UNL A   1      32.033  35.037  32.508  1.00  0.00    -0.237 OA
ATOM     71  O   UNL A   1      34.270  34.613  33.445  1.00  0.00    -0.744 OA
ENDBRANCH  64  68
ENDBRANCH  47  61
BRANCH  48  72
ATOM     72  C   UNL A   1      44.433  29.455  30.419  1.00  0.00     0.023 A 
ATOM     73  C   UNL A   1      44.369  29.416  29.012  1.00  0.00     0.031 A 
ATOM     74  C   UNL A   1      45.517  28.830  31.049  1.00  0.00     0.131 A 
ATOM     75  C   UNL A   1      45.467  28.946  28.275  1.00  0.00     0.055 A 
ATOM     76  C   UNL A   1      46.582  28.309  30.305  1.00  0.00     0.041 A 
ATOM     77  F   UNL A   1      45.639  28.854  32.384  1.00  0.00    -0.206 F 
ATOM     78  C   UNL A   1      46.587  28.417  28.914  1.00  0.00     0.022 A 
BRANCH  75  79
ATOM     79  S   UNL A   1      45.518  29.322  26.501  1.00  0.00     0.124 S 
ATOM     80  O   UNL A   1      46.942  29.220  26.200  1.00  0.00    -0.237 OA
ATOM     81  O   UNL A   1      44.664  28.274  25.953  1.00  0.00    -0.237 OA
ATOM     82  O   UNL A   1      44.945  30.662  26.402  1.00  0.00    -0.744 OA
ENDBRANCH  75  79
ENDBRANCH  48  72
BRANCH  60  83
ATOM     83  C   UNL A   1      42.269  36.123  28.871  1.00  0.00     0.023 A 
ATOM     84  C   UNL A   1      42.834  37.279  29.427  1.00  0.00     0.031 A 
ATOM     85  C   UNL A   1      42.010  36.182  27.482  1.00  0.00     0.131 A 
ATOM     86  C   UNL A   1      42.985  38.457  28.675  1.00  0.00     0.055 A 
ATOM     87  C   UNL A   1      42.264  37.321  26.707  1.00  0.00     0.041 A 
ATOM     88  F   UNL A   1      41.503  35.138  26.811  1.00  0.00    -0.206 F 
ATOM     89  C   UNL A   1      42.726  38.481  27.310  1.00  0.00     0.022 A 
BRANCH  86  90
ATOM     90  S   UNL A   1      43.408  39.979  29.560  1.00  0.00     0.124 S 
ATOM     91  O   UNL A   1      42.161  40.734  29.467  1.00  0.00    -0.237 OA
ATOM     92  O   UNL A   1      43.750  39.485  30.890  1.00  0.00    -0.237 OA
ATOM     93  O   UNL A   1      44.523  40.527  28.792  1.00  0.00    -0.744 OA
ENDBRANCH  86  90
ENDBRANCH  60  83
ENDBRANCH  34  35
ENDBRANCH  26  29
ENDBRANCH  24  25
ENDBRANCH   1  24
TORSDOF 15
ENDMDL
