MODEL 1
REMARK VINA RESULT:     -12.7      0.000      0.000
REMARK SMILES CS(=O)(=O)c1ccc(C2=NN(c3ccc(C(=O)NCCCNC(=O)c4ccc(-c5c6nc(c(-c7cc(S(=O)(=O)[O-])ccc7F)c7ccc([nH]7)c(-c7cc(S(=O)(=O)[O-])ccc7F)c7nc(c(-c8cc(S(=O)(=O)[O-])ccc8F)c8ccc5[nH]8)C=C7)C=C6)cc4)cc3)[C@H](c3ccccc3)C2)cc1
REMARK SMILES IDX 20 1 19 2 18 3 16 4 17 5 15 7 12 8 13 9 89 10 14 11 88 12
REMARK SMILES IDX 11 13 9 14 10 15 97 16 90 17 8 18 5 19 6 20 99 21 7 22 98 23
REMARK SMILES IDX 2 24 1 25 3 26 4 27 91 28 92 29 96 30 93 31 95 32 94 33
REMARK SMILES IDX 21 34 22 35 23 36 24 38 25 39 26 40 87 41 27 42 86 43 28 44
REMARK SMILES IDX 29 45 30 46 80 47 31 48 85 49 79 50 81 51 32 52 84 53 78 54
REMARK SMILES IDX 77 55 33 57 65 58 45 59 64 60 46 61 49 62 63 63 82 64 47 65
REMARK SMILES IDX 48 66 62 68 83 69 50 70 34 71 35 72 43 73 36 74 42 75 44 76
REMARK SMILES IDX 41 77 37 78 38 79 39 80 40 81 66 82 67 83 75 84 68 85 74 86
REMARK SMILES IDX 76 87 73 88 69 89 70 90 71 91 72 92 51 93 52 94 60 95 53 96
REMARK SMILES IDX 59 97 61 98 58 99 54 100 55 101 56 102 57 103
REMARK H PARENT 18 6 22 37 81 56 49 67
REMARK Flexibility Score: inf
ROOT
ATOM      1  C   UNL A   1      32.299  33.458  27.402  1.00  0.00     0.042 C 
ENDROOT
BRANCH   1   2
ATOM      2  C   UNL A   1      32.437  31.946  27.238  1.00  0.00     0.118 C 
BRANCH   2   3
ATOM      3  N   UNL A   1      33.676  31.449  27.814  1.00  0.00    -0.352 N 
ATOM      4  C   UNL A   1      34.376  30.291  27.579  1.00  0.00     0.251 C 
ATOM      5  O   UNL A   1      35.491  30.162  28.081  1.00  0.00    -0.269 OA
ATOM      6  H   UNL A   1      34.083  32.043  28.486  1.00  0.00     0.163 HD
BRANCH   4   7
ATOM      7  C   UNL A   1      33.852  29.224  26.690  1.00  0.00     0.039 A 
ATOM      8  C   UNL A   1      32.852  27.116  25.116  1.00  0.00     0.060 A 
ATOM      9  C   UNL A   1      32.509  27.215  26.467  1.00  0.00     0.029 A 
ATOM     10  C   UNL A   1      33.646  28.116  24.550  1.00  0.00     0.029 A 
ATOM     11  C   UNL A   1      33.000  28.265  27.250  1.00  0.00     0.016 A 
ATOM     12  C   UNL A   1      34.132  29.169  25.323  1.00  0.00     0.016 A 
BRANCH   8  13
ATOM     13  N   UNL A   1      32.417  26.062  24.336  1.00  0.00    -0.257 N 
ATOM     14  C   UNL A   1      32.455  24.052  23.677  1.00  0.00     0.071 C 
ATOM     15  N   UNL A   1      32.701  24.796  24.708  1.00  0.00    -0.176 NA
ATOM     16  C   UNL A   1      32.017  24.788  22.436  1.00  0.00     0.091 C 
ATOM     17  C   UNL A   1      31.790  26.195  23.024  1.00  0.00     0.144 C 
BRANCH  14  18
ATOM     18  C   UNL A   1      32.650  22.593  23.716  1.00  0.00    -0.002 A 
ATOM     19  C   UNL A   1      32.782  19.815  23.792  1.00  0.00     0.067 A 
ATOM     20  C   UNL A   1      32.226  20.444  22.676  1.00  0.00     0.021 A 
ATOM     21  C   UNL A   1      33.273  20.566  24.869  1.00  0.00     0.021 A 
ATOM     22  C   UNL A   1      32.154  21.835  22.645  1.00  0.00     0.011 A 
ATOM     23  C   UNL A   1      33.219  21.961  24.825  1.00  0.00     0.011 A 
BRANCH  19  24
ATOM     24  S   UNL A   1      32.807  18.041  23.880  1.00  0.00     0.175 S 
ATOM     25  C   UNL A   1      34.441  17.668  24.456  1.00  0.00     0.163 C 
ATOM     26  O   UNL A   1      32.690  17.521  22.535  1.00  0.00    -0.224 OA
ATOM     27  O   UNL A   1      31.865  17.658  24.918  1.00  0.00    -0.224 OA
ENDBRANCH  19  24
ENDBRANCH  14  18
BRANCH  17  28
ATOM     28  C   UNL A   1      30.350  26.679  23.173  1.00  0.00    -0.023 A 
ATOM     29  C   UNL A   1      29.344  25.954  23.828  1.00  0.00     0.006 A 
ATOM     30  C   UNL A   1      30.023  27.963  22.689  1.00  0.00     0.006 A 
ATOM     31  C   UNL A   1      28.057  26.485  23.977  1.00  0.00     0.000 A 
ATOM     32  C   UNL A   1      28.747  28.503  22.861  1.00  0.00     0.000 A 
ATOM     33  C   UNL A   1      27.760  27.760  23.500  1.00  0.00     0.000 A 
ENDBRANCH  17  28
ENDBRANCH   8  13
ENDBRANCH   4   7
ENDBRANCH   2   3
ENDBRANCH   1   2
BRANCH   1  34
ATOM     34  C   UNL A   1      33.513  34.120  28.047  1.00  0.00     0.118 C 
BRANCH  34  35
ATOM     35  N   UNL A   1      33.142  34.962  29.176  1.00  0.00    -0.352 N 
ATOM     36  C   UNL A   1      33.568  34.926  30.481  1.00  0.00     0.251 C 
ATOM     37  H   UNL A   1      32.485  35.666  28.971  1.00  0.00     0.163 HD
ATOM     38  O   UNL A   1      32.957  35.584  31.321  1.00  0.00    -0.269 OA
BRANCH  36  39
ATOM     39  C   UNL A   1      34.728  34.097  30.885  1.00  0.00     0.039 A 
ATOM     40  C   UNL A   1      36.010  34.511  30.510  1.00  0.00     0.014 A 
ATOM     41  C   UNL A   1      34.563  32.900  31.585  1.00  0.00     0.014 A 
ATOM     42  C   UNL A   1      37.126  33.758  30.887  1.00  0.00     0.010 A 
ATOM     43  C   UNL A   1      35.680  32.184  32.018  1.00  0.00     0.010 A 
ATOM     44  C   UNL A   1      36.973  32.605  31.673  1.00  0.00    -0.014 A 
BRANCH  44  45
ATOM     45  C   UNL A   1      38.153  31.832  32.145  1.00  0.00     0.031 A 
ATOM     46  C   UNL A   1      38.800  32.163  33.463  1.00  0.00     0.074 A 
ATOM     47  C   UNL A   1      38.677  30.874  31.356  1.00  0.00     0.049 A 
ATOM     48  N   UNL A   1      39.879  31.658  34.006  1.00  0.00    -0.248 NA
ATOM     49  C   UNL A   1      38.163  33.219  34.262  1.00  0.00     0.031 C 
ATOM     50  C   UNL A   1      38.159  30.487  30.041  1.00  0.00     0.029 A 
ATOM     51  N   UNL A   1      39.766  30.059  31.535  1.00  0.00    -0.354 N 
ATOM     52  C   UNL A   1      40.059  32.343  35.203  1.00  0.00     0.074 A 
ATOM     53  C   UNL A   1      39.006  33.334  35.277  1.00  0.00     0.031 C 
ATOM     54  C   UNL A   1      38.920  29.500  29.543  1.00  0.00     0.029 A 
ATOM     55  C   UNL A   1      40.004  29.213  30.475  1.00  0.00     0.049 A 
ATOM     56  H   UNL A   1      40.324  30.076  32.346  1.00  0.00     0.167 HD
ATOM     57  C   UNL A   1      41.002  32.149  36.159  1.00  0.00     0.034 A 
ATOM     58  C   UNL A   1      40.992  28.319  30.271  1.00  0.00     0.034 A 
ATOM     59  C   UNL A   1      42.040  31.149  36.073  1.00  0.00     0.049 A 
ATOM     60  C   UNL A   1      42.043  28.138  31.336  1.00  0.00     0.074 A 
ATOM     61  C   UNL A   1      43.012  30.830  37.007  1.00  0.00     0.029 A 
ATOM     62  N   UNL A   1      42.249  30.310  34.985  1.00  0.00    -0.354 N 
ATOM     63  N   UNL A   1      42.171  28.761  32.484  1.00  0.00    -0.248 NA
ATOM     64  C   UNL A   1      43.075  27.125  31.080  1.00  0.00     0.031 C 
ATOM     65  C   UNL A   1      43.844  29.849  36.458  1.00  0.00     0.029 A 
ATOM     66  C   UNL A   1      43.351  29.497  35.212  1.00  0.00     0.049 A 
ATOM     67  H   UNL A   1      41.695  30.294  34.172  1.00  0.00     0.167 HD
ATOM     68  C   UNL A   1      43.284  28.195  33.100  1.00  0.00     0.074 A 
ATOM     69  C   UNL A   1      43.779  27.172  32.202  1.00  0.00     0.031 C 
ATOM     70  C   UNL A   1      43.843  28.491  34.301  1.00  0.00     0.034 A 
BRANCH  57  71
ATOM     71  C   UNL A   1      40.967  33.059  37.365  1.00  0.00     0.023 A 
ATOM     72  C   UNL A   1      40.291  32.697  38.544  1.00  0.00     0.031 A 
ATOM     73  C   UNL A   1      41.595  34.316  37.329  1.00  0.00     0.131 A 
ATOM     74  C   UNL A   1      40.195  33.611  39.606  1.00  0.00     0.055 A 
ATOM     75  C   UNL A   1      41.565  35.187  38.420  1.00  0.00     0.041 A 
ATOM     76  F   UNL A   1      42.241  34.726  36.226  1.00  0.00    -0.206 F 
ATOM     77  C   UNL A   1      40.848  34.844  39.562  1.00  0.00     0.022 A 
BRANCH  74  78
ATOM     78  S   UNL A   1      39.084  33.219  40.986  1.00  0.00     0.124 S 
ATOM     79  O   UNL A   1      39.127  31.758  40.993  1.00  0.00    -0.237 OA
ATOM     80  O   UNL A   1      39.732  33.883  42.111  1.00  0.00    -0.237 OA
ATOM     81  O   UNL A   1      37.806  33.796  40.572  1.00  0.00    -0.744 OA
ENDBRANCH  74  78
ENDBRANCH  57  71
BRANCH  58  82
ATOM     82  C   UNL A   1      41.049  27.536  29.004  1.00  0.00     0.023 A 
ATOM     83  C   UNL A   1      42.035  27.793  28.039  1.00  0.00     0.031 A 
ATOM     84  C   UNL A   1      40.094  26.543  28.724  1.00  0.00     0.131 A 
ATOM     85  C   UNL A   1      42.020  27.095  26.821  1.00  0.00     0.055 A 
ATOM     86  C   UNL A   1      40.113  25.816  27.532  1.00  0.00     0.041 A 
ATOM     87  F   UNL A   1      39.133  26.254  29.616  1.00  0.00    -0.206 F 
ATOM     88  C   UNL A   1      41.072  26.101  26.567  1.00  0.00     0.022 A 
BRANCH  85  89
ATOM     89  S   UNL A   1      43.214  27.563  25.538  1.00  0.00     0.124 S 
ATOM     90  O   UNL A   1      42.342  28.096  24.499  1.00  0.00    -0.237 OA
ATOM     91  O   UNL A   1      44.047  28.534  26.239  1.00  0.00    -0.237 OA
ATOM     92  O   UNL A   1      43.874  26.300  25.212  1.00  0.00    -0.744 OA
ENDBRANCH  85  89
ENDBRANCH  58  82
BRANCH  70  93
ATOM     93  C   UNL A   1      45.030  27.661  34.724  1.00  0.00     0.023 A 
ATOM     94  C   UNL A   1      44.876  26.451  35.423  1.00  0.00     0.031 A 
ATOM     95  C   UNL A   1      46.336  28.098  34.437  1.00  0.00     0.131 A 
ATOM     96  C   UNL A   1      46.009  25.749  35.862  1.00  0.00     0.055 A 
ATOM     97  C   UNL A   1      47.458  27.366  34.825  1.00  0.00     0.041 A 
ATOM     98  F   UNL A   1      46.542  29.248  33.775  1.00  0.00    -0.206 F 
ATOM     99  C   UNL A   1      47.298  26.190  35.554  1.00  0.00     0.022 A 
BRANCH  96 100
ATOM    100  S   UNL A   1      45.777  24.296  36.923  1.00  0.00     0.124 S 
ATOM    101  O   UNL A   1      47.151  23.969  37.294  1.00  0.00    -0.237 OA
ATOM    102  O   UNL A   1      44.936  24.820  37.992  1.00  0.00    -0.237 OA
ATOM    103  O   UNL A   1      45.127  23.327  36.042  1.00  0.00    -0.744 OA
ENDBRANCH  96 100
ENDBRANCH  70  93
ENDBRANCH  44  45
ENDBRANCH  36  39
ENDBRANCH  34  35
ENDBRANCH   1  34
TORSDOF 17
ENDMDL
MODEL 2
REMARK VINA RESULT:     -12.4      2.167      2.486
REMARK SMILES CS(=O)(=O)c1ccc(C2=NN(c3ccc(C(=O)NCCCNC(=O)c4ccc(-c5c6nc(c(-c7cc(S(=O)(=O)[O-])ccc7F)c7ccc([nH]7)c(-c7cc(S(=O)(=O)[O-])ccc7F)c7nc(c(-c8cc(S(=O)(=O)[O-])ccc8F)c8ccc5[nH]8)C=C7)C=C6)cc4)cc3)[C@H](c3ccccc3)C2)cc1
REMARK SMILES IDX 20 1 19 2 18 3 16 4 17 5 15 7 12 8 13 9 89 10 14 11 88 12
REMARK SMILES IDX 11 13 9 14 10 15 97 16 90 17 8 18 5 19 6 20 99 21 7 22 98 23
REMARK SMILES IDX 2 24 1 25 3 26 4 27 91 28 92 29 96 30 93 31 95 32 94 33
REMARK SMILES IDX 21 34 22 35 23 36 24 38 25 39 26 40 87 41 27 42 86 43 28 44
REMARK SMILES IDX 29 45 30 46 80 47 31 48 85 49 79 50 81 51 32 52 84 53 78 54
REMARK SMILES IDX 77 55 33 57 65 58 45 59 64 60 46 61 49 62 63 63 82 64 47 65
REMARK SMILES IDX 48 66 62 68 83 69 50 70 34 71 35 72 43 73 36 74 42 75 44 76
REMARK SMILES IDX 41 77 37 78 38 79 39 80 40 81 66 82 67 83 75 84 68 85 74 86
REMARK SMILES IDX 76 87 73 88 69 89 70 90 71 91 72 92 51 93 52 94 60 95 53 96
REMARK SMILES IDX 59 97 61 98 58 99 54 100 55 101 56 102 57 103
REMARK H PARENT 18 6 22 37 81 56 49 67
REMARK Flexibility Score: inf
ROOT
ATOM      1  C   UNL A   1      32.675  33.328  27.440  1.00  0.00     0.042 C 
ENDROOT
BRANCH   1   2
ATOM      2  C   UNL A   1      32.612  31.803  27.400  1.00  0.00     0.118 C 
BRANCH   2   3
ATOM      3  N   UNL A   1      33.782  31.195  28.014  1.00  0.00    -0.352 N 
ATOM      4  C   UNL A   1      34.394  29.988  27.782  1.00  0.00     0.251 C 
ATOM      5  O   UNL A   1      35.473  29.760  28.325  1.00  0.00    -0.269 OA
ATOM      6  H   UNL A   1      34.206  31.741  28.715  1.00  0.00     0.163 HD
BRANCH   4   7
ATOM      7  C   UNL A   1      33.822  28.985  26.849  1.00  0.00     0.039 A 
ATOM      8  C   UNL A   1      32.696  27.008  25.192  1.00  0.00     0.060 A 
ATOM      9  C   UNL A   1      32.157  27.266  26.456  1.00  0.00     0.029 A 
ATOM     10  C   UNL A   1      33.761  27.793  24.745  1.00  0.00     0.029 A 
ATOM     11  C   UNL A   1      32.710  28.252  27.278  1.00  0.00     0.016 A 
ATOM     12  C   UNL A   1      34.313  28.782  25.558  1.00  0.00     0.016 A 
BRANCH   8  13
ATOM     13  N   UNL A   1      32.195  26.008  24.383  1.00  0.00    -0.257 N 
ATOM     14  C   UNL A   1      32.073  24.011  23.695  1.00  0.00     0.071 C 
ATOM     15  N   UNL A   1      32.349  24.717  24.745  1.00  0.00    -0.176 NA
ATOM     16  C   UNL A   1      31.746  24.798  22.452  1.00  0.00     0.091 C 
ATOM     17  C   UNL A   1      31.627  26.212  23.053  1.00  0.00     0.144 C 
BRANCH  14  18
ATOM     18  C   UNL A   1      32.133  22.539  23.719  1.00  0.00    -0.002 A 
ATOM     19  C   UNL A   1      32.471  19.780  23.832  1.00  0.00     0.067 A 
ATOM     20  C   UNL A   1      32.566  20.530  25.006  1.00  0.00     0.021 A 
ATOM     21  C   UNL A   1      32.207  20.400  22.602  1.00  0.00     0.021 A 
ATOM     22  C   UNL A   1      32.404  21.913  24.944  1.00  0.00     0.011 A 
ATOM     23  C   UNL A   1      32.023  21.784  22.548  1.00  0.00     0.011 A 
BRANCH  19  24
ATOM     24  S   UNL A   1      32.755  18.027  23.882  1.00  0.00     0.175 S 
ATOM     25  C   UNL A   1      34.447  17.886  24.388  1.00  0.00     0.163 C 
ATOM     26  O   UNL A   1      32.660  17.516  22.532  1.00  0.00    -0.224 OA
ATOM     27  O   UNL A   1      31.920  17.496  24.947  1.00  0.00    -0.224 OA
ENDBRANCH  19  24
ENDBRANCH  14  18
BRANCH  17  28
ATOM     28  C   UNL A   1      30.233  26.824  23.161  1.00  0.00    -0.023 A 
ATOM     29  C   UNL A   1      29.154  26.202  23.805  1.00  0.00     0.006 A 
ATOM     30  C   UNL A   1      30.031  28.122  22.650  1.00  0.00     0.006 A 
ATOM     31  C   UNL A   1      27.915  26.847  23.916  1.00  0.00     0.000 A 
ATOM     32  C   UNL A   1      28.804  28.776  22.784  1.00  0.00     0.000 A 
ATOM     33  C   UNL A   1      27.743  28.134  23.412  1.00  0.00     0.000 A 
ENDBRANCH  17  28
ENDBRANCH   8  13
ENDBRANCH   4   7
ENDBRANCH   2   3
ENDBRANCH   1   2
BRANCH   1  34
ATOM     34  C   UNL A   1      33.893  33.875  28.179  1.00  0.00     0.118 C 
BRANCH  34  35
ATOM     35  N   UNL A   1      33.530  34.520  29.432  1.00  0.00    -0.352 N 
ATOM     36  C   UNL A   1      34.013  34.320  30.701  1.00  0.00     0.251 C 
ATOM     37  H   UNL A   1      32.829  35.208  29.356  1.00  0.00     0.163 HD
ATOM     38  O   UNL A   1      33.407  34.813  31.651  1.00  0.00    -0.269 OA
BRANCH  36  39
ATOM     39  C   UNL A   1      35.230  33.508  30.937  1.00  0.00     0.039 A 
ATOM     40  C   UNL A   1      36.448  33.961  30.419  1.00  0.00     0.014 A 
ATOM     41  C   UNL A   1      35.176  32.289  31.619  1.00  0.00     0.014 A 
ATOM     42  C   UNL A   1      37.616  33.224  30.636  1.00  0.00     0.010 A 
ATOM     43  C   UNL A   1      36.352  31.589  31.892  1.00  0.00     0.010 A 
ATOM     44  C   UNL A   1      37.584  32.048  31.403  1.00  0.00    -0.014 A 
BRANCH  44  45
ATOM     45  C   UNL A   1      38.829  31.292  31.705  1.00  0.00     0.031 A 
ATOM     46  C   UNL A   1      39.646  31.628  32.923  1.00  0.00     0.074 A 
ATOM     47  C   UNL A   1      39.253  30.343  30.847  1.00  0.00     0.049 A 
ATOM     48  N   UNL A   1      40.796  31.137  33.310  1.00  0.00    -0.248 NA
ATOM     49  C   UNL A   1      39.110  32.673  33.806  1.00  0.00     0.031 C 
ATOM     50  C   UNL A   1      38.564  29.951  29.614  1.00  0.00     0.029 A 
ATOM     51  N   UNL A   1      40.367  29.542  30.871  1.00  0.00    -0.354 N 
ATOM     52  C   UNL A   1      41.129  31.821  34.474  1.00  0.00     0.074 A 
ATOM     53  C   UNL A   1      40.083  32.798  34.696  1.00  0.00     0.031 C 
ATOM     54  C   UNL A   1      39.263  28.976  29.011  1.00  0.00     0.029 A 
ATOM     55  C   UNL A   1      40.469  28.703  29.785  1.00  0.00     0.049 A 
ATOM     56  H   UNL A   1      41.031  29.566  31.597  1.00  0.00     0.167 HD
ATOM     57  C   UNL A   1      42.198  31.639  35.291  1.00  0.00     0.034 A 
ATOM     58  C   UNL A   1      41.432  27.824  29.443  1.00  0.00     0.034 A 
ATOM     59  C   UNL A   1      43.227  30.654  35.059  1.00  0.00     0.049 A 
ATOM     60  C   UNL A   1      42.621  27.655  30.353  1.00  0.00     0.074 A 
ATOM     61  C   UNL A   1      44.323  30.347  35.849  1.00  0.00     0.029 A 
ATOM     62  N   UNL A   1      43.297  29.821  33.949  1.00  0.00    -0.354 N 
ATOM     63  N   UNL A   1      42.897  28.277  31.475  1.00  0.00    -0.248 NA
ATOM     64  C   UNL A   1      43.623  26.658  29.954  1.00  0.00     0.031 C 
ATOM     65  C   UNL A   1      45.085  29.379  35.187  1.00  0.00     0.029 A 
ATOM     66  C   UNL A   1      44.430  29.023  34.019  1.00  0.00     0.049 A 
ATOM     67  H   UNL A   1      42.636  29.799  33.219  1.00  0.00     0.167 HD
ATOM     68  C   UNL A   1      44.092  27.725  31.931  1.00  0.00     0.074 A 
ATOM     69  C   UNL A   1      44.473  26.711  30.968  1.00  0.00     0.031 C 
ATOM     70  C   UNL A   1      44.806  28.027  33.044  1.00  0.00     0.034 A 
BRANCH  57  71
ATOM     71  C   UNL A   1      42.315  32.545  36.495  1.00  0.00     0.023 A 
ATOM     72  C   UNL A   1      41.734  32.211  37.731  1.00  0.00     0.031 A 
ATOM     73  C   UNL A   1      42.995  33.772  36.399  1.00  0.00     0.131 A 
ATOM     74  C   UNL A   1      41.779  33.124  38.796  1.00  0.00     0.055 A 
ATOM     75  C   UNL A   1      43.106  34.640  37.488  1.00  0.00     0.041 A 
ATOM     76  F   UNL A   1      43.555  34.156  35.241  1.00  0.00    -0.206 F 
ATOM     77  C   UNL A   1      42.482  34.326  38.691  1.00  0.00     0.022 A 
BRANCH  74  78
ATOM     78  S   UNL A   1      40.783  32.780  40.273  1.00  0.00     0.124 S 
ATOM     79  O   UNL A   1      39.500  32.405  39.683  1.00  0.00    -0.237 OA
ATOM     80  O   UNL A   1      41.530  31.704  40.914  1.00  0.00    -0.237 OA
ATOM     81  O   UNL A   1      40.783  34.054  40.991  1.00  0.00    -0.744 OA
ENDBRANCH  74  78
ENDBRANCH  57  71
BRANCH  58  82
ATOM     82  C   UNL A   1      41.324  27.045  28.177  1.00  0.00     0.023 A 
ATOM     83  C   UNL A   1      40.986  25.682  28.193  1.00  0.00     0.031 A 
ATOM     84  C   UNL A   1      41.594  27.644  26.934  1.00  0.00     0.131 A 
ATOM     85  C   UNL A   1      40.968  24.953  26.994  1.00  0.00     0.055 A 
ATOM     86  C   UNL A   1      41.526  26.926  25.738  1.00  0.00     0.041 A 
ATOM     87  F   UNL A   1      41.917  28.946  26.863  1.00  0.00    -0.206 F 
ATOM     88  C   UNL A   1      41.224  25.568  25.766  1.00  0.00     0.022 A 
BRANCH  85  89
ATOM     89  S   UNL A   1      40.679  23.164  27.071  1.00  0.00     0.124 S 
ATOM     90  O   UNL A   1      41.152  22.843  28.412  1.00  0.00    -0.237 OA
ATOM     91  O   UNL A   1      39.238  23.081  26.860  1.00  0.00    -0.237 OA
ATOM     92  O   UNL A   1      41.497  22.640  25.979  1.00  0.00    -0.744 OA
ENDBRANCH  85  89
ENDBRANCH  58  82
BRANCH  70  93
ATOM     93  C   UNL A   1      46.051  27.212  33.297  1.00  0.00     0.023 A 
ATOM     94  C   UNL A   1      47.312  27.621  32.828  1.00  0.00     0.031 A 
ATOM     95  C   UNL A   1      45.970  25.998  34.003  1.00  0.00     0.131 A 
ATOM     96  C   UNL A   1      48.431  26.796  33.021  1.00  0.00     0.055 A 
ATOM     97  C   UNL A   1      47.096  25.210  34.243  1.00  0.00     0.041 A 
ATOM     98  F   UNL A   1      44.791  25.557  34.470  1.00  0.00    -0.206 F 
ATOM     99  C   UNL A   1      48.333  25.601  33.739  1.00  0.00     0.022 A 
BRANCH  96 100
ATOM    100  S   UNL A   1      50.001  27.260  32.241  1.00  0.00     0.124 S 
ATOM    101  O   UNL A   1      49.686  27.125  30.821  1.00  0.00    -0.237 OA
ATOM    102  O   UNL A   1      50.199  28.623  32.723  1.00  0.00    -0.237 OA
ATOM    103  O   UNL A   1      50.948  26.276  32.761  1.00  0.00    -0.744 OA
ENDBRANCH  96 100
ENDBRANCH  70  93
ENDBRANCH  44  45
ENDBRANCH  36  39
ENDBRANCH  34  35
ENDBRANCH   1  34
TORSDOF 17
ENDMDL
MODEL 3
REMARK VINA RESULT:     -12.0      6.101     10.700
REMARK SMILES CS(=O)(=O)c1ccc(C2=NN(c3ccc(C(=O)NCCCNC(=O)c4ccc(-c5c6nc(c(-c7cc(S(=O)(=O)[O-])ccc7F)c7ccc([nH]7)c(-c7cc(S(=O)(=O)[O-])ccc7F)c7nc(c(-c8cc(S(=O)(=O)[O-])ccc8F)c8ccc5[nH]8)C=C7)C=C6)cc4)cc3)[C@H](c3ccccc3)C2)cc1
REMARK SMILES IDX 20 1 19 2 18 3 16 4 17 5 15 7 12 8 13 9 89 10 14 11 88 12
REMARK SMILES IDX 11 13 9 14 10 15 97 16 90 17 8 18 5 19 6 20 99 21 7 22 98 23
REMARK SMILES IDX 2 24 1 25 3 26 4 27 91 28 92 29 96 30 93 31 95 32 94 33
REMARK SMILES IDX 21 34 22 35 23 36 24 38 25 39 26 40 87 41 27 42 86 43 28 44
REMARK SMILES IDX 29 45 30 46 80 47 31 48 85 49 79 50 81 51 32 52 84 53 78 54
REMARK SMILES IDX 77 55 33 57 65 58 45 59 64 60 46 61 49 62 63 63 82 64 47 65
REMARK SMILES IDX 48 66 62 68 83 69 50 70 34 71 35 72 43 73 36 74 42 75 44 76
REMARK SMILES IDX 41 77 37 78 38 79 39 80 40 81 66 82 67 83 75 84 68 85 74 86
REMARK SMILES IDX 76 87 73 88 69 89 70 90 71 91 72 92 51 93 52 94 60 95 53 96
REMARK SMILES IDX 59 97 61 98 58 99 54 100 55 101 56 102 57 103
REMARK H PARENT 18 6 22 37 81 56 49 67
REMARK Flexibility Score: inf
ROOT
ATOM      1  C   UNL A   1      40.279  25.271  27.400  1.00  0.00     0.042 C 
ENDROOT
BRANCH   1   2
ATOM      2  C   UNL A   1      39.148  24.270  27.628  1.00  0.00     0.118 C 
BRANCH   2   3
ATOM      3  N   UNL A   1      39.387  23.015  26.933  1.00  0.00    -0.352 N 
ATOM      4  C   UNL A   1      38.592  22.299  26.073  1.00  0.00     0.251 C 
ATOM      5  O   UNL A   1      39.078  21.334  25.484  1.00  0.00    -0.269 OA
ATOM      6  H   UNL A   1      40.267  22.611  27.110  1.00  0.00     0.163 HD
BRANCH   4   7
ATOM      7  C   UNL A   1      37.190  22.693  25.787  1.00  0.00     0.039 A 
ATOM      8  C   UNL A   1      34.491  23.308  25.281  1.00  0.00     0.060 A 
ATOM      9  C   UNL A   1      34.831  22.345  26.235  1.00  0.00     0.029 A 
ATOM     10  C   UNL A   1      35.516  24.002  24.633  1.00  0.00     0.029 A 
ATOM     11  C   UNL A   1      36.171  22.042  26.493  1.00  0.00     0.016 A 
ATOM     12  C   UNL A   1      36.854  23.709  24.891  1.00  0.00     0.016 A 
BRANCH   8  13
ATOM     13  N   UNL A   1      33.174  23.590  24.977  1.00  0.00    -0.257 N 
ATOM     14  C   UNL A   1      31.543  24.899  24.650  1.00  0.00     0.071 C 
ATOM     15  N   UNL A   1      32.835  24.831  24.568  1.00  0.00    -0.176 NA
ATOM     16  C   UNL A   1      30.864  23.672  25.202  1.00  0.00     0.091 C 
ATOM     17  C   UNL A   1      32.049  22.687  25.209  1.00  0.00     0.144 C 
BRANCH  14  18
ATOM     18  C   UNL A   1      30.811  26.121  24.275  1.00  0.00    -0.002 A 
ATOM     19  C   UNL A   1      29.385  28.326  23.359  1.00  0.00     0.067 A 
ATOM     20  C   UNL A   1      28.724  27.110  23.539  1.00  0.00     0.021 A 
ATOM     21  C   UNL A   1      30.754  28.448  23.636  1.00  0.00     0.021 A 
ATOM     22  C   UNL A   1      29.443  26.005  23.990  1.00  0.00     0.011 A 
ATOM     23  C   UNL A   1      31.467  27.343  24.109  1.00  0.00     0.011 A 
BRANCH  19  24
ATOM     24  S   UNL A   1      28.498  29.722  22.708  1.00  0.00     0.175 S 
ATOM     25  C   UNL A   1      29.098  31.088  23.664  1.00  0.00     0.163 C 
ATOM     26  O   UNL A   1      27.097  29.552  23.023  1.00  0.00    -0.224 OA
ATOM     27  O   UNL A   1      28.944  29.900  21.337  1.00  0.00    -0.224 OA
ENDBRANCH  19  24
ENDBRANCH  14  18
BRANCH  17  28
ATOM     28  C   UNL A   1      32.049  21.566  24.173  1.00  0.00    -0.023 A 
ATOM     29  C   UNL A   1      31.841  21.769  22.801  1.00  0.00     0.006 A 
ATOM     30  C   UNL A   1      32.345  20.257  24.605  1.00  0.00     0.006 A 
ATOM     31  C   UNL A   1      31.910  20.700  21.899  1.00  0.00     0.000 A 
ATOM     32  C   UNL A   1      32.440  19.196  23.701  1.00  0.00     0.000 A 
ATOM     33  C   UNL A   1      32.216  19.417  22.347  1.00  0.00     0.000 A 
ENDBRANCH  17  28
ENDBRANCH   8  13
ENDBRANCH   4   7
ENDBRANCH   2   3
ENDBRANCH   1   2
BRANCH   1  34
ATOM     34  C   UNL A   1      40.501  25.626  25.934  1.00  0.00     0.118 C 
BRANCH  34  35
ATOM     35  N   UNL A   1      41.805  25.192  25.456  1.00  0.00    -0.352 N 
ATOM     36  C   UNL A   1      43.005  25.859  25.434  1.00  0.00     0.251 C 
ATOM     37  H   UNL A   1      41.830  24.277  25.092  1.00  0.00     0.163 HD
ATOM     38  O   UNL A   1      43.933  25.389  24.779  1.00  0.00    -0.269 OA
BRANCH  36  39
ATOM     39  C   UNL A   1      43.184  27.135  26.167  1.00  0.00     0.039 A 
ATOM     40  C   UNL A   1      42.475  28.261  25.735  1.00  0.00     0.014 A 
ATOM     41  C   UNL A   1      44.071  27.244  27.241  1.00  0.00     0.014 A 
ATOM     42  C   UNL A   1      42.612  29.475  26.413  1.00  0.00     0.010 A 
ATOM     43  C   UNL A   1      44.157  28.438  27.958  1.00  0.00     0.010 A 
ATOM     44  C   UNL A   1      43.429  29.566  27.552  1.00  0.00    -0.014 A 
BRANCH  44  45
ATOM     45  C   UNL A   1      43.529  30.830  28.329  1.00  0.00     0.031 A 
ATOM     46  C   UNL A   1      44.621  31.822  28.031  1.00  0.00     0.074 A 
ATOM     47  C   UNL A   1      42.672  31.054  29.345  1.00  0.00     0.049 A 
ATOM     48  N   UNL A   1      44.919  32.937  28.648  1.00  0.00    -0.248 NA
ATOM     49  C   UNL A   1      45.510  31.501  26.905  1.00  0.00     0.031 C 
ATOM     50  C   UNL A   1      41.593  30.150  29.752  1.00  0.00     0.029 A 
ATOM     51  N   UNL A   1      42.577  32.101  30.226  1.00  0.00    -0.354 N 
ATOM     52  C   UNL A   1      46.037  33.446  27.996  1.00  0.00     0.074 A 
ATOM     53  C   UNL A   1      46.393  32.487  26.971  1.00  0.00     0.031 C 
ATOM     54  C   UNL A   1      40.937  30.691  30.792  1.00  0.00     0.029 A 
ATOM     55  C   UNL A   1      41.572  31.953  31.155  1.00  0.00     0.049 A 
ATOM     56  H   UNL A   1      43.171  32.885  30.197  1.00  0.00     0.167 HD
ATOM     57  C   UNL A   1      46.693  34.613  28.220  1.00  0.00     0.034 A 
ATOM     58  C   UNL A   1      41.211  32.737  32.191  1.00  0.00     0.034 A 
ATOM     59  C   UNL A   1      46.320  35.561  29.241  1.00  0.00     0.049 A 
ATOM     60  C   UNL A   1      41.970  34.015  32.435  1.00  0.00     0.074 A 
ATOM     61  C   UNL A   1      46.880  36.798  29.519  1.00  0.00     0.029 A 
ATOM     62  N   UNL A   1      45.295  35.378  30.162  1.00  0.00    -0.354 N 
ATOM     63  N   UNL A   1      42.996  34.505  31.780  1.00  0.00    -0.248 NA
ATOM     64  C   UNL A   1      41.514  34.851  33.553  1.00  0.00     0.031 C 
ATOM     65  C   UNL A   1      46.239  37.329  30.644  1.00  0.00     0.029 A 
ATOM     66  C   UNL A   1      45.228  36.462  31.026  1.00  0.00     0.049 A 
ATOM     67  H   UNL A   1      44.703  34.593  30.196  1.00  0.00     0.167 HD
ATOM     68  C   UNL A   1      43.290  35.722  32.389  1.00  0.00     0.074 A 
ATOM     69  C   UNL A   1      42.323  35.895  33.455  1.00  0.00     0.031 C 
ATOM     70  C   UNL A   1      44.268  36.615  32.094  1.00  0.00     0.034 A 
BRANCH  57  71
ATOM     71  C   UNL A   1      47.900  34.908  27.359  1.00  0.00     0.023 A 
ATOM     72  C   UNL A   1      49.205  34.598  27.783  1.00  0.00     0.031 A 
ATOM     73  C   UNL A   1      47.748  35.531  26.108  1.00  0.00     0.131 A 
ATOM     74  C   UNL A   1      50.305  34.979  27.000  1.00  0.00     0.055 A 
ATOM     75  C   UNL A   1      48.843  35.833  25.296  1.00  0.00     0.041 A 
ATOM     76  F   UNL A   1      46.530  35.868  25.655  1.00  0.00    -0.206 F 
ATOM     77  C   UNL A   1      50.133  35.572  25.748  1.00  0.00     0.022 A 
BRANCH  74  78
ATOM     78  S   UNL A   1      51.968  34.816  27.708  1.00  0.00     0.124 S 
ATOM     79  O   UNL A   1      51.835  35.573  28.951  1.00  0.00    -0.237 OA
ATOM     80  O   UNL A   1      52.110  33.372  27.851  1.00  0.00    -0.237 OA
ATOM     81  O   UNL A   1      52.831  35.431  26.701  1.00  0.00    -0.744 OA
ENDBRANCH  74  78
ENDBRANCH  57  71
BRANCH  58  82
ATOM     82  C   UNL A   1      40.091  32.333  33.086  1.00  0.00     0.023 A 
ATOM     83  C   UNL A   1      38.773  32.740  32.824  1.00  0.00     0.031 A 
ATOM     84  C   UNL A   1      40.327  31.562  34.238  1.00  0.00     0.131 A 
ATOM     85  C   UNL A   1      37.748  32.412  33.725  1.00  0.00     0.055 A 
ATOM     86  C   UNL A   1      39.295  31.195  35.105  1.00  0.00     0.041 A 
ATOM     87  F   UNL A   1      41.568  31.141  34.532  1.00  0.00    -0.206 F 
ATOM     88  C   UNL A   1      37.999  31.632  34.857  1.00  0.00     0.022 A 
BRANCH  85  89
ATOM     89  S   UNL A   1      36.089  33.086  33.435  1.00  0.00     0.124 S 
ATOM     90  O   UNL A   1      35.496  32.062  32.583  1.00  0.00    -0.237 OA
ATOM     91  O   UNL A   1      35.560  33.181  34.791  1.00  0.00    -0.237 OA
ATOM     92  O   UNL A   1      36.352  34.366  32.781  1.00  0.00    -0.744 OA
ENDBRANCH  85  89
ENDBRANCH  58  82
BRANCH  70  93
ATOM     93  C   UNL A   1      44.305  37.882  32.913  1.00  0.00     0.023 A 
ATOM     94  C   UNL A   1      43.505  38.994  32.596  1.00  0.00     0.031 A 
ATOM     95  C   UNL A   1      45.168  37.982  34.020  1.00  0.00     0.131 A 
ATOM     96  C   UNL A   1      43.625  40.177  33.341  1.00  0.00     0.055 A 
ATOM     97  C   UNL A   1      45.242  39.142  34.792  1.00  0.00     0.041 A 
ATOM     98  F   UNL A   1      45.958  36.953  34.366  1.00  0.00    -0.206 F 
ATOM     99  C   UNL A   1      44.477  40.252  34.446  1.00  0.00     0.022 A 
BRANCH  96 100
ATOM    100  S   UNL A   1      42.721  41.650  32.790  1.00  0.00     0.124 S 
ATOM    101  O   UNL A   1      43.806  42.533  32.374  1.00  0.00    -0.237 OA
ATOM    102  O   UNL A   1      41.884  41.120  31.719  1.00  0.00    -0.237 OA
ATOM    103  O   UNL A   1      41.998  42.077  33.986  1.00  0.00    -0.744 OA
ENDBRANCH  96 100
ENDBRANCH  70  93
ENDBRANCH  44  45
ENDBRANCH  36  39
ENDBRANCH  34  35
ENDBRANCH   1  34
TORSDOF 17
ENDMDL
