MODEL 1
REMARK VINA RESULT:     -12.3      0.000      0.000
REMARK SMILES CC(C)N1C(=O)C[C@@H]([N@@H+]2CC[C@H](C(=O)NCCCNC(=O)c3ccc(-c4c5nc(c(-c6cc(S(=O)(=O)[O-])ccc6F)c6ccc([nH]6)c(-c6cc(S(=O)(=O)[O-])ccc6F)c6nc(c(-c7cc(S(=O)(=O)[O-])ccc7F)c7ccc4[nH]7)C=C6)C=C5)cc3)[C@@H]2C)C1=O
REMARK SMILES IDX 17 1 16 2 15 3 13 4 14 5 12 7 9 8 10 9 85 10 11 12 86 13
REMARK SMILES IDX 8 14 4 15 5 16 87 17 6 18 7 19 88 20 2 21 1 22 3 23 18 24
REMARK SMILES IDX 19 25 20 26 21 28 22 29 23 30 84 31 24 32 83 33 25 34 26 35
REMARK SMILES IDX 27 36 77 37 28 38 82 39 76 40 78 41 29 42 81 43 75 44 74 45
REMARK SMILES IDX 30 47 62 48 42 49 61 50 43 51 46 52 60 53 79 54 44 55 45 56
REMARK SMILES IDX 59 58 80 59 47 60 31 61 32 62 40 63 33 64 39 65 41 66 38 67
REMARK SMILES IDX 34 68 35 69 36 70 37 71 63 72 64 73 72 74 65 75 71 76 73 77
REMARK SMILES IDX 70 78 66 79 67 80 68 81 69 82 48 83 49 84 57 85 50 86 56 87
REMARK SMILES IDX 58 88 55 89 51 90 52 91 53 92 54 93
REMARK H PARENT 15 6 9 11 19 27 78 46 46 57
REMARK Flexibility Score: inf
ROOT
ATOM      1  C   UNL A   1      31.831  28.066  25.391  1.00  0.00     0.042 C 
ENDROOT
BRANCH   1   2
ATOM      2  C   UNL A   1      32.301  26.683  24.940  1.00  0.00     0.117 C 
BRANCH   2   3
ATOM      3  N   UNL A   1      31.576  25.629  25.611  1.00  0.00    -0.356 N 
ATOM      4  C   UNL A   1      31.900  24.543  26.329  1.00  0.00     0.229 C 
ATOM      5  O   UNL A   1      30.904  23.907  26.718  1.00  0.00    -0.275 OA
ATOM      6  H   UNL A   1      30.601  25.736  25.520  1.00  0.00     0.163 HD
BRANCH   4   7
ATOM      7  C   UNL A   1      33.276  24.025  26.774  1.00  0.00     0.142 C 
ATOM      8  N   UNL A   1      34.395  22.008  25.983  1.00  0.00    -0.321 N 
ATOM      9  C   UNL A   1      33.411  21.604  26.994  1.00  0.00     0.264 C 
ATOM     10  C   UNL A   1      34.481  23.479  26.000  1.00  0.00     0.194 C 
ATOM     11  H   UNL A   1      35.327  21.671  26.227  1.00  0.00     0.349 HD
ATOM     12  C   UNL A   1      33.052  22.866  27.769  1.00  0.00     0.081 C 
ATOM     13  C   UNL A   1      35.070  24.262  24.834  1.00  0.00     0.076 C 
BRANCH   8  14
ATOM     14  C   UNL A   1      34.321  21.296  24.697  1.00  0.00     0.284 C 
ATOM     15  N   UNL A   1      34.136  18.952  24.421  1.00  0.00    -0.275 N 
ATOM     16  C   UNL A   1      32.874  19.437  24.273  1.00  0.00     0.236 C 
ATOM     17  C   UNL A   1      35.039  19.943  24.723  1.00  0.00     0.288 C 
ATOM     18  O   UNL A   1      31.828  18.815  24.200  1.00  0.00    -0.274 OA
ATOM     19  C   UNL A   1      32.921  20.921  24.263  1.00  0.00     0.176 C 
ATOM     20  O   UNL A   1      36.220  19.780  25.000  1.00  0.00    -0.267 OA
BRANCH  15  21
ATOM     21  C   UNL A   1      34.456  17.526  24.474  1.00  0.00     0.087 C 
ATOM     22  C   UNL A   1      33.679  16.849  25.604  1.00  0.00     0.031 C 
ATOM     23  C   UNL A   1      34.208  16.813  23.141  1.00  0.00     0.031 C 
ENDBRANCH  15  21
ENDBRANCH   8  14
ENDBRANCH   4   7
ENDBRANCH   2   3
ENDBRANCH   1   2
BRANCH   1  24
ATOM     24  C   UNL A   1      32.932  29.110  25.332  1.00  0.00     0.118 C 
BRANCH  24  25
ATOM     25  N   UNL A   1      32.444  30.417  25.760  1.00  0.00    -0.352 N 
ATOM     26  C   UNL A   1      32.814  31.206  26.827  1.00  0.00     0.251 C 
ATOM     27  H   UNL A   1      31.733  30.796  25.195  1.00  0.00     0.163 HD
ATOM     28  O   UNL A   1      32.046  32.087  27.205  1.00  0.00    -0.269 OA
BRANCH  26  29
ATOM     29  C   UNL A   1      34.105  30.991  27.522  1.00  0.00     0.039 A 
ATOM     30  C   UNL A   1      34.994  32.059  27.688  1.00  0.00     0.014 A 
ATOM     31  C   UNL A   1      34.467  29.724  27.973  1.00  0.00     0.014 A 
ATOM     32  C   UNL A   1      36.202  31.861  28.369  1.00  0.00     0.010 A 
ATOM     33  C   UNL A   1      35.592  29.561  28.768  1.00  0.00     0.010 A 
ATOM     34  C   UNL A   1      36.492  30.619  28.955  1.00  0.00    -0.014 A 
BRANCH  34  35
ATOM     35  C   UNL A   1      37.741  30.358  29.721  1.00  0.00     0.031 A 
ATOM     36  C   UNL A   1      38.794  29.455  29.129  1.00  0.00     0.074 A 
ATOM     37  C   UNL A   1      37.880  30.837  30.973  1.00  0.00     0.049 A 
ATOM     38  N   UNL A   1      39.856  28.937  29.689  1.00  0.00    -0.248 NA
ATOM     39  C   UNL A   1      38.594  29.035  27.731  1.00  0.00     0.031 C 
ATOM     40  C   UNL A   1      36.912  31.688  31.668  1.00  0.00     0.029 A 
ATOM     41  N   UNL A   1      38.884  30.661  31.893  1.00  0.00    -0.354 N 
ATOM     42  C   UNL A   1      40.423  28.104  28.727  1.00  0.00     0.074 A 
ATOM     43  C   UNL A   1      39.544  28.128  27.580  1.00  0.00     0.031 C 
ATOM     44  C   UNL A   1      37.383  31.983  32.890  1.00  0.00     0.029 A 
ATOM     45  C   UNL A   1      38.650  31.291  33.096  1.00  0.00     0.049 A 
ATOM     46  H   UNL A   1      39.694  30.133  31.712  1.00  0.00     0.167 HD
ATOM     47  C   UNL A   1      41.584  27.407  28.786  1.00  0.00     0.034 A 
ATOM     48  C   UNL A   1      39.364  31.290  34.239  1.00  0.00     0.034 A 
ATOM     49  C   UNL A   1      42.464  27.430  29.927  1.00  0.00     0.049 A 
ATOM     50  C   UNL A   1      40.645  30.493  34.289  1.00  0.00     0.074 A 
ATOM     51  C   UNL A   1      43.696  26.821  30.078  1.00  0.00     0.029 A 
ATOM     52  N   UNL A   1      42.201  28.097  31.117  1.00  0.00    -0.354 N 
ATOM     53  N   UNL A   1      41.189  29.743  33.357  1.00  0.00    -0.248 NA
ATOM     54  C   UNL A   1      41.413  30.547  35.540  1.00  0.00     0.031 C 
ATOM     55  C   UNL A   1      44.143  27.056  31.381  1.00  0.00     0.029 A 
ATOM     56  C   UNL A   1      43.233  27.888  32.017  1.00  0.00     0.049 A 
ATOM     57  H   UNL A   1      41.398  28.639  31.296  1.00  0.00     0.167 HD
ATOM     58  C   UNL A   1      42.380  29.267  33.899  1.00  0.00     0.074 A 
ATOM     59  C   UNL A   1      42.479  29.823  35.233  1.00  0.00     0.031 C 
ATOM     60  C   UNL A   1      43.312  28.453  33.343  1.00  0.00     0.034 A 
BRANCH  47  61
ATOM     61  C   UNL A   1      41.953  26.557  27.591  1.00  0.00     0.023 A 
ATOM     62  C   UNL A   1      41.570  25.207  27.495  1.00  0.00     0.031 A 
ATOM     63  C   UNL A   1      42.725  27.092  26.545  1.00  0.00     0.131 A 
ATOM     64  C   UNL A   1      42.031  24.420  26.429  1.00  0.00     0.055 A 
ATOM     65  C   UNL A   1      43.101  26.327  25.438  1.00  0.00     0.041 A 
ATOM     66  F   UNL A   1      43.141  28.368  26.586  1.00  0.00    -0.206 F 
ATOM     67  C   UNL A   1      42.770  24.977  25.384  1.00  0.00     0.022 A 
BRANCH  64  68
ATOM     68  S   UNL A   1      41.788  22.624  26.515  1.00  0.00     0.124 S 
ATOM     69  O   UNL A   1      42.564  22.278  27.704  1.00  0.00    -0.237 OA
ATOM     70  O   UNL A   1      40.340  22.507  26.640  1.00  0.00    -0.237 OA
ATOM     71  O   UNL A   1      42.347  22.141  25.253  1.00  0.00    -0.744 OA
ENDBRANCH  64  68
ENDBRANCH  47  61
BRANCH  48  72
ATOM     72  C   UNL A   1      38.890  32.053  35.430  1.00  0.00     0.023 A 
ATOM     73  C   UNL A   1      38.332  31.391  36.535  1.00  0.00     0.031 A 
ATOM     74  C   UNL A   1      38.952  33.458  35.469  1.00  0.00     0.131 A 
ATOM     75  C   UNL A   1      37.814  32.132  37.609  1.00  0.00     0.055 A 
ATOM     76  C   UNL A   1      38.491  34.188  36.568  1.00  0.00     0.041 A 
ATOM     77  F   UNL A   1      39.478  34.145  34.442  1.00  0.00    -0.206 F 
ATOM     78  C   UNL A   1      37.904  33.526  37.640  1.00  0.00     0.022 A 
BRANCH  75  79
ATOM     79  S   UNL A   1      36.929  31.251  38.924  1.00  0.00     0.124 S 
ATOM     80  O   UNL A   1      36.822  29.909  38.361  1.00  0.00    -0.237 OA
ATOM     81  O   UNL A   1      37.838  31.402  40.055  1.00  0.00    -0.237 OA
ATOM     82  O   UNL A   1      35.670  31.983  39.036  1.00  0.00    -0.744 OA
ENDBRANCH  75  79
ENDBRANCH  48  72
BRANCH  60  83
ATOM     83  C   UNL A   1      44.550  28.162  34.155  1.00  0.00     0.023 A 
ATOM     84  C   UNL A   1      44.636  27.049  35.008  1.00  0.00     0.031 A 
ATOM     85  C   UNL A   1      45.670  29.007  34.051  1.00  0.00     0.131 A 
ATOM     86  C   UNL A   1      45.802  26.835  35.757  1.00  0.00     0.055 A 
ATOM     87  C   UNL A   1      46.850  28.751  34.748  1.00  0.00     0.041 A 
ATOM     88  F   UNL A   1      45.641  30.086  33.252  1.00  0.00    -0.206 F 
ATOM     89  C   UNL A   1      46.918  27.666  35.617  1.00  0.00     0.022 A 
BRANCH  86  90
ATOM     90  S   UNL A   1      45.818  25.497  36.981  1.00  0.00     0.124 S 
ATOM     91  O   UNL A   1      45.279  26.163  38.163  1.00  0.00    -0.237 OA
ATOM     92  O   UNL A   1      44.954  24.497  36.363  1.00  0.00    -0.237 OA
ATOM     93  O   UNL A   1      47.229  25.128  37.069  1.00  0.00    -0.744 OA
ENDBRANCH  86  90
ENDBRANCH  60  83
ENDBRANCH  34  35
ENDBRANCH  26  29
ENDBRANCH  24  25
ENDBRANCH   1  24
TORSDOF 15
ENDMDL
MODEL 2
REMARK VINA RESULT:     -12.2      5.126     10.314
REMARK SMILES CC(C)N1C(=O)C[C@@H]([N@@H+]2CC[C@H](C(=O)NCCCNC(=O)c3ccc(-c4c5nc(c(-c6cc(S(=O)(=O)[O-])ccc6F)c6ccc([nH]6)c(-c6cc(S(=O)(=O)[O-])ccc6F)c6nc(c(-c7cc(S(=O)(=O)[O-])ccc7F)c7ccc4[nH]7)C=C6)C=C5)cc3)[C@@H]2C)C1=O
REMARK SMILES IDX 17 1 16 2 15 3 13 4 14 5 12 7 9 8 10 9 85 10 11 12 86 13
REMARK SMILES IDX 8 14 4 15 5 16 87 17 6 18 7 19 88 20 2 21 1 22 3 23 18 24
REMARK SMILES IDX 19 25 20 26 21 28 22 29 23 30 84 31 24 32 83 33 25 34 26 35
REMARK SMILES IDX 27 36 77 37 28 38 82 39 76 40 78 41 29 42 81 43 75 44 74 45
REMARK SMILES IDX 30 47 62 48 42 49 61 50 43 51 46 52 60 53 79 54 44 55 45 56
REMARK SMILES IDX 59 58 80 59 47 60 31 61 32 62 40 63 33 64 39 65 41 66 38 67
REMARK SMILES IDX 34 68 35 69 36 70 37 71 63 72 64 73 72 74 65 75 71 76 73 77
REMARK SMILES IDX 70 78 66 79 67 80 68 81 69 82 48 83 49 84 57 85 50 86 56 87
REMARK SMILES IDX 58 88 55 89 51 90 52 91 53 92 54 93
REMARK H PARENT 15 6 9 11 19 27 78 46 46 57
REMARK Flexibility Score: inf
ROOT
ATOM      1  C   UNL A   1      35.542  22.232  24.285  1.00  0.00     0.042 C 
ENDROOT
BRANCH   1   2
ATOM      2  C   UNL A   1      35.044  21.900  25.691  1.00  0.00     0.117 C 
BRANCH   2   3
ATOM      3  N   UNL A   1      34.128  20.784  25.683  1.00  0.00    -0.356 N 
ATOM      4  C   UNL A   1      32.830  20.605  25.391  1.00  0.00     0.229 C 
ATOM      5  O   UNL A   1      32.462  19.425  25.535  1.00  0.00    -0.275 OA
ATOM      6  H   UNL A   1      34.565  19.945  25.958  1.00  0.00     0.163 HD
BRANCH   4   7
ATOM      7  C   UNL A   1      31.787  21.602  24.866  1.00  0.00     0.142 C 
ATOM      8  N   UNL A   1      32.058  24.016  24.657  1.00  0.00    -0.321 N 
ATOM      9  C   UNL A   1      31.738  23.722  26.060  1.00  0.00     0.264 C 
ATOM     10  C   UNL A   1      31.873  22.776  23.884  1.00  0.00     0.194 C 
ATOM     11  H   UNL A   1      31.400  24.690  24.267  1.00  0.00     0.349 HD
ATOM     12  C   UNL A   1      31.154  22.315  26.079  1.00  0.00     0.081 C 
ATOM     13  C   UNL A   1      32.496  22.587  22.507  1.00  0.00     0.076 C 
BRANCH   8  14
ATOM     14  C   UNL A   1      33.255  24.844  24.434  1.00  0.00     0.284 C 
ATOM     15  N   UNL A   1      33.303  27.209  24.328  1.00  0.00    -0.275 N 
ATOM     16  C   UNL A   1      33.706  26.892  25.588  1.00  0.00     0.236 C 
ATOM     17  C   UNL A   1      32.966  26.094  23.597  1.00  0.00     0.288 C 
ATOM     18  O   UNL A   1      33.881  27.638  26.536  1.00  0.00    -0.274 OA
ATOM     19  C   UNL A   1      33.868  25.419  25.691  1.00  0.00     0.176 C 
ATOM     20  O   UNL A   1      32.483  26.090  22.472  1.00  0.00    -0.267 OA
BRANCH  15  21
ATOM     21  C   UNL A   1      33.044  28.576  23.878  1.00  0.00     0.087 C 
ATOM     22  C   UNL A   1      33.970  28.937  22.716  1.00  0.00     0.031 C 
ATOM     23  C   UNL A   1      31.579  28.808  23.499  1.00  0.00     0.031 C 
ENDBRANCH  15  21
ENDBRANCH   8  14
ENDBRANCH   4   7
ENDBRANCH   2   3
ENDBRANCH   1   2
BRANCH   1  24
ATOM     24  C   UNL A   1      37.049  22.109  24.149  1.00  0.00     0.118 C 
BRANCH  24  25
ATOM     25  N   UNL A   1      37.558  20.979  24.920  1.00  0.00    -0.352 N 
ATOM     26  C   UNL A   1      38.692  20.858  25.692  1.00  0.00     0.251 C 
ATOM     27  H   UNL A   1      36.999  20.169  24.881  1.00  0.00     0.163 HD
ATOM     28  O   UNL A   1      39.109  19.734  25.958  1.00  0.00    -0.269 OA
BRANCH  26  29
ATOM     29  C   UNL A   1      39.412  22.058  26.180  1.00  0.00     0.039 A 
ATOM     30  C   UNL A   1      40.674  21.923  26.770  1.00  0.00     0.014 A 
ATOM     31  C   UNL A   1      38.827  23.319  26.101  1.00  0.00     0.014 A 
ATOM     32  C   UNL A   1      41.365  23.060  27.206  1.00  0.00     0.010 A 
ATOM     33  C   UNL A   1      39.568  24.453  26.401  1.00  0.00     0.010 A 
ATOM     34  C   UNL A   1      40.837  24.341  26.984  1.00  0.00    -0.014 A 
BRANCH  34  35
ATOM     35  C   UNL A   1      41.541  25.587  27.392  1.00  0.00     0.031 A 
ATOM     36  C   UNL A   1      40.802  26.617  28.211  1.00  0.00     0.074 A 
ATOM     37  C   UNL A   1      42.787  25.840  26.944  1.00  0.00     0.049 A 
ATOM     38  N   UNL A   1      41.144  27.844  28.509  1.00  0.00    -0.248 NA
ATOM     39  C   UNL A   1      39.474  26.230  28.716  1.00  0.00     0.031 C 
ATOM     40  C   UNL A   1      43.588  24.938  26.114  1.00  0.00     0.029 A 
ATOM     41  N   UNL A   1      43.593  26.938  27.109  1.00  0.00    -0.354 N 
ATOM     42  C   UNL A   1      40.059  28.382  29.198  1.00  0.00     0.074 A 
ATOM     43  C   UNL A   1      39.023  27.374  29.203  1.00  0.00     0.031 C 
ATOM     44  C   UNL A   1      44.778  25.507  25.868  1.00  0.00     0.029 A 
ATOM     45  C   UNL A   1      44.805  26.839  26.463  1.00  0.00     0.049 A 
ATOM     46  H   UNL A   1      43.329  27.725  27.639  1.00  0.00     0.167 HD
ATOM     47  C   UNL A   1      39.950  29.594  29.795  1.00  0.00     0.034 A 
ATOM     48  C   UNL A   1      45.810  27.728  26.344  1.00  0.00     0.034 A 
ATOM     49  C   UNL A   1      41.012  30.568  29.809  1.00  0.00     0.049 A 
ATOM     50  C   UNL A   1      45.661  29.079  27.002  1.00  0.00     0.074 A 
ATOM     51  C   UNL A   1      41.044  31.799  30.438  1.00  0.00     0.029 A 
ATOM     52  N   UNL A   1      42.231  30.420  29.160  1.00  0.00    -0.354 N 
ATOM     53  N   UNL A   1      44.647  29.557  27.685  1.00  0.00    -0.248 NA
ATOM     54  C   UNL A   1      46.794  30.006  26.880  1.00  0.00     0.031 C 
ATOM     55  C   UNL A   1      42.248  32.427  30.107  1.00  0.00     0.029 A 
ATOM     56  C   UNL A   1      43.009  31.551  29.347  1.00  0.00     0.049 A 
ATOM     57  H   UNL A   1      42.503  29.627  28.643  1.00  0.00     0.167 HD
ATOM     58  C   UNL A   1      45.035  30.827  28.105  1.00  0.00     0.074 A 
ATOM     59  C   UNL A   1      46.379  31.034  27.606  1.00  0.00     0.031 C 
ATOM     60  C   UNL A   1      44.348  31.736  28.841  1.00  0.00     0.034 A 
BRANCH  47  61
ATOM     61  C   UNL A   1      38.636  29.930  30.464  1.00  0.00     0.023 A 
ATOM     62  C   UNL A   1      37.615  30.621  29.787  1.00  0.00     0.031 A 
ATOM     63  C   UNL A   1      38.409  29.582  31.807  1.00  0.00     0.131 A 
ATOM     64  C   UNL A   1      36.459  31.018  30.475  1.00  0.00     0.055 A 
ATOM     65  C   UNL A   1      37.215  29.898  32.461  1.00  0.00     0.041 A 
ATOM     66  F   UNL A   1      39.352  28.941  32.516  1.00  0.00    -0.206 F 
ATOM     67  C   UNL A   1      36.239  30.636  31.800  1.00  0.00     0.022 A 
BRANCH  64  68
ATOM     68  S   UNL A   1      35.327  32.180  29.662  1.00  0.00     0.124 S 
ATOM     69  O   UNL A   1      36.251  33.200  29.175  1.00  0.00    -0.237 OA
ATOM     70  O   UNL A   1      34.699  31.347  28.643  1.00  0.00    -0.237 OA
ATOM     71  O   UNL A   1      34.445  32.613  30.745  1.00  0.00    -0.744 OA
ENDBRANCH  64  68
ENDBRANCH  47  61
BRANCH  48  72
ATOM     72  C   UNL A   1      47.039  27.385  25.569  1.00  0.00     0.023 A 
ATOM     73  C   UNL A   1      47.182  27.784  24.231  1.00  0.00     0.031 A 
ATOM     74  C   UNL A   1      48.074  26.623  26.141  1.00  0.00     0.131 A 
ATOM     75  C   UNL A   1      48.306  27.379  23.493  1.00  0.00     0.055 A 
ATOM     76  C   UNL A   1      49.219  26.274  25.421  1.00  0.00     0.041 A 
ATOM     77  F   UNL A   1      47.993  26.216  27.417  1.00  0.00    -0.206 F 
ATOM     78  C   UNL A   1      49.333  26.640  24.084  1.00  0.00     0.022 A 
BRANCH  75  79
ATOM     79  S   UNL A   1      48.359  27.749  21.719  1.00  0.00     0.124 S 
ATOM     80  O   UNL A   1      47.015  28.266  21.484  1.00  0.00    -0.237 OA
ATOM     81  O   UNL A   1      49.443  28.723  21.645  1.00  0.00    -0.237 OA
ATOM     82  O   UNL A   1      48.644  26.453  21.109  1.00  0.00    -0.744 OA
ENDBRANCH  75  79
ENDBRANCH  48  72
BRANCH  60  83
ATOM     83  C   UNL A   1      45.063  33.014  29.204  1.00  0.00     0.023 A 
ATOM     84  C   UNL A   1      45.030  34.146  28.374  1.00  0.00     0.031 A 
ATOM     85  C   UNL A   1      45.770  33.101  30.418  1.00  0.00     0.131 A 
ATOM     86  C   UNL A   1      45.729  35.304  28.747  1.00  0.00     0.055 A 
ATOM     87  C   UNL A   1      46.407  34.276  30.814  1.00  0.00     0.041 A 
ATOM     88  F   UNL A   1      45.836  32.047  31.248  1.00  0.00    -0.206 F 
ATOM     89  C   UNL A   1      46.398  35.384  29.972  1.00  0.00     0.022 A 
BRANCH  86  90
ATOM     90  S   UNL A   1      45.818  36.684  27.575  1.00  0.00     0.124 S 
ATOM     91  O   UNL A   1      46.071  35.994  26.314  1.00  0.00    -0.237 OA
ATOM     92  O   UNL A   1      44.502  37.298  27.712  1.00  0.00    -0.237 OA
ATOM     93  O   UNL A   1      46.932  37.489  28.074  1.00  0.00    -0.744 OA
ENDBRANCH  86  90
ENDBRANCH  60  83
ENDBRANCH  34  35
ENDBRANCH  26  29
ENDBRANCH  24  25
ENDBRANCH   1  24
TORSDOF 15
ENDMDL
MODEL 3
REMARK VINA RESULT:     -12.2      1.972      2.868
REMARK SMILES CC(C)N1C(=O)C[C@@H]([N@@H+]2CC[C@H](C(=O)NCCCNC(=O)c3ccc(-c4c5nc(c(-c6cc(S(=O)(=O)[O-])ccc6F)c6ccc([nH]6)c(-c6cc(S(=O)(=O)[O-])ccc6F)c6nc(c(-c7cc(S(=O)(=O)[O-])ccc7F)c7ccc4[nH]7)C=C6)C=C5)cc3)[C@@H]2C)C1=O
REMARK SMILES IDX 17 1 16 2 15 3 13 4 14 5 12 7 9 8 10 9 85 10 11 12 86 13
REMARK SMILES IDX 8 14 4 15 5 16 87 17 6 18 7 19 88 20 2 21 1 22 3 23 18 24
REMARK SMILES IDX 19 25 20 26 21 28 22 29 23 30 84 31 24 32 83 33 25 34 26 35
REMARK SMILES IDX 27 36 77 37 28 38 82 39 76 40 78 41 29 42 81 43 75 44 74 45
REMARK SMILES IDX 30 47 62 48 42 49 61 50 43 51 46 52 60 53 79 54 44 55 45 56
REMARK SMILES IDX 59 58 80 59 47 60 31 61 32 62 40 63 33 64 39 65 41 66 38 67
REMARK SMILES IDX 34 68 35 69 36 70 37 71 63 72 64 73 72 74 65 75 71 76 73 77
REMARK SMILES IDX 70 78 66 79 67 80 68 81 69 82 48 83 49 84 57 85 50 86 56 87
REMARK SMILES IDX 58 88 55 89 51 90 52 91 53 92 54 93
REMARK H PARENT 15 6 9 11 19 27 78 46 46 57
REMARK Flexibility Score: inf
ROOT
ATOM      1  C   UNL A   1      33.627  28.958  23.450  1.00  0.00     0.042 C 
ENDROOT
BRANCH   1   2
ATOM      2  C   UNL A   1      32.680  27.992  22.737  1.00  0.00     0.117 C 
BRANCH   2   3
ATOM      3  N   UNL A   1      31.300  28.388  22.893  1.00  0.00    -0.356 N 
ATOM      4  C   UNL A   1      30.215  27.882  23.500  1.00  0.00     0.229 C 
ATOM      5  O   UNL A   1      29.206  28.597  23.358  1.00  0.00    -0.275 OA
ATOM      6  H   UNL A   1      31.107  29.242  22.441  1.00  0.00     0.163 HD
BRANCH   4   7
ATOM      7  C   UNL A   1      30.061  26.623  24.365  1.00  0.00     0.142 C 
ATOM      8  N   UNL A   1      31.792  24.978  24.858  1.00  0.00    -0.321 N 
ATOM      9  C   UNL A   1      31.259  24.678  23.523  1.00  0.00     0.264 C 
ATOM     10  C   UNL A   1      30.931  26.006  25.466  1.00  0.00     0.194 C 
ATOM     11  H   UNL A   1      31.727  24.162  25.467  1.00  0.00     0.349 HD
ATOM     12  C   UNL A   1      29.925  25.409  23.422  1.00  0.00     0.081 C 
ATOM     13  C   UNL A   1      31.399  26.850  26.646  1.00  0.00     0.076 C 
BRANCH   8  14
ATOM     14  C   UNL A   1      33.256  25.104  24.948  1.00  0.00     0.284 C 
ATOM     15  N   UNL A   1      34.802  23.310  24.980  1.00  0.00    -0.275 N 
ATOM     16  C   UNL A   1      34.799  23.767  23.698  1.00  0.00     0.236 C 
ATOM     17  C   UNL A   1      33.901  23.984  25.770  1.00  0.00     0.288 C 
ATOM     18  O   UNL A   1      35.323  23.269  22.716  1.00  0.00    -0.274 OA
ATOM     19  C   UNL A   1      33.981  25.004  23.624  1.00  0.00     0.176 C 
ATOM     20  O   UNL A   1      33.627  23.719  26.934  1.00  0.00    -0.267 OA
BRANCH  15  21
ATOM     21  C   UNL A   1      35.510  22.106  25.410  1.00  0.00     0.087 C 
ATOM     22  C   UNL A   1      34.730  20.855  24.999  1.00  0.00     0.031 C 
ATOM     23  C   UNL A   1      36.948  22.046  24.888  1.00  0.00     0.031 C 
ENDBRANCH  15  21
ENDBRANCH   8  14
ENDBRANCH   4   7
ENDBRANCH   2   3
ENDBRANCH   1   2
BRANCH   1  24
ATOM     24  C   UNL A   1      33.506  28.893  24.962  1.00  0.00     0.118 C 
BRANCH  24  25
ATOM     25  N   UNL A   1      32.900  30.109  25.495  1.00  0.00    -0.352 N 
ATOM     26  C   UNL A   1      33.170  30.814  26.647  1.00  0.00     0.251 C 
ATOM     27  H   UNL A   1      32.179  30.486  24.942  1.00  0.00     0.163 HD
ATOM     28  O   UNL A   1      32.322  31.590  27.078  1.00  0.00    -0.269 OA
BRANCH  26  29
ATOM     29  C   UNL A   1      34.452  30.631  27.368  1.00  0.00     0.039 A 
ATOM     30  C   UNL A   1      35.271  31.736  27.626  1.00  0.00     0.014 A 
ATOM     31  C   UNL A   1      34.876  29.362  27.755  1.00  0.00     0.014 A 
ATOM     32  C   UNL A   1      36.469  31.567  28.332  1.00  0.00     0.010 A 
ATOM     33  C   UNL A   1      35.985  29.216  28.574  1.00  0.00     0.010 A 
ATOM     34  C   UNL A   1      36.815  30.310  28.852  1.00  0.00    -0.014 A 
BRANCH  34  35
ATOM     35  C   UNL A   1      38.055  30.075  29.640  1.00  0.00     0.031 A 
ATOM     36  C   UNL A   1      39.105  29.134  29.102  1.00  0.00     0.074 A 
ATOM     37  C   UNL A   1      38.189  30.612  30.870  1.00  0.00     0.049 A 
ATOM     38  N   UNL A   1      40.157  28.634  29.696  1.00  0.00    -0.248 NA
ATOM     39  C   UNL A   1      38.912  28.649  27.724  1.00  0.00     0.031 C 
ATOM     40  C   UNL A   1      37.224  31.505  31.514  1.00  0.00     0.029 A 
ATOM     41  N   UNL A   1      39.183  30.471  31.806  1.00  0.00    -0.354 N 
ATOM     42  C   UNL A   1      40.724  27.750  28.780  1.00  0.00     0.074 A 
ATOM     43  C   UNL A   1      39.854  27.727  27.625  1.00  0.00     0.031 C 
ATOM     44  C   UNL A   1      37.687  31.853  32.725  1.00  0.00     0.029 A 
ATOM     45  C   UNL A   1      38.946  31.160  32.974  1.00  0.00     0.049 A 
ATOM     46  H   UNL A   1      39.990  29.927  31.657  1.00  0.00     0.167 HD
ATOM     47  C   UNL A   1      41.877  27.046  28.882  1.00  0.00     0.034 A 
ATOM     48  C   UNL A   1      39.650  31.208  34.122  1.00  0.00     0.034 A 
ATOM     49  C   UNL A   1      42.748  27.116  30.029  1.00  0.00     0.049 A 
ATOM     50  C   UNL A   1      40.923  30.402  34.222  1.00  0.00     0.074 A 
ATOM     51  C   UNL A   1      43.973  26.503  30.219  1.00  0.00     0.029 A 
ATOM     52  N   UNL A   1      42.482  27.842  31.183  1.00  0.00    -0.354 N 
ATOM     53  N   UNL A   1      41.467  29.604  33.332  1.00  0.00    -0.248 NA
ATOM     54  C   UNL A   1      41.681  30.510  35.475  1.00  0.00     0.031 C 
ATOM     55  C   UNL A   1      44.411  26.797  31.513  1.00  0.00     0.029 A 
ATOM     56  C   UNL A   1      43.504  27.667  32.100  1.00  0.00     0.049 A 
ATOM     57  H   UNL A   1      41.683  28.399  31.328  1.00  0.00     0.167 HD
ATOM     58  C   UNL A   1      42.649  29.144  33.906  1.00  0.00     0.074 A 
ATOM     59  C   UNL A   1      42.742  29.762  35.213  1.00  0.00     0.031 C 
ATOM     60  C   UNL A   1      43.577  28.294  33.399  1.00  0.00     0.034 A 
BRANCH  47  61
ATOM     61  C   UNL A   1      42.248  26.136  27.733  1.00  0.00     0.023 A 
ATOM     62  C   UNL A   1      41.704  24.845  27.605  1.00  0.00     0.031 A 
ATOM     63  C   UNL A   1      43.180  26.550  26.766  1.00  0.00     0.131 A 
ATOM     64  C   UNL A   1      42.161  23.987  26.593  1.00  0.00     0.055 A 
ATOM     65  C   UNL A   1      43.561  25.725  25.705  1.00  0.00     0.041 A 
ATOM     66  F   UNL A   1      43.753  27.762  26.844  1.00  0.00    -0.206 F 
ATOM     67  C   UNL A   1      43.064  24.428  25.624  1.00  0.00     0.022 A 
BRANCH  64  68
ATOM     68  S   UNL A   1      41.681  22.239  26.661  1.00  0.00     0.124 S 
ATOM     69  O   UNL A   1      40.223  22.335  26.673  1.00  0.00    -0.237 OA
ATOM     70  O   UNL A   1      42.276  21.700  25.444  1.00  0.00    -0.237 OA
ATOM     71  O   UNL A   1      42.278  21.768  27.910  1.00  0.00    -0.744 OA
ENDBRANCH  64  68
ENDBRANCH  47  61
BRANCH  48  72
ATOM     72  C   UNL A   1      39.174  32.033  35.271  1.00  0.00     0.023 A 
ATOM     73  C   UNL A   1      39.621  33.352  35.445  1.00  0.00     0.031 A 
ATOM     74  C   UNL A   1      38.294  31.506  36.234  1.00  0.00     0.131 A 
ATOM     75  C   UNL A   1      39.230  34.083  36.578  1.00  0.00     0.055 A 
ATOM     76  C   UNL A   1      37.858  32.259  37.327  1.00  0.00     0.041 A 
ATOM     77  F   UNL A   1      37.831  30.251  36.117  1.00  0.00    -0.206 F 
ATOM     78  C   UNL A   1      38.338  33.550  37.512  1.00  0.00     0.022 A 
BRANCH  75  79
ATOM     79  S   UNL A   1      39.982  35.708  36.865  1.00  0.00     0.124 S 
ATOM     80  O   UNL A   1      39.290  36.146  38.072  1.00  0.00    -0.237 OA
ATOM     81  O   UNL A   1      41.391  35.367  37.021  1.00  0.00    -0.237 OA
ATOM     82  O   UNL A   1      39.653  36.453  35.652  1.00  0.00    -0.744 OA
ENDBRANCH  75  79
ENDBRANCH  48  72
BRANCH  60  83
ATOM     83  C   UNL A   1      44.806  28.032  34.234  1.00  0.00     0.023 A 
ATOM     84  C   UNL A   1      44.881  26.950  35.127  1.00  0.00     0.031 A 
ATOM     85  C   UNL A   1      45.929  28.871  34.112  1.00  0.00     0.131 A 
ATOM     86  C   UNL A   1      46.038  26.762  35.897  1.00  0.00     0.055 A 
ATOM     87  C   UNL A   1      47.100  28.639  34.832  1.00  0.00     0.041 A 
ATOM     88  F   UNL A   1      45.910  29.921  33.276  1.00  0.00    -0.206 F 
ATOM     89  C   UNL A   1      47.156  27.586  35.739  1.00  0.00     0.022 A 
BRANCH  86  90
ATOM     90  S   UNL A   1      46.038  25.469  37.169  1.00  0.00     0.124 S 
ATOM     91  O   UNL A   1      47.352  24.862  36.982  1.00  0.00    -0.237 OA
ATOM     92  O   UNL A   1      45.858  26.236  38.396  1.00  0.00    -0.237 OA
ATOM     93  O   UNL A   1      44.907  24.621  36.797  1.00  0.00    -0.744 OA
ENDBRANCH  86  90
ENDBRANCH  60  83
ENDBRANCH  34  35
ENDBRANCH  26  29
ENDBRANCH  24  25
ENDBRANCH   1  24
TORSDOF 15
ENDMDL
