MODEL 1
REMARK VINA RESULT:     -13.1      0.000      0.000
REMARK SMILES Cc1ccc(F)cc1-c1ccc(F)cc1C(=O)NCCCNC(=O)c1ccc(-c2c3nc(c(-c4cc(S(=O)(=O)[O-])ccc4F)c4ccc([nH]4)c(-c4cc(S(=O)(=O)[O-])ccc4F)c4nc(c(-c5cc(S(=O)(=O)[O-])ccc5F)c5ccc2[nH]5)C=C4)C=C3)cc1
REMARK SMILES IDX 21 1 20 2 19 3 18 4 16 5 17 6 15 8 9 9 10 10 11 11 14 12
REMARK SMILES IDX 12 13 13 14 8 15 1 16 2 17 3 18 4 19 7 20 5 21 6 22 22 23
REMARK SMILES IDX 23 24 24 26 25 27 26 28 87 29 27 30 86 31 28 32 29 33 30 34
REMARK SMILES IDX 80 35 31 36 85 37 79 38 81 39 32 40 84 41 78 42 77 43 33 45
REMARK SMILES IDX 65 46 45 47 64 48 46 49 49 50 63 51 82 52 47 53 48 54 62 56
REMARK SMILES IDX 83 57 50 58 34 59 35 60 43 61 36 62 42 63 44 64 41 65 37 66
REMARK SMILES IDX 38 67 39 68 40 69 66 70 67 71 75 72 68 73 74 74 76 75 73 76
REMARK SMILES IDX 69 77 70 78 71 79 72 80 51 81 52 82 60 83 53 84 59 85 61 86
REMARK SMILES IDX 58 87 54 88 55 89 56 90 57 91
REMARK H PARENT 18 7 22 25 81 44 49 55
REMARK Flexibility Score: inf
ROOT
ATOM      1  C   UNL A   1      35.744  22.259  25.680  1.00  0.00     0.118 C 
ENDROOT
BRANCH   1   2
ATOM      2  C   UNL A   1      35.194  22.296  27.101  1.00  0.00     0.042 C 
BRANCH   2   3
ATOM      3  C   UNL A   1      33.916  21.500  27.295  1.00  0.00     0.118 C 
BRANCH   3   4
ATOM      4  N   UNL A   1      32.735  22.243  27.655  1.00  0.00    -0.352 N 
ATOM      5  C   UNL A   1      31.824  22.886  26.855  1.00  0.00     0.252 C 
ATOM      6  O   UNL A   1      30.819  23.338  27.411  1.00  0.00    -0.269 OA
ATOM      7  H   UNL A   1      32.554  22.299  28.622  1.00  0.00     0.163 HD
BRANCH   5   8
ATOM      8  C   UNL A   1      31.992  23.164  25.391  1.00  0.00     0.050 A 
ATOM      9  C   UNL A   1      32.245  24.400  24.742  1.00  0.00    -0.005 A 
ATOM     10  C   UNL A   1      32.514  24.383  23.349  1.00  0.00     0.012 A 
ATOM     11  C   UNL A   1      32.506  23.204  22.607  1.00  0.00     0.040 A 
ATOM     12  C   UNL A   1      31.994  21.980  24.616  1.00  0.00     0.053 A 
ATOM     13  C   UNL A   1      32.241  22.010  23.250  1.00  0.00     0.124 A 
ATOM     14  F   UNL A   1      32.238  20.869  22.549  1.00  0.00    -0.207 F 
BRANCH   9  15
ATOM     15  C   UNL A   1      32.279  25.726  25.384  1.00  0.00    -0.012 A 
ATOM     16  C   UNL A   1      29.701  25.958  25.349  1.00  0.00     0.045 C 
ATOM     17  C   UNL A   1      31.091  26.467  25.653  1.00  0.00    -0.043 A 
ATOM     18  C   UNL A   1      31.176  27.693  26.341  1.00  0.00     0.007 A 
ATOM     19  C   UNL A   1      32.409  28.202  26.738  1.00  0.00     0.039 A 
ATOM     20  C   UNL A   1      33.515  26.284  25.754  1.00  0.00     0.048 A 
ATOM     21  C   UNL A   1      33.566  27.503  26.427  1.00  0.00     0.123 A 
ATOM     22  F   UNL A   1      34.754  27.992  26.808  1.00  0.00    -0.207 F 
ENDBRANCH   9  15
ENDBRANCH   5   8
ENDBRANCH   3   4
ENDBRANCH   2   3
ENDBRANCH   1   2
BRANCH   1  23
ATOM     23  N   UNL A   1      36.821  21.295  25.465  1.00  0.00    -0.352 N 
ATOM     24  C   UNL A   1      38.178  21.312  25.691  1.00  0.00     0.251 C 
ATOM     25  H   UNL A   1      36.506  20.448  25.073  1.00  0.00     0.163 HD
ATOM     26  O   UNL A   1      38.841  20.344  25.314  1.00  0.00    -0.269 OA
BRANCH  24  27
ATOM     27  C   UNL A   1      38.876  22.469  26.303  1.00  0.00     0.039 A 
ATOM     28  C   UNL A   1      39.991  22.233  27.120  1.00  0.00     0.014 A 
ATOM     29  C   UNL A   1      38.453  23.780  26.117  1.00  0.00     0.014 A 
ATOM     30  C   UNL A   1      40.731  23.305  27.638  1.00  0.00     0.010 A 
ATOM     31  C   UNL A   1      39.259  24.841  26.517  1.00  0.00     0.010 A 
ATOM     32  C   UNL A   1      40.414  24.622  27.280  1.00  0.00    -0.014 A 
BRANCH  32  33
ATOM     33  C   UNL A   1      41.234  25.799  27.685  1.00  0.00     0.031 A 
ATOM     34  C   UNL A   1      40.619  26.871  28.551  1.00  0.00     0.074 A 
ATOM     35  C   UNL A   1      42.472  25.979  27.179  1.00  0.00     0.049 A 
ATOM     36  N   UNL A   1      41.019  28.097  28.766  1.00  0.00    -0.248 NA
ATOM     37  C   UNL A   1      39.351  26.530  29.215  1.00  0.00     0.031 C 
ATOM     38  C   UNL A   1      43.184  25.039  26.310  1.00  0.00     0.029 A 
ATOM     39  N   UNL A   1      43.345  27.029  27.311  1.00  0.00    -0.354 N 
ATOM     40  C   UNL A   1      40.022  28.691  29.533  1.00  0.00     0.074 A 
ATOM     41  C   UNL A   1      38.980  27.701  29.708  1.00  0.00     0.031 C 
ATOM     42  C   UNL A   1      44.395  25.540  26.016  1.00  0.00     0.029 A 
ATOM     43  C   UNL A   1      44.521  26.863  26.615  1.00  0.00     0.049 A 
ATOM     44  H   UNL A   1      43.150  27.828  27.852  1.00  0.00     0.167 HD
ATOM     45  C   UNL A   1      39.985  29.940  30.059  1.00  0.00     0.034 A 
ATOM     46  C   UNL A   1      45.570  27.692  26.452  1.00  0.00     0.034 A 
ATOM     47  C   UNL A   1      41.066  30.887  29.948  1.00  0.00     0.049 A 
ATOM     48  C   UNL A   1      45.527  29.061  27.075  1.00  0.00     0.074 A 
ATOM     49  C   UNL A   1      41.161  32.154  30.500  1.00  0.00     0.029 A 
ATOM     50  N   UNL A   1      42.249  30.663  29.258  1.00  0.00    -0.354 N 
ATOM     51  N   UNL A   1      44.560  29.622  27.763  1.00  0.00    -0.248 NA
ATOM     52  C   UNL A   1      46.712  29.909  26.893  1.00  0.00     0.031 C 
ATOM     53  C   UNL A   1      42.386  32.707  30.114  1.00  0.00     0.029 A 
ATOM     54  C   UNL A   1      43.078  31.768  29.367  1.00  0.00     0.049 A 
ATOM     55  H   UNL A   1      42.468  29.840  28.765  1.00  0.00     0.167 HD
ATOM     56  C   UNL A   1      45.025  30.888  28.103  1.00  0.00     0.074 A 
ATOM     57  C   UNL A   1      46.364  31.000  27.560  1.00  0.00     0.031 C 
ATOM     58  C   UNL A   1      44.402  31.868  28.803  1.00  0.00     0.034 A 
BRANCH  45  59
ATOM     59  C   UNL A   1      38.737  30.350  30.798  1.00  0.00     0.023 A 
ATOM     60  C   UNL A   1      37.672  30.992  30.145  1.00  0.00     0.031 A 
ATOM     61  C   UNL A   1      38.615  30.106  32.178  1.00  0.00     0.131 A 
ATOM     62  C   UNL A   1      36.562  31.429  30.881  1.00  0.00     0.055 A 
ATOM     63  C   UNL A   1      37.473  30.476  32.891  1.00  0.00     0.041 A 
ATOM     64  F   UNL A   1      39.608  29.511  32.857  1.00  0.00    -0.206 F 
ATOM     65  C   UNL A   1      36.443  31.153  32.245  1.00  0.00     0.022 A 
BRANCH  62  66
ATOM     66  S   UNL A   1      35.322  32.456  30.050  1.00  0.00     0.124 S 
ATOM     67  O   UNL A   1      34.893  31.575  28.966  1.00  0.00    -0.237 OA
ATOM     68  O   UNL A   1      34.343  32.691  31.104  1.00  0.00    -0.237 OA
ATOM     69  O   UNL A   1      36.079  33.633  29.628  1.00  0.00    -0.744 OA
ENDBRANCH  62  66
ENDBRANCH  45  59
BRANCH  46  70
ATOM     70  C   UNL A   1      46.750  27.257  25.653  1.00  0.00     0.023 A 
ATOM     71  C   UNL A   1      46.923  27.706  24.336  1.00  0.00     0.031 A 
ATOM     72  C   UNL A   1      47.716  26.392  26.194  1.00  0.00     0.131 A 
ATOM     73  C   UNL A   1      48.026  27.267  23.589  1.00  0.00     0.055 A 
ATOM     74  C   UNL A   1      48.832  25.987  25.459  1.00  0.00     0.041 A 
ATOM     75  F   UNL A   1      47.601  25.949  27.456  1.00  0.00    -0.206 F 
ATOM     76  C   UNL A   1      48.988  26.420  24.145  1.00  0.00     0.022 A 
BRANCH  73  77
ATOM     77  S   UNL A   1      48.180  27.808  21.864  1.00  0.00     0.124 S 
ATOM     78  O   UNL A   1      46.935  28.541  21.672  1.00  0.00    -0.237 OA
ATOM     79  O   UNL A   1      49.399  28.608  21.903  1.00  0.00    -0.237 OA
ATOM     80  O   UNL A   1      48.287  26.552  21.124  1.00  0.00    -0.744 OA
ENDBRANCH  73  77
ENDBRANCH  46  70
BRANCH  58  81
ATOM     81  C   UNL A   1      45.173  33.139  29.036  1.00  0.00     0.023 A 
ATOM     82  C   UNL A   1      45.128  34.201  28.119  1.00  0.00     0.031 A 
ATOM     83  C   UNL A   1      45.946  33.293  30.200  1.00  0.00     0.131 A 
ATOM     84  C   UNL A   1      45.875  35.362  28.363  1.00  0.00     0.055 A 
ATOM     85  C   UNL A   1      46.650  34.470  30.461  1.00  0.00     0.041 A 
ATOM     86  F   UNL A   1      46.020  32.306  31.107  1.00  0.00    -0.206 F 
ATOM     87  C   UNL A   1      46.622  35.510  29.536  1.00  0.00     0.022 A 
BRANCH  84  88
ATOM     88  S   UNL A   1      45.899  36.663  27.101  1.00  0.00     0.124 S 
ATOM     89  O   UNL A   1      46.832  37.625  27.677  1.00  0.00    -0.237 OA
ATOM     90  O   UNL A   1      46.371  35.947  25.919  1.00  0.00    -0.237 OA
ATOM     91  O   UNL A   1      44.508  37.109  27.039  1.00  0.00    -0.744 OA
ENDBRANCH  84  88
ENDBRANCH  58  81
ENDBRANCH  32  33
ENDBRANCH  24  27
ENDBRANCH   1  23
TORSDOF 14
ENDMDL
MODEL 2
REMARK VINA RESULT:     -13.1      5.358     10.127
REMARK SMILES Cc1ccc(F)cc1-c1ccc(F)cc1C(=O)NCCCNC(=O)c1ccc(-c2c3nc(c(-c4cc(S(=O)(=O)[O-])ccc4F)c4ccc([nH]4)c(-c4cc(S(=O)(=O)[O-])ccc4F)c4nc(c(-c5cc(S(=O)(=O)[O-])ccc5F)c5ccc2[nH]5)C=C4)C=C3)cc1
REMARK SMILES IDX 21 1 20 2 19 3 18 4 16 5 17 6 15 8 9 9 10 10 11 11 14 12
REMARK SMILES IDX 12 13 13 14 8 15 1 16 2 17 3 18 4 19 7 20 5 21 6 22 22 23
REMARK SMILES IDX 23 24 24 26 25 27 26 28 87 29 27 30 86 31 28 32 29 33 30 34
REMARK SMILES IDX 80 35 31 36 85 37 79 38 81 39 32 40 84 41 78 42 77 43 33 45
REMARK SMILES IDX 65 46 45 47 64 48 46 49 49 50 63 51 82 52 47 53 48 54 62 56
REMARK SMILES IDX 83 57 50 58 34 59 35 60 43 61 36 62 42 63 44 64 41 65 37 66
REMARK SMILES IDX 38 67 39 68 40 69 66 70 67 71 75 72 68 73 74 74 76 75 73 76
REMARK SMILES IDX 69 77 70 78 71 79 72 80 51 81 52 82 60 83 53 84 59 85 61 86
REMARK SMILES IDX 58 87 54 88 55 89 56 90 57 91
REMARK H PARENT 18 7 22 25 81 44 49 55
REMARK Flexibility Score: inf
ROOT
ATOM      1  C   UNL A   1      32.777  28.794  25.404  1.00  0.00     0.118 C 
ENDROOT
BRANCH   1   2
ATOM      2  C   UNL A   1      33.829  28.894  24.305  1.00  0.00     0.042 C 
BRANCH   2   3
ATOM      3  C   UNL A   1      33.258  28.953  22.900  1.00  0.00     0.118 C 
BRANCH   3   4
ATOM      4  N   UNL A   1      33.532  27.833  22.038  1.00  0.00    -0.352 N 
ATOM      5  C   UNL A   1      32.947  26.592  21.998  1.00  0.00     0.252 C 
ATOM      6  O   UNL A   1      33.278  25.852  21.067  1.00  0.00    -0.269 OA
ATOM      7  H   UNL A   1      34.247  27.978  21.377  1.00  0.00     0.163 HD
BRANCH   5   8
ATOM      8  C   UNL A   1      32.020  26.030  23.035  1.00  0.00     0.050 A 
ATOM      9  C   UNL A   1      32.288  25.065  24.040  1.00  0.00    -0.005 A 
ATOM     10  C   UNL A   1      31.280  24.805  25.004  1.00  0.00     0.012 A 
ATOM     11  C   UNL A   1      30.041  25.440  24.971  1.00  0.00     0.040 A 
ATOM     12  C   UNL A   1      30.756  26.665  23.026  1.00  0.00     0.053 A 
ATOM     13  C   UNL A   1      29.789  26.364  23.976  1.00  0.00     0.124 A 
ATOM     14  F   UNL A   1      28.604  26.987  23.938  1.00  0.00    -0.207 F 
BRANCH   9  15
ATOM     15  C   UNL A   1      33.541  24.305  24.202  1.00  0.00    -0.012 A 
ATOM     16  C   UNL A   1      32.902  22.601  22.361  1.00  0.00     0.045 C 
ATOM     17  C   UNL A   1      33.823  23.140  23.431  1.00  0.00    -0.043 A 
ATOM     18  C   UNL A   1      35.070  22.499  23.570  1.00  0.00     0.007 A 
ATOM     19  C   UNL A   1      36.018  22.976  24.471  1.00  0.00     0.039 A 
ATOM     20  C   UNL A   1      34.497  24.738  25.138  1.00  0.00     0.048 A 
ATOM     21  C   UNL A   1      35.717  24.078  25.257  1.00  0.00     0.123 A 
ATOM     22  F   UNL A   1      36.628  24.538  26.125  1.00  0.00    -0.207 F 
ENDBRANCH   9  15
ENDBRANCH   5   8
ENDBRANCH   3   4
ENDBRANCH   2   3
ENDBRANCH   1   2
BRANCH   1  23
ATOM     23  N   UNL A   1      32.371  30.073  25.981  1.00  0.00    -0.352 N 
ATOM     24  C   UNL A   1      32.954  30.950  26.867  1.00  0.00     0.251 C 
ATOM     25  H   UNL A   1      31.487  30.372  25.669  1.00  0.00     0.163 HD
ATOM     26  O   UNL A   1      32.300  31.930  27.228  1.00  0.00    -0.269 OA
BRANCH  24  27
ATOM     27  C   UNL A   1      34.300  30.727  27.450  1.00  0.00     0.039 A 
ATOM     28  C   UNL A   1      35.152  31.826  27.626  1.00  0.00     0.014 A 
ATOM     29  C   UNL A   1      34.759  29.465  27.808  1.00  0.00     0.014 A 
ATOM     30  C   UNL A   1      36.393  31.669  28.260  1.00  0.00     0.010 A 
ATOM     31  C   UNL A   1      35.925  29.328  28.553  1.00  0.00     0.010 A 
ATOM     32  C   UNL A   1      36.759  30.427  28.797  1.00  0.00    -0.014 A 
BRANCH  32  33
ATOM     33  C   UNL A   1      38.000  30.217  29.597  1.00  0.00     0.031 A 
ATOM     34  C   UNL A   1      39.084  29.313  29.063  1.00  0.00     0.074 A 
ATOM     35  C   UNL A   1      38.104  30.720  30.844  1.00  0.00     0.049 A 
ATOM     36  N   UNL A   1      40.079  28.747  29.695  1.00  0.00    -0.248 NA
ATOM     37  C   UNL A   1      38.995  28.953  27.639  1.00  0.00     0.031 C 
ATOM     38  C   UNL A   1      37.124  31.590  31.500  1.00  0.00     0.029 A 
ATOM     39  N   UNL A   1      39.081  30.555  31.794  1.00  0.00    -0.354 N 
ATOM     40  C   UNL A   1      40.694  27.916  28.764  1.00  0.00     0.074 A 
ATOM     41  C   UNL A   1      39.931  28.022  27.538  1.00  0.00     0.031 C 
ATOM     42  C   UNL A   1      37.566  31.908  32.727  1.00  0.00     0.029 A 
ATOM     43  C   UNL A   1      38.823  31.211  32.975  1.00  0.00     0.049 A 
ATOM     44  H   UNL A   1      39.892  30.016  31.645  1.00  0.00     0.167 HD
ATOM     45  C   UNL A   1      41.803  27.150  28.910  1.00  0.00     0.034 A 
ATOM     46  C   UNL A   1      39.503  31.230  34.138  1.00  0.00     0.034 A 
ATOM     47  C   UNL A   1      42.601  27.118  30.110  1.00  0.00     0.049 A 
ATOM     48  C   UNL A   1      40.753  30.402  34.269  1.00  0.00     0.074 A 
ATOM     49  C   UNL A   1      43.779  26.430  30.342  1.00  0.00     0.029 A 
ATOM     50  N   UNL A   1      42.316  27.823  31.271  1.00  0.00    -0.354 N 
ATOM     51  N   UNL A   1      41.298  29.590  33.393  1.00  0.00    -0.248 NA
ATOM     52  C   UNL A   1      41.472  30.485  35.547  1.00  0.00     0.031 C 
ATOM     53  C   UNL A   1      44.187  26.691  31.654  1.00  0.00     0.029 A 
ATOM     54  C   UNL A   1      43.293  27.583  32.223  1.00  0.00     0.049 A 
ATOM     55  H   UNL A   1      41.535  28.408  31.399  1.00  0.00     0.167 HD
ATOM     56  C   UNL A   1      42.431  29.073  34.012  1.00  0.00     0.074 A 
ATOM     57  C   UNL A   1      42.500  29.677  35.328  1.00  0.00     0.031 C 
ATOM     58  C   UNL A   1      43.334  28.181  33.535  1.00  0.00     0.034 A 
BRANCH  45  59
ATOM     59  C   UNL A   1      42.212  26.285  27.746  1.00  0.00     0.023 A 
ATOM     60  C   UNL A   1      41.757  24.962  27.615  1.00  0.00     0.031 A 
ATOM     61  C   UNL A   1      43.079  26.786  26.758  1.00  0.00     0.131 A 
ATOM     62  C   UNL A   1      42.223  24.163  26.562  1.00  0.00     0.055 A 
ATOM     63  C   UNL A   1      43.479  26.008  25.669  1.00  0.00     0.041 A 
ATOM     64  F   UNL A   1      43.559  28.037  26.840  1.00  0.00    -0.206 F 
ATOM     65  C   UNL A   1      43.061  24.685  25.572  1.00  0.00     0.022 A 
BRANCH  62  66
ATOM     66  S   UNL A   1      41.801  22.401  26.558  1.00  0.00     0.124 S 
ATOM     67  O   UNL A   1      42.357  21.967  27.838  1.00  0.00    -0.237 OA
ATOM     68  O   UNL A   1      40.346  22.421  26.471  1.00  0.00    -0.237 OA
ATOM     69  O   UNL A   1      42.490  21.886  25.376  1.00  0.00    -0.744 OA
ENDBRANCH  62  66
ENDBRANCH  45  59
BRANCH  46  70
ATOM     70  C   UNL A   1      39.013  32.052  35.278  1.00  0.00     0.023 A 
ATOM     71  C   UNL A   1      38.384  31.445  36.375  1.00  0.00     0.031 A 
ATOM     72  C   UNL A   1      39.168  33.449  35.289  1.00  0.00     0.131 A 
ATOM     73  C   UNL A   1      37.906  32.237  37.430  1.00  0.00     0.055 A 
ATOM     74  C   UNL A   1      38.722  34.228  36.358  1.00  0.00     0.041 A 
ATOM     75  F   UNL A   1      39.778  34.072  34.269  1.00  0.00    -0.206 F 
ATOM     76  C   UNL A   1      38.081  33.623  37.435  1.00  0.00     0.022 A 
BRANCH  73  77
ATOM     77  S   UNL A   1      37.030  31.427  38.798  1.00  0.00     0.124 S 
ATOM     78  O   UNL A   1      35.808  32.219  38.877  1.00  0.00    -0.237 OA
ATOM     79  O   UNL A   1      36.882  30.064  38.300  1.00  0.00    -0.237 OA
ATOM     80  O   UNL A   1      37.948  31.579  39.924  1.00  0.00    -0.744 OA
ENDBRANCH  73  77
ENDBRANCH  46  70
BRANCH  58  81
ATOM     81  C   UNL A   1      44.484  27.822  34.437  1.00  0.00     0.023 A 
ATOM     82  C   UNL A   1      44.414  26.725  35.311  1.00  0.00     0.031 A 
ATOM     83  C   UNL A   1      45.669  28.577  34.406  1.00  0.00     0.131 A 
ATOM     84  C   UNL A   1      45.499  26.434  36.149  1.00  0.00     0.055 A 
ATOM     85  C   UNL A   1      46.764  28.254  35.208  1.00  0.00     0.041 A 
ATOM     86  F   UNL A   1      45.784  29.635  33.586  1.00  0.00    -0.206 F 
ATOM     87  C   UNL A   1      46.680  27.181  36.091  1.00  0.00     0.022 A 
BRANCH  84  88
ATOM     88  S   UNL A   1      45.331  25.093  37.357  1.00  0.00     0.124 S 
ATOM     89  O   UNL A   1      45.668  23.921  36.554  1.00  0.00    -0.237 OA
ATOM     90  O   UNL A   1      46.304  25.465  38.380  1.00  0.00    -0.237 OA
ATOM     91  O   UNL A   1      43.933  25.178  37.773  1.00  0.00    -0.744 OA
ENDBRANCH  84  88
ENDBRANCH  58  81
ENDBRANCH  32  33
ENDBRANCH  24  27
ENDBRANCH   1  23
TORSDOF 14
ENDMDL
MODEL 3
REMARK VINA RESULT:     -12.9      1.497      1.713
REMARK SMILES Cc1ccc(F)cc1-c1ccc(F)cc1C(=O)NCCCNC(=O)c1ccc(-c2c3nc(c(-c4cc(S(=O)(=O)[O-])ccc4F)c4ccc([nH]4)c(-c4cc(S(=O)(=O)[O-])ccc4F)c4nc(c(-c5cc(S(=O)(=O)[O-])ccc5F)c5ccc2[nH]5)C=C4)C=C3)cc1
REMARK SMILES IDX 21 1 20 2 19 3 18 4 16 5 17 6 15 8 9 9 10 10 11 11 14 12
REMARK SMILES IDX 12 13 13 14 8 15 1 16 2 17 3 18 4 19 7 20 5 21 6 22 22 23
REMARK SMILES IDX 23 24 24 26 25 27 26 28 87 29 27 30 86 31 28 32 29 33 30 34
REMARK SMILES IDX 80 35 31 36 85 37 79 38 81 39 32 40 84 41 78 42 77 43 33 45
REMARK SMILES IDX 65 46 45 47 64 48 46 49 49 50 63 51 82 52 47 53 48 54 62 56
REMARK SMILES IDX 83 57 50 58 34 59 35 60 43 61 36 62 42 63 44 64 41 65 37 66
REMARK SMILES IDX 38 67 39 68 40 69 66 70 67 71 75 72 68 73 74 74 76 75 73 76
REMARK SMILES IDX 69 77 70 78 71 79 72 80 51 81 52 82 60 83 53 84 59 85 61 86
REMARK SMILES IDX 58 87 54 88 55 89 56 90 57 91
REMARK H PARENT 18 7 22 25 81 44 49 55
REMARK Flexibility Score: inf
ROOT
ATOM      1  C   UNL A   1      35.895  22.212  25.505  1.00  0.00     0.118 C 
ENDROOT
BRANCH   1   2
ATOM      2  C   UNL A   1      35.355  22.403  26.917  1.00  0.00     0.042 C 
BRANCH   2   3
ATOM      3  C   UNL A   1      34.163  21.524  27.253  1.00  0.00     0.118 C 
BRANCH   3   4
ATOM      4  N   UNL A   1      32.958  22.194  27.670  1.00  0.00    -0.352 N 
ATOM      5  C   UNL A   1      31.994  22.817  26.917  1.00  0.00     0.252 C 
ATOM      6  O   UNL A   1      30.985  23.200  27.516  1.00  0.00    -0.269 OA
ATOM      7  H   UNL A   1      32.801  22.207  28.642  1.00  0.00     0.163 HD
BRANCH   5   8
ATOM      8  C   UNL A   1      32.107  23.154  25.461  1.00  0.00     0.050 A 
ATOM      9  C   UNL A   1      32.305  24.420  24.851  1.00  0.00    -0.005 A 
ATOM     10  C   UNL A   1      32.530  24.462  23.451  1.00  0.00     0.012 A 
ATOM     11  C   UNL A   1      32.530  23.312  22.665  1.00  0.00     0.040 A 
ATOM     12  C   UNL A   1      32.117  22.000  24.642  1.00  0.00     0.053 A 
ATOM     13  C   UNL A   1      32.318  22.088  23.271  1.00  0.00     0.124 A 
ATOM     14  F   UNL A   1      32.324  20.974  22.528  1.00  0.00    -0.207 F 
BRANCH   9  15
ATOM     15  C   UNL A   1      32.323  25.722  25.542  1.00  0.00    -0.012 A 
ATOM     16  C   UNL A   1      29.744  25.793  25.762  1.00  0.00     0.045 C 
ATOM     17  C   UNL A   1      31.125  26.377  25.952  1.00  0.00    -0.043 A 
ATOM     18  C   UNL A   1      31.204  27.581  26.680  1.00  0.00     0.007 A 
ATOM     19  C   UNL A   1      32.438  28.151  26.979  1.00  0.00     0.039 A 
ATOM     20  C   UNL A   1      33.554  26.343  25.816  1.00  0.00     0.048 A 
ATOM     21  C   UNL A   1      33.599  27.538  26.530  1.00  0.00     0.123 A 
ATOM     22  F   UNL A   1      34.787  28.086  26.816  1.00  0.00    -0.207 F 
ENDBRANCH   9  15
ENDBRANCH   5   8
ENDBRANCH   3   4
ENDBRANCH   2   3
ENDBRANCH   1   2
BRANCH   1  23
ATOM     23  N   UNL A   1      36.973  21.233  25.387  1.00  0.00    -0.352 N 
ATOM     24  C   UNL A   1      38.311  21.242  25.709  1.00  0.00     0.251 C 
ATOM     25  H   UNL A   1      36.678  20.382  24.992  1.00  0.00     0.163 HD
ATOM     26  O   UNL A   1      38.988  20.260  25.401  1.00  0.00    -0.269 OA
BRANCH  24  27
ATOM     27  C   UNL A   1      38.976  22.406  26.346  1.00  0.00     0.039 A 
ATOM     28  C   UNL A   1      40.013  22.176  27.261  1.00  0.00     0.014 A 
ATOM     29  C   UNL A   1      38.596  23.717  26.088  1.00  0.00     0.014 A 
ATOM     30  C   UNL A   1      40.728  23.250  27.810  1.00  0.00     0.010 A 
ATOM     31  C   UNL A   1      39.385  24.775  26.525  1.00  0.00     0.010 A 
ATOM     32  C   UNL A   1      40.467  24.560  27.388  1.00  0.00    -0.014 A 
BRANCH  32  33
ATOM     33  C   UNL A   1      41.272  25.736  27.828  1.00  0.00     0.031 A 
ATOM     34  C   UNL A   1      40.615  26.826  28.638  1.00  0.00     0.074 A 
ATOM     35  C   UNL A   1      42.542  25.895  27.401  1.00  0.00     0.049 A 
ATOM     36  N   UNL A   1      41.013  28.052  28.860  1.00  0.00    -0.248 NA
ATOM     37  C   UNL A   1      39.303  26.508  29.223  1.00  0.00     0.031 C 
ATOM     38  C   UNL A   1      43.298  24.935  26.593  1.00  0.00     0.029 A 
ATOM     39  N   UNL A   1      43.417  26.939  27.573  1.00  0.00    -0.354 N 
ATOM     40  C   UNL A   1      39.976  28.667  29.553  1.00  0.00     0.074 A 
ATOM     41  C   UNL A   1      38.914  27.690  29.674  1.00  0.00     0.031 C 
ATOM     42  C   UNL A   1      44.530  25.419  26.371  1.00  0.00     0.029 A 
ATOM     43  C   UNL A   1      44.632  26.751  26.957  1.00  0.00     0.049 A 
ATOM     44  H   UNL A   1      43.195  27.747  28.089  1.00  0.00     0.167 HD
ATOM     45  C   UNL A   1      39.919  29.925  30.057  1.00  0.00     0.034 A 
ATOM     46  C   UNL A   1      45.699  27.566  26.850  1.00  0.00     0.034 A 
ATOM     47  C   UNL A   1      41.014  30.859  30.002  1.00  0.00     0.049 A 
ATOM     48  C   UNL A   1      45.631  28.944  27.449  1.00  0.00     0.074 A 
ATOM     49  C   UNL A   1      41.088  32.133  30.540  1.00  0.00     0.029 A 
ATOM     50  N   UNL A   1      42.238  30.612  29.393  1.00  0.00    -0.354 N 
ATOM     51  N   UNL A   1      44.628  29.525  28.064  1.00  0.00    -0.248 NA
ATOM     52  C   UNL A   1      46.834  29.778  27.331  1.00  0.00     0.031 C 
ATOM     53  C   UNL A   1      42.342  32.668  30.226  1.00  0.00     0.029 A 
ATOM     54  C   UNL A   1      43.069  31.711  29.538  1.00  0.00     0.049 A 
ATOM     55  H   UNL A   1      42.479  29.780  28.927  1.00  0.00     0.167 HD
ATOM     56  C   UNL A   1      45.084  30.792  28.416  1.00  0.00     0.074 A 
ATOM     57  C   UNL A   1      46.456  30.883  27.958  1.00  0.00     0.031 C 
ATOM     58  C   UNL A   1      44.427  31.789  29.059  1.00  0.00     0.034 A 
BRANCH  45  59
ATOM     59  C   UNL A   1      38.631  30.358  30.708  1.00  0.00     0.023 A 
ATOM     60  C   UNL A   1      37.615  30.997  29.977  1.00  0.00     0.031 A 
ATOM     61  C   UNL A   1      38.419  30.139  32.081  1.00  0.00     0.131 A 
ATOM     62  C   UNL A   1      36.465  31.457  30.634  1.00  0.00     0.055 A 
ATOM     63  C   UNL A   1      37.238  30.532  32.714  1.00  0.00     0.041 A 
ATOM     64  F   UNL A   1      39.362  29.549  32.832  1.00  0.00    -0.206 F 
ATOM     65  C   UNL A   1      36.257  31.206  31.992  1.00  0.00     0.022 A 
BRANCH  62  66
ATOM     66  S   UNL A   1      35.289  32.479  29.708  1.00  0.00     0.124 S 
ATOM     67  O   UNL A   1      34.842  31.546  28.677  1.00  0.00    -0.237 OA
ATOM     68  O   UNL A   1      34.302  32.829  30.722  1.00  0.00    -0.237 OA
ATOM     69  O   UNL A   1      36.108  33.590  29.225  1.00  0.00    -0.744 OA
ENDBRANCH  62  66
ENDBRANCH  45  59
BRANCH  46  70
ATOM     70  C   UNL A   1      46.923  27.107  26.135  1.00  0.00     0.023 A 
ATOM     71  C   UNL A   1      47.970  26.493  26.838  1.00  0.00     0.031 A 
ATOM     72  C   UNL A   1      47.061  27.274  24.747  1.00  0.00     0.131 A 
ATOM     73  C   UNL A   1      49.126  26.089  26.154  1.00  0.00     0.055 A 
ATOM     74  C   UNL A   1      48.198  26.837  24.065  1.00  0.00     0.041 A 
ATOM     75  F   UNL A   1      46.078  27.841  24.030  1.00  0.00    -0.206 F 
ATOM     76  C   UNL A   1      49.243  26.246  24.770  1.00  0.00     0.022 A 
BRANCH  73  77
ATOM     77  S   UNL A   1      50.492  25.367  27.104  1.00  0.00     0.124 S 
ATOM     78  O   UNL A   1      51.406  24.956  26.045  1.00  0.00    -0.237 OA
ATOM     79  O   UNL A   1      50.923  26.494  27.924  1.00  0.00    -0.237 OA
ATOM     80  O   UNL A   1      49.854  24.276  27.838  1.00  0.00    -0.744 OA
ENDBRANCH  73  77
ENDBRANCH  46  70
BRANCH  58  81
ATOM     81  C   UNL A   1      45.196  33.056  29.324  1.00  0.00     0.023 A 
ATOM     82  C   UNL A   1      45.172  34.128  28.417  1.00  0.00     0.031 A 
ATOM     83  C   UNL A   1      45.945  33.195  30.505  1.00  0.00     0.131 A 
ATOM     84  C   UNL A   1      45.916  35.284  28.690  1.00  0.00     0.055 A 
ATOM     85  C   UNL A   1      46.645  34.367  30.794  1.00  0.00     0.041 A 
ATOM     86  F   UNL A   1      45.997  32.197  31.403  1.00  0.00    -0.206 F 
ATOM     87  C   UNL A   1      46.639  35.417  29.880  1.00  0.00     0.022 A 
BRANCH  84  88
ATOM     88  S   UNL A   1      45.969  36.599  27.444  1.00  0.00     0.124 S 
ATOM     89  O   UNL A   1      44.557  36.757  27.111  1.00  0.00    -0.237 OA
ATOM     90  O   UNL A   1      46.579  37.705  28.177  1.00  0.00    -0.237 OA
ATOM     91  O   UNL A   1      46.797  36.032  26.380  1.00  0.00    -0.744 OA
ENDBRANCH  84  88
ENDBRANCH  58  81
ENDBRANCH  32  33
ENDBRANCH  24  27
ENDBRANCH   1  23
TORSDOF 14
ENDMDL
