MODEL 1
REMARK VINA RESULT:     -13.4      0.000      0.000
REMARK SMILES C[C@H]1OCC[C@@H]1C(=O)Nc1sc2c(c1C(=O)NCCCNC(=O)c1ccc(-c3c4nc(c(-c5cc(S(=O)(=O)[O-])ccc5F)c5ccc([nH]5)c(-c5cc(S(=O)(=O)[O-])ccc5F)c5nc(c(-c6cc(S(=O)(=O)[O-])ccc6F)c6ccc3[nH]6)C=C5)C=C4)cc1)CCC2
REMARK SMILES IDX 19 1 18 2 17 3 15 4 16 5 14 7 10 8 11 9 12 10 13 11 89 12
REMARK SMILES IDX 87 13 88 14 9 15 7 16 8 17 6 19 1 20 2 21 3 22 4 23 5 24
REMARK SMILES IDX 20 25 21 26 22 27 23 29 24 30 25 31 86 32 26 33 85 34 27 35
REMARK SMILES IDX 28 36 29 37 79 38 30 39 84 40 78 41 80 42 31 43 83 44 77 45
REMARK SMILES IDX 76 46 32 48 64 49 44 50 63 51 45 52 48 53 62 54 81 55 46 56
REMARK SMILES IDX 47 57 61 59 82 60 49 61 33 62 34 63 42 64 35 65 41 66 43 67
REMARK SMILES IDX 40 68 36 69 37 70 38 71 39 72 65 73 66 74 74 75 67 76 73 77
REMARK SMILES IDX 75 78 72 79 68 80 69 81 70 82 71 83 50 84 51 85 59 86 52 87
REMARK SMILES IDX 58 88 60 89 57 90 53 91 54 92 55 93 56 94
REMARK H PARENT 17 6 9 18 21 28 80 47 48 58
REMARK Flexibility Score: inf
ROOT
ATOM      1  C   UNL A   1      33.944  29.011  27.500  1.00  0.00     0.042 C 
ENDROOT
BRANCH   1   2
ATOM      2  C   UNL A   1      33.300  29.577  26.235  1.00  0.00     0.118 C 
BRANCH   2   3
ATOM      3  N   UNL A   1      34.007  29.277  25.014  1.00  0.00    -0.352 N 
ATOM      4  C   UNL A   1      33.616  28.632  23.868  1.00  0.00     0.254 C 
ATOM      5  O   UNL A   1      34.166  29.046  22.842  1.00  0.00    -0.269 OA
ATOM      6  H   UNL A   1      34.938  29.593  25.000  1.00  0.00     0.163 HD
BRANCH   4   7
ATOM      7  C   UNL A   1      32.648  27.527  23.799  1.00  0.00     0.078 A 
ATOM      8  C   UNL A   1      31.506  27.658  22.995  1.00  0.00     0.108 A 
ATOM      9  S   UNL A   1      30.229  26.595  23.426  1.00  0.00    -0.122 S 
ATOM     10  C   UNL A   1      31.273  25.733  24.386  1.00  0.00     0.011 A 
ATOM     11  C   UNL A   1      32.534  26.269  24.493  1.00  0.00    -0.019 A 
ATOM     12  C   UNL A   1      31.034  24.513  25.194  1.00  0.00     0.047 C 
ATOM     13  C   UNL A   1      33.327  25.404  25.409  1.00  0.00     0.038 C 
ATOM     14  C   UNL A   1      32.485  24.104  25.523  1.00  0.00     0.010 C 
BRANCH   8  15
ATOM     15  N   UNL A   1      31.088  28.552  22.042  1.00  0.00    -0.317 N 
ATOM     16  C   UNL A   1      30.014  29.386  22.002  1.00  0.00     0.230 C 
ATOM     17  O   UNL A   1      29.914  30.079  20.976  1.00  0.00    -0.274 OA
ATOM     18  H   UNL A   1      31.667  28.599  21.247  1.00  0.00     0.170 HD
BRANCH  16  19
ATOM     19  C   UNL A   1      29.033  29.655  23.141  1.00  0.00     0.110 C 
ATOM     20  C   UNL A   1      26.840  28.520  23.696  1.00  0.00     0.039 C 
ATOM     21  C   UNL A   1      27.569  29.483  22.758  1.00  0.00     0.127 C 
ATOM     22  O   UNL A   1      26.968  30.783  22.869  1.00  0.00    -0.378 OA
ATOM     23  C   UNL A   1      27.704  31.519  23.850  1.00  0.00     0.161 C 
ATOM     24  C   UNL A   1      29.121  30.989  23.838  1.00  0.00     0.044 C 
ENDBRANCH  16  19
ENDBRANCH   8  15
ENDBRANCH   4   7
ENDBRANCH   2   3
ENDBRANCH   1   2
BRANCH   1  25
ATOM     25  C   UNL A   1      35.330  29.573  27.747  1.00  0.00     0.118 C 
BRANCH  25  26
ATOM     26  N   UNL A   1      35.478  30.043  29.130  1.00  0.00    -0.352 N 
ATOM     27  C   UNL A   1      36.430  29.700  30.063  1.00  0.00     0.251 C 
ATOM     28  H   UNL A   1      34.804  30.694  29.430  1.00  0.00     0.163 HD
ATOM     29  O   UNL A   1      36.234  29.932  31.256  1.00  0.00    -0.269 OA
BRANCH  27  30
ATOM     30  C   UNL A   1      37.665  29.043  29.614  1.00  0.00     0.039 A 
ATOM     31  C   UNL A   1      38.354  29.488  28.482  1.00  0.00     0.014 A 
ATOM     32  C   UNL A   1      38.154  27.988  30.378  1.00  0.00     0.014 A 
ATOM     33  C   UNL A   1      39.588  28.917  28.179  1.00  0.00     0.010 A 
ATOM     34  C   UNL A   1      39.435  27.551  30.181  1.00  0.00     0.010 A 
ATOM     35  C   UNL A   1      40.132  27.961  29.049  1.00  0.00    -0.014 A 
BRANCH  35  36
ATOM     36  C   UNL A   1      41.501  27.479  28.892  1.00  0.00     0.031 A 
ATOM     37  C   UNL A   1      41.616  26.210  28.121  1.00  0.00     0.074 A 
ATOM     38  C   UNL A   1      42.564  28.272  29.162  1.00  0.00     0.049 A 
ATOM     39  N   UNL A   1      42.080  25.077  28.527  1.00  0.00    -0.248 NA
ATOM     40  C   UNL A   1      40.989  26.140  26.787  1.00  0.00     0.031 C 
ATOM     41  C   UNL A   1      42.545  29.659  29.644  1.00  0.00     0.029 A 
ATOM     42  N   UNL A   1      43.884  28.074  28.903  1.00  0.00    -0.354 N 
ATOM     43  C   UNL A   1      42.052  24.233  27.421  1.00  0.00     0.074 A 
ATOM     44  C   UNL A   1      41.164  24.853  26.477  1.00  0.00     0.031 C 
ATOM     45  C   UNL A   1      43.728  30.248  29.371  1.00  0.00     0.029 A 
ATOM     46  C   UNL A   1      44.638  29.247  28.846  1.00  0.00     0.049 A 
ATOM     47  H   UNL A   1      44.274  27.180  28.767  1.00  0.00     0.167 HD
ATOM     48  C   UNL A   1      42.977  23.242  27.269  1.00  0.00     0.034 A 
ATOM     49  C   UNL A   1      45.896  29.399  28.345  1.00  0.00     0.034 A 
ATOM     50  C   UNL A   1      43.658  22.983  28.520  1.00  0.00     0.049 A 
ATOM     51  C   UNL A   1      46.516  28.047  28.366  1.00  0.00     0.074 A 
ATOM     52  C   UNL A   1      43.236  22.650  29.794  1.00  0.00     0.029 A 
ATOM     53  N   UNL A   1      44.942  23.463  28.675  1.00  0.00    -0.354 N 
ATOM     54  N   UNL A   1      46.739  27.381  29.467  1.00  0.00    -0.248 NA
ATOM     55  C   UNL A   1      46.404  27.231  27.166  1.00  0.00     0.031 C 
ATOM     56  C   UNL A   1      44.049  23.436  30.662  1.00  0.00     0.029 A 
ATOM     57  C   UNL A   1      44.993  24.112  29.885  1.00  0.00     0.049 A 
ATOM     58  H   UNL A   1      45.684  23.359  28.037  1.00  0.00     0.167 HD
ATOM     59  C   UNL A   1      46.343  26.082  29.186  1.00  0.00     0.074 A 
ATOM     60  C   UNL A   1      46.244  26.028  27.726  1.00  0.00     0.031 C 
ATOM     61  C   UNL A   1      45.837  25.263  30.159  1.00  0.00     0.034 A 
BRANCH  48  62
ATOM     62  C   UNL A   1      43.541  22.777  25.941  1.00  0.00     0.023 A 
ATOM     63  C   UNL A   1      43.659  21.388  25.749  1.00  0.00     0.031 A 
ATOM     64  C   UNL A   1      44.225  23.581  25.000  1.00  0.00     0.131 A 
ATOM     65  C   UNL A   1      44.510  20.860  24.763  1.00  0.00     0.055 A 
ATOM     66  C   UNL A   1      45.012  23.050  23.973  1.00  0.00     0.041 A 
ATOM     67  F   UNL A   1      44.255  24.916  25.064  1.00  0.00    -0.206 F 
ATOM     68  C   UNL A   1      45.190  21.683  23.872  1.00  0.00     0.022 A 
BRANCH  65  69
ATOM     69  S   UNL A   1      44.862  19.084  24.802  1.00  0.00     0.124 S 
ATOM     70  O   UNL A   1      46.139  19.057  25.507  1.00  0.00    -0.237 OA
ATOM     71  O   UNL A   1      43.711  18.567  25.532  1.00  0.00    -0.237 OA
ATOM     72  O   UNL A   1      44.920  18.721  23.388  1.00  0.00    -0.744 OA
ENDBRANCH  65  69
ENDBRANCH  48  62
BRANCH  49  73
ATOM     73  C   UNL A   1      46.435  30.563  27.573  1.00  0.00     0.023 A 
ATOM     74  C   UNL A   1      45.613  31.435  26.823  1.00  0.00     0.031 A 
ATOM     75  C   UNL A   1      47.777  30.976  27.753  1.00  0.00     0.131 A 
ATOM     76  C   UNL A   1      46.138  32.643  26.295  1.00  0.00     0.055 A 
ATOM     77  C   UNL A   1      48.291  32.163  27.224  1.00  0.00     0.041 A 
ATOM     78  F   UNL A   1      48.625  30.281  28.528  1.00  0.00    -0.206 F 
ATOM     79  C   UNL A   1      47.470  33.010  26.501  1.00  0.00     0.022 A 
BRANCH  76  80
ATOM     80  S   UNL A   1      45.064  33.827  25.413  1.00  0.00     0.124 S 
ATOM     81  O   UNL A   1      44.413  34.530  26.512  1.00  0.00    -0.237 OA
ATOM     82  O   UNL A   1      46.021  34.597  24.627  1.00  0.00    -0.237 OA
ATOM     83  O   UNL A   1      44.181  32.964  24.625  1.00  0.00    -0.744 OA
ENDBRANCH  76  80
ENDBRANCH  49  73
BRANCH  61  84
ATOM     84  C   UNL A   1      45.968  25.678  31.615  1.00  0.00     0.023 A 
ATOM     85  C   UNL A   1      47.142  25.560  32.396  1.00  0.00     0.031 A 
ATOM     86  C   UNL A   1      44.876  26.357  32.187  1.00  0.00     0.131 A 
ATOM     87  C   UNL A   1      47.182  26.105  33.697  1.00  0.00     0.055 A 
ATOM     88  C   UNL A   1      44.930  26.915  33.463  1.00  0.00     0.041 A 
ATOM     89  F   UNL A   1      43.740  26.527  31.491  1.00  0.00    -0.206 F 
ATOM     90  C   UNL A   1      46.083  26.787  34.226  1.00  0.00     0.022 A 
BRANCH  87  91
ATOM     91  S   UNL A   1      48.666  25.923  34.743  1.00  0.00     0.124 S 
ATOM     92  O   UNL A   1      48.939  24.491  34.705  1.00  0.00    -0.237 OA
ATOM     93  O   UNL A   1      49.639  26.779  34.067  1.00  0.00    -0.237 OA
ATOM     94  O   UNL A   1      48.225  26.422  36.048  1.00  0.00    -0.744 OA
ENDBRANCH  87  91
ENDBRANCH  61  84
ENDBRANCH  35  36
ENDBRANCH  27  30
ENDBRANCH  25  26
ENDBRANCH   1  25
TORSDOF 15
ENDMDL
MODEL 2
REMARK VINA RESULT:     -12.9      4.187      9.412
REMARK SMILES C[C@H]1OCC[C@@H]1C(=O)Nc1sc2c(c1C(=O)NCCCNC(=O)c1ccc(-c3c4nc(c(-c5cc(S(=O)(=O)[O-])ccc5F)c5ccc([nH]5)c(-c5cc(S(=O)(=O)[O-])ccc5F)c5nc(c(-c6cc(S(=O)(=O)[O-])ccc6F)c6ccc3[nH]6)C=C5)C=C4)cc1)CCC2
REMARK SMILES IDX 19 1 18 2 17 3 15 4 16 5 14 7 10 8 11 9 12 10 13 11 89 12
REMARK SMILES IDX 87 13 88 14 9 15 7 16 8 17 6 19 1 20 2 21 3 22 4 23 5 24
REMARK SMILES IDX 20 25 21 26 22 27 23 29 24 30 25 31 86 32 26 33 85 34 27 35
REMARK SMILES IDX 28 36 29 37 79 38 30 39 84 40 78 41 80 42 31 43 83 44 77 45
REMARK SMILES IDX 76 46 32 48 64 49 44 50 63 51 45 52 48 53 62 54 81 55 46 56
REMARK SMILES IDX 47 57 61 59 82 60 49 61 33 62 34 63 42 64 35 65 41 66 43 67
REMARK SMILES IDX 40 68 36 69 37 70 38 71 39 72 65 73 66 74 74 75 67 76 73 77
REMARK SMILES IDX 75 78 72 79 68 80 69 81 70 82 71 83 50 84 51 85 59 86 52 87
REMARK SMILES IDX 58 88 60 89 57 90 53 91 54 92 55 93 56 94
REMARK H PARENT 17 6 9 18 21 28 80 47 48 58
REMARK Flexibility Score: inf
ROOT
ATOM      1  C   UNL A   1      37.787  19.647  24.904  1.00  0.00     0.042 C 
ENDROOT
BRANCH   1   2
ATOM      2  C   UNL A   1      36.681  20.682  24.707  1.00  0.00     0.118 C 
BRANCH   2   3
ATOM      3  N   UNL A   1      36.369  21.461  25.880  1.00  0.00    -0.352 N 
ATOM      4  C   UNL A   1      35.181  21.949  26.362  1.00  0.00     0.254 C 
ATOM      5  O   UNL A   1      35.127  22.019  27.595  1.00  0.00    -0.269 OA
ATOM      6  H   UNL A   1      37.150  21.683  26.435  1.00  0.00     0.163 HD
BRANCH   4   7
ATOM      7  C   UNL A   1      34.042  22.383  25.541  1.00  0.00     0.078 A 
ATOM      8  C   UNL A   1      32.972  21.502  25.322  1.00  0.00     0.108 A 
ATOM      9  S   UNL A   1      32.023  21.892  23.945  1.00  0.00    -0.122 S 
ATOM     10  C   UNL A   1      32.759  23.378  23.862  1.00  0.00     0.011 A 
ATOM     11  C   UNL A   1      33.779  23.567  24.763  1.00  0.00    -0.019 A 
ATOM     12  C   UNL A   1      32.527  24.501  22.923  1.00  0.00     0.047 C 
ATOM     13  C   UNL A   1      34.351  24.923  24.533  1.00  0.00     0.038 C 
ATOM     14  C   UNL A   1      33.297  25.630  23.639  1.00  0.00     0.010 C 
BRANCH   8  15
ATOM     15  N   UNL A   1      32.589  20.293  25.846  1.00  0.00    -0.317 N 
ATOM     16  C   UNL A   1      32.671  19.031  25.345  1.00  0.00     0.230 C 
ATOM     17  O   UNL A   1      32.223  18.135  26.079  1.00  0.00    -0.274 OA
ATOM     18  H   UNL A   1      32.183  20.348  26.741  1.00  0.00     0.170 HD
BRANCH  16  19
ATOM     19  C   UNL A   1      33.389  18.610  24.063  1.00  0.00     0.110 C 
ATOM     20  C   UNL A   1      32.530  18.494  21.686  1.00  0.00     0.039 C 
ATOM     21  C   UNL A   1      32.510  17.854  23.075  1.00  0.00     0.127 C 
ATOM     22  O   UNL A   1      33.053  16.528  22.984  1.00  0.00    -0.378 OA
ATOM     23  C   UNL A   1      34.451  16.610  23.277  1.00  0.00     0.161 C 
ATOM     24  C   UNL A   1      34.646  17.788  24.205  1.00  0.00     0.044 C 
ENDBRANCH  16  19
ENDBRANCH   8  15
ENDBRANCH   4   7
ENDBRANCH   2   3
ENDBRANCH   1   2
BRANCH   1  25
ATOM     25  C   UNL A   1      38.994  20.216  25.623  1.00  0.00     0.118 C 
BRANCH  25  26
ATOM     26  N   UNL A   1      40.067  19.222  25.738  1.00  0.00    -0.352 N 
ATOM     27  C   UNL A   1      41.411  19.420  25.964  1.00  0.00     0.251 C 
ATOM     28  H   UNL A   1      39.788  18.283  25.641  1.00  0.00     0.163 HD
ATOM     29  O   UNL A   1      42.215  18.522  25.719  1.00  0.00    -0.269 OA
BRANCH  27  30
ATOM     30  C   UNL A   1      41.863  20.718  26.482  1.00  0.00     0.039 A 
ATOM     31  C   UNL A   1      42.280  21.739  25.622  1.00  0.00     0.014 A 
ATOM     32  C   UNL A   1      41.820  20.918  27.858  1.00  0.00     0.014 A 
ATOM     33  C   UNL A   1      42.569  22.991  26.157  1.00  0.00     0.010 A 
ATOM     34  C   UNL A   1      41.936  22.186  28.359  1.00  0.00     0.010 A 
ATOM     35  C   UNL A   1      42.373  23.213  27.528  1.00  0.00    -0.014 A 
BRANCH  35  36
ATOM     36  C   UNL A   1      42.465  24.551  28.105  1.00  0.00     0.031 A 
ATOM     37  C   UNL A   1      41.178  25.300  28.118  1.00  0.00     0.074 A 
ATOM     38  C   UNL A   1      43.545  24.936  28.825  1.00  0.00     0.049 A 
ATOM     39  N   UNL A   1      40.904  26.412  27.523  1.00  0.00    -0.248 NA
ATOM     40  C   UNL A   1      39.998  24.658  28.729  1.00  0.00     0.031 C 
ATOM     41  C   UNL A   1      44.746  24.147  29.125  1.00  0.00     0.029 A 
ATOM     42  N   UNL A   1      43.731  26.047  29.586  1.00  0.00    -0.354 N 
ATOM     43  C   UNL A   1      39.608  26.741  27.907  1.00  0.00     0.074 A 
ATOM     44  C   UNL A   1      39.035  25.532  28.431  1.00  0.00     0.031 C 
ATOM     45  C   UNL A   1      45.374  24.670  30.199  1.00  0.00     0.029 A 
ATOM     46  C   UNL A   1      44.718  25.912  30.565  1.00  0.00     0.049 A 
ATOM     47  H   UNL A   1      43.215  26.875  29.458  1.00  0.00     0.167 HD
ATOM     48  C   UNL A   1      39.216  28.043  28.015  1.00  0.00     0.034 A 
ATOM     49  C   UNL A   1      44.940  26.726  31.634  1.00  0.00     0.034 A 
ATOM     50  C   UNL A   1      40.151  28.916  27.336  1.00  0.00     0.049 A 
ATOM     51  C   UNL A   1      44.323  28.036  31.292  1.00  0.00     0.074 A 
ATOM     52  C   UNL A   1      40.645  28.977  26.046  1.00  0.00     0.029 A 
ATOM     53  N   UNL A   1      41.035  29.647  28.102  1.00  0.00    -0.354 N 
ATOM     54  N   UNL A   1      44.728  28.777  30.296  1.00  0.00    -0.248 NA
ATOM     55  C   UNL A   1      42.950  28.269  31.714  1.00  0.00     0.031 C 
ATOM     56  C   UNL A   1      42.035  29.259  26.204  1.00  0.00     0.029 A 
ATOM     57  C   UNL A   1      42.287  29.468  27.562  1.00  0.00     0.049 A 
ATOM     58  H   UNL A   1      40.811  30.194  28.888  1.00  0.00     0.167 HD
ATOM     59  C   UNL A   1      43.565  29.218  29.682  1.00  0.00     0.074 A 
ATOM     60  C   UNL A   1      42.505  28.960  30.658  1.00  0.00     0.031 C 
ATOM     61  C   UNL A   1      43.516  29.465  28.337  1.00  0.00     0.034 A 
BRANCH  48  62
ATOM     62  C   UNL A   1      38.229  28.571  29.038  1.00  0.00     0.023 A 
ATOM     63  C   UNL A   1      37.346  29.579  28.610  1.00  0.00     0.031 A 
ATOM     64  C   UNL A   1      38.292  28.371  30.436  1.00  0.00     0.131 A 
ATOM     65  C   UNL A   1      36.683  30.405  29.534  1.00  0.00     0.055 A 
ATOM     66  C   UNL A   1      37.573  29.147  31.350  1.00  0.00     0.041 A 
ATOM     67  F   UNL A   1      39.114  27.487  31.011  1.00  0.00    -0.206 F 
ATOM     68  C   UNL A   1      36.791  30.196  30.904  1.00  0.00     0.022 A 
BRANCH  65  69
ATOM     69  S   UNL A   1      35.837  31.879  28.909  1.00  0.00     0.124 S 
ATOM     70  O   UNL A   1      36.931  32.842  28.858  1.00  0.00    -0.237 OA
ATOM     71  O   UNL A   1      35.330  31.410  27.624  1.00  0.00    -0.237 OA
ATOM     72  O   UNL A   1      34.820  32.140  29.924  1.00  0.00    -0.744 OA
ENDBRANCH  65  69
ENDBRANCH  48  62
BRANCH  49  73
ATOM     73  C   UNL A   1      45.356  26.323  33.014  1.00  0.00     0.023 A 
ATOM     74  C   UNL A   1      44.558  25.512  33.852  1.00  0.00     0.031 A 
ATOM     75  C   UNL A   1      46.683  26.553  33.453  1.00  0.00     0.131 A 
ATOM     76  C   UNL A   1      45.088  24.977  35.055  1.00  0.00     0.055 A 
ATOM     77  C   UNL A   1      47.198  26.030  34.643  1.00  0.00     0.041 A 
ATOM     78  F   UNL A   1      47.564  27.225  32.695  1.00  0.00    -0.206 F 
ATOM     79  C   UNL A   1      46.406  25.230  35.445  1.00  0.00     0.022 A 
BRANCH  76  80
ATOM     80  S   UNL A   1      44.103  23.845  36.094  1.00  0.00     0.124 S 
ATOM     81  O   UNL A   1      43.466  24.763  37.031  1.00  0.00    -0.237 OA
ATOM     82  O   UNL A   1      43.229  23.202  35.120  1.00  0.00    -0.237 OA
ATOM     83  O   UNL A   1      45.110  22.962  36.686  1.00  0.00    -0.744 OA
ENDBRANCH  76  80
ENDBRANCH  49  73
BRANCH  61  84
ATOM     84  C   UNL A   1      44.815  29.529  27.550  1.00  0.00     0.023 A 
ATOM     85  C   UNL A   1      45.376  28.461  26.810  1.00  0.00     0.031 A 
ATOM     86  C   UNL A   1      45.433  30.788  27.439  1.00  0.00     0.131 A 
ATOM     87  C   UNL A   1      46.515  28.680  26.008  1.00  0.00     0.055 A 
ATOM     88  C   UNL A   1      46.543  31.005  26.625  1.00  0.00     0.041 A 
ATOM     89  F   UNL A   1      44.937  31.851  28.094  1.00  0.00    -0.206 F 
ATOM     90  C   UNL A   1      47.093  29.949  25.909  1.00  0.00     0.022 A 
BRANCH  87  91
ATOM     91  S   UNL A   1      47.287  27.309  25.084  1.00  0.00     0.124 S 
ATOM     92  O   UNL A   1      46.149  26.511  24.640  1.00  0.00    -0.237 OA
ATOM     93  O   UNL A   1      48.027  28.008  24.036  1.00  0.00    -0.237 OA
ATOM     94  O   UNL A   1      48.131  26.655  26.087  1.00  0.00    -0.744 OA
ENDBRANCH  87  91
ENDBRANCH  61  84
ENDBRANCH  35  36
ENDBRANCH  27  30
ENDBRANCH  25  26
ENDBRANCH   1  25
TORSDOF 15
ENDMDL
MODEL 3
REMARK VINA RESULT:     -12.9      2.343      6.793
REMARK SMILES C[C@H]1OCC[C@@H]1C(=O)Nc1sc2c(c1C(=O)NCCCNC(=O)c1ccc(-c3c4nc(c(-c5cc(S(=O)(=O)[O-])ccc5F)c5ccc([nH]5)c(-c5cc(S(=O)(=O)[O-])ccc5F)c5nc(c(-c6cc(S(=O)(=O)[O-])ccc6F)c6ccc3[nH]6)C=C5)C=C4)cc1)CCC2
REMARK SMILES IDX 19 1 18 2 17 3 15 4 16 5 14 7 10 8 11 9 12 10 13 11 89 12
REMARK SMILES IDX 87 13 88 14 9 15 7 16 8 17 6 19 1 20 2 21 3 22 4 23 5 24
REMARK SMILES IDX 20 25 21 26 22 27 23 29 24 30 25 31 86 32 26 33 85 34 27 35
REMARK SMILES IDX 28 36 29 37 79 38 30 39 84 40 78 41 80 42 31 43 83 44 77 45
REMARK SMILES IDX 76 46 32 48 64 49 44 50 63 51 45 52 48 53 62 54 81 55 46 56
REMARK SMILES IDX 47 57 61 59 82 60 49 61 33 62 34 63 42 64 35 65 41 66 43 67
REMARK SMILES IDX 40 68 36 69 37 70 38 71 39 72 65 73 66 74 74 75 67 76 73 77
REMARK SMILES IDX 75 78 72 79 68 80 69 81 70 82 71 83 50 84 51 85 59 86 52 87
REMARK SMILES IDX 58 88 60 89 57 90 53 91 54 92 55 93 56 94
REMARK H PARENT 17 6 9 18 21 28 80 47 48 58
REMARK Flexibility Score: inf
ROOT
ATOM      1  C   UNL A   1      34.365  29.619  27.658  1.00  0.00     0.042 C 
ENDROOT
BRANCH   1   2
ATOM      2  C   UNL A   1      33.426  29.146  26.549  1.00  0.00     0.118 C 
BRANCH   2   3
ATOM      3  N   UNL A   1      34.041  29.025  25.250  1.00  0.00    -0.352 N 
ATOM      4  C   UNL A   1      33.568  28.535  24.059  1.00  0.00     0.254 C 
ATOM      5  O   UNL A   1      34.038  29.093  23.062  1.00  0.00    -0.269 OA
ATOM      6  H   UNL A   1      34.967  29.353  25.211  1.00  0.00     0.163 HD
BRANCH   4   7
ATOM      7  C   UNL A   1      32.603  27.437  23.912  1.00  0.00     0.078 A 
ATOM      8  C   UNL A   1      31.506  27.590  23.051  1.00  0.00     0.108 A 
ATOM      9  S   UNL A   1      30.205  26.522  23.387  1.00  0.00    -0.122 S 
ATOM     10  C   UNL A   1      31.194  25.633  24.381  1.00  0.00     0.011 A 
ATOM     11  C   UNL A   1      32.448  26.163  24.568  1.00  0.00    -0.019 A 
ATOM     12  C   UNL A   1      30.909  24.396  25.145  1.00  0.00     0.047 C 
ATOM     13  C   UNL A   1      33.189  25.273  25.505  1.00  0.00     0.038 C 
ATOM     14  C   UNL A   1      32.339  23.974  25.542  1.00  0.00     0.010 C 
BRANCH   8  15
ATOM     15  N   UNL A   1      31.142  28.508  22.098  1.00  0.00    -0.317 N 
ATOM     16  C   UNL A   1      30.085  29.361  22.030  1.00  0.00     0.230 C 
ATOM     17  O   UNL A   1      30.038  30.073  21.014  1.00  0.00    -0.274 OA
ATOM     18  H   UNL A   1      31.754  28.560  21.328  1.00  0.00     0.170 HD
BRANCH  16  19
ATOM     19  C   UNL A   1      29.062  29.626  23.133  1.00  0.00     0.110 C 
ATOM     20  C   UNL A   1      26.859  28.477  23.613  1.00  0.00     0.039 C 
ATOM     21  C   UNL A   1      27.613  29.443  22.699  1.00  0.00     0.127 C 
ATOM     22  O   UNL A   1      27.000  30.739  22.784  1.00  0.00    -0.378 OA
ATOM     23  C   UNL A   1      27.696  31.483  23.789  1.00  0.00     0.161 C 
ATOM     24  C   UNL A   1      29.115  30.963  23.829  1.00  0.00     0.044 C 
ENDBRANCH  16  19
ENDBRANCH   8  15
ENDBRANCH   4   7
ENDBRANCH   2   3
ENDBRANCH   1   2
BRANCH   1  25
ATOM     25  C   UNL A   1      34.679  31.100  27.560  1.00  0.00     0.118 C 
BRANCH  25  26
ATOM     26  N   UNL A   1      34.579  31.755  28.869  1.00  0.00    -0.352 N 
ATOM     27  C   UNL A   1      35.397  31.622  29.969  1.00  0.00     0.251 C 
ATOM     28  H   UNL A   1      33.824  32.376  28.976  1.00  0.00     0.163 HD
ATOM     29  O   UNL A   1      35.004  31.987  31.076  1.00  0.00    -0.269 OA
BRANCH  27  30
ATOM     30  C   UNL A   1      36.729  31.025  29.799  1.00  0.00     0.039 A 
ATOM     31  C   UNL A   1      37.861  31.820  29.596  1.00  0.00     0.014 A 
ATOM     32  C   UNL A   1      36.837  29.641  29.892  1.00  0.00     0.014 A 
ATOM     33  C   UNL A   1      39.114  31.213  29.575  1.00  0.00     0.010 A 
ATOM     34  C   UNL A   1      38.071  29.070  30.043  1.00  0.00     0.010 A 
ATOM     35  C   UNL A   1      39.211  29.836  29.822  1.00  0.00    -0.014 A 
BRANCH  35  36
ATOM     36  C   UNL A   1      40.504  29.184  30.012  1.00  0.00     0.031 A 
ATOM     37  C   UNL A   1      40.807  28.831  31.427  1.00  0.00     0.074 A 
ATOM     38  C   UNL A   1      41.204  28.687  28.966  1.00  0.00     0.049 A 
ATOM     39  N   UNL A   1      41.781  29.259  32.158  1.00  0.00    -0.248 NA
ATOM     40  C   UNL A   1      39.820  28.034  32.179  1.00  0.00     0.031 C 
ATOM     41  C   UNL A   1      40.833  28.721  27.546  1.00  0.00     0.029 A 
ATOM     42  N   UNL A   1      42.311  27.896  28.958  1.00  0.00    -0.354 N 
ATOM     43  C   UNL A   1      41.680  28.578  33.367  1.00  0.00     0.074 A 
ATOM     44  C   UNL A   1      40.347  28.043  33.405  1.00  0.00     0.031 C 
ATOM     45  C   UNL A   1      41.518  27.769  26.878  1.00  0.00     0.029 A 
ATOM     46  C   UNL A   1      42.485  27.169  27.779  1.00  0.00     0.049 A 
ATOM     47  H   UNL A   1      42.934  27.841  29.717  1.00  0.00     0.167 HD
ATOM     48  C   UNL A   1      42.790  28.281  34.102  1.00  0.00     0.034 A 
ATOM     49  C   UNL A   1      43.318  26.111  27.575  1.00  0.00     0.034 A 
ATOM     50  C   UNL A   1      43.920  29.073  33.663  1.00  0.00     0.049 A 
ATOM     51  C   UNL A   1      44.368  26.202  28.624  1.00  0.00     0.074 A 
ATOM     52  C   UNL A   1      44.146  30.430  33.523  1.00  0.00     0.029 A 
ATOM     53  N   UNL A   1      44.885  28.460  32.892  1.00  0.00    -0.354 N 
ATOM     54  N   UNL A   1      45.208  27.198  28.708  1.00  0.00    -0.248 NA
ATOM     55  C   UNL A   1      44.151  25.475  29.866  1.00  0.00     0.031 C 
ATOM     56  C   UNL A   1      44.852  30.554  32.290  1.00  0.00     0.029 A 
ATOM     57  C   UNL A   1      45.117  29.271  31.807  1.00  0.00     0.049 A 
ATOM     58  H   UNL A   1      45.327  27.602  33.084  1.00  0.00     0.167 HD
ATOM     59  C   UNL A   1      45.264  27.506  30.059  1.00  0.00     0.074 A 
ATOM     60  C   UNL A   1      44.675  26.348  30.733  1.00  0.00     0.031 C 
ATOM     61  C   UNL A   1      45.496  28.784  30.491  1.00  0.00     0.034 A 
BRANCH  48  62
ATOM     62  C   UNL A   1      42.968  27.029  34.937  1.00  0.00     0.023 A 
ATOM     63  C   UNL A   1      43.764  26.005  34.390  1.00  0.00     0.031 A 
ATOM     64  C   UNL A   1      42.196  26.662  36.064  1.00  0.00     0.131 A 
ATOM     65  C   UNL A   1      43.680  24.686  34.867  1.00  0.00     0.055 A 
ATOM     66  C   UNL A   1      42.171  25.363  36.581  1.00  0.00     0.041 A 
ATOM     67  F   UNL A   1      41.352  27.500  36.675  1.00  0.00    -0.206 F 
ATOM     68  C   UNL A   1      42.887  24.356  35.960  1.00  0.00     0.022 A 
BRANCH  65  69
ATOM     69  S   UNL A   1      44.475  23.377  33.900  1.00  0.00     0.124 S 
ATOM     70  O   UNL A   1      43.638  23.349  32.706  1.00  0.00    -0.237 OA
ATOM     71  O   UNL A   1      45.823  23.908  33.731  1.00  0.00    -0.237 OA
ATOM     72  O   UNL A   1      44.368  22.206  34.767  1.00  0.00    -0.744 OA
ENDBRANCH  65  69
ENDBRANCH  48  62
BRANCH  49  73
ATOM     73  C   UNL A   1      43.054  24.891  26.747  1.00  0.00     0.023 A 
ATOM     74  C   UNL A   1      43.953  24.420  25.764  1.00  0.00     0.031 A 
ATOM     75  C   UNL A   1      41.988  24.021  27.082  1.00  0.00     0.131 A 
ATOM     76  C   UNL A   1      43.766  23.146  25.167  1.00  0.00     0.055 A 
ATOM     77  C   UNL A   1      41.804  22.771  26.485  1.00  0.00     0.041 A 
ATOM     78  F   UNL A   1      41.129  24.316  28.070  1.00  0.00    -0.206 F 
ATOM     79  C   UNL A   1      42.699  22.321  25.532  1.00  0.00     0.022 A 
BRANCH  76  80
ATOM     80  S   UNL A   1      44.975  22.482  23.971  1.00  0.00     0.124 S 
ATOM     81  O   UNL A   1      44.158  22.294  22.779  1.00  0.00    -0.237 OA
ATOM     82  O   UNL A   1      45.975  23.542  23.912  1.00  0.00    -0.237 OA
ATOM     83  O   UNL A   1      45.436  21.245  24.604  1.00  0.00    -0.744 OA
ENDBRANCH  76  80
ENDBRANCH  49  73
BRANCH  61  84
ATOM     84  C   UNL A   1      45.975  29.826  29.494  1.00  0.00     0.023 A 
ATOM     85  C   UNL A   1      45.148  30.530  28.586  1.00  0.00     0.031 A 
ATOM     86  C   UNL A   1      47.324  30.218  29.577  1.00  0.00     0.131 A 
ATOM     87  C   UNL A   1      45.686  31.573  27.803  1.00  0.00     0.055 A 
ATOM     88  C   UNL A   1      47.845  31.266  28.820  1.00  0.00     0.041 A 
ATOM     89  F   UNL A   1      48.158  29.610  30.437  1.00  0.00    -0.206 F 
ATOM     90  C   UNL A   1      47.028  31.945  27.924  1.00  0.00     0.022 A 
BRANCH  87  91
ATOM     91  S   UNL A   1      44.654  32.461  26.589  1.00  0.00     0.124 S 
ATOM     92  O   UNL A   1      43.785  31.421  26.052  1.00  0.00    -0.237 OA
ATOM     93  O   UNL A   1      44.003  33.480  27.411  1.00  0.00    -0.237 OA
ATOM     94  O   UNL A   1      45.631  32.989  25.633  1.00  0.00    -0.744 OA
ENDBRANCH  87  91
ENDBRANCH  61  84
ENDBRANCH  35  36
ENDBRANCH  27  30
ENDBRANCH  25  26
ENDBRANCH   1  25
TORSDOF 15
ENDMDL
