MODEL 1
REMARK VINA RESULT:     -12.7      0.000      0.000
REMARK SMILES O=C(NCCCNC(=O)c1cccn1CC(=O)N1CCS(=O)CC1)c1ccc(-c2c3nc(c(-c4cc(S(=O)(=O)[O-])ccc4F)c4ccc([nH]4)c(-c4cc(S(=O)(=O)[O-])ccc4F)c4nc(c(-c5cc(S(=O)(=O)[O-])ccc5F)c5ccc2[nH]5)C=C4)C=C3)cc1
REMARK SMILES IDX 4 1 3 2 1 3 2 4 25 6 26 7 87 8 27 9 86 10 28 11 29 12 30 13
REMARK SMILES IDX 80 14 31 15 85 16 79 17 81 18 32 19 84 20 78 21 77 22 33 24
REMARK SMILES IDX 65 25 45 26 64 27 46 28 49 29 63 30 82 31 47 32 48 33 62 35
REMARK SMILES IDX 83 36 50 37 34 38 35 39 43 40 36 41 42 42 44 43 41 44 37 45
REMARK SMILES IDX 38 46 39 47 40 48 66 49 67 50 75 51 68 52 74 53 76 54 73 55
REMARK SMILES IDX 69 56 70 57 71 58 72 59 51 60 52 61 60 62 53 63 59 64 61 65
REMARK SMILES IDX 58 66 54 67 55 68 56 69 57 70 5 71 6 72 7 73 8 74 9 76 10 77
REMARK SMILES IDX 11 78 14 79 12 80 13 81 15 82 16 83 17 84 18 85 19 86 24 87
REMARK SMILES IDX 20 88 23 89 21 90 22 91
REMARK H PARENT 3 5 81 23 49 34 7 75
REMARK Flexibility Score: inf
ROOT
ATOM      1  C   UNL A   1      37.659  23.890  26.139  1.00  0.00     0.118 C 
ENDROOT
BRANCH   1   2
ATOM      2  N   UNL A   1      38.906  23.364  26.650  1.00  0.00    -0.352 N 
ATOM      3  O   UNL A   1      40.718  23.167  27.948  1.00  0.00    -0.269 OA
ATOM      4  C   UNL A   1      39.821  23.894  27.528  1.00  0.00     0.251 C 
ATOM      5  H   UNL A   1      39.141  22.471  26.309  1.00  0.00     0.163 HD
BRANCH   4   6
ATOM      6  C   UNL A   1      39.813  25.334  27.886  1.00  0.00     0.039 A 
ATOM      7  C   UNL A   1      39.441  25.819  29.145  1.00  0.00     0.014 A 
ATOM      8  C   UNL A   1      40.188  26.234  26.878  1.00  0.00     0.014 A 
ATOM      9  C   UNL A   1      39.346  27.192  29.367  1.00  0.00     0.010 A 
ATOM     10  C   UNL A   1      40.137  27.609  27.107  1.00  0.00     0.010 A 
ATOM     11  C   UNL A   1      39.716  28.089  28.355  1.00  0.00    -0.014 A 
BRANCH  11  12
ATOM     12  C   UNL A   1      40.000  29.496  28.743  1.00  0.00     0.031 A 
ATOM     13  C   UNL A   1      38.664  30.239  29.084  1.00  0.00     0.074 A 
ATOM     14  C   UNL A   1      41.311  29.908  28.743  1.00  0.00     0.049 A 
ATOM     15  N   UNL A   1      38.401  31.505  29.191  1.00  0.00    -0.248 NA
ATOM     16  C   UNL A   1      37.409  29.442  29.284  1.00  0.00     0.031 C 
ATOM     17  C   UNL A   1      42.483  29.068  28.379  1.00  0.00     0.029 A 
ATOM     18  N   UNL A   1      41.941  31.102  29.048  1.00  0.00    -0.354 N 
ATOM     19  C   UNL A   1      37.090  31.631  29.731  1.00  0.00     0.074 A 
ATOM     20  C   UNL A   1      36.487  30.344  29.626  1.00  0.00     0.031 C 
ATOM     21  C   UNL A   1      43.636  29.786  28.402  1.00  0.00     0.029 A 
ATOM     22  C   UNL A   1      43.359  31.143  28.837  1.00  0.00     0.049 A 
ATOM     23  H   UNL A   1      41.444  31.880  29.391  1.00  0.00     0.167 HD
ATOM     24  C   UNL A   1      36.644  32.749  30.383  1.00  0.00     0.034 A 
ATOM     25  C   UNL A   1      44.229  32.198  29.003  1.00  0.00     0.034 A 
ATOM     26  C   UNL A   1      37.651  33.750  30.341  1.00  0.00     0.049 A 
ATOM     27  C   UNL A   1      43.427  33.181  29.744  1.00  0.00     0.074 A 
ATOM     28  C   UNL A   1      38.151  34.505  29.317  1.00  0.00     0.029 A 
ATOM     29  N   UNL A   1      38.507  33.808  31.417  1.00  0.00    -0.354 N 
ATOM     30  N   UNL A   1      43.097  33.059  30.993  1.00  0.00    -0.248 NA
ATOM     31  C   UNL A   1      42.944  34.379  29.048  1.00  0.00     0.031 C 
ATOM     32  C   UNL A   1      39.525  34.534  29.609  1.00  0.00     0.029 A 
ATOM     33  C   UNL A   1      39.753  34.038  30.902  1.00  0.00     0.049 A 
ATOM     34  H   UNL A   1      38.269  33.704  32.367  1.00  0.00     0.167 HD
ATOM     35  C   UNL A   1      42.099  33.985  31.124  1.00  0.00     0.074 A 
ATOM     36  C   UNL A   1      42.292  34.950  30.059  1.00  0.00     0.031 C 
ATOM     37  C   UNL A   1      40.910  33.594  31.649  1.00  0.00     0.034 A 
BRANCH  24  38
ATOM     38  C   UNL A   1      35.476  33.037  31.294  1.00  0.00     0.023 A 
ATOM     39  C   UNL A   1      34.669  34.153  30.942  1.00  0.00     0.031 A 
ATOM     40  C   UNL A   1      35.326  32.551  32.597  1.00  0.00     0.131 A 
ATOM     41  C   UNL A   1      33.888  34.826  31.890  1.00  0.00     0.055 A 
ATOM     42  C   UNL A   1      34.486  33.184  33.528  1.00  0.00     0.041 A 
ATOM     43  F   UNL A   1      36.046  31.513  33.045  1.00  0.00    -0.206 F 
ATOM     44  C   UNL A   1      33.796  34.349  33.191  1.00  0.00     0.022 A 
BRANCH  41  45
ATOM     45  S   UNL A   1      33.171  36.433  31.431  1.00  0.00     0.124 S 
ATOM     46  O   UNL A   1      34.040  37.374  32.127  1.00  0.00    -0.237 OA
ATOM     47  O   UNL A   1      33.288  36.413  29.975  1.00  0.00    -0.237 OA
ATOM     48  O   UNL A   1      31.804  36.353  31.944  1.00  0.00    -0.744 OA
ENDBRANCH  41  45
ENDBRANCH  24  38
BRANCH  25  49
ATOM     49  C   UNL A   1      45.663  32.676  28.721  1.00  0.00     0.023 A 
ATOM     50  C   UNL A   1      46.111  33.474  27.653  1.00  0.00     0.031 A 
ATOM     51  C   UNL A   1      46.676  32.412  29.710  1.00  0.00     0.131 A 
ATOM     52  C   UNL A   1      47.436  34.020  27.670  1.00  0.00     0.055 A 
ATOM     53  C   UNL A   1      47.920  33.037  29.777  1.00  0.00     0.041 A 
ATOM     54  F   UNL A   1      46.505  31.516  30.692  1.00  0.00    -0.206 F 
ATOM     55  C   UNL A   1      48.303  33.865  28.756  1.00  0.00     0.022 A 
BRANCH  52  56
ATOM     56  S   UNL A   1      48.105  34.975  26.270  1.00  0.00     0.124 S 
ATOM     57  O   UNL A   1      49.040  35.874  26.938  1.00  0.00    -0.237 OA
ATOM     58  O   UNL A   1      48.697  33.945  25.424  1.00  0.00    -0.237 OA
ATOM     59  O   UNL A   1      46.919  35.624  25.708  1.00  0.00    -0.744 OA
ENDBRANCH  52  56
ENDBRANCH  25  49
BRANCH  37  60
ATOM     60  C   UNL A   1      40.986  32.425  32.635  1.00  0.00     0.023 A 
ATOM     61  C   UNL A   1      40.602  31.130  32.230  1.00  0.00     0.031 A 
ATOM     62  C   UNL A   1      41.340  32.552  33.991  1.00  0.00     0.131 A 
ATOM     63  C   UNL A   1      40.552  30.059  33.148  1.00  0.00     0.055 A 
ATOM     64  C   UNL A   1      41.291  31.491  34.908  1.00  0.00     0.041 A 
ATOM     65  F   UNL A   1      41.753  33.714  34.487  1.00  0.00    -0.206 F 
ATOM     66  C   UNL A   1      40.891  30.234  34.488  1.00  0.00     0.022 A 
BRANCH  63  67
ATOM     67  S   UNL A   1      40.075  28.407  32.565  1.00  0.00     0.124 S 
ATOM     68  O   UNL A   1      40.164  27.601  33.776  1.00  0.00    -0.237 OA
ATOM     69  O   UNL A   1      38.731  28.634  32.042  1.00  0.00    -0.237 OA
ATOM     70  O   UNL A   1      41.081  28.100  31.546  1.00  0.00    -0.744 OA
ENDBRANCH  63  67
ENDBRANCH  37  60
ENDBRANCH  11  12
ENDBRANCH   4   6
ENDBRANCH   1   2
BRANCH   1  71
ATOM     71  C   UNL A   1      36.973  23.054  25.060  1.00  0.00     0.042 C 
BRANCH  71  72
ATOM     72  C   UNL A   1      36.576  21.632  25.439  1.00  0.00     0.118 C 
BRANCH  72  73
ATOM     73  N   UNL A   1      35.577  21.584  26.492  1.00  0.00    -0.351 N 
ATOM     74  C   UNL A   1      34.251  21.240  26.488  1.00  0.00     0.267 C 
ATOM     75  H   UNL A   1      35.918  21.847  27.377  1.00  0.00     0.163 HD
ATOM     76  O   UNL A   1      33.638  21.435  27.536  1.00  0.00    -0.268 OA
BRANCH  74  77
ATOM     77  C   UNL A   1      33.623  20.692  25.301  1.00  0.00     0.107 A 
ATOM     78  C   UNL A   1      33.488  19.361  24.924  1.00  0.00     0.033 A 
ATOM     79  N   UNL A   1      32.912  21.428  24.357  1.00  0.00    -0.334 N 
ATOM     80  C   UNL A   1      32.689  19.294  23.761  1.00  0.00     0.020 A 
ATOM     81  C   UNL A   1      32.316  20.580  23.453  1.00  0.00     0.087 A 
BRANCH  79  82
ATOM     82  C   UNL A   1      32.686  22.866  24.377  1.00  0.00     0.222 C 
BRANCH  82  83
ATOM     83  C   UNL A   1      33.521  23.780  23.490  1.00  0.00     0.242 C 
ATOM     84  O   UNL A   1      34.313  23.246  22.702  1.00  0.00    -0.273 OA
ATOM     85  N   UNL A   1      33.195  25.118  23.340  1.00  0.00    -0.339 N 
ATOM     86  C   UNL A   1      33.289  25.737  22.016  1.00  0.00     0.133 C 
ATOM     87  C   UNL A   1      32.785  26.047  24.389  1.00  0.00     0.133 C 
ATOM     88  C   UNL A   1      31.898  26.141  21.531  1.00  0.00     0.126 C 
ATOM     89  C   UNL A   1      31.361  26.502  24.176  1.00  0.00     0.126 C 
ATOM     90  S   UNL A   1      31.135  27.397  22.608  1.00  0.00     0.025 S 
ATOM     91  O   UNL A   1      32.027  28.600  22.619  1.00  0.00    -0.259 OA
ENDBRANCH  82  83
ENDBRANCH  79  82
ENDBRANCH  74  77
ENDBRANCH  72  73
ENDBRANCH  71  72
ENDBRANCH   1  71
TORSDOF 15
ENDMDL
MODEL 2
REMARK VINA RESULT:     -12.6      0.972      1.588
REMARK SMILES O=C(NCCCNC(=O)c1cccn1CC(=O)N1CCS(=O)CC1)c1ccc(-c2c3nc(c(-c4cc(S(=O)(=O)[O-])ccc4F)c4ccc([nH]4)c(-c4cc(S(=O)(=O)[O-])ccc4F)c4nc(c(-c5cc(S(=O)(=O)[O-])ccc5F)c5ccc2[nH]5)C=C4)C=C3)cc1
REMARK SMILES IDX 4 1 3 2 1 3 2 4 25 6 26 7 87 8 27 9 86 10 28 11 29 12 30 13
REMARK SMILES IDX 80 14 31 15 85 16 79 17 81 18 32 19 84 20 78 21 77 22 33 24
REMARK SMILES IDX 65 25 45 26 64 27 46 28 49 29 63 30 82 31 47 32 48 33 62 35
REMARK SMILES IDX 83 36 50 37 34 38 35 39 43 40 36 41 42 42 44 43 41 44 37 45
REMARK SMILES IDX 38 46 39 47 40 48 66 49 67 50 75 51 68 52 74 53 76 54 73 55
REMARK SMILES IDX 69 56 70 57 71 58 72 59 51 60 52 61 60 62 53 63 59 64 61 65
REMARK SMILES IDX 58 66 54 67 55 68 56 69 57 70 5 71 6 72 7 73 8 74 9 76 10 77
REMARK SMILES IDX 11 78 14 79 12 80 13 81 15 82 16 83 17 84 18 85 19 86 24 87
REMARK SMILES IDX 20 88 23 89 21 90 22 91
REMARK H PARENT 3 5 81 23 49 34 7 75
REMARK Flexibility Score: inf
ROOT
ATOM      1  C   UNL A   1      37.514  23.965  26.129  1.00  0.00     0.118 C 
ENDROOT
BRANCH   1   2
ATOM      2  N   UNL A   1      38.774  23.423  26.589  1.00  0.00    -0.352 N 
ATOM      3  O   UNL A   1      40.624  23.190  27.826  1.00  0.00    -0.269 OA
ATOM      4  C   UNL A   1      39.718  23.930  27.451  1.00  0.00     0.251 C 
ATOM      5  H   UNL A   1      38.994  22.537  26.222  1.00  0.00     0.163 HD
BRANCH   4   6
ATOM      6  C   UNL A   1      39.728  25.361  27.841  1.00  0.00     0.039 A 
ATOM      7  C   UNL A   1      39.357  25.824  29.108  1.00  0.00     0.014 A 
ATOM      8  C   UNL A   1      40.120  26.278  26.854  1.00  0.00     0.014 A 
ATOM      9  C   UNL A   1      39.279  27.192  29.360  1.00  0.00     0.010 A 
ATOM     10  C   UNL A   1      40.086  27.649  27.113  1.00  0.00     0.010 A 
ATOM     11  C   UNL A   1      39.665  28.107  28.370  1.00  0.00    -0.014 A 
BRANCH  11  12
ATOM     12  C   UNL A   1      39.967  29.500  28.791  1.00  0.00     0.031 A 
ATOM     13  C   UNL A   1      38.636  30.265  29.105  1.00  0.00     0.074 A 
ATOM     14  C   UNL A   1      41.285  29.885  28.836  1.00  0.00     0.049 A 
ATOM     15  N   UNL A   1      38.396  31.535  29.226  1.00  0.00    -0.248 NA
ATOM     16  C   UNL A   1      37.360  29.492  29.255  1.00  0.00     0.031 C 
ATOM     17  C   UNL A   1      42.450  29.028  28.493  1.00  0.00     0.029 A 
ATOM     18  N   UNL A   1      41.930  31.061  29.180  1.00  0.00    -0.354 N 
ATOM     19  C   UNL A   1      37.073  31.680  29.730  1.00  0.00     0.074 A 
ATOM     20  C   UNL A   1      36.447  30.407  29.584  1.00  0.00     0.031 C 
ATOM     21  C   UNL A   1      43.616  29.720  28.561  1.00  0.00     0.029 A 
ATOM     22  C   UNL A   1      43.354  31.075  29.011  1.00  0.00     0.049 A 
ATOM     23  H   UNL A   1      41.438  31.843  29.522  1.00  0.00     0.167 HD
ATOM     24  C   UNL A   1      36.631  32.795  30.387  1.00  0.00     0.034 A 
ATOM     25  C   UNL A   1      44.240  32.109  29.222  1.00  0.00     0.034 A 
ATOM     26  C   UNL A   1      37.658  33.775  30.392  1.00  0.00     0.049 A 
ATOM     27  C   UNL A   1      43.437  33.096  29.955  1.00  0.00     0.074 A 
ATOM     28  C   UNL A   1      38.203  34.537  29.397  1.00  0.00     0.029 A 
ATOM     29  N   UNL A   1      38.483  33.798  31.493  1.00  0.00    -0.354 N 
ATOM     30  N   UNL A   1      43.067  32.960  31.191  1.00  0.00    -0.248 NA
ATOM     31  C   UNL A   1      42.999  34.316  29.266  1.00  0.00     0.031 C 
ATOM     32  C   UNL A   1      39.568  34.532  29.729  1.00  0.00     0.029 A 
ATOM     33  C   UNL A   1      39.748  34.010  31.019  1.00  0.00     0.049 A 
ATOM     34  H   UNL A   1      38.215  33.683  32.434  1.00  0.00     0.167 HD
ATOM     35  C   UNL A   1      42.085  33.904  31.310  1.00  0.00     0.074 A 
ATOM     36  C   UNL A   1      42.329  34.883  30.267  1.00  0.00     0.031 C 
ATOM     37  C   UNL A   1      40.873  33.530  31.792  1.00  0.00     0.034 A 
BRANCH  24  38
ATOM     38  C   UNL A   1      35.442  33.093  31.269  1.00  0.00     0.023 A 
ATOM     39  C   UNL A   1      34.661  34.224  30.906  1.00  0.00     0.031 A 
ATOM     40  C   UNL A   1      35.249  32.596  32.562  1.00  0.00     0.131 A 
ATOM     41  C   UNL A   1      33.864  34.900  31.838  1.00  0.00     0.055 A 
ATOM     42  C   UNL A   1      34.393  33.234  33.476  1.00  0.00     0.041 A 
ATOM     43  F   UNL A   1      35.940  31.543  33.019  1.00  0.00    -0.206 F 
ATOM     44  C   UNL A   1      33.729  34.412  33.131  1.00  0.00     0.022 A 
BRANCH  41  45
ATOM     45  S   UNL A   1      33.184  36.522  31.375  1.00  0.00     0.124 S 
ATOM     46  O   UNL A   1      33.430  36.565  29.938  1.00  0.00    -0.237 OA
ATOM     47  O   UNL A   1      31.787  36.392  31.780  1.00  0.00    -0.237 OA
ATOM     48  O   UNL A   1      33.976  37.460  32.169  1.00  0.00    -0.744 OA
ENDBRANCH  41  45
ENDBRANCH  24  38
BRANCH  25  49
ATOM     49  C   UNL A   1      45.691  32.561  28.989  1.00  0.00     0.023 A 
ATOM     50  C   UNL A   1      46.184  33.381  27.958  1.00  0.00     0.031 A 
ATOM     51  C   UNL A   1      46.673  32.244  29.995  1.00  0.00     0.131 A 
ATOM     52  C   UNL A   1      47.520  33.895  28.025  1.00  0.00     0.055 A 
ATOM     53  C   UNL A   1      47.928  32.838  30.111  1.00  0.00     0.041 A 
ATOM     54  F   UNL A   1      46.456  31.323  30.944  1.00  0.00    -0.206 F 
ATOM     55  C   UNL A   1      48.356  33.687  29.127  1.00  0.00     0.022 A 
BRANCH  52  56
ATOM     56  S   UNL A   1      48.246  34.876  26.672  1.00  0.00     0.124 S 
ATOM     57  O   UNL A   1      49.675  34.691  26.899  1.00  0.00    -0.237 OA
ATOM     58  O   UNL A   1      47.697  34.244  25.478  1.00  0.00    -0.237 OA
ATOM     59  O   UNL A   1      47.750  36.229  26.933  1.00  0.00    -0.744 OA
ENDBRANCH  52  56
ENDBRANCH  25  49
BRANCH  37  60
ATOM     60  C   UNL A   1      40.896  32.343  32.760  1.00  0.00     0.023 A 
ATOM     61  C   UNL A   1      40.569  31.049  32.303  1.00  0.00     0.031 A 
ATOM     62  C   UNL A   1      41.142  32.449  34.141  1.00  0.00     0.131 A 
ATOM     63  C   UNL A   1      40.470  29.960  33.194  1.00  0.00     0.055 A 
ATOM     64  C   UNL A   1      41.044  31.370  35.032  1.00  0.00     0.041 A 
ATOM     65  F   UNL A   1      41.494  33.610  34.688  1.00  0.00    -0.206 F 
ATOM     66  C   UNL A   1      40.701  30.115  34.560  1.00  0.00     0.022 A 
BRANCH  63  67
ATOM     67  S   UNL A   1      40.071  28.312  32.546  1.00  0.00     0.124 S 
ATOM     68  O   UNL A   1      38.730  28.495  32.006  1.00  0.00    -0.237 OA
ATOM     69  O   UNL A   1      41.133  28.092  31.569  1.00  0.00    -0.237 OA
ATOM     70  O   UNL A   1      40.145  27.453  33.729  1.00  0.00    -0.744 OA
ENDBRANCH  63  67
ENDBRANCH  37  60
ENDBRANCH  11  12
ENDBRANCH   4   6
ENDBRANCH   1   2
BRANCH   1  71
ATOM     71  C   UNL A   1      36.427  22.944  25.801  1.00  0.00     0.042 C 
BRANCH  71  72
ATOM     72  C   UNL A   1      36.494  22.283  24.429  1.00  0.00     0.118 C 
BRANCH  72  73
ATOM     73  N   UNL A   1      35.726  22.992  23.421  1.00  0.00    -0.351 N 
ATOM     74  C   UNL A   1      34.395  22.973  23.095  1.00  0.00     0.267 C 
ATOM     75  H   UNL A   1      36.263  23.604  22.867  1.00  0.00     0.163 HD
ATOM     76  O   UNL A   1      34.075  23.600  22.086  1.00  0.00    -0.268 OA
BRANCH  74  77
ATOM     77  C   UNL A   1      33.438  22.238  23.899  1.00  0.00     0.107 A 
ATOM     78  C   UNL A   1      33.100  20.891  23.836  1.00  0.00     0.033 A 
ATOM     79  N   UNL A   1      32.755  22.749  25.000  1.00  0.00    -0.334 N 
ATOM     80  C   UNL A   1      32.222  20.589  24.901  1.00  0.00     0.020 A 
ATOM     81  C   UNL A   1      32.055  21.745  25.625  1.00  0.00     0.087 A 
BRANCH  79  82
ATOM     82  C   UNL A   1      32.859  24.103  25.528  1.00  0.00     0.222 C 
BRANCH  82  83
ATOM     83  C   UNL A   1      31.604  24.940  25.730  1.00  0.00     0.242 C 
ATOM     84  O   UNL A   1      31.206  25.104  26.892  1.00  0.00    -0.273 OA
ATOM     85  N   UNL A   1      31.107  25.736  24.712  1.00  0.00    -0.339 N 
ATOM     86  C   UNL A   1      30.602  27.075  25.028  1.00  0.00     0.133 C 
ATOM     87  C   UNL A   1      30.983  25.385  23.301  1.00  0.00     0.133 C 
ATOM     88  C   UNL A   1      31.490  28.132  24.376  1.00  0.00     0.126 C 
ATOM     89  C   UNL A   1      31.886  26.248  22.451  1.00  0.00     0.126 C 
ATOM     90  S   UNL A   1      31.473  28.016  22.558  1.00  0.00     0.025 S 
ATOM     91  O   UNL A   1      30.061  28.200  22.096  1.00  0.00    -0.259 OA
ENDBRANCH  82  83
ENDBRANCH  79  82
ENDBRANCH  74  77
ENDBRANCH  72  73
ENDBRANCH  71  72
ENDBRANCH   1  71
TORSDOF 15
ENDMDL
MODEL 3
REMARK VINA RESULT:     -12.5      4.561     10.215
REMARK SMILES O=C(NCCCNC(=O)c1cccn1CC(=O)N1CCS(=O)CC1)c1ccc(-c2c3nc(c(-c4cc(S(=O)(=O)[O-])ccc4F)c4ccc([nH]4)c(-c4cc(S(=O)(=O)[O-])ccc4F)c4nc(c(-c5cc(S(=O)(=O)[O-])ccc5F)c5ccc2[nH]5)C=C4)C=C3)cc1
REMARK SMILES IDX 4 1 3 2 1 3 2 4 25 6 26 7 87 8 27 9 86 10 28 11 29 12 30 13
REMARK SMILES IDX 80 14 31 15 85 16 79 17 81 18 32 19 84 20 78 21 77 22 33 24
REMARK SMILES IDX 65 25 45 26 64 27 46 28 49 29 63 30 82 31 47 32 48 33 62 35
REMARK SMILES IDX 83 36 50 37 34 38 35 39 43 40 36 41 42 42 44 43 41 44 37 45
REMARK SMILES IDX 38 46 39 47 40 48 66 49 67 50 75 51 68 52 74 53 76 54 73 55
REMARK SMILES IDX 69 56 70 57 71 58 72 59 51 60 52 61 60 62 53 63 59 64 61 65
REMARK SMILES IDX 58 66 54 67 55 68 56 69 57 70 5 71 6 72 7 73 8 74 9 76 10 77
REMARK SMILES IDX 11 78 14 79 12 80 13 81 15 82 16 83 17 84 18 85 19 86 24 87
REMARK SMILES IDX 20 88 23 89 21 90 22 91
REMARK H PARENT 3 5 81 23 49 34 7 75
REMARK Flexibility Score: inf
ROOT
ATOM      1  C   UNL A   1      34.817  29.174  26.859  1.00  0.00     0.118 C 
ENDROOT
BRANCH   1   2
ATOM      2  N   UNL A   1      35.188  30.433  27.468  1.00  0.00    -0.352 N 
ATOM      3  O   UNL A   1      36.492  32.062  28.277  1.00  0.00    -0.269 OA
ATOM      4  C   UNL A   1      36.386  30.875  27.978  1.00  0.00     0.251 C 
ATOM      5  H   UNL A   1      34.456  31.087  27.527  1.00  0.00     0.163 HD
BRANCH   4   6
ATOM      6  C   UNL A   1      37.498  29.939  28.275  1.00  0.00     0.039 A 
ATOM      7  C   UNL A   1      38.641  29.813  27.478  1.00  0.00     0.014 A 
ATOM      8  C   UNL A   1      37.357  29.137  29.417  1.00  0.00     0.014 A 
ATOM      9  C   UNL A   1      39.586  28.828  27.758  1.00  0.00     0.010 A 
ATOM     10  C   UNL A   1      38.320  28.178  29.728  1.00  0.00     0.010 A 
ATOM     11  C   UNL A   1      39.439  28.024  28.897  1.00  0.00    -0.014 A 
BRANCH  11  12
ATOM     12  C   UNL A   1      40.635  27.292  29.391  1.00  0.00     0.031 A 
ATOM     13  C   UNL A   1      40.953  26.084  28.445  1.00  0.00     0.074 A 
ATOM     14  C   UNL A   1      41.244  27.756  30.533  1.00  0.00     0.049 A 
ATOM     15  N   UNL A   1      41.699  25.038  28.628  1.00  0.00    -0.248 NA
ATOM     16  C   UNL A   1      40.289  26.005  27.103  1.00  0.00     0.031 C 
ATOM     17  C   UNL A   1      40.806  28.931  31.332  1.00  0.00     0.029 A 
ATOM     18  N   UNL A   1      42.350  27.353  31.261  1.00  0.00    -0.354 N 
ATOM     19  C   UNL A   1      41.817  24.367  27.378  1.00  0.00     0.074 A 
ATOM     20  C   UNL A   1      40.816  24.923  26.529  1.00  0.00     0.031 C 
ATOM     21  C   UNL A   1      41.565  29.086  32.447  1.00  0.00     0.029 A 
ATOM     22  C   UNL A   1      42.610  28.078  32.471  1.00  0.00     0.049 A 
ATOM     23  H   UNL A   1      42.925  26.610  30.966  1.00  0.00     0.167 HD
ATOM     24  C   UNL A   1      42.841  23.512  27.072  1.00  0.00     0.034 A 
ATOM     25  C   UNL A   1      43.597  27.870  33.409  1.00  0.00     0.034 A 
ATOM     26  C   UNL A   1      43.675  23.351  28.209  1.00  0.00     0.049 A 
ATOM     27  C   UNL A   1      44.509  26.937  32.736  1.00  0.00     0.074 A 
ATOM     28  C   UNL A   1      43.475  22.734  29.413  1.00  0.00     0.029 A 
ATOM     29  N   UNL A   1      44.769  24.181  28.294  1.00  0.00    -0.354 N 
ATOM     30  N   UNL A   1      45.298  27.266  31.759  1.00  0.00    -0.248 NA
ATOM     31  C   UNL A   1      44.542  25.534  33.166  1.00  0.00     0.031 C 
ATOM     32  C   UNL A   1      44.100  23.617  30.310  1.00  0.00     0.029 A 
ATOM     33  C   UNL A   1      44.861  24.562  29.604  1.00  0.00     0.049 A 
ATOM     34  H   UNL A   1      45.366  24.447  27.557  1.00  0.00     0.167 HD
ATOM     35  C   UNL A   1      45.657  26.049  31.250  1.00  0.00     0.074 A 
ATOM     36  C   UNL A   1      45.463  25.084  32.316  1.00  0.00     0.031 C 
ATOM     37  C   UNL A   1      45.495  25.823  29.922  1.00  0.00     0.034 A 
BRANCH  24  38
ATOM     38  C   UNL A   1      43.375  22.933  25.784  1.00  0.00     0.023 A 
ATOM     39  C   UNL A   1      43.509  21.519  25.742  1.00  0.00     0.031 A 
ATOM     40  C   UNL A   1      44.061  23.650  24.798  1.00  0.00     0.131 A 
ATOM     41  C   UNL A   1      44.401  20.888  24.866  1.00  0.00     0.055 A 
ATOM     42  C   UNL A   1      44.901  23.009  23.872  1.00  0.00     0.041 A 
ATOM     43  F   UNL A   1      44.021  24.988  24.749  1.00  0.00    -0.206 F 
ATOM     44  C   UNL A   1      45.107  21.630  23.928  1.00  0.00     0.022 A 
BRANCH  41  45
ATOM     45  S   UNL A   1      44.757  19.123  25.122  1.00  0.00     0.124 S 
ATOM     46  O   UNL A   1      46.088  19.155  25.716  1.00  0.00    -0.237 OA
ATOM     47  O   UNL A   1      43.671  18.720  26.010  1.00  0.00    -0.237 OA
ATOM     48  O   UNL A   1      44.692  18.566  23.772  1.00  0.00    -0.744 OA
ENDBRANCH  41  45
ENDBRANCH  24  38
BRANCH  25  49
ATOM     49  C   UNL A   1      44.062  28.260  34.822  1.00  0.00     0.023 A 
ATOM     50  C   UNL A   1      44.271  27.412  35.925  1.00  0.00     0.031 A 
ATOM     51  C   UNL A   1      44.474  29.621  35.053  1.00  0.00     0.131 A 
ATOM     52  C   UNL A   1      44.930  27.908  37.097  1.00  0.00     0.055 A 
ATOM     53  C   UNL A   1      45.215  30.065  36.146  1.00  0.00     0.041 A 
ATOM     54  F   UNL A   1      44.178  30.614  34.203  1.00  0.00    -0.206 F 
ATOM     55  C   UNL A   1      45.464  29.198  37.177  1.00  0.00     0.022 A 
BRANCH  52  56
ATOM     56  S   UNL A   1      45.137  26.887  38.593  1.00  0.00     0.124 S 
ATOM     57  O   UNL A   1      43.753  26.595  38.951  1.00  0.00    -0.237 OA
ATOM     58  O   UNL A   1      45.928  25.760  38.113  1.00  0.00    -0.237 OA
ATOM     59  O   UNL A   1      45.839  27.780  39.516  1.00  0.00    -0.744 OA
ENDBRANCH  52  56
ENDBRANCH  25  49
BRANCH  37  60
ATOM     60  C   UNL A   1      45.587  27.067  29.033  1.00  0.00     0.023 A 
ATOM     61  C   UNL A   1      44.414  27.661  28.524  1.00  0.00     0.031 A 
ATOM     62  C   UNL A   1      46.793  27.642  28.594  1.00  0.00     0.131 A 
ATOM     63  C   UNL A   1      44.473  28.736  27.611  1.00  0.00     0.055 A 
ATOM     64  C   UNL A   1      46.859  28.710  27.686  1.00  0.00     0.041 A 
ATOM     65  F   UNL A   1      47.967  27.193  29.030  1.00  0.00    -0.206 F 
ATOM     66  C   UNL A   1      45.692  29.262  27.185  1.00  0.00     0.022 A 
BRANCH  63  67
ATOM     67  S   UNL A   1      42.931  29.479  27.008  1.00  0.00     0.124 S 
ATOM     68  O   UNL A   1      42.283  28.366  26.326  1.00  0.00    -0.237 OA
ATOM     69  O   UNL A   1      42.296  29.933  28.242  1.00  0.00    -0.237 OA
ATOM     70  O   UNL A   1      43.391  30.555  26.128  1.00  0.00    -0.744 OA
ENDBRANCH  63  67
ENDBRANCH  37  60
ENDBRANCH  11  12
ENDBRANCH   4   6
ENDBRANCH   1   2
BRANCH   1  71
ATOM     71  C   UNL A   1      33.357  28.757  27.023  1.00  0.00     0.042 C 
BRANCH  71  72
ATOM     72  C   UNL A   1      32.343  29.419  26.097  1.00  0.00     0.118 C 
BRANCH  72  73
ATOM     73  N   UNL A   1      32.770  29.437  24.709  1.00  0.00    -0.351 N 
ATOM     74  C   UNL A   1      32.154  29.040  23.551  1.00  0.00     0.267 C 
ATOM     75  H   UNL A   1      33.672  29.807  24.575  1.00  0.00     0.163 HD
ATOM     76  O   UNL A   1      32.847  29.065  22.535  1.00  0.00    -0.268 OA
BRANCH  74  77
ATOM     77  C   UNL A   1      30.771  28.606  23.550  1.00  0.00     0.107 A 
ATOM     78  C   UNL A   1      29.638  29.310  23.157  1.00  0.00     0.033 A 
ATOM     79  N   UNL A   1      30.335  27.316  23.837  1.00  0.00    -0.334 N 
ATOM     80  C   UNL A   1      28.524  28.444  23.199  1.00  0.00     0.020 A 
ATOM     81  C   UNL A   1      28.987  27.210  23.586  1.00  0.00     0.087 A 
BRANCH  79  82
ATOM     82  C   UNL A   1      31.173  26.183  24.206  1.00  0.00     0.222 C 
BRANCH  82  83
ATOM     83  C   UNL A   1      31.122  25.628  25.622  1.00  0.00     0.242 C 
ATOM     84  O   UNL A   1      30.049  25.720  26.236  1.00  0.00    -0.273 OA
ATOM     85  N   UNL A   1      32.114  24.784  26.093  1.00  0.00    -0.339 N 
ATOM     86  C   UNL A   1      31.746  23.624  26.907  1.00  0.00     0.133 C 
ATOM     87  C   UNL A   1      33.555  24.929  25.902  1.00  0.00     0.133 C 
ATOM     88  C   UNL A   1      32.080  22.336  26.159  1.00  0.00     0.126 C 
ATOM     89  C   UNL A   1      34.102  23.796  25.066  1.00  0.00     0.126 C 
ATOM     90  S   UNL A   1      33.867  22.169  25.844  1.00  0.00     0.025 S 
ATOM     91  O   UNL A   1      34.571  22.173  27.166  1.00  0.00    -0.259 OA
ENDBRANCH  82  83
ENDBRANCH  79  82
ENDBRANCH  74  77
ENDBRANCH  72  73
ENDBRANCH  71  72
ENDBRANCH   1  71
TORSDOF 15
ENDMDL
