MODEL 1
REMARK VINA RESULT:     -13.8      0.000      0.000
REMARK SMILES CC1=Nc2c(c(C)nn2-c2ccc(F)cc2)[C@H](c2ccc(C(=O)NCCCNC(=O)c3ccc(-c4c5nc(c(-c6cc(S(=O)(=O)[O-])ccc6F)c6ccc([nH]6)c(-c6cc(S(=O)(=O)[O-])ccc6F)c6nc(c(-c7cc(S(=O)(=O)[O-])ccc7F)c7ccc4[nH]7)C=C6)C=C5)cc3)cc2)S1
REMARK SMILES IDX 26 1 25 2 24 3 22 4 23 5 21 7 18 8 19 9 95 10 20 11 94 12
REMARK SMILES IDX 17 13 1 14 2 15 3 16 96 17 4 18 5 19 9 20 6 21 8 22 7 23
REMARK SMILES IDX 10 24 11 25 16 26 12 27 15 28 13 29 14 30 27 31 28 32 29 33
REMARK SMILES IDX 30 35 31 36 32 37 93 38 33 39 92 40 34 41 35 42 36 43 86 44
REMARK SMILES IDX 37 45 91 46 85 47 87 48 38 49 90 50 84 51 83 52 39 54 71 55
REMARK SMILES IDX 51 56 70 57 52 58 55 59 69 60 88 61 53 62 54 63 68 65 89 66
REMARK SMILES IDX 56 67 40 68 41 69 49 70 42 71 48 72 50 73 47 74 43 75 44 76
REMARK SMILES IDX 45 77 46 78 72 79 73 80 81 81 74 82 80 83 82 84 79 85 75 86
REMARK SMILES IDX 76 87 77 88 78 89 57 90 58 91 66 92 59 93 65 94 67 95 64 96
REMARK SMILES IDX 60 97 61 98 62 99 63 100
REMARK H PARENT 24 6 28 34 87 53 55 64
REMARK Flexibility Score: inf
ROOT
ATOM      1  C   UNL A   1      33.754  29.671  26.998  1.00  0.00     0.042 C 
ENDROOT
BRANCH   1   2
ATOM      2  C   UNL A   1      33.677  29.617  25.467  1.00  0.00     0.118 C 
BRANCH   2   3
ATOM      3  N   UNL A   1      32.348  29.956  24.982  1.00  0.00    -0.352 N 
ATOM      4  C   UNL A   1      31.324  29.166  24.523  1.00  0.00     0.251 C 
ATOM      5  O   UNL A   1      30.246  29.691  24.253  1.00  0.00    -0.269 OA
ATOM      6  H   UNL A   1      32.149  30.920  24.983  1.00  0.00     0.163 HD
BRANCH   4   7
ATOM      7  C   UNL A   1      31.451  27.692  24.408  1.00  0.00     0.039 A 
ATOM      8  C   UNL A   1      31.772  24.878  24.333  1.00  0.00    -0.030 A 
ATOM      9  C   UNL A   1      31.934  25.597  25.530  1.00  0.00     0.006 A 
ATOM     10  C   UNL A   1      31.412  25.597  23.182  1.00  0.00     0.006 A 
ATOM     11  C   UNL A   1      31.760  26.982  25.571  1.00  0.00     0.014 A 
ATOM     12  C   UNL A   1      31.242  26.983  23.225  1.00  0.00     0.014 A 
BRANCH   8  13
ATOM     13  C   UNL A   1      31.921  23.365  24.347  1.00  0.00     0.119 C 
ATOM     14  C   UNL A   1      32.806  22.321  28.271  1.00  0.00     0.075 C 
ATOM     15  C   UNL A   1      32.929  22.466  26.777  1.00  0.00     0.074 C 
ATOM     16  N   UNL A   1      34.120  22.440  26.266  1.00  0.00    -0.227 NA
ATOM     17  S   UNL A   1      31.403  22.575  25.909  1.00  0.00    -0.098 SA
ATOM     18  C   UNL A   1      34.254  22.632  24.933  1.00  0.00     0.161 A 
ATOM     19  C   UNL A   1      33.338  23.091  24.015  1.00  0.00     0.038 A 
ATOM     20  N   UNL A   1      35.449  22.481  24.247  1.00  0.00    -0.215 N 
ATOM     21  C   UNL A   1      34.068  23.227  22.804  1.00  0.00     0.067 A 
ATOM     22  N   UNL A   1      35.366  22.947  22.975  1.00  0.00    -0.171 NA
ATOM     23  C   UNL A   1      33.582  23.650  21.467  1.00  0.00     0.069 C 
BRANCH  20  24
ATOM     24  C   UNL A   1      36.632  21.865  24.715  1.00  0.00     0.067 A 
ATOM     25  C   UNL A   1      36.814  20.485  24.530  1.00  0.00     0.031 A 
ATOM     26  C   UNL A   1      37.618  22.634  25.345  1.00  0.00     0.031 A 
ATOM     27  C   UNL A   1      37.981  19.875  24.981  1.00  0.00     0.041 A 
ATOM     28  C   UNL A   1      38.761  22.005  25.839  1.00  0.00     0.041 A 
ATOM     29  C   UNL A   1      38.936  20.637  25.645  1.00  0.00     0.123 A 
ATOM     30  F   UNL A   1      40.044  20.040  26.105  1.00  0.00    -0.207 F 
ENDBRANCH  20  24
ENDBRANCH   8  13
ENDBRANCH   4   7
ENDBRANCH   2   3
ENDBRANCH   1   2
BRANCH   1  31
ATOM     31  C   UNL A   1      35.174  29.500  27.505  1.00  0.00     0.118 C 
BRANCH  31  32
ATOM     32  N   UNL A   1      35.341  30.001  28.872  1.00  0.00    -0.352 N 
ATOM     33  C   UNL A   1      36.323  29.670  29.785  1.00  0.00     0.251 C 
ATOM     34  H   UNL A   1      34.670  30.654  29.177  1.00  0.00     0.163 HD
ATOM     35  O   UNL A   1      36.130  29.849  30.989  1.00  0.00    -0.269 OA
BRANCH  33  36
ATOM     36  C   UNL A   1      37.590  29.108  29.292  1.00  0.00     0.039 A 
ATOM     37  C   UNL A   1      38.221  29.585  28.141  1.00  0.00     0.014 A 
ATOM     38  C   UNL A   1      38.170  28.092  30.048  1.00  0.00     0.014 A 
ATOM     39  C   UNL A   1      39.477  29.078  27.809  1.00  0.00     0.010 A 
ATOM     40  C   UNL A   1      39.476  27.747  29.837  1.00  0.00     0.010 A 
ATOM     41  C   UNL A   1      40.108  28.171  28.680  1.00  0.00    -0.014 A 
BRANCH  41  42
ATOM     42  C   UNL A   1      41.495  27.760  28.496  1.00  0.00     0.031 A 
ATOM     43  C   UNL A   1      41.631  26.477  27.761  1.00  0.00     0.074 A 
ATOM     44  C   UNL A   1      42.547  28.578  28.737  1.00  0.00     0.049 A 
ATOM     45  N   UNL A   1      41.985  25.332  28.242  1.00  0.00    -0.248 NA
ATOM     46  C   UNL A   1      41.123  26.402  26.379  1.00  0.00     0.031 C 
ATOM     47  C   UNL A   1      42.532  29.975  29.190  1.00  0.00     0.029 A 
ATOM     48  N   UNL A   1      43.874  28.361  28.526  1.00  0.00    -0.354 N 
ATOM     49  C   UNL A   1      42.025  24.466  27.157  1.00  0.00     0.074 A 
ATOM     50  C   UNL A   1      41.251  25.098  26.124  1.00  0.00     0.031 C 
ATOM     51  C   UNL A   1      43.749  30.535  28.998  1.00  0.00     0.029 A 
ATOM     52  C   UNL A   1      44.678  29.503  28.573  1.00  0.00     0.049 A 
ATOM     53  H   UNL A   1      44.241  27.464  28.355  1.00  0.00     0.167 HD
ATOM     54  C   UNL A   1      42.940  23.458  27.110  1.00  0.00     0.034 A 
ATOM     55  C   UNL A   1      46.009  29.586  28.290  1.00  0.00     0.034 A 
ATOM     56  C   UNL A   1      43.494  23.210  28.428  1.00  0.00     0.049 A 
ATOM     57  C   UNL A   1      46.545  28.215  28.478  1.00  0.00     0.074 A 
ATOM     58  C   UNL A   1      42.949  22.894  29.660  1.00  0.00     0.029 A 
ATOM     59  N   UNL A   1      44.746  23.712  28.703  1.00  0.00    -0.354 N 
ATOM     60  N   UNL A   1      46.540  27.600  29.630  1.00  0.00    -0.248 NA
ATOM     61  C   UNL A   1      46.604  27.353  27.309  1.00  0.00     0.031 C 
ATOM     62  C   UNL A   1      43.668  23.698  30.595  1.00  0.00     0.029 A 
ATOM     63  C   UNL A   1      44.675  24.375  29.905  1.00  0.00     0.049 A 
ATOM     64  H   UNL A   1      45.548  23.614  28.141  1.00  0.00     0.167 HD
ATOM     65  C   UNL A   1      46.146  26.303  29.335  1.00  0.00     0.074 A 
ATOM     66  C   UNL A   1      46.280  26.189  27.881  1.00  0.00     0.031 C 
ATOM     67  C   UNL A   1      45.472  25.541  30.247  1.00  0.00     0.034 A 
BRANCH  54  68
ATOM     68  C   UNL A   1      43.624  22.980  25.845  1.00  0.00     0.023 A 
ATOM     69  C   UNL A   1      43.590  21.597  25.578  1.00  0.00     0.031 A 
ATOM     70  C   UNL A   1      44.523  23.731  25.053  1.00  0.00     0.131 A 
ATOM     71  C   UNL A   1      44.475  21.016  24.653  1.00  0.00     0.055 A 
ATOM     72  C   UNL A   1      45.361  23.156  24.094  1.00  0.00     0.041 A 
ATOM     73  F   UNL A   1      44.714  25.045  25.210  1.00  0.00    -0.206 F 
ATOM     74  C   UNL A   1      45.364  21.787  23.910  1.00  0.00     0.022 A 
BRANCH  71  75
ATOM     75  S   UNL A   1      44.542  19.210  24.542  1.00  0.00     0.124 S 
ATOM     76  O   UNL A   1      45.620  18.899  25.475  1.00  0.00    -0.237 OA
ATOM     77  O   UNL A   1      43.197  18.835  24.962  1.00  0.00    -0.237 OA
ATOM     78  O   UNL A   1      44.843  18.969  23.132  1.00  0.00    -0.744 OA
ENDBRANCH  71  75
ENDBRANCH  54  68
BRANCH  55  79
ATOM     79  C   UNL A   1      46.751  30.652  27.544  1.00  0.00     0.023 A 
ATOM     80  C   UNL A   1      46.091  31.727  26.895  1.00  0.00     0.031 A 
ATOM     81  C   UNL A   1      48.149  30.784  27.696  1.00  0.00     0.131 A 
ATOM     82  C   UNL A   1      46.817  32.864  26.457  1.00  0.00     0.055 A 
ATOM     83  C   UNL A   1      48.859  31.911  27.268  1.00  0.00     0.041 A 
ATOM     84  F   UNL A   1      48.867  29.860  28.353  1.00  0.00    -0.206 F 
ATOM     85  C   UNL A   1      48.194  32.963  26.659  1.00  0.00     0.022 A 
BRANCH  82  86
ATOM     86  S   UNL A   1      45.964  34.302  25.721  1.00  0.00     0.124 S 
ATOM     87  O   UNL A   1      47.046  34.961  24.997  1.00  0.00    -0.237 OA
ATOM     88  O   UNL A   1      44.925  33.681  24.910  1.00  0.00    -0.237 OA
ATOM     89  O   UNL A   1      45.470  35.038  26.887  1.00  0.00    -0.744 OA
ENDBRANCH  82  86
ENDBRANCH  55  79
BRANCH  67  90
ATOM     90  C   UNL A   1      45.400  26.016  31.686  1.00  0.00     0.023 A 
ATOM     91  C   UNL A   1      44.267  26.596  32.310  1.00  0.00     0.031 A 
ATOM     92  C   UNL A   1      46.506  25.714  32.498  1.00  0.00     0.131 A 
ATOM     93  C   UNL A   1      44.280  26.845  33.701  1.00  0.00     0.055 A 
ATOM     94  C   UNL A   1      46.507  25.942  33.873  1.00  0.00     0.041 A 
ATOM     95  F   UNL A   1      47.598  25.139  31.969  1.00  0.00    -0.206 F 
ATOM     96  C   UNL A   1      45.393  26.509  34.480  1.00  0.00     0.022 A 
BRANCH  93  97
ATOM     97  S   UNL A   1      42.836  27.586  34.540  1.00  0.00     0.124 S 
ATOM     98  O   UNL A   1      43.377  28.811  35.118  1.00  0.00    -0.237 OA
ATOM     99  O   UNL A   1      41.881  27.758  33.450  1.00  0.00    -0.237 OA
ATOM    100  O   UNL A   1      42.452  26.570  35.524  1.00  0.00    -0.744 OA
ENDBRANCH  93  97
ENDBRANCH  67  90
ENDBRANCH  41  42
ENDBRANCH  33  36
ENDBRANCH  31  32
ENDBRANCH   1  31
TORSDOF 15
ENDMDL
MODEL 2
REMARK VINA RESULT:     -13.6      4.320      5.864
REMARK SMILES CC1=Nc2c(c(C)nn2-c2ccc(F)cc2)[C@H](c2ccc(C(=O)NCCCNC(=O)c3ccc(-c4c5nc(c(-c6cc(S(=O)(=O)[O-])ccc6F)c6ccc([nH]6)c(-c6cc(S(=O)(=O)[O-])ccc6F)c6nc(c(-c7cc(S(=O)(=O)[O-])ccc7F)c7ccc4[nH]7)C=C6)C=C5)cc3)cc2)S1
REMARK SMILES IDX 26 1 25 2 24 3 22 4 23 5 21 7 18 8 19 9 95 10 20 11 94 12
REMARK SMILES IDX 17 13 1 14 2 15 3 16 96 17 4 18 5 19 9 20 6 21 8 22 7 23
REMARK SMILES IDX 10 24 11 25 16 26 12 27 15 28 13 29 14 30 27 31 28 32 29 33
REMARK SMILES IDX 30 35 31 36 32 37 93 38 33 39 92 40 34 41 35 42 36 43 86 44
REMARK SMILES IDX 37 45 91 46 85 47 87 48 38 49 90 50 84 51 83 52 39 54 71 55
REMARK SMILES IDX 51 56 70 57 52 58 55 59 69 60 88 61 53 62 54 63 68 65 89 66
REMARK SMILES IDX 56 67 40 68 41 69 49 70 42 71 48 72 50 73 47 74 43 75 44 76
REMARK SMILES IDX 45 77 46 78 72 79 73 80 81 81 74 82 80 83 82 84 79 85 75 86
REMARK SMILES IDX 76 87 77 88 78 89 57 90 58 91 66 92 59 93 65 94 67 95 64 96
REMARK SMILES IDX 60 97 61 98 62 99 63 100
REMARK H PARENT 24 6 28 34 87 53 55 64
REMARK Flexibility Score: inf
ROOT
ATOM      1  C   UNL A   1      31.742  31.362  25.989  1.00  0.00     0.042 C 
ENDROOT
BRANCH   1   2
ATOM      2  C   UNL A   1      32.537  30.194  25.390  1.00  0.00     0.118 C 
BRANCH   2   3
ATOM      3  N   UNL A   1      31.894  29.659  24.201  1.00  0.00    -0.352 N 
ATOM      4  C   UNL A   1      31.650  28.366  23.809  1.00  0.00     0.251 C 
ATOM      5  O   UNL A   1      30.997  28.170  22.787  1.00  0.00    -0.269 OA
ATOM      6  H   UNL A   1      31.579  30.342  23.566  1.00  0.00     0.163 HD
BRANCH   4   7
ATOM      7  C   UNL A   1      32.087  27.198  24.615  1.00  0.00     0.039 A 
ATOM      8  C   UNL A   1      33.030  24.935  26.033  1.00  0.00    -0.030 A 
ATOM      9  C   UNL A   1      33.768  25.487  24.971  1.00  0.00     0.006 A 
ATOM     10  C   UNL A   1      31.828  25.564  26.391  1.00  0.00     0.006 A 
ATOM     11  C   UNL A   1      33.311  26.612  24.282  1.00  0.00     0.014 A 
ATOM     12  C   UNL A   1      31.372  26.688  25.698  1.00  0.00     0.014 A 
BRANCH   8  13
ATOM     13  C   UNL A   1      33.593  23.740  26.787  1.00  0.00     0.119 C 
ATOM     14  C   UNL A   1      37.201  22.800  24.954  1.00  0.00     0.075 C 
ATOM     15  C   UNL A   1      35.798  22.662  25.485  1.00  0.00     0.074 C 
ATOM     16  N   UNL A   1      35.031  21.776  24.931  1.00  0.00    -0.227 NA
ATOM     17  S   UNL A   1      35.415  23.688  26.860  1.00  0.00    -0.098 SA
ATOM     18  C   UNL A   1      33.748  21.682  25.352  1.00  0.00     0.161 A 
ATOM     19  C   UNL A   1      33.015  22.540  26.139  1.00  0.00     0.038 A 
ATOM     20  N   UNL A   1      32.874  20.684  24.948  1.00  0.00    -0.215 N 
ATOM     21  C   UNL A   1      31.698  22.011  26.132  1.00  0.00     0.067 A 
ATOM     22  N   UNL A   1      31.598  20.942  25.332  1.00  0.00    -0.171 NA
ATOM     23  C   UNL A   1      30.492  22.506  26.843  1.00  0.00     0.069 C 
BRANCH  20  24
ATOM     24  C   UNL A   1      33.199  19.481  24.281  1.00  0.00     0.067 A 
ATOM     25  C   UNL A   1      34.321  18.744  24.689  1.00  0.00     0.031 A 
ATOM     26  C   UNL A   1      32.392  19.027  23.230  1.00  0.00     0.031 A 
ATOM     27  C   UNL A   1      34.639  17.553  24.040  1.00  0.00     0.041 A 
ATOM     28  C   UNL A   1      32.749  17.860  22.552  1.00  0.00     0.041 A 
ATOM     29  C   UNL A   1      33.861  17.132  22.968  1.00  0.00     0.123 A 
ATOM     30  F   UNL A   1      34.188  16.003  22.326  1.00  0.00    -0.207 F 
ENDBRANCH  20  24
ENDBRANCH   8  13
ENDBRANCH   4   7
ENDBRANCH   2   3
ENDBRANCH   1   2
BRANCH   1  31
ATOM     31  C   UNL A   1      32.391  31.909  27.248  1.00  0.00     0.118 C 
BRANCH  31  32
ATOM     32  N   UNL A   1      32.201  33.355  27.387  1.00  0.00    -0.352 N 
ATOM     33  C   UNL A   1      32.862  34.221  28.236  1.00  0.00     0.251 C 
ATOM     34  H   UNL A   1      31.518  33.759  26.804  1.00  0.00     0.163 HD
ATOM     35  O   UNL A   1      32.352  35.303  28.531  1.00  0.00    -0.269 OA
BRANCH  33  36
ATOM     36  C   UNL A   1      34.175  33.826  28.772  1.00  0.00     0.039 A 
ATOM     37  C   UNL A   1      34.306  33.023  29.907  1.00  0.00     0.014 A 
ATOM     38  C   UNL A   1      35.300  34.256  28.074  1.00  0.00     0.014 A 
ATOM     39  C   UNL A   1      35.581  32.598  30.279  1.00  0.00     0.010 A 
ATOM     40  C   UNL A   1      36.515  33.678  28.318  1.00  0.00     0.010 A 
ATOM     41  C   UNL A   1      36.681  32.914  29.461  1.00  0.00    -0.014 A 
BRANCH  41  42
ATOM     42  C   UNL A   1      38.002  32.336  29.683  1.00  0.00     0.031 A 
ATOM     43  C   UNL A   1      38.073  30.895  29.332  1.00  0.00     0.074 A 
ATOM     44  C   UNL A   1      39.103  33.082  29.933  1.00  0.00     0.049 A 
ATOM     45  N   UNL A   1      38.160  29.894  30.143  1.00  0.00    -0.248 NA
ATOM     46  C   UNL A   1      37.816  30.498  27.935  1.00  0.00     0.031 C 
ATOM     47  C   UNL A   1      39.217  34.544  30.015  1.00  0.00     0.029 A 
ATOM     48  N   UNL A   1      40.399  32.688  30.069  1.00  0.00    -0.354 N 
ATOM     49  C   UNL A   1      38.264  28.767  29.338  1.00  0.00     0.074 A 
ATOM     50  C   UNL A   1      37.791  29.167  28.042  1.00  0.00     0.031 C 
ATOM     51  C   UNL A   1      40.518  34.910  29.954  1.00  0.00     0.029 A 
ATOM     52  C   UNL A   1      41.343  33.716  30.003  1.00  0.00     0.049 A 
ATOM     53  H   UNL A   1      40.652  31.746  30.205  1.00  0.00     0.167 HD
ATOM     54  C   UNL A   1      39.011  27.700  29.737  1.00  0.00     0.034 A 
ATOM     55  C   UNL A   1      42.701  33.589  29.998  1.00  0.00     0.034 A 
ATOM     56  C   UNL A   1      39.276  27.766  31.162  1.00  0.00     0.049 A 
ATOM     57  C   UNL A   1      42.983  32.275  30.627  1.00  0.00     0.074 A 
ATOM     58  C   UNL A   1      38.478  27.849  32.288  1.00  0.00     0.029 A 
ATOM     59  N   UNL A   1      40.520  28.199  31.565  1.00  0.00    -0.354 N 
ATOM     60  N   UNL A   1      42.679  31.998  31.866  1.00  0.00    -0.248 NA
ATOM     61  C   UNL A   1      43.121  31.127  29.745  1.00  0.00     0.031 C 
ATOM     62  C   UNL A   1      39.130  28.803  33.128  1.00  0.00     0.029 A 
ATOM     63  C   UNL A   1      40.334  29.166  32.523  1.00  0.00     0.049 A 
ATOM     64  H   UNL A   1      41.386  27.874  31.227  1.00  0.00     0.167 HD
ATOM     65  C   UNL A   1      42.155  30.715  31.823  1.00  0.00     0.074 A 
ATOM     66  C   UNL A   1      42.530  30.199  30.504  1.00  0.00     0.031 C 
ATOM     67  C   UNL A   1      41.222  30.298  32.729  1.00  0.00     0.034 A 
BRANCH  54  68
ATOM     68  C   UNL A   1      39.832  26.833  28.804  1.00  0.00     0.023 A 
ATOM     69  C   UNL A   1      40.879  27.458  28.097  1.00  0.00     0.031 A 
ATOM     70  C   UNL A   1      39.488  25.534  28.359  1.00  0.00     0.131 A 
ATOM     71  C   UNL A   1      41.454  26.851  26.967  1.00  0.00     0.055 A 
ATOM     72  C   UNL A   1      40.103  24.912  27.270  1.00  0.00     0.041 A 
ATOM     73  F   UNL A   1      38.487  24.822  28.887  1.00  0.00    -0.206 F 
ATOM     74  C   UNL A   1      41.070  25.582  26.546  1.00  0.00     0.022 A 
BRANCH  71  75
ATOM     75  S   UNL A   1      42.617  27.815  25.970  1.00  0.00     0.124 S 
ATOM     76  O   UNL A   1      42.253  29.180  26.334  1.00  0.00    -0.237 OA
ATOM     77  O   UNL A   1      43.903  27.337  26.465  1.00  0.00    -0.237 OA
ATOM     78  O   UNL A   1      42.294  27.423  24.600  1.00  0.00    -0.744 OA
ENDBRANCH  71  75
ENDBRANCH  54  68
BRANCH  55  79
ATOM     79  C   UNL A   1      43.716  34.336  29.188  1.00  0.00     0.023 A 
ATOM     80  C   UNL A   1      44.235  33.833  27.968  1.00  0.00     0.031 A 
ATOM     81  C   UNL A   1      43.983  35.696  29.463  1.00  0.00     0.131 A 
ATOM     82  C   UNL A   1      44.957  34.676  27.086  1.00  0.00     0.055 A 
ATOM     83  C   UNL A   1      44.691  36.525  28.586  1.00  0.00     0.041 A 
ATOM     84  F   UNL A   1      43.485  36.295  30.555  1.00  0.00    -0.206 F 
ATOM     85  C   UNL A   1      45.169  36.023  27.386  1.00  0.00     0.022 A 
BRANCH  82  86
ATOM     86  S   UNL A   1      45.536  34.071  25.462  1.00  0.00     0.124 S 
ATOM     87  O   UNL A   1      46.745  34.861  25.255  1.00  0.00    -0.237 OA
ATOM     88  O   UNL A   1      45.725  32.645  25.698  1.00  0.00    -0.237 OA
ATOM     89  O   UNL A   1      44.427  34.399  24.562  1.00  0.00    -0.744 OA
ENDBRANCH  82  86
ENDBRANCH  55  79
BRANCH  67  90
ATOM     90  C   UNL A   1      40.965  31.149  33.958  1.00  0.00     0.023 A 
ATOM     91  C   UNL A   1      40.050  32.229  34.039  1.00  0.00     0.031 A 
ATOM     92  C   UNL A   1      41.581  30.728  35.149  1.00  0.00     0.131 A 
ATOM     93  C   UNL A   1      39.786  32.835  35.289  1.00  0.00     0.055 A 
ATOM     94  C   UNL A   1      41.303  31.315  36.381  1.00  0.00     0.041 A 
ATOM     95  F   UNL A   1      42.437  29.693  35.138  1.00  0.00    -0.206 F 
ATOM     96  C   UNL A   1      40.403  32.372  36.456  1.00  0.00     0.022 A 
BRANCH  93  97
ATOM     97  S   UNL A   1      38.609  34.225  35.433  1.00  0.00     0.124 S 
ATOM     98  O   UNL A   1      38.786  34.945  34.178  1.00  0.00    -0.237 OA
ATOM     99  O   UNL A   1      37.327  33.547  35.608  1.00  0.00    -0.237 OA
ATOM    100  O   UNL A   1      39.075  34.948  36.619  1.00  0.00    -0.744 OA
ENDBRANCH  93  97
ENDBRANCH  67  90
ENDBRANCH  41  42
ENDBRANCH  33  36
ENDBRANCH  31  32
ENDBRANCH   1  31
TORSDOF 15
ENDMDL
MODEL 3
REMARK VINA RESULT:     -13.5      2.437      6.675
REMARK SMILES CC1=Nc2c(c(C)nn2-c2ccc(F)cc2)[C@H](c2ccc(C(=O)NCCCNC(=O)c3ccc(-c4c5nc(c(-c6cc(S(=O)(=O)[O-])ccc6F)c6ccc([nH]6)c(-c6cc(S(=O)(=O)[O-])ccc6F)c6nc(c(-c7cc(S(=O)(=O)[O-])ccc7F)c7ccc4[nH]7)C=C6)C=C5)cc3)cc2)S1
REMARK SMILES IDX 26 1 25 2 24 3 22 4 23 5 21 7 18 8 19 9 95 10 20 11 94 12
REMARK SMILES IDX 17 13 1 14 2 15 3 16 96 17 4 18 5 19 9 20 6 21 8 22 7 23
REMARK SMILES IDX 10 24 11 25 16 26 12 27 15 28 13 29 14 30 27 31 28 32 29 33
REMARK SMILES IDX 30 35 31 36 32 37 93 38 33 39 92 40 34 41 35 42 36 43 86 44
REMARK SMILES IDX 37 45 91 46 85 47 87 48 38 49 90 50 84 51 83 52 39 54 71 55
REMARK SMILES IDX 51 56 70 57 52 58 55 59 69 60 88 61 53 62 54 63 68 65 89 66
REMARK SMILES IDX 56 67 40 68 41 69 49 70 42 71 48 72 50 73 47 74 43 75 44 76
REMARK SMILES IDX 45 77 46 78 72 79 73 80 81 81 74 82 80 83 82 84 79 85 75 86
REMARK SMILES IDX 76 87 77 88 78 89 57 90 58 91 66 92 59 93 65 94 67 95 64 96
REMARK SMILES IDX 60 97 61 98 62 99 63 100
REMARK H PARENT 24 6 28 34 87 53 55 64
REMARK Flexibility Score: inf
ROOT
ATOM      1  C   UNL A   1      32.864  30.501  27.062  1.00  0.00     0.042 C 
ENDROOT
BRANCH   1   2
ATOM      2  C   UNL A   1      32.865  29.775  25.711  1.00  0.00     0.118 C 
BRANCH   2   3
ATOM      3  N   UNL A   1      31.687  30.103  24.923  1.00  0.00    -0.352 N 
ATOM      4  C   UNL A   1      30.812  29.304  24.231  1.00  0.00     0.251 C 
ATOM      5  O   UNL A   1      29.824  29.818  23.711  1.00  0.00    -0.269 OA
ATOM      6  H   UNL A   1      31.483  31.064  24.877  1.00  0.00     0.163 HD
BRANCH   4   7
ATOM      7  C   UNL A   1      30.980  27.831  24.147  1.00  0.00     0.039 A 
ATOM      8  C   UNL A   1      31.376  25.027  24.133  1.00  0.00    -0.030 A 
ATOM      9  C   UNL A   1      31.511  25.774  25.316  1.00  0.00     0.006 A 
ATOM     10  C   UNL A   1      31.004  25.711  22.966  1.00  0.00     0.006 A 
ATOM     11  C   UNL A   1      31.300  27.154  25.327  1.00  0.00     0.014 A 
ATOM     12  C   UNL A   1      30.796  27.093  22.978  1.00  0.00     0.014 A 
BRANCH   8  13
ATOM     13  C   UNL A   1      31.565  23.518  24.180  1.00  0.00     0.119 C 
ATOM     14  C   UNL A   1      32.406  22.575  28.139  1.00  0.00     0.075 C 
ATOM     15  C   UNL A   1      32.553  22.694  26.645  1.00  0.00     0.074 C 
ATOM     16  N   UNL A   1      33.753  22.691  26.156  1.00  0.00    -0.227 NA
ATOM     17  S   UNL A   1      31.041  22.745  25.747  1.00  0.00    -0.098 SA
ATOM     18  C   UNL A   1      33.906  22.861  24.822  1.00  0.00     0.161 A 
ATOM     19  C   UNL A   1      32.996  23.277  23.878  1.00  0.00     0.038 A 
ATOM     20  N   UNL A   1      35.118  22.730  24.161  1.00  0.00    -0.215 N 
ATOM     21  C   UNL A   1      33.744  23.409  22.679  1.00  0.00     0.067 A 
ATOM     22  N   UNL A   1      35.045  23.168  22.879  1.00  0.00    -0.171 NA
ATOM     23  C   UNL A   1      33.272  23.793  21.325  1.00  0.00     0.069 C 
BRANCH  20  24
ATOM     24  C   UNL A   1      36.308  22.155  24.662  1.00  0.00     0.067 A 
ATOM     25  C   UNL A   1      37.277  22.977  25.257  1.00  0.00     0.031 A 
ATOM     26  C   UNL A   1      36.505  20.772  24.573  1.00  0.00     0.031 A 
ATOM     27  C   UNL A   1      38.447  22.414  25.760  1.00  0.00     0.041 A 
ATOM     28  C   UNL A   1      37.703  20.223  25.034  1.00  0.00     0.041 A 
ATOM     29  C   UNL A   1      38.656  21.046  25.629  1.00  0.00     0.123 A 
ATOM     30  F   UNL A   1      39.797  20.512  26.086  1.00  0.00    -0.207 F 
ENDBRANCH  20  24
ENDBRANCH   8  13
ENDBRANCH   4   7
ENDBRANCH   2   3
ENDBRANCH   1   2
BRANCH   1  31
ATOM     31  C   UNL A   1      34.267  30.856  27.522  1.00  0.00     0.118 C 
BRANCH  31  32
ATOM     32  N   UNL A   1      34.262  31.742  28.688  1.00  0.00    -0.352 N 
ATOM     33  C   UNL A   1      35.126  31.733  29.765  1.00  0.00     0.251 C 
ATOM     34  H   UNL A   1      33.556  32.428  28.707  1.00  0.00     0.163 HD
ATOM     35  O   UNL A   1      34.787  32.249  30.832  1.00  0.00    -0.269 OA
BRANCH  33  36
ATOM     36  C   UNL A   1      36.447  31.102  29.612  1.00  0.00     0.039 A 
ATOM     37  C   UNL A   1      37.629  31.845  29.575  1.00  0.00     0.014 A 
ATOM     38  C   UNL A   1      36.481  29.712  29.543  1.00  0.00     0.014 A 
ATOM     39  C   UNL A   1      38.845  31.163  29.546  1.00  0.00     0.010 A 
ATOM     40  C   UNL A   1      37.666  29.051  29.718  1.00  0.00     0.010 A 
ATOM     41  C   UNL A   1      38.852  29.760  29.641  1.00  0.00    -0.014 A 
BRANCH  41  42
ATOM     42  C   UNL A   1      40.087  29.003  29.818  1.00  0.00     0.031 A 
ATOM     43  C   UNL A   1      40.410  28.739  31.244  1.00  0.00     0.074 A 
ATOM     44  C   UNL A   1      40.729  28.388  28.798  1.00  0.00     0.049 A 
ATOM     45  N   UNL A   1      41.347  29.280  31.947  1.00  0.00    -0.248 NA
ATOM     46  C   UNL A   1      39.464  27.938  32.042  1.00  0.00     0.031 C 
ATOM     47  C   UNL A   1      40.347  28.329  27.381  1.00  0.00     0.029 A 
ATOM     48  N   UNL A   1      41.826  27.583  28.831  1.00  0.00    -0.354 N 
ATOM     49  C   UNL A   1      41.286  28.663  33.190  1.00  0.00     0.074 A 
ATOM     50  C   UNL A   1      39.982  28.064  33.265  1.00  0.00     0.031 C 
ATOM     51  C   UNL A   1      41.054  27.361  26.752  1.00  0.00     0.029 A 
ATOM     52  C   UNL A   1      42.058  26.846  27.666  1.00  0.00     0.049 A 
ATOM     53  H   UNL A   1      42.414  27.525  29.618  1.00  0.00     0.167 HD
ATOM     54  C   UNL A   1      42.422  28.447  33.912  1.00  0.00     0.034 A 
ATOM     55  C   UNL A   1      43.011  25.890  27.471  1.00  0.00     0.034 A 
ATOM     56  C   UNL A   1      43.507  29.271  33.414  1.00  0.00     0.049 A 
ATOM     57  C   UNL A   1      44.071  26.172  28.471  1.00  0.00     0.074 A 
ATOM     58  C   UNL A   1      43.677  30.631  33.225  1.00  0.00     0.029 A 
ATOM     59  N   UNL A   1      44.454  28.672  32.613  1.00  0.00    -0.354 N 
ATOM     60  N   UNL A   1      44.773  27.273  28.475  1.00  0.00    -0.248 NA
ATOM     61  C   UNL A   1      43.990  25.477  29.746  1.00  0.00     0.031 C 
ATOM     62  C   UNL A   1      44.329  30.745  31.960  1.00  0.00     0.029 A 
ATOM     63  C   UNL A   1      44.617  29.459  31.499  1.00  0.00     0.049 A 
ATOM     64  H   UNL A   1      44.929  27.831  32.805  1.00  0.00     0.167 HD
ATOM     65  C   UNL A   1      44.841  27.642  29.809  1.00  0.00     0.074 A 
ATOM     66  C   UNL A   1      44.412  26.455  30.552  1.00  0.00     0.031 C 
ATOM     67  C   UNL A   1      44.952  28.953  30.179  1.00  0.00     0.034 A 
BRANCH  54  68
ATOM     68  C   UNL A   1      42.667  27.228  34.778  1.00  0.00     0.023 A 
ATOM     69  C   UNL A   1      43.469  26.204  34.237  1.00  0.00     0.031 A 
ATOM     70  C   UNL A   1      41.956  26.888  35.953  1.00  0.00     0.131 A 
ATOM     71  C   UNL A   1      43.464  24.912  34.790  1.00  0.00     0.055 A 
ATOM     72  C   UNL A   1      41.999  25.617  36.532  1.00  0.00     0.041 A 
ATOM     73  F   UNL A   1      41.114  27.726  36.567  1.00  0.00    -0.206 F 
ATOM     74  C   UNL A   1      42.731  24.610  35.934  1.00  0.00     0.022 A 
BRANCH  71  75
ATOM     75  S   UNL A   1      44.324  23.590  33.900  1.00  0.00     0.124 S 
ATOM     76  O   UNL A   1      43.979  22.423  34.704  1.00  0.00    -0.237 OA
ATOM     77  O   UNL A   1      43.708  23.670  32.580  1.00  0.00    -0.237 OA
ATOM     78  O   UNL A   1      45.726  24.000  33.958  1.00  0.00    -0.744 OA
ENDBRANCH  71  75
ENDBRANCH  54  68
BRANCH  55  79
ATOM     79  C   UNL A   1      42.903  24.582  26.748  1.00  0.00     0.023 A 
ATOM     80  C   UNL A   1      43.767  24.229  25.681  1.00  0.00     0.031 A 
ATOM     81  C   UNL A   1      42.121  23.536  27.287  1.00  0.00     0.131 A 
ATOM     82  C   UNL A   1      43.837  22.890  25.219  1.00  0.00     0.055 A 
ATOM     83  C   UNL A   1      42.199  22.216  26.831  1.00  0.00     0.041 A 
ATOM     84  F   UNL A   1      41.318  23.741  28.342  1.00  0.00    -0.206 F 
ATOM     85  C   UNL A   1      43.068  21.883  25.805  1.00  0.00     0.022 A 
BRANCH  82  86
ATOM     86  S   UNL A   1      45.026  22.400  23.922  1.00  0.00     0.124 S 
ATOM     87  O   UNL A   1      45.576  21.161  24.463  1.00  0.00    -0.237 OA
ATOM     88  O   UNL A   1      44.180  22.272  22.741  1.00  0.00    -0.237 OA
ATOM     89  O   UNL A   1      45.967  23.522  23.880  1.00  0.00    -0.744 OA
ENDBRANCH  82  86
ENDBRANCH  55  79
BRANCH  67  90
ATOM     90  C   UNL A   1      45.284  29.986  29.118  1.00  0.00     0.023 A 
ATOM     91  C   UNL A   1      46.587  30.373  28.720  1.00  0.00     0.031 A 
ATOM     92  C   UNL A   1      44.201  30.484  28.373  1.00  0.00     0.131 A 
ATOM     93  C   UNL A   1      46.759  31.227  27.607  1.00  0.00     0.055 A 
ATOM     94  C   UNL A   1      44.376  31.309  27.264  1.00  0.00     0.041 A 
ATOM     95  F   UNL A   1      42.944  30.130  28.687  1.00  0.00    -0.206 F 
ATOM     96  C   UNL A   1      45.656  31.684  26.876  1.00  0.00     0.022 A 
BRANCH  93  97
ATOM     97  S   UNL A   1      48.424  31.743  27.061  1.00  0.00     0.124 S 
ATOM     98  O   UNL A   1      48.147  32.801  26.096  1.00  0.00    -0.237 OA
ATOM     99  O   UNL A   1      49.058  32.163  28.307  1.00  0.00    -0.237 OA
ATOM    100  O   UNL A   1      48.988  30.523  26.478  1.00  0.00    -0.744 OA
ENDBRANCH  93  97
ENDBRANCH  67  90
ENDBRANCH  41  42
ENDBRANCH  33  36
ENDBRANCH  31  32
ENDBRANCH   1  31
TORSDOF 15
ENDMDL
