MODEL 1
REMARK VINA RESULT:     -11.9      0.000      0.000
REMARK SMILES C[C@@H](C(=O)NCCCNC(=O)c1ccc(-c2c3nc(c(-c4cc(S(=O)(=O)[O-])ccc4F)c4ccc([nH]4)c(-c4cc(S(=O)(=O)[O-])ccc4F)c4nc(c(-c5cc(S(=O)(=O)[O-])ccc5F)c5ccc2[nH]5)C=C4)C=C3)cc1)c1ccc(O[C@H]2CCCC2=O)cc1F
REMARK SMILES IDX 7 1 6 2 5 3 3 4 4 5 2 7 1 8 75 9 76 10 87 11 77 12 86 13
REMARK SMILES IDX 88 14 78 15 79 16 80 17 81 18 84 19 82 20 83 21 85 22 8 23
REMARK SMILES IDX 9 24 10 25 11 27 12 28 13 29 74 30 14 31 73 32 15 33 16 34
REMARK SMILES IDX 17 35 67 36 18 37 72 38 66 39 68 40 19 41 71 42 65 43 64 44
REMARK SMILES IDX 20 46 52 47 32 48 51 49 33 50 36 51 50 52 69 53 34 54 35 55
REMARK SMILES IDX 49 57 70 58 37 59 21 60 22 61 30 62 23 63 29 64 31 65 28 66
REMARK SMILES IDX 24 67 25 68 26 69 27 70 53 71 54 72 62 73 55 74 61 75 63 76
REMARK SMILES IDX 60 77 56 78 57 79 58 80 59 81 38 82 39 83 47 84 40 85 46 86
REMARK SMILES IDX 48 87 45 88 41 89 42 90 43 91 44 92
REMARK H PARENT 5 6 9 26 68 45 36 56
REMARK Flexibility Score: inf
ROOT
ATOM      1  C   UNL A   1      37.025  22.085  23.817  1.00  0.00     0.042 C 
ENDROOT
BRANCH   1   2
ATOM      2  C   UNL A   1      35.944  23.044  23.325  1.00  0.00     0.117 C 
BRANCH   2   3
ATOM      3  N   UNL A   1      35.553  24.015  24.327  1.00  0.00    -0.356 N 
ATOM      4  C   UNL A   1      34.319  24.417  24.749  1.00  0.00     0.227 C 
ATOM      5  O   UNL A   1      34.297  25.116  25.765  1.00  0.00    -0.274 OA
ATOM      6  H   UNL A   1      36.305  24.461  24.779  1.00  0.00     0.163 HD
BRANCH   4   7
ATOM      7  C   UNL A   1      33.042  23.932  24.034  1.00  0.00     0.108 C 
ATOM      8  C   UNL A   1      31.784  24.722  24.408  1.00  0.00     0.023 C 
BRANCH   7   9
ATOM      9  C   UNL A   1      32.755  22.455  24.282  1.00  0.00     0.000 A 
ATOM     10  C   UNL A   1      32.802  21.925  25.576  1.00  0.00     0.011 A 
ATOM     11  C   UNL A   1      32.518  21.574  23.221  1.00  0.00     0.130 A 
ATOM     12  C   UNL A   1      32.606  20.554  25.780  1.00  0.00     0.047 A 
ATOM     13  C   UNL A   1      32.309  20.210  23.424  1.00  0.00     0.086 A 
ATOM     14  F   UNL A   1      32.528  22.026  21.959  1.00  0.00    -0.207 F 
ATOM     15  C   UNL A   1      32.346  19.690  24.709  1.00  0.00     0.123 A 
BRANCH  15  16
ATOM     16  O   UNL A   1      32.200  18.384  25.068  1.00  0.00    -0.483 OA
BRANCH  16  17
ATOM     17  C   UNL A   1      33.022  17.372  24.537  1.00  0.00     0.239 C 
ATOM     18  C   UNL A   1      34.479  17.807  24.317  1.00  0.00     0.054 C 
ATOM     19  C   UNL A   1      33.151  15.967  25.123  1.00  0.00     0.173 C 
ATOM     20  C   UNL A   1      35.354  16.807  25.066  1.00  0.00     0.012 C 
ATOM     21  C   UNL A   1      34.580  15.497  25.110  1.00  0.00     0.080 C 
ATOM     22  O   UNL A   1      32.217  15.279  25.505  1.00  0.00    -0.296 OA
ENDBRANCH  16  17
ENDBRANCH  15  16
ENDBRANCH   7   9
ENDBRANCH   4   7
ENDBRANCH   2   3
ENDBRANCH   1   2
BRANCH   1  23
ATOM     23  C   UNL A   1      37.041  21.844  25.326  1.00  0.00     0.118 C 
BRANCH  23  24
ATOM     24  N   UNL A   1      38.056  20.889  25.736  1.00  0.00    -0.352 N 
ATOM     25  C   UNL A   1      39.318  21.076  26.241  1.00  0.00     0.251 C 
ATOM     26  H   UNL A   1      37.792  19.946  25.636  1.00  0.00     0.163 HD
ATOM     27  O   UNL A   1      40.053  20.094  26.348  1.00  0.00    -0.269 OA
BRANCH  25  28
ATOM     28  C   UNL A   1      39.817  22.416  26.635  1.00  0.00     0.039 A 
ATOM     29  C   UNL A   1      40.830  22.486  27.597  1.00  0.00     0.014 A 
ATOM     30  C   UNL A   1      39.271  23.599  26.128  1.00  0.00     0.014 A 
ATOM     31  C   UNL A   1      41.327  23.726  28.007  1.00  0.00     0.010 A 
ATOM     32  C   UNL A   1      39.816  24.836  26.485  1.00  0.00     0.010 A 
ATOM     33  C   UNL A   1      40.847  24.913  27.432  1.00  0.00    -0.014 A 
BRANCH  33  34
ATOM     34  C   UNL A   1      41.431  26.227  27.818  1.00  0.00     0.031 A 
ATOM     35  C   UNL A   1      42.831  26.600  27.411  1.00  0.00     0.074 A 
ATOM     36  C   UNL A   1      40.697  27.081  28.560  1.00  0.00     0.049 A 
ATOM     37  N   UNL A   1      43.493  27.706  27.640  1.00  0.00    -0.248 NA
ATOM     38  C   UNL A   1      43.597  25.586  26.672  1.00  0.00     0.031 C 
ATOM     39  C   UNL A   1      39.347  26.814  29.063  1.00  0.00     0.029 A 
ATOM     40  N   UNL A   1      40.975  28.345  29.017  1.00  0.00    -0.354 N 
ATOM     41  C   UNL A   1      44.752  27.523  27.077  1.00  0.00     0.074 A 
ATOM     42  C   UNL A   1      44.779  26.173  26.553  1.00  0.00     0.031 C 
ATOM     43  C   UNL A   1      38.904  27.892  29.728  1.00  0.00     0.029 A 
ATOM     44  C   UNL A   1      39.945  28.914  29.729  1.00  0.00     0.049 A 
ATOM     45  H   UNL A   1      41.831  28.800  28.850  1.00  0.00     0.167 HD
ATOM     46  C   UNL A   1      45.781  28.404  26.986  1.00  0.00     0.034 A 
ATOM     47  C   UNL A   1      39.847  30.124  30.315  1.00  0.00     0.034 A 
ATOM     48  C   UNL A   1      45.739  29.749  27.510  1.00  0.00     0.049 A 
ATOM     49  C   UNL A   1      41.000  31.085  30.198  1.00  0.00     0.074 A 
ATOM     50  C   UNL A   1      46.702  30.740  27.424  1.00  0.00     0.029 A 
ATOM     51  N   UNL A   1      44.679  30.292  28.227  1.00  0.00    -0.354 N 
ATOM     52  N   UNL A   1      42.161  30.917  29.606  1.00  0.00    -0.248 NA
ATOM     53  C   UNL A   1      40.821  32.406  30.812  1.00  0.00     0.031 C 
ATOM     54  C   UNL A   1      46.252  31.856  28.141  1.00  0.00     0.029 A 
ATOM     55  C   UNL A   1      44.977  31.591  28.614  1.00  0.00     0.049 A 
ATOM     56  H   UNL A   1      43.838  29.823  28.430  1.00  0.00     0.167 HD
ATOM     57  C   UNL A   1      42.842  32.122  29.761  1.00  0.00     0.074 A 
ATOM     58  C   UNL A   1      41.949  33.013  30.475  1.00  0.00     0.031 C 
ATOM     59  C   UNL A   1      44.091  32.461  29.351  1.00  0.00     0.034 A 
BRANCH  46  60
ATOM     60  C   UNL A   1      47.047  27.924  26.312  1.00  0.00     0.023 A 
ATOM     61  C   UNL A   1      47.259  28.096  24.932  1.00  0.00     0.031 A 
ATOM     62  C   UNL A   1      48.046  27.266  27.051  1.00  0.00     0.131 A 
ATOM     63  C   UNL A   1      48.398  27.548  24.323  1.00  0.00     0.055 A 
ATOM     64  C   UNL A   1      49.217  26.795  26.452  1.00  0.00     0.041 A 
ATOM     65  F   UNL A   1      47.894  27.056  28.368  1.00  0.00    -0.206 F 
ATOM     66  C   UNL A   1      49.391  26.920  25.077  1.00  0.00     0.022 A 
BRANCH  63  67
ATOM     67  S   UNL A   1      48.496  27.545  22.511  1.00  0.00     0.124 S 
ATOM     68  O   UNL A   1      49.720  28.308  22.280  1.00  0.00    -0.237 OA
ATOM     69  O   UNL A   1      48.561  26.121  22.201  1.00  0.00    -0.237 OA
ATOM     70  O   UNL A   1      47.265  28.217  22.100  1.00  0.00    -0.744 OA
ENDBRANCH  63  67
ENDBRANCH  46  60
BRANCH  47  71
ATOM     71  C   UNL A   1      38.615  30.501  31.062  1.00  0.00     0.023 A 
ATOM     72  C   UNL A   1      37.566  31.188  30.430  1.00  0.00     0.031 A 
ATOM     73  C   UNL A   1      38.483  30.210  32.432  1.00  0.00     0.131 A 
ATOM     74  C   UNL A   1      36.452  31.603  31.177  1.00  0.00     0.055 A 
ATOM     75  C   UNL A   1      37.350  30.581  33.158  1.00  0.00     0.041 A 
ATOM     76  F   UNL A   1      39.453  29.546  33.081  1.00  0.00    -0.206 F 
ATOM     77  C   UNL A   1      36.331  31.293  32.533  1.00  0.00     0.022 A 
BRANCH  74  78
ATOM     78  S   UNL A   1      35.191  32.621  30.362  1.00  0.00     0.124 S 
ATOM     79  O   UNL A   1      34.169  32.715  31.397  1.00  0.00    -0.237 OA
ATOM     80  O   UNL A   1      35.930  33.847  30.077  1.00  0.00    -0.237 OA
ATOM     81  O   UNL A   1      34.823  31.832  29.189  1.00  0.00    -0.744 OA
ENDBRANCH  74  78
ENDBRANCH  47  71
BRANCH  59  82
ATOM     82  C   UNL A   1      44.543  33.869  29.654  1.00  0.00     0.023 A 
ATOM     83  C   UNL A   1      44.243  34.940  28.792  1.00  0.00     0.031 A 
ATOM     84  C   UNL A   1      45.324  34.137  30.792  1.00  0.00     0.131 A 
ATOM     85  C   UNL A   1      44.783  36.211  29.042  1.00  0.00     0.055 A 
ATOM     86  C   UNL A   1      45.804  35.419  31.070  1.00  0.00     0.041 A 
ATOM     87  F   UNL A   1      45.643  33.154  31.649  1.00  0.00    -0.206 F 
ATOM     88  C   UNL A   1      45.548  36.461  30.182  1.00  0.00     0.022 A 
BRANCH  85  89
ATOM     89  S   UNL A   1      44.569  37.507  27.789  1.00  0.00     0.124 S 
ATOM     90  O   UNL A   1      45.931  37.681  27.296  1.00  0.00    -0.237 OA
ATOM     91  O   UNL A   1      43.629  36.889  26.859  1.00  0.00    -0.237 OA
ATOM     92  O   UNL A   1      44.036  38.635  28.550  1.00  0.00    -0.744 OA
ENDBRANCH  85  89
ENDBRANCH  59  82
ENDBRANCH  33  34
ENDBRANCH  25  28
ENDBRANCH  23  24
ENDBRANCH   1  23
TORSDOF 16
ENDMDL
MODEL 2
REMARK VINA RESULT:     -11.8      2.543      4.784
REMARK SMILES C[C@@H](C(=O)NCCCNC(=O)c1ccc(-c2c3nc(c(-c4cc(S(=O)(=O)[O-])ccc4F)c4ccc([nH]4)c(-c4cc(S(=O)(=O)[O-])ccc4F)c4nc(c(-c5cc(S(=O)(=O)[O-])ccc5F)c5ccc2[nH]5)C=C4)C=C3)cc1)c1ccc(O[C@H]2CCCC2=O)cc1F
REMARK SMILES IDX 7 1 6 2 5 3 3 4 4 5 2 7 1 8 75 9 76 10 87 11 77 12 86 13
REMARK SMILES IDX 88 14 78 15 79 16 80 17 81 18 84 19 82 20 83 21 85 22 8 23
REMARK SMILES IDX 9 24 10 25 11 27 12 28 13 29 74 30 14 31 73 32 15 33 16 34
REMARK SMILES IDX 17 35 67 36 18 37 72 38 66 39 68 40 19 41 71 42 65 43 64 44
REMARK SMILES IDX 20 46 52 47 32 48 51 49 33 50 36 51 50 52 69 53 34 54 35 55
REMARK SMILES IDX 49 57 70 58 37 59 21 60 22 61 30 62 23 63 29 64 31 65 28 66
REMARK SMILES IDX 24 67 25 68 26 69 27 70 53 71 54 72 62 73 55 74 61 75 63 76
REMARK SMILES IDX 60 77 56 78 57 79 58 80 59 81 38 82 39 83 47 84 40 85 46 86
REMARK SMILES IDX 48 87 45 88 41 89 42 90 43 91 44 92
REMARK H PARENT 5 6 9 26 68 45 36 56
REMARK Flexibility Score: inf
ROOT
ATOM      1  C   UNL A   1      36.707  22.168  24.060  1.00  0.00     0.042 C 
ENDROOT
BRANCH   1   2
ATOM      2  C   UNL A   1      35.925  23.240  23.304  1.00  0.00     0.117 C 
BRANCH   2   3
ATOM      3  N   UNL A   1      34.497  22.996  23.298  1.00  0.00    -0.356 N 
ATOM      4  C   UNL A   1      33.490  23.560  24.027  1.00  0.00     0.227 C 
ATOM      5  O   UNL A   1      32.342  23.295  23.659  1.00  0.00    -0.274 OA
ATOM      6  H   UNL A   1      34.202  22.306  22.660  1.00  0.00     0.163 HD
BRANCH   4   7
ATOM      7  C   UNL A   1      33.799  24.540  25.177  1.00  0.00     0.108 C 
ATOM      8  C   UNL A   1      33.489  23.981  26.569  1.00  0.00     0.023 C 
BRANCH   7   9
ATOM      9  C   UNL A   1      33.061  25.866  25.031  1.00  0.00     0.000 A 
ATOM     10  C   UNL A   1      32.097  26.255  25.968  1.00  0.00     0.011 A 
ATOM     11  C   UNL A   1      33.266  26.693  23.921  1.00  0.00     0.130 A 
ATOM     12  C   UNL A   1      31.377  27.441  25.784  1.00  0.00     0.047 A 
ATOM     13  C   UNL A   1      32.560  27.882  23.742  1.00  0.00     0.086 A 
ATOM     14  F   UNL A   1      34.133  26.329  22.965  1.00  0.00    -0.207 F 
ATOM     15  C   UNL A   1      31.611  28.268  24.678  1.00  0.00     0.123 A 
BRANCH  15  16
ATOM     16  O   UNL A   1      30.817  29.374  24.630  1.00  0.00    -0.483 OA
BRANCH  16  17
ATOM     17  C   UNL A   1      29.981  29.639  23.529  1.00  0.00     0.239 C 
ATOM     18  C   UNL A   1      29.196  28.415  23.037  1.00  0.00     0.054 C 
ATOM     19  C   UNL A   1      28.954  30.770  23.477  1.00  0.00     0.173 C 
ATOM     20  C   UNL A   1      27.722  28.808  23.040  1.00  0.00     0.012 C 
ATOM     21  C   UNL A   1      27.671  30.315  22.837  1.00  0.00     0.080 C 
ATOM     22  O   UNL A   1      29.154  31.915  23.851  1.00  0.00    -0.296 OA
ENDBRANCH  16  17
ENDBRANCH  15  16
ENDBRANCH   7   9
ENDBRANCH   4   7
ENDBRANCH   2   3
ENDBRANCH   1   2
BRANCH   1  23
ATOM     23  C   UNL A   1      37.259  22.602  25.417  1.00  0.00     0.118 C 
BRANCH  23  24
ATOM     24  N   UNL A   1      38.329  21.744  25.894  1.00  0.00    -0.352 N 
ATOM     25  C   UNL A   1      39.536  22.044  26.474  1.00  0.00     0.251 C 
ATOM     26  H   UNL A   1      38.159  20.780  25.783  1.00  0.00     0.163 HD
ATOM     27  O   UNL A   1      40.349  21.134  26.632  1.00  0.00    -0.269 OA
BRANCH  25  28
ATOM     28  C   UNL A   1      39.886  23.425  26.890  1.00  0.00     0.039 A 
ATOM     29  C   UNL A   1      40.428  23.611  28.166  1.00  0.00     0.014 A 
ATOM     30  C   UNL A   1      39.635  24.538  26.082  1.00  0.00     0.014 A 
ATOM     31  C   UNL A   1      40.765  24.894  28.606  1.00  0.00     0.010 A 
ATOM     32  C   UNL A   1      40.038  25.812  26.495  1.00  0.00     0.010 A 
ATOM     33  C   UNL A   1      40.603  26.004  27.763  1.00  0.00    -0.014 A 
BRANCH  33  34
ATOM     34  C   UNL A   1      41.032  27.358  28.210  1.00  0.00     0.031 A 
ATOM     35  C   UNL A   1      42.484  27.757  28.182  1.00  0.00     0.074 A 
ATOM     36  C   UNL A   1      40.106  28.227  28.664  1.00  0.00     0.049 A 
ATOM     37  N   UNL A   1      43.035  28.897  28.512  1.00  0.00    -0.248 NA
ATOM     38  C   UNL A   1      43.443  26.730  27.750  1.00  0.00     0.031 C 
ATOM     39  C   UNL A   1      38.674  27.940  28.791  1.00  0.00     0.029 A 
ATOM     40  N   UNL A   1      40.222  29.524  29.097  1.00  0.00    -0.354 N 
ATOM     41  C   UNL A   1      44.404  28.727  28.332  1.00  0.00     0.074 A 
ATOM     42  C   UNL A   1      44.601  27.352  27.924  1.00  0.00     0.031 C 
ATOM     43  C   UNL A   1      38.044  29.038  29.236  1.00  0.00     0.029 A 
ATOM     44  C   UNL A   1      39.025  30.095  29.458  1.00  0.00     0.049 A 
ATOM     45  H   UNL A   1      41.083  29.999  29.144  1.00  0.00     0.167 HD
ATOM     46  C   UNL A   1      45.401  29.638  28.471  1.00  0.00     0.034 A 
ATOM     47  C   UNL A   1      38.746  31.332  29.915  1.00  0.00     0.034 A 
ATOM     48  C   UNL A   1      45.191  31.009  28.875  1.00  0.00     0.049 A 
ATOM     49  C   UNL A   1      39.868  32.326  30.059  1.00  0.00     0.074 A 
ATOM     50  C   UNL A   1      46.121  32.027  28.995  1.00  0.00     0.029 A 
ATOM     51  N   UNL A   1      43.963  31.553  29.235  1.00  0.00    -0.354 N 
ATOM     52  N   UNL A   1      41.150  32.166  29.822  1.00  0.00    -0.248 NA
ATOM     53  C   UNL A   1      39.501  33.672  30.513  1.00  0.00     0.031 C 
ATOM     54  C   UNL A   1      45.469  33.165  29.486  1.00  0.00     0.029 A 
ATOM     55  C   UNL A   1      44.118  32.882  29.605  1.00  0.00     0.049 A 
ATOM     56  H   UNL A   1      43.108  31.067  29.228  1.00  0.00     0.167 HD
ATOM     57  C   UNL A   1      41.739  33.401  30.081  1.00  0.00     0.074 A 
ATOM     58  C   UNL A   1      40.667  34.298  30.461  1.00  0.00     0.031 C 
ATOM     59  C   UNL A   1      43.046  33.761  30.011  1.00  0.00     0.034 A 
BRANCH  46  60
ATOM     60  C   UNL A   1      46.813  29.166  28.205  1.00  0.00     0.023 A 
ATOM     61  C   UNL A   1      47.259  28.870  26.904  1.00  0.00     0.031 A 
ATOM     62  C   UNL A   1      47.720  28.987  29.265  1.00  0.00     0.131 A 
ATOM     63  C   UNL A   1      48.543  28.337  26.706  1.00  0.00     0.055 A 
ATOM     64  C   UNL A   1      49.024  28.533  29.052  1.00  0.00     0.041 A 
ATOM     65  F   UNL A   1      47.348  29.236  30.531  1.00  0.00    -0.206 F 
ATOM     66  C   UNL A   1      49.437  28.191  27.768  1.00  0.00     0.022 A 
BRANCH  63  67
ATOM     67  S   UNL A   1      48.975  27.707  25.061  1.00  0.00     0.124 S 
ATOM     68  O   UNL A   1      47.865  28.206  24.253  1.00  0.00    -0.237 OA
ATOM     69  O   UNL A   1      50.273  28.327  24.817  1.00  0.00    -0.237 OA
ATOM     70  O   UNL A   1      49.000  26.258  25.245  1.00  0.00    -0.744 OA
ENDBRANCH  63  67
ENDBRANCH  46  60
BRANCH  47  71
ATOM     71  C   UNL A   1      37.347  31.707  30.267  1.00  0.00     0.023 A 
ATOM     72  C   UNL A   1      36.453  32.171  29.289  1.00  0.00     0.031 A 
ATOM     73  C   UNL A   1      36.894  31.640  31.597  1.00  0.00     0.131 A 
ATOM     74  C   UNL A   1      35.168  32.594  29.661  1.00  0.00     0.055 A 
ATOM     75  C   UNL A   1      35.598  32.015  31.954  1.00  0.00     0.041 A 
ATOM     76  F   UNL A   1      37.707  31.195  32.569  1.00  0.00    -0.206 F 
ATOM     77  C   UNL A   1      34.730  32.507  30.984  1.00  0.00     0.022 A 
BRANCH  74  78
ATOM     78  S   UNL A   1      34.096  33.330  28.396  1.00  0.00     0.124 S 
ATOM     79  O   UNL A   1      33.504  32.148  27.781  1.00  0.00    -0.237 OA
ATOM     80  O   UNL A   1      33.199  34.152  29.201  1.00  0.00    -0.237 OA
ATOM     81  O   UNL A   1      35.029  34.074  27.552  1.00  0.00    -0.744 OA
ENDBRANCH  74  78
ENDBRANCH  47  71
BRANCH  59  82
ATOM     82  C   UNL A   1      43.370  35.199  30.334  1.00  0.00     0.023 A 
ATOM     83  C   UNL A   1      43.363  36.197  29.343  1.00  0.00     0.031 A 
ATOM     84  C   UNL A   1      43.738  35.570  31.640  1.00  0.00     0.131 A 
ATOM     85  C   UNL A   1      43.787  37.497  29.655  1.00  0.00     0.055 A 
ATOM     86  C   UNL A   1      44.097  36.881  31.959  1.00  0.00     0.041 A 
ATOM     87  F   UNL A   1      43.765  34.659  32.627  1.00  0.00    -0.206 F 
ATOM     88  C   UNL A   1      44.140  37.849  30.959  1.00  0.00     0.022 A 
BRANCH  85  89
ATOM     89  S   UNL A   1      43.988  38.693  28.305  1.00  0.00     0.124 S 
ATOM     90  O   UNL A   1      45.407  39.019  28.396  1.00  0.00    -0.237 OA
ATOM     91  O   UNL A   1      43.586  37.915  27.137  1.00  0.00    -0.237 OA
ATOM     92  O   UNL A   1      43.078  39.778  28.669  1.00  0.00    -0.744 OA
ENDBRANCH  85  89
ENDBRANCH  59  82
ENDBRANCH  33  34
ENDBRANCH  25  28
ENDBRANCH  23  24
ENDBRANCH   1  23
TORSDOF 16
ENDMDL
MODEL 3
REMARK VINA RESULT:     -11.8      4.890      9.544
REMARK SMILES C[C@@H](C(=O)NCCCNC(=O)c1ccc(-c2c3nc(c(-c4cc(S(=O)(=O)[O-])ccc4F)c4ccc([nH]4)c(-c4cc(S(=O)(=O)[O-])ccc4F)c4nc(c(-c5cc(S(=O)(=O)[O-])ccc5F)c5ccc2[nH]5)C=C4)C=C3)cc1)c1ccc(O[C@H]2CCCC2=O)cc1F
REMARK SMILES IDX 7 1 6 2 5 3 3 4 4 5 2 7 1 8 75 9 76 10 87 11 77 12 86 13
REMARK SMILES IDX 88 14 78 15 79 16 80 17 81 18 84 19 82 20 83 21 85 22 8 23
REMARK SMILES IDX 9 24 10 25 11 27 12 28 13 29 74 30 14 31 73 32 15 33 16 34
REMARK SMILES IDX 17 35 67 36 18 37 72 38 66 39 68 40 19 41 71 42 65 43 64 44
REMARK SMILES IDX 20 46 52 47 32 48 51 49 33 50 36 51 50 52 69 53 34 54 35 55
REMARK SMILES IDX 49 57 70 58 37 59 21 60 22 61 30 62 23 63 29 64 31 65 28 66
REMARK SMILES IDX 24 67 25 68 26 69 27 70 53 71 54 72 62 73 55 74 61 75 63 76
REMARK SMILES IDX 60 77 56 78 57 79 58 80 59 81 38 82 39 83 47 84 40 85 46 86
REMARK SMILES IDX 48 87 45 88 41 89 42 90 43 91 44 92
REMARK H PARENT 5 6 9 26 68 45 36 56
REMARK Flexibility Score: inf
ROOT
ATOM      1  C   UNL A   1      31.897  29.062  26.964  1.00  0.00     0.042 C 
ENDROOT
BRANCH   1   2
ATOM      2  C   UNL A   1      31.803  27.698  27.644  1.00  0.00     0.117 C 
BRANCH   2   3
ATOM      3  N   UNL A   1      31.219  26.682  26.791  1.00  0.00    -0.356 N 
ATOM      4  C   UNL A   1      31.793  25.646  26.113  1.00  0.00     0.227 C 
ATOM      5  O   UNL A   1      31.015  24.819  25.630  1.00  0.00    -0.274 OA
ATOM      6  H   UNL A   1      30.243  26.751  26.682  1.00  0.00     0.163 HD
BRANCH   4   7
ATOM      7  C   UNL A   1      33.326  25.494  26.052  1.00  0.00     0.108 C 
ATOM      8  C   UNL A   1      34.004  26.436  25.053  1.00  0.00     0.023 C 
BRANCH   7   9
ATOM      9  C   UNL A   1      33.762  24.071  25.719  1.00  0.00     0.000 A 
ATOM     10  C   UNL A   1      34.286  23.759  24.460  1.00  0.00     0.011 A 
ATOM     11  C   UNL A   1      33.576  23.023  26.629  1.00  0.00     0.130 A 
ATOM     12  C   UNL A   1      34.615  22.435  24.144  1.00  0.00     0.047 A 
ATOM     13  C   UNL A   1      33.916  21.706  26.321  1.00  0.00     0.086 A 
ATOM     14  F   UNL A   1      33.017  23.264  27.824  1.00  0.00    -0.207 F 
ATOM     15  C   UNL A   1      34.445  21.403  25.075  1.00  0.00     0.123 A 
BRANCH  15  16
ATOM     16  O   UNL A   1      34.790  20.170  24.611  1.00  0.00    -0.483 OA
BRANCH  16  17
ATOM     17  C   UNL A   1      33.891  19.088  24.639  1.00  0.00     0.239 C 
ATOM     18  C   UNL A   1      32.620  19.315  23.807  1.00  0.00     0.054 C 
ATOM     19  C   UNL A   1      34.271  17.641  24.327  1.00  0.00     0.173 C 
ATOM     20  C   UNL A   1      32.517  18.145  22.834  1.00  0.00     0.012 C 
ATOM     21  C   UNL A   1      33.216  16.965  23.494  1.00  0.00     0.080 C 
ATOM     22  O   UNL A   1      35.270  17.074  24.742  1.00  0.00    -0.296 OA
ENDBRANCH  16  17
ENDBRANCH  15  16
ENDBRANCH   7   9
ENDBRANCH   4   7
ENDBRANCH   2   3
ENDBRANCH   1   2
BRANCH   1  23
ATOM     23  C   UNL A   1      33.292  29.685  26.950  1.00  0.00     0.118 C 
BRANCH  23  24
ATOM     24  N   UNL A   1      33.274  31.118  27.185  1.00  0.00    -0.352 N 
ATOM     25  C   UNL A   1      34.123  31.926  27.900  1.00  0.00     0.251 C 
ATOM     26  H   UNL A   1      32.525  31.592  26.757  1.00  0.00     0.163 HD
ATOM     27  O   UNL A   1      33.790  33.094  28.093  1.00  0.00    -0.269 OA
BRANCH  25  28
ATOM     28  C   UNL A   1      35.403  31.423  28.456  1.00  0.00     0.039 A 
ATOM     29  C   UNL A   1      35.368  30.277  29.258  1.00  0.00     0.014 A 
ATOM     30  C   UNL A   1      36.619  32.085  28.259  1.00  0.00     0.014 A 
ATOM     31  C   UNL A   1      36.547  29.771  29.812  1.00  0.00     0.010 A 
ATOM     32  C   UNL A   1      37.807  31.539  28.754  1.00  0.00     0.010 A 
ATOM     33  C   UNL A   1      37.783  30.378  29.540  1.00  0.00    -0.014 A 
BRANCH  33  34
ATOM     34  C   UNL A   1      39.043  29.792  30.072  1.00  0.00     0.031 A 
ATOM     35  C   UNL A   1      39.667  30.317  31.338  1.00  0.00     0.074 A 
ATOM     36  C   UNL A   1      39.641  28.790  29.395  1.00  0.00     0.049 A 
ATOM     37  N   UNL A   1      40.748  29.915  31.957  1.00  0.00    -0.248 NA
ATOM     38  C   UNL A   1      39.002  31.462  31.977  1.00  0.00     0.031 C 
ATOM     39  C   UNL A   1      39.164  28.230  28.127  1.00  0.00     0.029 A 
ATOM     40  N   UNL A   1      40.770  28.062  29.674  1.00  0.00    -0.354 N 
ATOM     41  C   UNL A   1      40.896  30.756  33.055  1.00  0.00     0.074 A 
ATOM     42  C   UNL A   1      39.828  31.730  32.978  1.00  0.00     0.031 C 
ATOM     43  C   UNL A   1      39.975  27.226  27.759  1.00  0.00     0.029 A 
ATOM     44  C   UNL A   1      41.045  27.090  28.741  1.00  0.00     0.049 A 
ATOM     45  H   UNL A   1      41.329  28.221  30.468  1.00  0.00     0.167 HD
ATOM     46  C   UNL A   1      41.822  30.707  34.047  1.00  0.00     0.034 A 
ATOM     47  C   UNL A   1      42.045  26.188  28.682  1.00  0.00     0.034 A 
ATOM     48  C   UNL A   1      42.881  29.727  34.114  1.00  0.00     0.049 A 
ATOM     49  C   UNL A   1      43.059  26.151  29.795  1.00  0.00     0.074 A 
ATOM     50  C   UNL A   1      43.837  29.553  35.100  1.00  0.00     0.029 A 
ATOM     51  N   UNL A   1      43.130  28.757  33.149  1.00  0.00    -0.354 N 
ATOM     52  N   UNL A   1      43.146  26.915  30.861  1.00  0.00    -0.248 NA
ATOM     53  C   UNL A   1      44.097  25.118  29.706  1.00  0.00     0.031 C 
ATOM     54  C   UNL A   1      44.699  28.524  34.703  1.00  0.00     0.029 A 
ATOM     55  C   UNL A   1      44.241  28.004  33.503  1.00  0.00     0.049 A 
ATOM     56  H   UNL A   1      42.596  28.623  32.334  1.00  0.00     0.167 HD
ATOM     57  C   UNL A   1      44.240  26.438  31.578  1.00  0.00     0.074 A 
ATOM     58  C   UNL A   1      44.758  25.304  30.839  1.00  0.00     0.031 C 
ATOM     59  C   UNL A   1      44.767  26.894  32.743  1.00  0.00     0.034 A 
BRANCH  46  60
ATOM     60  C   UNL A   1      41.738  31.763  35.126  1.00  0.00     0.023 A 
ATOM     61  C   UNL A   1      40.758  31.711  36.134  1.00  0.00     0.031 A 
ATOM     62  C   UNL A   1      42.632  32.848  35.136  1.00  0.00     0.131 A 
ATOM     63  C   UNL A   1      40.646  32.762  37.059  1.00  0.00     0.055 A 
ATOM     64  C   UNL A   1      42.567  33.849  36.109  1.00  0.00     0.041 A 
ATOM     65  F   UNL A   1      43.578  32.962  34.191  1.00  0.00    -0.206 F 
ATOM     66  C   UNL A   1      41.559  33.818  37.069  1.00  0.00     0.022 A 
BRANCH  63  67
ATOM     67  S   UNL A   1      39.204  32.798  38.158  1.00  0.00     0.124 S 
ATOM     68  O   UNL A   1      38.696  34.150  37.935  1.00  0.00    -0.237 OA
ATOM     69  O   UNL A   1      38.381  31.712  37.637  1.00  0.00    -0.237 OA
ATOM     70  O   UNL A   1      39.776  32.567  39.483  1.00  0.00    -0.744 OA
ENDBRANCH  63  67
ENDBRANCH  46  60
BRANCH  47  71
ATOM     71  C   UNL A   1      42.140  25.243  27.534  1.00  0.00     0.023 A 
ATOM     72  C   UNL A   1      41.424  24.035  27.529  1.00  0.00     0.031 A 
ATOM     73  C   UNL A   1      42.979  25.518  26.439  1.00  0.00     0.131 A 
ATOM     74  C   UNL A   1      41.594  23.126  26.474  1.00  0.00     0.055 A 
ATOM     75  C   UNL A   1      43.106  24.632  25.368  1.00  0.00     0.041 A 
ATOM     76  F   UNL A   1      43.678  26.663  26.391  1.00  0.00    -0.206 F 
ATOM     77  C   UNL A   1      42.420  23.421  25.388  1.00  0.00     0.022 A 
BRANCH  74  78
ATOM     78  S   UNL A   1      40.773  21.512  26.578  1.00  0.00     0.124 S 
ATOM     79  O   UNL A   1      41.684  20.664  25.818  1.00  0.00    -0.237 OA
ATOM     80  O   UNL A   1      40.736  21.283  28.018  1.00  0.00    -0.237 OA
ATOM     81  O   UNL A   1      39.474  21.750  25.953  1.00  0.00    -0.744 OA
ENDBRANCH  74  78
ENDBRANCH  47  71
BRANCH  59  82
ATOM     82  C   UNL A   1      45.956  26.140  33.288  1.00  0.00     0.023 A 
ATOM     83  C   UNL A   1      47.270  26.448  32.889  1.00  0.00     0.031 A 
ATOM     84  C   UNL A   1      45.773  25.070  34.181  1.00  0.00     0.131 A 
ATOM     85  C   UNL A   1      48.339  25.649  33.322  1.00  0.00     0.055 A 
ATOM     86  C   UNL A   1      46.848  24.319  34.660  1.00  0.00     0.041 A 
ATOM     87  F   UNL A   1      44.541  24.728  34.595  1.00  0.00    -0.206 F 
ATOM     88  C   UNL A   1      48.138  24.596  34.216  1.00  0.00     0.022 A 
BRANCH  85  89
ATOM     89  S   UNL A   1      49.981  25.931  32.604  1.00  0.00     0.124 S 
ATOM     90  O   UNL A   1      49.659  26.205  31.208  1.00  0.00    -0.237 OA
ATOM     91  O   UNL A   1      50.469  27.067  33.380  1.00  0.00    -0.237 OA
ATOM     92  O   UNL A   1      50.681  24.671  32.844  1.00  0.00    -0.744 OA
ENDBRANCH  85  89
ENDBRANCH  59  82
ENDBRANCH  33  34
ENDBRANCH  25  28
ENDBRANCH  23  24
ENDBRANCH   1  23
TORSDOF 16
ENDMDL
