MODEL 1
REMARK VINA RESULT:     -13.0      0.000      0.000
REMARK SMILES O=C(NCCCNC(=O)[C@@H]1C[N@@H+](C2CCN(C(=O)c3ccccc3)CC2)C[C@H]1C1CC1)c1ccc(-c2c3nc(c(-c4cc(S(=O)(=O)[O-])ccc4F)c4ccc([nH]4)c(-c4cc(S(=O)(=O)[O-])ccc4F)c4nc(c(-c5cc(S(=O)(=O)[O-])ccc5F)c5ccc2[nH]5)C=C4)C=C3)cc1
REMARK SMILES IDX 4 1 3 2 1 3 2 4 32 6 33 7 94 8 34 9 93 10 35 11 36 12 37 13
REMARK SMILES IDX 87 14 38 15 92 16 86 17 88 18 39 19 91 20 85 21 84 22 40 24
REMARK SMILES IDX 72 25 52 26 71 27 53 28 56 29 70 30 89 31 54 32 55 33 69 35
REMARK SMILES IDX 90 36 57 37 41 38 42 39 50 40 43 41 49 42 51 43 48 44 44 45
REMARK SMILES IDX 45 46 46 47 47 48 73 49 74 50 82 51 75 52 81 53 83 54 80 55
REMARK SMILES IDX 76 56 77 57 78 58 79 59 58 60 59 61 67 62 60 63 66 64 68 65
REMARK SMILES IDX 65 66 61 67 62 68 63 69 64 70 5 71 6 72 7 73 8 74 9 76 10 77
REMARK SMILES IDX 11 78 28 79 12 80 27 81 29 83 30 84 31 85 13 86 14 87 26 88
REMARK SMILES IDX 15 89 25 90 16 91 17 92 18 93 19 94 20 95 24 96 21 97 23 98
REMARK SMILES IDX 22 99
REMARK H PARENT 3 5 88 23 56 34 7 75 12 82
REMARK Flexibility Score: inf
ROOT
ATOM      1  C   UNL A   1      32.856  32.305  27.219  1.00  0.00     0.118 C 
ENDROOT
BRANCH   1   2
ATOM      2  N   UNL A   1      32.642  33.701  27.580  1.00  0.00    -0.352 N 
ATOM      3  O   UNL A   1      32.611  35.451  28.989  1.00  0.00    -0.269 OA
ATOM      4  C   UNL A   1      33.148  34.403  28.644  1.00  0.00     0.251 C 
ATOM      5  H   UNL A   1      32.054  34.210  26.976  1.00  0.00     0.163 HD
BRANCH   4   6
ATOM      6  C   UNL A   1      34.340  33.897  29.351  1.00  0.00     0.039 A 
ATOM      7  C   UNL A   1      34.201  32.985  30.402  1.00  0.00     0.014 A 
ATOM      8  C   UNL A   1      35.609  34.296  28.926  1.00  0.00     0.014 A 
ATOM      9  C   UNL A   1      35.319  32.558  31.102  1.00  0.00     0.010 A 
ATOM     10  C   UNL A   1      36.738  33.796  29.574  1.00  0.00     0.010 A 
ATOM     11  C   UNL A   1      36.600  32.933  30.674  1.00  0.00    -0.014 A 
BRANCH  11  12
ATOM     12  C   UNL A   1      37.793  32.357  31.336  1.00  0.00     0.031 A 
ATOM     13  C   UNL A   1      38.535  31.215  30.712  1.00  0.00     0.074 A 
ATOM     14  C   UNL A   1      38.176  32.858  32.527  1.00  0.00     0.049 A 
ATOM     15  N   UNL A   1      39.523  30.509  31.196  1.00  0.00    -0.248 NA
ATOM     16  C   UNL A   1      38.095  30.803  29.372  1.00  0.00     0.031 C 
ATOM     17  C   UNL A   1      37.522  33.974  33.217  1.00  0.00     0.029 A 
ATOM     18  N   UNL A   1      39.188  32.492  33.373  1.00  0.00    -0.354 N 
ATOM     19  C   UNL A   1      39.810  29.549  30.232  1.00  0.00     0.074 A 
ATOM     20  C   UNL A   1      38.863  29.746  29.154  1.00  0.00     0.031 C 
ATOM     21  C   UNL A   1      38.155  34.206  34.374  1.00  0.00     0.029 A 
ATOM     22  C   UNL A   1      39.201  33.206  34.548  1.00  0.00     0.049 A 
ATOM     23  H   UNL A   1      39.844  31.788  33.160  1.00  0.00     0.167 HD
ATOM     24  C   UNL A   1      40.778  28.597  30.253  1.00  0.00     0.034 A 
ATOM     25  C   UNL A   1      39.931  33.040  35.667  1.00  0.00     0.034 A 
ATOM     26  C   UNL A   1      41.696  28.424  31.356  1.00  0.00     0.049 A 
ATOM     27  C   UNL A   1      40.951  31.938  35.702  1.00  0.00     0.074 A 
ATOM     28  C   UNL A   1      42.739  27.522  31.477  1.00  0.00     0.029 A 
ATOM     29  N   UNL A   1      41.667  29.155  32.540  1.00  0.00    -0.354 N 
ATOM     30  N   UNL A   1      41.229  31.046  34.780  1.00  0.00    -0.248 NA
ATOM     31  C   UNL A   1      41.759  31.820  36.921  1.00  0.00     0.031 C 
ATOM     32  C   UNL A   1      43.280  27.649  32.761  1.00  0.00     0.029 A 
ATOM     33  C   UNL A   1      42.643  28.695  33.411  1.00  0.00     0.049 A 
ATOM     34  H   UNL A   1      41.043  29.892  32.732  1.00  0.00     0.167 HD
ATOM     35  C   UNL A   1      42.264  30.275  35.296  1.00  0.00     0.074 A 
ATOM     36  C   UNL A   1      42.560  30.809  36.611  1.00  0.00     0.031 C 
ATOM     37  C   UNL A   1      42.918  29.231  34.725  1.00  0.00     0.034 A 
BRANCH  24  38
ATOM     38  C   UNL A   1      40.835  27.642  29.083  1.00  0.00     0.023 A 
ATOM     39  C   UNL A   1      41.793  27.774  28.062  1.00  0.00     0.031 A 
ATOM     40  C   UNL A   1      39.876  26.622  28.951  1.00  0.00     0.131 A 
ATOM     41  C   UNL A   1      41.704  26.977  26.910  1.00  0.00     0.055 A 
ATOM     42  C   UNL A   1      39.855  25.765  27.848  1.00  0.00     0.041 A 
ATOM     43  F   UNL A   1      38.921  26.455  29.880  1.00  0.00    -0.206 F 
ATOM     44  C   UNL A   1      40.759  25.954  26.807  1.00  0.00     0.022 A 
BRANCH  41  45
ATOM     45  S   UNL A   1      42.711  27.429  25.469  1.00  0.00     0.124 S 
ATOM     46  O   UNL A   1      41.974  28.576  24.941  1.00  0.00    -0.237 OA
ATOM     47  O   UNL A   1      44.007  27.724  26.069  1.00  0.00    -0.237 OA
ATOM     48  O   UNL A   1      42.667  26.233  24.630  1.00  0.00    -0.744 OA
ENDBRANCH  41  45
ENDBRANCH  24  38
BRANCH  25  49
ATOM     49  C   UNL A   1      39.666  33.908  36.847  1.00  0.00     0.023 A 
ATOM     50  C   UNL A   1      39.053  33.405  38.003  1.00  0.00     0.031 A 
ATOM     51  C   UNL A   1      40.067  35.258  36.844  1.00  0.00     0.131 A 
ATOM     52  C   UNL A   1      38.843  34.251  39.103  1.00  0.00     0.055 A 
ATOM     53  C   UNL A   1      39.901  36.081  37.957  1.00  0.00     0.041 A 
ATOM     54  F   UNL A   1      40.668  35.784  35.764  1.00  0.00    -0.206 F 
ATOM     55  C   UNL A   1      39.279  35.579  39.095  1.00  0.00     0.022 A 
BRANCH  52  56
ATOM     56  S   UNL A   1      37.950  33.601  40.541  1.00  0.00     0.124 S 
ATOM     57  O   UNL A   1      37.795  34.799  41.359  1.00  0.00    -0.237 OA
ATOM     58  O   UNL A   1      36.731  33.078  39.932  1.00  0.00    -0.237 OA
ATOM     59  O   UNL A   1      38.858  32.591  41.078  1.00  0.00    -0.744 OA
ENDBRANCH  52  56
ENDBRANCH  25  49
BRANCH  37  60
ATOM     60  C   UNL A   1      44.067  28.632  35.498  1.00  0.00     0.023 A 
ATOM     61  C   UNL A   1      43.888  27.574  36.405  1.00  0.00     0.031 A 
ATOM     62  C   UNL A   1      45.372  29.115  35.290  1.00  0.00     0.131 A 
ATOM     63  C   UNL A   1      44.995  27.050  37.090  1.00  0.00     0.055 A 
ATOM     64  C   UNL A   1      46.475  28.554  35.932  1.00  0.00     0.041 A 
ATOM     65  F   UNL A   1      45.597  30.130  34.439  1.00  0.00    -0.206 F 
ATOM     66  C   UNL A   1      46.289  27.519  36.843  1.00  0.00     0.022 A 
BRANCH  63  67
ATOM     67  S   UNL A   1      44.721  25.780  38.355  1.00  0.00     0.124 S 
ATOM     68  O   UNL A   1      43.588  26.328  39.094  1.00  0.00    -0.237 OA
ATOM     69  O   UNL A   1      44.445  24.592  37.554  1.00  0.00    -0.237 OA
ATOM     70  O   UNL A   1      45.984  25.750  39.090  1.00  0.00    -0.744 OA
ENDBRANCH  63  67
ENDBRANCH  37  60
ENDBRANCH  11  12
ENDBRANCH   4   6
ENDBRANCH   1   2
BRANCH   1  71
ATOM     71  C   UNL A   1      31.582  31.696  26.640  1.00  0.00     0.042 C 
BRANCH  71  72
ATOM     72  C   UNL A   1      31.782  30.217  26.308  1.00  0.00     0.117 C 
BRANCH  72  73
ATOM     73  N   UNL A   1      32.778  30.077  25.260  1.00  0.00    -0.356 N 
ATOM     74  C   UNL A   1      33.233  28.971  24.601  1.00  0.00     0.229 C 
ATOM     75  H   UNL A   1      33.196  30.922  24.978  1.00  0.00     0.163 HD
ATOM     76  O   UNL A   1      34.365  29.053  24.122  1.00  0.00    -0.275 OA
BRANCH  74  77
ATOM     77  C   UNL A   1      32.310  27.795  24.308  1.00  0.00     0.142 C 
ATOM     78  C   UNL A   1      32.987  26.534  23.794  1.00  0.00     0.276 C 
ATOM     79  C   UNL A   1      31.235  28.026  23.233  1.00  0.00     0.065 C 
ATOM     80  N   UNL A   1      31.922  25.673  23.307  1.00  0.00    -0.331 N 
ATOM     81  C   UNL A   1      30.967  26.598  22.675  1.00  0.00     0.267 C 
ATOM     82  H   UNL A   1      32.311  24.995  22.652  1.00  0.00     0.348 HD
BRANCH  79  83
ATOM     83  C   UNL A   1      29.919  28.669  23.619  1.00  0.00    -0.001 C 
ATOM     84  C   UNL A   1      29.504  30.078  23.265  1.00  0.00     0.004 C 
ATOM     85  C   UNL A   1      28.786  28.910  22.651  1.00  0.00     0.004 C 
ENDBRANCH  79  83
BRANCH  80  86
ATOM     86  C   UNL A   1      31.329  24.682  24.235  1.00  0.00     0.187 C 
ATOM     87  C   UNL A   1      31.846  24.581  25.677  1.00  0.00     0.086 C 
ATOM     88  C   UNL A   1      31.173  23.255  23.659  1.00  0.00     0.086 C 
ATOM     89  C   UNL A   1      33.022  23.643  25.888  1.00  0.00     0.126 C 
ATOM     90  C   UNL A   1      32.309  22.265  23.942  1.00  0.00     0.126 C 
ATOM     91  N   UNL A   1      32.856  22.331  25.297  1.00  0.00    -0.338 N 
ATOM     92  C   UNL A   1      33.572  21.301  25.918  1.00  0.00     0.253 C 
ATOM     93  O   UNL A   1      34.157  21.427  26.993  1.00  0.00    -0.269 OA
BRANCH  92  94
ATOM     94  C   UNL A   1      33.644  19.973  25.289  1.00  0.00     0.040 A 
ATOM     95  C   UNL A   1      32.515  19.155  25.366  1.00  0.00     0.014 A 
ATOM     96  C   UNL A   1      34.842  19.493  24.752  1.00  0.00     0.014 A 
ATOM     97  C   UNL A   1      32.568  17.857  24.865  1.00  0.00     0.001 A 
ATOM     98  C   UNL A   1      34.889  18.191  24.251  1.00  0.00     0.001 A 
ATOM     99  C   UNL A   1      33.754  17.379  24.303  1.00  0.00     0.000 A 
ENDBRANCH  92  94
ENDBRANCH  80  86
ENDBRANCH  74  77
ENDBRANCH  72  73
ENDBRANCH  71  72
ENDBRANCH   1  71
TORSDOF 16
ENDMDL
MODEL 2
REMARK VINA RESULT:     -12.9      3.505      8.465
REMARK SMILES O=C(NCCCNC(=O)[C@@H]1C[N@@H+](C2CCN(C(=O)c3ccccc3)CC2)C[C@H]1C1CC1)c1ccc(-c2c3nc(c(-c4cc(S(=O)(=O)[O-])ccc4F)c4ccc([nH]4)c(-c4cc(S(=O)(=O)[O-])ccc4F)c4nc(c(-c5cc(S(=O)(=O)[O-])ccc5F)c5ccc2[nH]5)C=C4)C=C3)cc1
REMARK SMILES IDX 4 1 3 2 1 3 2 4 32 6 33 7 94 8 34 9 93 10 35 11 36 12 37 13
REMARK SMILES IDX 87 14 38 15 92 16 86 17 88 18 39 19 91 20 85 21 84 22 40 24
REMARK SMILES IDX 72 25 52 26 71 27 53 28 56 29 70 30 89 31 54 32 55 33 69 35
REMARK SMILES IDX 90 36 57 37 41 38 42 39 50 40 43 41 49 42 51 43 48 44 44 45
REMARK SMILES IDX 45 46 46 47 47 48 73 49 74 50 82 51 75 52 81 53 83 54 80 55
REMARK SMILES IDX 76 56 77 57 78 58 79 59 58 60 59 61 67 62 60 63 66 64 68 65
REMARK SMILES IDX 65 66 61 67 62 68 63 69 64 70 5 71 6 72 7 73 8 74 9 76 10 77
REMARK SMILES IDX 11 78 28 79 12 80 27 81 29 83 30 84 31 85 13 86 14 87 26 88
REMARK SMILES IDX 15 89 25 90 16 91 17 92 18 93 19 94 20 95 24 96 21 97 23 98
REMARK SMILES IDX 22 99
REMARK H PARENT 3 5 88 23 56 34 7 75 12 82
REMARK Flexibility Score: inf
ROOT
ATOM      1  C   UNL A   1      33.957  28.863  27.217  1.00  0.00     0.118 C 
ENDROOT
BRANCH   1   2
ATOM      2  N   UNL A   1      33.879  30.305  27.419  1.00  0.00    -0.352 N 
ATOM      3  O   UNL A   1      34.219  32.216  28.548  1.00  0.00    -0.269 OA
ATOM      4  C   UNL A   1      34.629  31.101  28.245  1.00  0.00     0.251 C 
ATOM      5  H   UNL A   1      33.192  30.771  26.889  1.00  0.00     0.163 HD
BRANCH   4   6
ATOM      6  C   UNL A   1      35.928  30.611  28.747  1.00  0.00     0.039 A 
ATOM      7  C   UNL A   1      35.981  29.796  29.882  1.00  0.00     0.014 A 
ATOM      8  C   UNL A   1      37.095  30.926  28.048  1.00  0.00     0.014 A 
ATOM      9  C   UNL A   1      37.208  29.388  30.385  1.00  0.00     0.010 A 
ATOM     10  C   UNL A   1      38.320  30.440  28.504  1.00  0.00     0.010 A 
ATOM     11  C   UNL A   1      38.385  29.677  29.682  1.00  0.00    -0.014 A 
BRANCH  11  12
ATOM     12  C   UNL A   1      39.674  29.114  30.147  1.00  0.00     0.031 A 
ATOM     13  C   UNL A   1      40.440  29.774  31.252  1.00  0.00     0.074 A 
ATOM     14  C   UNL A   1      40.160  28.018  29.533  1.00  0.00     0.049 A 
ATOM     15  N   UNL A   1      41.633  29.497  31.711  1.00  0.00    -0.248 NA
ATOM     16  C   UNL A   1      39.783  30.907  31.918  1.00  0.00     0.031 C 
ATOM     17  C   UNL A   1      39.487  27.297  28.448  1.00  0.00     0.029 A 
ATOM     18  N   UNL A   1      41.328  27.328  29.715  1.00  0.00    -0.354 N 
ATOM     19  C   UNL A   1      41.884  30.437  32.704  1.00  0.00     0.074 A 
ATOM     20  C   UNL A   1      40.730  31.312  32.750  1.00  0.00     0.031 C 
ATOM     21  C   UNL A   1      40.250  26.263  28.068  1.00  0.00     0.029 A 
ATOM     22  C   UNL A   1      41.498  26.298  28.820  1.00  0.00     0.049 A 
ATOM     23  H   UNL A   1      41.982  27.547  30.418  1.00  0.00     0.167 HD
ATOM     24  C   UNL A   1      42.978  30.549  33.500  1.00  0.00     0.034 A 
ATOM     25  C   UNL A   1      42.559  25.504  28.587  1.00  0.00     0.034 A 
ATOM     26  C   UNL A   1      44.116  29.663  33.413  1.00  0.00     0.049 A 
ATOM     27  C   UNL A   1      43.790  25.685  29.430  1.00  0.00     0.074 A 
ATOM     28  C   UNL A   1      45.264  29.654  34.186  1.00  0.00     0.029 A 
ATOM     29  N   UNL A   1      44.261  28.640  32.481  1.00  0.00    -0.354 N 
ATOM     30  N   UNL A   1      44.013  26.565  30.379  1.00  0.00    -0.248 NA
ATOM     31  C   UNL A   1      44.909  24.771  29.177  1.00  0.00     0.031 C 
ATOM     32  C   UNL A   1      46.133  28.689  33.668  1.00  0.00     0.029 A 
ATOM     33  C   UNL A   1      45.494  28.025  32.632  1.00  0.00     0.049 A 
ATOM     34  H   UNL A   1      43.585  28.390  31.810  1.00  0.00     0.167 HD
ATOM     35  C   UNL A   1      45.290  26.292  30.857  1.00  0.00     0.074 A 
ATOM     36  C   UNL A   1      45.786  25.166  30.091  1.00  0.00     0.031 C 
ATOM     37  C   UNL A   1      45.979  26.909  31.851  1.00  0.00     0.034 A 
BRANCH  24  38
ATOM     38  C   UNL A   1      43.011  31.707  34.472  1.00  0.00     0.023 A 
ATOM     39  C   UNL A   1      42.475  31.606  35.767  1.00  0.00     0.031 A 
ATOM     40  C   UNL A   1      43.529  32.954  34.075  1.00  0.00     0.131 A 
ATOM     41  C   UNL A   1      42.369  32.749  36.575  1.00  0.00     0.055 A 
ATOM     42  C   UNL A   1      43.512  34.064  34.921  1.00  0.00     0.041 A 
ATOM     43  F   UNL A   1      44.036  33.123  32.844  1.00  0.00    -0.206 F 
ATOM     44  C   UNL A   1      42.909  33.973  36.172  1.00  0.00     0.022 A 
BRANCH  41  45
ATOM     45  S   UNL A   1      41.341  32.659  38.067  1.00  0.00     0.124 S 
ATOM     46  O   UNL A   1      41.326  34.055  38.501  1.00  0.00    -0.237 OA
ATOM     47  O   UNL A   1      40.081  32.138  37.551  1.00  0.00    -0.237 OA
ATOM     48  O   UNL A   1      42.083  31.753  38.941  1.00  0.00    -0.744 OA
ENDBRANCH  41  45
ENDBRANCH  24  38
BRANCH  25  49
ATOM     49  C   UNL A   1      42.505  24.519  27.472  1.00  0.00     0.023 A 
ATOM     50  C   UNL A   1      41.755  23.339  27.574  1.00  0.00     0.031 A 
ATOM     51  C   UNL A   1      43.178  24.774  26.262  1.00  0.00     0.131 A 
ATOM     52  C   UNL A   1      41.711  22.448  26.490  1.00  0.00     0.055 A 
ATOM     53  C   UNL A   1      43.091  23.910  25.171  1.00  0.00     0.041 A 
ATOM     54  F   UNL A   1      43.901  25.897  26.111  1.00  0.00    -0.206 F 
ATOM     55  C   UNL A   1      42.358  22.734  25.284  1.00  0.00     0.022 A 
BRANCH  52  56
ATOM     56  S   UNL A   1      40.825  20.879  26.691  1.00  0.00     0.124 S 
ATOM     57  O   UNL A   1      39.546  21.178  26.057  1.00  0.00    -0.237 OA
ATOM     58  O   UNL A   1      41.692  19.946  25.978  1.00  0.00    -0.237 OA
ATOM     59  O   UNL A   1      40.777  20.698  28.140  1.00  0.00    -0.744 OA
ENDBRANCH  52  56
ENDBRANCH  25  49
BRANCH  37  60
ATOM     60  C   UNL A   1      47.329  26.338  32.210  1.00  0.00     0.023 A 
ATOM     61  C   UNL A   1      48.516  26.786  31.607  1.00  0.00     0.031 A 
ATOM     62  C   UNL A   1      47.422  25.348  33.207  1.00  0.00     0.131 A 
ATOM     63  C   UNL A   1      49.744  26.224  31.987  1.00  0.00     0.055 A 
ATOM     64  C   UNL A   1      48.651  24.834  33.619  1.00  0.00     0.041 A 
ATOM     65  F   UNL A   1      46.317  24.881  33.810  1.00  0.00    -0.206 F 
ATOM     66  C   UNL A   1      49.820  25.267  33.004  1.00  0.00     0.022 A 
BRANCH  63  67
ATOM     67  S   UNL A   1      51.246  26.718  31.097  1.00  0.00     0.124 S 
ATOM     68  O   UNL A   1      51.593  27.970  31.761  1.00  0.00    -0.237 OA
ATOM     69  O   UNL A   1      52.142  25.594  31.345  1.00  0.00    -0.237 OA
ATOM     70  O   UNL A   1      50.795  26.854  29.713  1.00  0.00    -0.744 OA
ENDBRANCH  63  67
ENDBRANCH  37  60
ENDBRANCH  11  12
ENDBRANCH   4   6
ENDBRANCH   1   2
BRANCH   1  71
ATOM     71  C   UNL A   1      34.020  28.529  25.729  1.00  0.00     0.042 C 
BRANCH  71  72
ATOM     72  C   UNL A   1      33.222  29.539  24.904  1.00  0.00     0.117 C 
BRANCH  72  73
ATOM     73  N   UNL A   1      33.410  29.277  23.488  1.00  0.00    -0.356 N 
ATOM     74  C   UNL A   1      33.585  28.103  22.812  1.00  0.00     0.229 C 
ATOM     75  H   UNL A   1      33.411  30.079  22.920  1.00  0.00     0.163 HD
ATOM     76  O   UNL A   1      34.174  28.182  21.733  1.00  0.00    -0.275 OA
BRANCH  74  77
ATOM     77  C   UNL A   1      32.911  26.819  23.277  1.00  0.00     0.142 C 
ATOM     78  C   UNL A   1      33.532  25.525  22.776  1.00  0.00     0.276 C 
ATOM     79  C   UNL A   1      31.441  26.635  22.864  1.00  0.00     0.065 C 
ATOM     80  N   UNL A   1      32.577  24.473  23.082  1.00  0.00    -0.331 N 
ATOM     81  C   UNL A   1      31.264  25.089  22.833  1.00  0.00     0.267 C 
ATOM     82  H   UNL A   1      32.760  23.668  22.483  1.00  0.00     0.348 HD
BRANCH  79  83
ATOM     83  C   UNL A   1      30.344  27.249  23.709  1.00  0.00    -0.001 C 
ATOM     84  C   UNL A   1      29.162  28.021  23.170  1.00  0.00     0.004 C 
ATOM     85  C   UNL A   1      28.950  26.682  23.817  1.00  0.00     0.004 C 
ENDBRANCH  79  83
BRANCH  80  86
ATOM     86  C   UNL A   1      32.706  23.749  24.369  1.00  0.00     0.187 C 
ATOM     87  C   UNL A   1      34.094  23.539  24.992  1.00  0.00     0.086 C 
ATOM     88  C   UNL A   1      31.913  22.424  24.459  1.00  0.00     0.086 C 
ATOM     89  C   UNL A   1      34.831  22.287  24.546  1.00  0.00     0.126 C 
ATOM     90  C   UNL A   1      32.669  21.138  24.103  1.00  0.00     0.126 C 
ATOM     91  N   UNL A   1      34.042  21.074  24.604  1.00  0.00    -0.338 N 
ATOM     92  C   UNL A   1      34.772  19.893  24.777  1.00  0.00     0.253 C 
ATOM     93  O   UNL A   1      35.972  19.866  25.050  1.00  0.00    -0.269 OA
BRANCH  92  94
ATOM     94  C   UNL A   1      34.104  18.589  24.647  1.00  0.00     0.040 A 
ATOM     95  C   UNL A   1      33.086  18.286  25.555  1.00  0.00     0.014 A 
ATOM     96  C   UNL A   1      34.560  17.633  23.736  1.00  0.00     0.014 A 
ATOM     97  C   UNL A   1      32.489  17.030  25.526  1.00  0.00     0.001 A 
ATOM     98  C   UNL A   1      33.956  16.375  23.711  1.00  0.00     0.001 A 
ATOM     99  C   UNL A   1      32.921  16.077  24.601  1.00  0.00     0.000 A 
ENDBRANCH  92  94
ENDBRANCH  80  86
ENDBRANCH  74  77
ENDBRANCH  72  73
ENDBRANCH  71  72
ENDBRANCH   1  71
TORSDOF 16
ENDMDL
MODEL 3
REMARK VINA RESULT:     -12.9      2.069      2.700
REMARK SMILES O=C(NCCCNC(=O)[C@@H]1C[N@@H+](C2CCN(C(=O)c3ccccc3)CC2)C[C@H]1C1CC1)c1ccc(-c2c3nc(c(-c4cc(S(=O)(=O)[O-])ccc4F)c4ccc([nH]4)c(-c4cc(S(=O)(=O)[O-])ccc4F)c4nc(c(-c5cc(S(=O)(=O)[O-])ccc5F)c5ccc2[nH]5)C=C4)C=C3)cc1
REMARK SMILES IDX 4 1 3 2 1 3 2 4 32 6 33 7 94 8 34 9 93 10 35 11 36 12 37 13
REMARK SMILES IDX 87 14 38 15 92 16 86 17 88 18 39 19 91 20 85 21 84 22 40 24
REMARK SMILES IDX 72 25 52 26 71 27 53 28 56 29 70 30 89 31 54 32 55 33 69 35
REMARK SMILES IDX 90 36 57 37 41 38 42 39 50 40 43 41 49 42 51 43 48 44 44 45
REMARK SMILES IDX 45 46 46 47 47 48 73 49 74 50 82 51 75 52 81 53 83 54 80 55
REMARK SMILES IDX 76 56 77 57 78 58 79 59 58 60 59 61 67 62 60 63 66 64 68 65
REMARK SMILES IDX 65 66 61 67 62 68 63 69 64 70 5 71 6 72 7 73 8 74 9 76 10 77
REMARK SMILES IDX 11 78 28 79 12 80 27 81 29 83 30 84 31 85 13 86 14 87 26 88
REMARK SMILES IDX 15 89 25 90 16 91 17 92 18 93 19 94 20 95 24 96 21 97 23 98
REMARK SMILES IDX 22 99
REMARK H PARENT 3 5 88 23 56 34 7 75 12 82
REMARK Flexibility Score: inf
ROOT
ATOM      1  C   UNL A   1      32.637  30.087  27.025  1.00  0.00     0.118 C 
ENDROOT
BRANCH   1   2
ATOM      2  N   UNL A   1      32.646  31.542  26.926  1.00  0.00    -0.352 N 
ATOM      3  O   UNL A   1      33.124  33.621  27.631  1.00  0.00    -0.269 OA
ATOM      4  C   UNL A   1      33.462  32.444  27.559  1.00  0.00     0.251 C 
ATOM      5  H   UNL A   1      31.972  31.930  26.322  1.00  0.00     0.163 HD
BRANCH   4   6
ATOM      6  C   UNL A   1      34.744  31.989  28.132  1.00  0.00     0.039 A 
ATOM      7  C   UNL A   1      35.857  32.837  28.128  1.00  0.00     0.014 A 
ATOM      8  C   UNL A   1      34.820  30.726  28.722  1.00  0.00     0.014 A 
ATOM      9  C   UNL A   1      37.075  32.384  28.613  1.00  0.00     0.010 A 
ATOM     10  C   UNL A   1      36.023  30.306  29.289  1.00  0.00     0.010 A 
ATOM     11  C   UNL A   1      37.161  31.128  29.228  1.00  0.00    -0.014 A 
BRANCH  11  12
ATOM     12  C   UNL A   1      38.429  30.712  29.872  1.00  0.00     0.031 A 
ATOM     13  C   UNL A   1      39.342  29.735  29.197  1.00  0.00     0.074 A 
ATOM     14  C   UNL A   1      38.726  31.203  31.090  1.00  0.00     0.049 A 
ATOM     15  N   UNL A   1      40.428  29.168  29.653  1.00  0.00    -0.248 NA
ATOM     16  C   UNL A   1      38.974  29.330  27.833  1.00  0.00     0.031 C 
ATOM     17  C   UNL A   1      37.904  32.166  31.831  1.00  0.00     0.029 A 
ATOM     18  N   UNL A   1      39.782  30.957  31.927  1.00  0.00    -0.354 N 
ATOM     19  C   UNL A   1      40.864  28.317  28.644  1.00  0.00     0.074 A 
ATOM     20  C   UNL A   1      39.899  28.420  27.568  1.00  0.00     0.031 C 
ATOM     21  C   UNL A   1      38.491  32.432  33.005  1.00  0.00     0.029 A 
ATOM     22  C   UNL A   1      39.680  31.600  33.137  1.00  0.00     0.049 A 
ATOM     23  H   UNL A   1      40.541  30.376  31.685  1.00  0.00     0.167 HD
ATOM     24  C   UNL A   1      41.969  27.529  28.626  1.00  0.00     0.034 A 
ATOM     25  C   UNL A   1      40.425  31.493  34.253  1.00  0.00     0.034 A 
ATOM     26  C   UNL A   1      42.901  27.444  29.727  1.00  0.00     0.049 A 
ATOM     27  C   UNL A   1      41.606  30.564  34.242  1.00  0.00     0.074 A 
ATOM     28  C   UNL A   1      44.072  26.711  29.812  1.00  0.00     0.029 A 
ATOM     29  N   UNL A   1      42.755  28.097  30.947  1.00  0.00    -0.354 N 
ATOM     30  N   UNL A   1      42.022  29.776  33.277  1.00  0.00    -0.248 NA
ATOM     31  C   UNL A   1      42.420  30.509  35.461  1.00  0.00     0.031 C 
ATOM     32  C   UNL A   1      44.584  26.853  31.105  1.00  0.00     0.029 A 
ATOM     33  C   UNL A   1      43.790  27.751  31.802  1.00  0.00     0.049 A 
ATOM     34  H   UNL A   1      42.023  28.716  31.170  1.00  0.00     0.167 HD
ATOM     35  C   UNL A   1      43.164  29.150  33.763  1.00  0.00     0.074 A 
ATOM     36  C   UNL A   1      43.370  29.654  35.107  1.00  0.00     0.031 C 
ATOM     37  C   UNL A   1      43.975  28.254  33.145  1.00  0.00     0.034 A 
BRANCH  24  38
ATOM     38  C   UNL A   1      42.178  26.657  27.408  1.00  0.00     0.023 A 
ATOM     39  C   UNL A   1      41.713  25.332  27.353  1.00  0.00     0.031 A 
ATOM     40  C   UNL A   1      42.912  27.137  26.308  1.00  0.00     0.131 A 
ATOM     41  C   UNL A   1      42.076  24.504  26.280  1.00  0.00     0.055 A 
ATOM     42  C   UNL A   1      43.185  26.338  25.196  1.00  0.00     0.041 A 
ATOM     43  F   UNL A   1      43.403  28.387  26.305  1.00  0.00    -0.206 F 
ATOM     44  C   UNL A   1      42.786  25.005  25.187  1.00  0.00     0.022 A 
BRANCH  41  45
ATOM     45  S   UNL A   1      41.782  22.720  26.429  1.00  0.00     0.124 S 
ATOM     46  O   UNL A   1      42.405  22.213  25.208  1.00  0.00    -0.237 OA
ATOM     47  O   UNL A   1      42.460  22.390  27.676  1.00  0.00    -0.237 OA
ATOM     48  O   UNL A   1      40.324  22.614  26.462  1.00  0.00    -0.744 OA
ENDBRANCH  41  45
ENDBRANCH  24  38
BRANCH  25  49
ATOM     49  C   UNL A   1      40.025  32.245  35.474  1.00  0.00     0.023 A 
ATOM     50  C   UNL A   1      39.055  31.748  36.355  1.00  0.00     0.031 A 
ATOM     51  C   UNL A   1      40.650  33.465  35.797  1.00  0.00     0.131 A 
ATOM     52  C   UNL A   1      38.723  32.477  37.508  1.00  0.00     0.055 A 
ATOM     53  C   UNL A   1      40.353  34.161  36.968  1.00  0.00     0.041 A 
ATOM     54  F   UNL A   1      41.594  33.977  34.990  1.00  0.00    -0.206 F 
ATOM     55  C   UNL A   1      39.379  33.669  37.829  1.00  0.00     0.022 A 
BRANCH  52  56
ATOM     56  S   UNL A   1      37.387  31.865  38.569  1.00  0.00     0.124 S 
ATOM     57  O   UNL A   1      37.146  30.541  38.007  1.00  0.00    -0.237 OA
ATOM     58  O   UNL A   1      38.007  31.898  39.890  1.00  0.00    -0.237 OA
ATOM     59  O   UNL A   1      36.316  32.836  38.363  1.00  0.00    -0.744 OA
ENDBRANCH  52  56
ENDBRANCH  25  49
BRANCH  37  60
ATOM     60  C   UNL A   1      45.202  27.802  33.898  1.00  0.00     0.023 A 
ATOM     61  C   UNL A   1      45.205  26.650  34.702  1.00  0.00     0.031 A 
ATOM     62  C   UNL A   1      46.401  28.528  33.773  1.00  0.00     0.131 A 
ATOM     63  C   UNL A   1      46.378  26.272  35.372  1.00  0.00     0.055 A 
ATOM     64  C   UNL A   1      47.578  28.117  34.397  1.00  0.00     0.041 A 
ATOM     65  F   UNL A   1      46.450  29.640  33.022  1.00  0.00    -0.206 F 
ATOM     66  C   UNL A   1      47.569  26.987  35.208  1.00  0.00     0.022 A 
BRANCH  63  67
ATOM     67  S   UNL A   1      46.321  24.863  36.512  1.00  0.00     0.124 S 
ATOM     68  O   UNL A   1      47.628  24.248  36.300  1.00  0.00    -0.237 OA
ATOM     69  O   UNL A   1      46.123  25.511  37.804  1.00  0.00    -0.237 OA
ATOM     70  O   UNL A   1      45.183  24.080  36.033  1.00  0.00    -0.744 OA
ENDBRANCH  63  67
ENDBRANCH  37  60
ENDBRANCH  11  12
ENDBRANCH   4   6
ENDBRANCH   1   2
BRANCH   1  71
ATOM     71  C   UNL A   1      33.120  29.455  25.724  1.00  0.00     0.042 C 
BRANCH  71  72
ATOM     72  C   UNL A   1      32.121  29.696  24.592  1.00  0.00     0.117 C 
BRANCH  72  73
ATOM     73  N   UNL A   1      32.717  29.322  23.320  1.00  0.00    -0.356 N 
ATOM     74  C   UNL A   1      33.221  28.130  22.886  1.00  0.00     0.229 C 
ATOM     75  H   UNL A   1      32.766  30.051  22.662  1.00  0.00     0.163 HD
ATOM     76  O   UNL A   1      34.063  28.193  21.989  1.00  0.00    -0.275 OA
BRANCH  74  77
ATOM     77  C   UNL A   1      32.621  26.808  23.345  1.00  0.00     0.142 C 
ATOM     78  C   UNL A   1      33.316  25.554  22.841  1.00  0.00     0.276 C 
ATOM     79  C   UNL A   1      31.165  26.541  22.929  1.00  0.00     0.065 C 
ATOM     80  N   UNL A   1      32.423  24.447  23.142  1.00  0.00    -0.331 N 
ATOM     81  C   UNL A   1      31.077  24.987  22.892  1.00  0.00     0.267 C 
ATOM     82  H   UNL A   1      32.652  23.657  22.540  1.00  0.00     0.348 HD
BRANCH  79  83
ATOM     83  C   UNL A   1      30.033  27.088  23.774  1.00  0.00    -0.001 C 
ATOM     84  C   UNL A   1      28.875  27.905  23.251  1.00  0.00     0.004 C 
ATOM     85  C   UNL A   1      28.636  26.518  23.777  1.00  0.00     0.004 C 
ENDBRANCH  79  83
BRANCH  80  86
ATOM     86  C   UNL A   1      32.592  23.727  24.426  1.00  0.00     0.187 C 
ATOM     87  C   UNL A   1      33.996  23.532  25.014  1.00  0.00     0.086 C 
ATOM     88  C   UNL A   1      31.814  22.394  24.538  1.00  0.00     0.086 C 
ATOM     89  C   UNL A   1      34.734  22.287  24.552  1.00  0.00     0.126 C 
ATOM     90  C   UNL A   1      32.573  21.116  24.166  1.00  0.00     0.126 C 
ATOM     91  N   UNL A   1      33.959  21.067  24.632  1.00  0.00    -0.338 N 
ATOM     92  C   UNL A   1      34.705  19.893  24.789  1.00  0.00     0.253 C 
ATOM     93  O   UNL A   1      35.912  19.879  25.032  1.00  0.00    -0.269 OA
BRANCH  92  94
ATOM     94  C   UNL A   1      34.047  18.582  24.678  1.00  0.00     0.040 A 
ATOM     95  C   UNL A   1      33.111  18.240  25.657  1.00  0.00     0.014 A 
ATOM     96  C   UNL A   1      34.441  17.657  23.708  1.00  0.00     0.014 A 
ATOM     97  C   UNL A   1      32.531  16.975  25.643  1.00  0.00     0.001 A 
ATOM     98  C   UNL A   1      33.855  16.390  23.699  1.00  0.00     0.001 A 
ATOM     99  C   UNL A   1      32.900  16.053  24.661  1.00  0.00     0.000 A 
ENDBRANCH  92  94
ENDBRANCH  80  86
ENDBRANCH  74  77
ENDBRANCH  72  73
ENDBRANCH  71  72
ENDBRANCH   1  71
TORSDOF 16
ENDMDL
