MODEL 1
REMARK VINA RESULT:     -11.2      0.000      0.000
REMARK SMILES CCc1ccc(C(=O)[C@@H](Br)CC(=O)NCCCNC(=O)c2ccc(-c3c4nc(c(-c5cc(S(=O)(=O)[O-])ccc5F)c5ccc([nH]5)c(-c5cc(S(=O)(=O)[O-])ccc5F)c5nc(c(-c6cc(S(=O)(=O)[O-])ccc6F)c6ccc3[nH]6)C=C5)C=C4)cc2)cc1
REMARK SMILES IDX 15 1 14 2 12 3 13 4 11 6 9 7 10 8 7 9 8 10 6 11 3 12 4 13
REMARK SMILES IDX 85 14 5 15 84 16 2 17 1 18 16 19 17 20 18 21 19 22 20 24
REMARK SMILES IDX 21 25 22 26 83 27 23 28 82 29 24 30 25 31 26 32 76 33 27 34
REMARK SMILES IDX 81 35 75 36 77 37 28 38 80 39 74 40 73 41 29 43 61 44 41 45
REMARK SMILES IDX 60 46 42 47 45 48 59 49 78 50 43 51 44 52 58 54 79 55 46 56
REMARK SMILES IDX 30 57 31 58 39 59 32 60 38 61 40 62 37 63 33 64 34 65 35 66
REMARK SMILES IDX 36 67 62 68 63 69 71 70 64 71 70 72 72 73 69 74 65 75 66 76
REMARK SMILES IDX 67 77 68 78 47 79 48 80 56 81 49 82 55 83 57 84 54 85 50 86
REMARK SMILES IDX 51 87 52 88 53 89
REMARK H PARENT 14 5 18 23 77 42 45 53
REMARK Flexibility Score: inf
ROOT
ATOM      1  C   UNL A   1      33.518  23.018  27.123  1.00  0.00     0.117 C 
ENDROOT
BRANCH   1   2
ATOM      2  N   UNL A   1      32.185  22.456  27.010  1.00  0.00    -0.356 N 
ATOM      3  C   UNL A   1      31.301  22.525  25.977  1.00  0.00     0.221 C 
ATOM      4  O   UNL A   1      30.175  22.052  26.126  1.00  0.00    -0.275 OA
ATOM      5  H   UNL A   1      31.874  21.951  27.796  1.00  0.00     0.163 HD
BRANCH   3   6
ATOM      6  C   UNL A   1      31.719  23.144  24.662  1.00  0.00     0.123 C 
BRANCH   6   7
ATOM      7  C   UNL A   1      32.743  22.288  23.934  1.00  0.00     0.138 C 
ATOM      8  Br  UNL A   1      33.646  23.342  22.538  1.00  0.00    -0.080 Br
BRANCH   7   9
ATOM      9  C   UNL A   1      32.293  21.007  23.236  1.00  0.00     0.176 C 
ATOM     10  O   UNL A   1      31.778  21.077  22.116  1.00  0.00    -0.293 OA
BRANCH   9  11
ATOM     11  C   UNL A   1      32.477  19.638  23.822  1.00  0.00     0.019 A 
ATOM     12  C   UNL A   1      33.073  17.032  24.744  1.00  0.00    -0.048 A 
ATOM     13  C   UNL A   1      32.903  17.278  23.379  1.00  0.00     0.004 A 
ATOM     14  C   UNL A   1      32.904  18.091  25.645  1.00  0.00     0.004 A 
ATOM     15  C   UNL A   1      32.594  18.563  22.926  1.00  0.00     0.012 A 
ATOM     16  C   UNL A   1      32.595  19.381  25.191  1.00  0.00     0.012 A 
BRANCH  12  17
ATOM     17  C   UNL A   1      33.425  15.648  25.229  1.00  0.00     0.032 C 
ATOM     18  C   UNL A   1      32.215  14.885  25.751  1.00  0.00     0.009 C 
ENDBRANCH  12  17
ENDBRANCH   9  11
ENDBRANCH   7   9
ENDBRANCH   6   7
ENDBRANCH   3   6
ENDBRANCH   1   2
BRANCH   1  19
ATOM     19  C   UNL A   1      34.579  21.933  26.993  1.00  0.00     0.042 C 
BRANCH  19  20
ATOM     20  C   UNL A   1      35.760  22.357  26.136  1.00  0.00     0.118 C 
BRANCH  20  21
ATOM     21  N   UNL A   1      36.686  21.251  25.922  1.00  0.00    -0.352 N 
ATOM     22  C   UNL A   1      38.052  21.242  25.776  1.00  0.00     0.251 C 
ATOM     23  H   UNL A   1      36.262  20.364  25.873  1.00  0.00     0.163 HD
ATOM     24  O   UNL A   1      38.588  20.229  25.333  1.00  0.00    -0.269 OA
BRANCH  22  25
ATOM     25  C   UNL A   1      38.869  22.428  26.127  1.00  0.00     0.039 A 
ATOM     26  C   UNL A   1      38.479  23.684  25.649  1.00  0.00     0.014 A 
ATOM     27  C   UNL A   1      40.037  22.312  26.881  1.00  0.00     0.014 A 
ATOM     28  C   UNL A   1      39.225  24.819  25.980  1.00  0.00     0.010 A 
ATOM     29  C   UNL A   1      40.713  23.452  27.302  1.00  0.00     0.010 A 
ATOM     30  C   UNL A   1      40.328  24.719  26.842  1.00  0.00    -0.014 A 
BRANCH  30  31
ATOM     31  C   UNL A   1      41.116  25.912  27.247  1.00  0.00     0.031 A 
ATOM     32  C   UNL A   1      40.497  26.954  28.142  1.00  0.00     0.074 A 
ATOM     33  C   UNL A   1      42.359  26.091  26.761  1.00  0.00     0.049 A 
ATOM     34  N   UNL A   1      40.976  28.108  28.530  1.00  0.00    -0.248 NA
ATOM     35  C   UNL A   1      39.140  26.673  28.633  1.00  0.00     0.031 C 
ATOM     36  C   UNL A   1      43.057  25.170  25.861  1.00  0.00     0.029 A 
ATOM     37  N   UNL A   1      43.258  27.111  26.952  1.00  0.00    -0.354 N 
ATOM     38  C   UNL A   1      39.974  28.696  29.295  1.00  0.00     0.074 A 
ATOM     39  C   UNL A   1      38.833  27.807  29.242  1.00  0.00     0.031 C 
ATOM     40  C   UNL A   1      44.287  25.645  25.614  1.00  0.00     0.029 A 
ATOM     41  C   UNL A   1      44.448  26.929  26.287  1.00  0.00     0.049 A 
ATOM     42  H   UNL A   1      43.068  27.897  27.512  1.00  0.00     0.167 HD
ATOM     43  C   UNL A   1      40.011  29.851  30.006  1.00  0.00     0.034 A 
ATOM     44  C   UNL A   1      45.542  27.714  26.222  1.00  0.00     0.034 A 
ATOM     45  C   UNL A   1      41.160  30.724  30.051  1.00  0.00     0.049 A 
ATOM     46  C   UNL A   1      45.543  29.022  26.971  1.00  0.00     0.074 A 
ATOM     47  C   UNL A   1      41.328  31.899  30.762  1.00  0.00     0.029 A 
ATOM     48  N   UNL A   1      42.341  30.518  29.345  1.00  0.00    -0.354 N 
ATOM     49  N   UNL A   1      44.602  29.549  27.720  1.00  0.00    -0.248 NA
ATOM     50  C   UNL A   1      46.759  29.839  26.867  1.00  0.00     0.031 C 
ATOM     51  C   UNL A   1      42.575  32.440  30.430  1.00  0.00     0.029 A 
ATOM     52  C   UNL A   1      43.225  31.560  29.578  1.00  0.00     0.049 A 
ATOM     53  H   UNL A   1      42.522  29.744  28.763  1.00  0.00     0.167 HD
ATOM     54  C   UNL A   1      45.129  30.742  28.208  1.00  0.00     0.074 A 
ATOM     55  C   UNL A   1      46.472  30.849  27.673  1.00  0.00     0.031 C 
ATOM     56  C   UNL A   1      44.558  31.661  29.028  1.00  0.00     0.034 A 
BRANCH  43  57
ATOM     57  C   UNL A   1      38.757  30.235  30.763  1.00  0.00     0.023 A 
ATOM     58  C   UNL A   1      37.754  31.024  30.172  1.00  0.00     0.031 A 
ATOM     59  C   UNL A   1      38.590  29.869  32.111  1.00  0.00     0.131 A 
ATOM     60  C   UNL A   1      36.696  31.515  30.951  1.00  0.00     0.055 A 
ATOM     61  C   UNL A   1      37.479  30.275  32.853  1.00  0.00     0.041 A 
ATOM     62  F   UNL A   1      39.519  29.133  32.742  1.00  0.00    -0.206 F 
ATOM     63  C   UNL A   1      36.534  31.123  32.280  1.00  0.00     0.022 A 
BRANCH  60  64
ATOM     64  S   UNL A   1      35.652  32.827  30.256  1.00  0.00     0.124 S 
ATOM     65  O   UNL A   1      36.437  34.020  30.562  1.00  0.00    -0.237 OA
ATOM     66  O   UNL A   1      35.575  32.456  28.848  1.00  0.00    -0.237 OA
ATOM     67  O   UNL A   1      34.403  32.704  31.005  1.00  0.00    -0.744 OA
ENDBRANCH  60  64
ENDBRANCH  43  57
BRANCH  44  68
ATOM     68  C   UNL A   1      46.731  27.285  25.432  1.00  0.00     0.023 A 
ATOM     69  C   UNL A   1      46.940  27.771  24.133  1.00  0.00     0.031 A 
ATOM     70  C   UNL A   1      47.662  26.368  25.952  1.00  0.00     0.131 A 
ATOM     71  C   UNL A   1      48.029  27.308  23.378  1.00  0.00     0.055 A 
ATOM     72  C   UNL A   1      48.774  25.950  25.217  1.00  0.00     0.041 A 
ATOM     73  F   UNL A   1      47.510  25.876  27.192  1.00  0.00    -0.206 F 
ATOM     74  C   UNL A   1      48.955  26.413  23.918  1.00  0.00     0.022 A 
BRANCH  71  75
ATOM     75  S   UNL A   1      48.176  27.840  21.651  1.00  0.00     0.124 S 
ATOM     76  O   UNL A   1      46.932  28.576  21.460  1.00  0.00    -0.237 OA
ATOM     77  O   UNL A   1      49.397  28.638  21.683  1.00  0.00    -0.237 OA
ATOM     78  O   UNL A   1      48.277  26.581  20.916  1.00  0.00    -0.744 OA
ENDBRANCH  71  75
ENDBRANCH  44  68
BRANCH  56  79
ATOM     79  C   UNL A   1      45.411  32.839  29.438  1.00  0.00     0.023 A 
ATOM     80  C   UNL A   1      46.284  32.777  30.539  1.00  0.00     0.031 A 
ATOM     81  C   UNL A   1      45.337  34.046  28.721  1.00  0.00     0.131 A 
ATOM     82  C   UNL A   1      47.003  33.917  30.925  1.00  0.00     0.055 A 
ATOM     83  C   UNL A   1      46.106  35.158  29.070  1.00  0.00     0.041 A 
ATOM     84  F   UNL A   1      44.518  34.164  27.664  1.00  0.00    -0.206 F 
ATOM     85  C   UNL A   1      46.934  35.102  30.186  1.00  0.00     0.022 A 
BRANCH  82  86
ATOM     86  S   UNL A   1      47.957  33.866  32.467  1.00  0.00     0.124 S 
ATOM     87  O   UNL A   1      48.452  35.236  32.563  1.00  0.00    -0.237 OA
ATOM     88  O   UNL A   1      46.947  33.482  33.447  1.00  0.00    -0.237 OA
ATOM     89  O   UNL A   1      48.980  32.855  32.204  1.00  0.00    -0.744 OA
ENDBRANCH  82  86
ENDBRANCH  56  79
ENDBRANCH  30  31
ENDBRANCH  22  25
ENDBRANCH  20  21
ENDBRANCH  19  20
ENDBRANCH   1  19
TORSDOF 17
ENDMDL
MODEL 2
REMARK VINA RESULT:     -11.1      4.793      9.751
REMARK SMILES CCc1ccc(C(=O)[C@@H](Br)CC(=O)NCCCNC(=O)c2ccc(-c3c4nc(c(-c5cc(S(=O)(=O)[O-])ccc5F)c5ccc([nH]5)c(-c5cc(S(=O)(=O)[O-])ccc5F)c5nc(c(-c6cc(S(=O)(=O)[O-])ccc6F)c6ccc3[nH]6)C=C5)C=C4)cc2)cc1
REMARK SMILES IDX 15 1 14 2 12 3 13 4 11 6 9 7 10 8 7 9 8 10 6 11 3 12 4 13
REMARK SMILES IDX 85 14 5 15 84 16 2 17 1 18 16 19 17 20 18 21 19 22 20 24
REMARK SMILES IDX 21 25 22 26 83 27 23 28 82 29 24 30 25 31 26 32 76 33 27 34
REMARK SMILES IDX 81 35 75 36 77 37 28 38 80 39 74 40 73 41 29 43 61 44 41 45
REMARK SMILES IDX 60 46 42 47 45 48 59 49 78 50 43 51 44 52 58 54 79 55 46 56
REMARK SMILES IDX 30 57 31 58 39 59 32 60 38 61 40 62 37 63 33 64 34 65 35 66
REMARK SMILES IDX 36 67 62 68 63 69 71 70 64 71 70 72 72 73 69 74 65 75 66 76
REMARK SMILES IDX 67 77 68 78 47 79 48 80 56 81 49 82 55 83 57 84 54 85 50 86
REMARK SMILES IDX 51 87 52 88 53 89
REMARK H PARENT 14 5 18 23 77 42 45 53
REMARK Flexibility Score: inf
ROOT
ATOM      1  C   UNL A   1      32.632  27.020  24.010  1.00  0.00     0.117 C 
ENDROOT
BRANCH   1   2
ATOM      2  N   UNL A   1      33.812  26.251  24.358  1.00  0.00    -0.356 N 
ATOM      3  C   UNL A   1      33.955  25.250  25.269  1.00  0.00     0.221 C 
ATOM      4  O   UNL A   1      35.079  24.792  25.476  1.00  0.00    -0.275 OA
ATOM      5  H   UNL A   1      34.630  26.490  23.863  1.00  0.00     0.163 HD
BRANCH   3   6
ATOM      6  C   UNL A   1      32.743  24.695  25.983  1.00  0.00     0.123 C 
BRANCH   6   7
ATOM      7  C   UNL A   1      31.872  23.865  25.054  1.00  0.00     0.138 C 
ATOM      8  Br  UNL A   1      30.774  22.604  26.095  1.00  0.00    -0.080 Br
BRANCH   7   9
ATOM      9  C   UNL A   1      32.526  23.017  23.966  1.00  0.00     0.176 C 
ATOM     10  O   UNL A   1      32.673  23.491  22.836  1.00  0.00    -0.293 OA
BRANCH   9  11
ATOM     11  C   UNL A   1      33.046  21.629  24.202  1.00  0.00     0.019 A 
ATOM     12  C   UNL A   1      34.026  18.980  24.337  1.00  0.00    -0.048 A 
ATOM     13  C   UNL A   1      32.840  19.262  23.653  1.00  0.00     0.004 A 
ATOM     14  C   UNL A   1      34.695  20.027  24.984  1.00  0.00     0.004 A 
ATOM     15  C   UNL A   1      32.349  20.569  23.599  1.00  0.00     0.012 A 
ATOM     16  C   UNL A   1      34.202  21.339  24.930  1.00  0.00     0.012 A 
BRANCH  12  17
ATOM     17  C   UNL A   1      34.563  17.572  24.378  1.00  0.00     0.032 C 
ATOM     18  C   UNL A   1      33.757  16.613  23.513  1.00  0.00     0.009 C 
ENDBRANCH  12  17
ENDBRANCH   9  11
ENDBRANCH   7   9
ENDBRANCH   6   7
ENDBRANCH   3   6
ENDBRANCH   1   2
BRANCH   1  19
ATOM     19  C   UNL A   1      32.349  28.088  25.059  1.00  0.00     0.042 C 
BRANCH  19  20
ATOM     20  C   UNL A   1      33.272  29.290  24.946  1.00  0.00     0.118 C 
BRANCH  20  21
ATOM     21  N   UNL A   1      32.680  30.475  25.555  1.00  0.00    -0.352 N 
ATOM     22  C   UNL A   1      32.959  31.106  26.742  1.00  0.00     0.251 C 
ATOM     23  H   UNL A   1      31.959  30.890  25.028  1.00  0.00     0.163 HD
ATOM     24  O   UNL A   1      32.149  31.922  27.177  1.00  0.00    -0.269 OA
BRANCH  22  25
ATOM     25  C   UNL A   1      34.198  30.807  27.498  1.00  0.00     0.039 A 
ATOM     26  C   UNL A   1      35.149  31.818  27.667  1.00  0.00     0.014 A 
ATOM     27  C   UNL A   1      34.453  29.532  28.004  1.00  0.00     0.014 A 
ATOM     28  C   UNL A   1      36.318  31.563  28.391  1.00  0.00     0.010 A 
ATOM     29  C   UNL A   1      35.560  29.311  28.816  1.00  0.00     0.010 A 
ATOM     30  C   UNL A   1      36.516  30.317  29.005  1.00  0.00    -0.014 A 
BRANCH  30  31
ATOM     31  C   UNL A   1      37.728  30.028  29.816  1.00  0.00     0.031 A 
ATOM     32  C   UNL A   1      38.818  29.152  29.254  1.00  0.00     0.074 A 
ATOM     33  C   UNL A   1      37.820  30.496  31.076  1.00  0.00     0.049 A 
ATOM     34  N   UNL A   1      39.902  28.701  29.830  1.00  0.00    -0.248 NA
ATOM     35  C   UNL A   1      38.639  28.693  27.869  1.00  0.00     0.031 C 
ATOM     36  C   UNL A   1      36.816  31.327  31.745  1.00  0.00     0.029 A 
ATOM     37  N   UNL A   1      38.801  30.337  32.022  1.00  0.00    -0.354 N 
ATOM     38  C   UNL A   1      40.525  27.894  28.884  1.00  0.00     0.074 A 
ATOM     39  C   UNL A   1      39.651  27.851  27.732  1.00  0.00     0.031 C 
ATOM     40  C   UNL A   1      37.254  31.640  32.973  1.00  0.00     0.029 A 
ATOM     41  C   UNL A   1      38.538  30.987  33.205  1.00  0.00     0.049 A 
ATOM     42  H   UNL A   1      39.617  29.808  31.867  1.00  0.00     0.167 HD
ATOM     43  C   UNL A   1      41.730  27.272  28.954  1.00  0.00     0.034 A 
ATOM     44  C   UNL A   1      39.248  31.043  34.349  1.00  0.00     0.034 A 
ATOM     45  C   UNL A   1      42.591  27.330  30.111  1.00  0.00     0.049 A 
ATOM     46  C   UNL A   1      40.557  30.298  34.428  1.00  0.00     0.074 A 
ATOM     47  C   UNL A   1      43.845  26.772  30.285  1.00  0.00     0.029 A 
ATOM     48  N   UNL A   1      42.280  27.979  31.301  1.00  0.00    -0.354 N 
ATOM     49  N   UNL A   1      41.151  29.568  33.514  1.00  0.00    -0.248 NA
ATOM     50  C   UNL A   1      41.291  30.392  35.696  1.00  0.00     0.031 C 
ATOM     51  C   UNL A   1      44.259  27.021  31.599  1.00  0.00     0.029 A 
ATOM     52  C   UNL A   1      43.302  27.808  32.221  1.00  0.00     0.049 A 
ATOM     53  H   UNL A   1      41.451  28.487  31.466  1.00  0.00     0.167 HD
ATOM     54  C   UNL A   1      42.350  29.147  34.085  1.00  0.00     0.074 A 
ATOM     55  C   UNL A   1      42.393  29.713  35.418  1.00  0.00     0.031 C 
ATOM     56  C   UNL A   1      43.327  28.368  33.554  1.00  0.00     0.034 A 
BRANCH  43  57
ATOM     57  C   UNL A   1      42.158  26.463  27.749  1.00  0.00     0.023 A 
ATOM     58  C   UNL A   1      41.955  25.072  27.688  1.00  0.00     0.031 A 
ATOM     59  C   UNL A   1      42.839  27.070  26.678  1.00  0.00     0.131 A 
ATOM     60  C   UNL A   1      42.524  24.324  26.647  1.00  0.00     0.055 A 
ATOM     61  C   UNL A   1      43.311  26.332  25.591  1.00  0.00     0.041 A 
ATOM     62  F   UNL A   1      43.082  28.391  26.682  1.00  0.00    -0.206 F 
ATOM     63  C   UNL A   1      43.176  24.946  25.582  1.00  0.00     0.022 A 
BRANCH  60  64
ATOM     64  S   UNL A   1      42.569  22.517  26.810  1.00  0.00     0.124 S 
ATOM     65  O   UNL A   1      41.346  22.128  26.111  1.00  0.00    -0.237 OA
ATOM     66  O   UNL A   1      43.821  22.170  26.149  1.00  0.00    -0.237 OA
ATOM     67  O   UNL A   1      42.544  22.302  28.256  1.00  0.00    -0.744 OA
ENDBRANCH  60  64
ENDBRANCH  43  57
BRANCH  44  68
ATOM     68  C   UNL A   1      38.750  31.838  35.507  1.00  0.00     0.023 A 
ATOM     69  C   UNL A   1      38.186  31.201  36.623  1.00  0.00     0.031 A 
ATOM     70  C   UNL A   1      38.807  33.243  35.508  1.00  0.00     0.131 A 
ATOM     71  C   UNL A   1      37.663  31.965  37.677  1.00  0.00     0.055 A 
ATOM     72  C   UNL A   1      38.334  33.999  36.583  1.00  0.00     0.041 A 
ATOM     73  F   UNL A   1      39.341  33.901  34.467  1.00  0.00    -0.206 F 
ATOM     74  C   UNL A   1      37.747  33.360  37.670  1.00  0.00     0.022 A 
BRANCH  71  75
ATOM     75  S   UNL A   1      36.804  31.111  39.026  1.00  0.00     0.124 S 
ATOM     76  O   UNL A   1      37.778  31.208  40.106  1.00  0.00    -0.237 OA
ATOM     77  O   UNL A   1      35.597  31.916  39.174  1.00  0.00    -0.237 OA
ATOM     78  O   UNL A   1      36.591  29.766  38.495  1.00  0.00    -0.744 OA
ENDBRANCH  71  75
ENDBRANCH  44  68
BRANCH  56  79
ATOM     79  C   UNL A   1      44.553  28.131  34.404  1.00  0.00     0.023 A 
ATOM     80  C   UNL A   1      44.658  27.025  35.265  1.00  0.00     0.031 A 
ATOM     81  C   UNL A   1      45.628  29.038  34.358  1.00  0.00     0.131 A 
ATOM     82  C   UNL A   1      45.785  26.885  36.088  1.00  0.00     0.055 A 
ATOM     83  C   UNL A   1      46.776  28.857  35.131  1.00  0.00     0.041 A 
ATOM     84  F   UNL A   1      45.581  30.114  33.558  1.00  0.00    -0.206 F 
ATOM     85  C   UNL A   1      46.854  27.783  36.012  1.00  0.00     0.022 A 
BRANCH  82  86
ATOM     86  S   UNL A   1      45.797  25.566  37.334  1.00  0.00     0.124 S 
ATOM     87  O   UNL A   1      45.735  24.366  36.506  1.00  0.00    -0.237 OA
ATOM     88  O   UNL A   1      47.061  25.800  38.024  1.00  0.00    -0.237 OA
ATOM     89  O   UNL A   1      44.599  25.834  38.129  1.00  0.00    -0.744 OA
ENDBRANCH  82  86
ENDBRANCH  56  79
ENDBRANCH  30  31
ENDBRANCH  22  25
ENDBRANCH  20  21
ENDBRANCH  19  20
ENDBRANCH   1  19
TORSDOF 17
ENDMDL
MODEL 3
REMARK VINA RESULT:     -11.0      4.775      6.696
REMARK SMILES CCc1ccc(C(=O)[C@@H](Br)CC(=O)NCCCNC(=O)c2ccc(-c3c4nc(c(-c5cc(S(=O)(=O)[O-])ccc5F)c5ccc([nH]5)c(-c5cc(S(=O)(=O)[O-])ccc5F)c5nc(c(-c6cc(S(=O)(=O)[O-])ccc6F)c6ccc3[nH]6)C=C5)C=C4)cc2)cc1
REMARK SMILES IDX 15 1 14 2 12 3 13 4 11 6 9 7 10 8 7 9 8 10 6 11 3 12 4 13
REMARK SMILES IDX 85 14 5 15 84 16 2 17 1 18 16 19 17 20 18 21 19 22 20 24
REMARK SMILES IDX 21 25 22 26 83 27 23 28 82 29 24 30 25 31 26 32 76 33 27 34
REMARK SMILES IDX 81 35 75 36 77 37 28 38 80 39 74 40 73 41 29 43 61 44 41 45
REMARK SMILES IDX 60 46 42 47 45 48 59 49 78 50 43 51 44 52 58 54 79 55 46 56
REMARK SMILES IDX 30 57 31 58 39 59 32 60 38 61 40 62 37 63 33 64 34 65 35 66
REMARK SMILES IDX 36 67 62 68 63 69 71 70 64 71 70 72 72 73 69 74 65 75 66 76
REMARK SMILES IDX 67 77 68 78 47 79 48 80 56 81 49 82 55 83 57 84 54 85 50 86
REMARK SMILES IDX 51 87 52 88 53 89
REMARK H PARENT 14 5 18 23 77 42 45 53
REMARK Flexibility Score: inf
ROOT
ATOM      1  C   UNL A   1      31.675  27.432  26.094  1.00  0.00     0.117 C 
ENDROOT
BRANCH   1   2
ATOM      2  N   UNL A   1      31.341  26.225  26.826  1.00  0.00    -0.356 N 
ATOM      3  C   UNL A   1      31.481  24.922  26.455  1.00  0.00     0.221 C 
ATOM      4  O   UNL A   1      31.042  24.044  27.197  1.00  0.00    -0.275 OA
ATOM      5  H   UNL A   1      30.956  26.368  27.720  1.00  0.00     0.163 HD
BRANCH   3   6
ATOM      6  C   UNL A   1      32.194  24.572  25.168  1.00  0.00     0.123 C 
BRANCH   6   7
ATOM      7  C   UNL A   1      33.646  24.194  25.412  1.00  0.00     0.138 C 
ATOM      8  Br  UNL A   1      34.611  24.052  23.702  1.00  0.00    -0.080 Br
BRANCH   7   9
ATOM      9  C   UNL A   1      33.973  22.904  26.160  1.00  0.00     0.176 C 
ATOM     10  O   UNL A   1      34.383  22.966  27.323  1.00  0.00    -0.293 OA
BRANCH   9  11
ATOM     11  C   UNL A   1      33.786  21.537  25.570  1.00  0.00     0.019 A 
ATOM     12  C   UNL A   1      33.298  19.102  24.218  1.00  0.00    -0.048 A 
ATOM     13  C   UNL A   1      32.248  19.983  24.491  1.00  0.00     0.004 A 
ATOM     14  C   UNL A   1      34.585  19.432  24.661  1.00  0.00     0.004 A 
ATOM     15  C   UNL A   1      32.488  21.179  25.172  1.00  0.00     0.012 A 
ATOM     16  C   UNL A   1      34.827  20.632  25.344  1.00  0.00     0.012 A 
BRANCH  12  17
ATOM     17  C   UNL A   1      33.039  17.821  23.466  1.00  0.00     0.032 C 
ATOM     18  C   UNL A   1      34.241  16.888  23.467  1.00  0.00     0.009 C 
ENDBRANCH  12  17
ENDBRANCH   9  11
ENDBRANCH   7   9
ENDBRANCH   6   7
ENDBRANCH   3   6
ENDBRANCH   1   2
BRANCH   1  19
ATOM     19  C   UNL A   1      32.508  28.376  26.953  1.00  0.00     0.042 C 
BRANCH  19  20
ATOM     20  C   UNL A   1      33.479  29.217  26.141  1.00  0.00     0.118 C 
BRANCH  20  21
ATOM     21  N   UNL A   1      33.344  30.635  26.454  1.00  0.00    -0.352 N 
ATOM     22  C   UNL A   1      34.001  31.415  27.374  1.00  0.00     0.251 C 
ATOM     23  H   UNL A   1      32.670  31.111  25.917  1.00  0.00     0.163 HD
ATOM     24  O   UNL A   1      33.531  32.517  27.650  1.00  0.00    -0.269 OA
BRANCH  22  25
ATOM     25  C   UNL A   1      35.239  30.943  28.036  1.00  0.00     0.039 A 
ATOM     26  C   UNL A   1      35.203  29.753  28.770  1.00  0.00     0.014 A 
ATOM     27  C   UNL A   1      36.423  31.679  27.980  1.00  0.00     0.014 A 
ATOM     28  C   UNL A   1      36.363  29.279  29.390  1.00  0.00     0.010 A 
ATOM     29  C   UNL A   1      37.600  31.152  28.501  1.00  0.00     0.010 A 
ATOM     30  C   UNL A   1      37.582  29.955  29.229  1.00  0.00    -0.014 A 
BRANCH  30  31
ATOM     31  C   UNL A   1      38.842  29.455  29.840  1.00  0.00     0.031 A 
ATOM     32  C   UNL A   1      39.303  30.001  31.166  1.00  0.00     0.074 A 
ATOM     33  C   UNL A   1      39.601  28.563  29.175  1.00  0.00     0.049 A 
ATOM     34  N   UNL A   1      40.413  29.772  31.819  1.00  0.00    -0.248 NA
ATOM     35  C   UNL A   1      38.408  30.964  31.824  1.00  0.00     0.031 C 
ATOM     36  C   UNL A   1      39.279  27.984  27.869  1.00  0.00     0.029 A 
ATOM     37  N   UNL A   1      40.803  27.988  29.504  1.00  0.00    -0.354 N 
ATOM     38  C   UNL A   1      40.356  30.574  32.954  1.00  0.00     0.074 A 
ATOM     39  C   UNL A   1      39.143  31.356  32.852  1.00  0.00     0.031 C 
ATOM     40  C   UNL A   1      40.235  27.106  27.530  1.00  0.00     0.029 A 
ATOM     41  C   UNL A   1      41.267  27.101  28.562  1.00  0.00     0.049 A 
ATOM     42  H   UNL A   1      41.287  28.192  30.337  1.00  0.00     0.167 HD
ATOM     43  C   UNL A   1      41.217  30.630  34.003  1.00  0.00     0.034 A 
ATOM     44  C   UNL A   1      42.400  26.372  28.529  1.00  0.00     0.034 A 
ATOM     45  C   UNL A   1      42.421  29.839  34.089  1.00  0.00     0.049 A 
ATOM     46  C   UNL A   1      43.373  26.491  29.675  1.00  0.00     0.074 A 
ATOM     47  C   UNL A   1      43.349  29.784  35.113  1.00  0.00     0.029 A 
ATOM     48  N   UNL A   1      42.871  28.967  33.102  1.00  0.00    -0.354 N 
ATOM     49  N   UNL A   1      43.290  27.226  30.760  1.00  0.00    -0.248 NA
ATOM     50  C   UNL A   1      44.591  25.675  29.592  1.00  0.00     0.031 C 
ATOM     51  C   UNL A   1      44.392  28.939  34.718  1.00  0.00     0.029 A 
ATOM     52  C   UNL A   1      44.077  28.397  33.481  1.00  0.00     0.049 A 
ATOM     53  H   UNL A   1      42.401  28.782  32.256  1.00  0.00     0.167 HD
ATOM     54  C   UNL A   1      44.428  26.931  31.506  1.00  0.00     0.074 A 
ATOM     55  C   UNL A   1      45.174  25.946  30.749  1.00  0.00     0.031 C 
ATOM     56  C   UNL A   1      44.818  27.424  32.710  1.00  0.00     0.034 A 
BRANCH  43  57
ATOM     57  C   UNL A   1      40.884  31.600  35.116  1.00  0.00     0.023 A 
ATOM     58  C   UNL A   1      39.815  31.366  36.000  1.00  0.00     0.031 A 
ATOM     59  C   UNL A   1      41.595  32.806  35.256  1.00  0.00     0.131 A 
ATOM     60  C   UNL A   1      39.417  32.365  36.901  1.00  0.00     0.055 A 
ATOM     61  C   UNL A   1      41.257  33.752  36.226  1.00  0.00     0.041 A 
ATOM     62  F   UNL A   1      42.613  33.101  34.432  1.00  0.00    -0.206 F 
ATOM     63  C   UNL A   1      40.147  33.545  37.041  1.00  0.00     0.022 A 
BRANCH  60  64
ATOM     64  S   UNL A   1      37.818  32.179  37.740  1.00  0.00     0.124 S 
ATOM     65  O   UNL A   1      36.931  32.924  36.850  1.00  0.00    -0.237 OA
ATOM     66  O   UNL A   1      37.637  30.732  37.759  1.00  0.00    -0.237 OA
ATOM     67  O   UNL A   1      38.041  32.799  39.044  1.00  0.00    -0.744 OA
ENDBRANCH  60  64
ENDBRANCH  43  57
BRANCH  44  68
ATOM     68  C   UNL A   1      42.676  25.457  27.386  1.00  0.00     0.023 A 
ATOM     69  C   UNL A   1      42.162  24.152  27.374  1.00  0.00     0.031 A 
ATOM     70  C   UNL A   1      43.475  25.862  26.302  1.00  0.00     0.131 A 
ATOM     71  C   UNL A   1      42.483  23.281  26.321  1.00  0.00     0.055 A 
ATOM     72  C   UNL A   1      43.750  25.010  25.230  1.00  0.00     0.041 A 
ATOM     73  F   UNL A   1      43.988  27.102  26.263  1.00  0.00    -0.206 F 
ATOM     74  C   UNL A   1      43.262  23.707  25.242  1.00  0.00     0.022 A 
BRANCH  71  75
ATOM     75  S   UNL A   1      41.928  21.558  26.420  1.00  0.00     0.124 S 
ATOM     76  O   UNL A   1      40.516  21.681  26.081  1.00  0.00    -0.237 OA
ATOM     77  O   UNL A   1      42.775  20.910  25.425  1.00  0.00    -0.237 OA
ATOM     78  O   UNL A   1      42.209  21.190  27.807  1.00  0.00    -0.744 OA
ENDBRANCH  71  75
ENDBRANCH  44  68
BRANCH  56  79
ATOM     79  C   UNL A   1      46.087  26.860  33.305  1.00  0.00     0.023 A 
ATOM     80  C   UNL A   1      46.085  25.695  34.090  1.00  0.00     0.031 A 
ATOM     81  C   UNL A   1      47.315  27.511  33.090  1.00  0.00     0.131 A 
ATOM     82  C   UNL A   1      47.277  25.248  34.680  1.00  0.00     0.055 A 
ATOM     83  C   UNL A   1      48.509  27.024  33.625  1.00  0.00     0.041 A 
ATOM     84  F   UNL A   1      47.376  28.631  32.352  1.00  0.00    -0.206 F 
ATOM     85  C   UNL A   1      48.492  25.895  34.436  1.00  0.00     0.022 A 
BRANCH  82  86
ATOM     86  S   UNL A   1      47.205  23.866  35.853  1.00  0.00     0.124 S 
ATOM     87  O   UNL A   1      47.594  22.737  35.014  1.00  0.00    -0.237 OA
ATOM     88  O   UNL A   1      48.172  24.268  36.869  1.00  0.00    -0.237 OA
ATOM     89  O   UNL A   1      45.810  23.860  36.292  1.00  0.00    -0.744 OA
ENDBRANCH  82  86
ENDBRANCH  56  79
ENDBRANCH  30  31
ENDBRANCH  22  25
ENDBRANCH  20  21
ENDBRANCH  19  20
ENDBRANCH   1  19
TORSDOF 17
ENDMDL
