MODEL 1
REMARK VINA RESULT:     -14.3      0.000      0.000
REMARK SMILES O=C(NCCCNC(=O)[C@H]1CCCN(c2cc(-c3ccccn3)nc(-c3ccccc3F)n2)C1)c1ccc(-c2c3nc(c(-c4cc(S(=O)(=O)[O-])ccc4F)c4ccc([nH]4)c(-c4cc(S(=O)(=O)[O-])ccc4F)c4nc(c(-c5cc(S(=O)(=O)[O-])ccc5F)c5ccc2[nH]5)C=C4)C=C3)cc1
REMARK SMILES IDX 4 1 3 2 1 3 2 4 35 6 36 7 97 8 37 9 96 10 38 11 39 12 40 13
REMARK SMILES IDX 90 14 41 15 95 16 89 17 91 18 42 19 94 20 88 21 87 22 43 24
REMARK SMILES IDX 75 25 55 26 74 27 56 28 59 29 73 30 92 31 57 32 58 33 72 35
REMARK SMILES IDX 93 36 60 37 44 38 45 39 53 40 46 41 52 42 54 43 51 44 47 45
REMARK SMILES IDX 48 46 49 47 50 48 76 49 77 50 85 51 78 52 84 53 86 54 83 55
REMARK SMILES IDX 79 56 80 57 81 58 82 59 61 60 62 61 70 62 63 63 69 64 71 65
REMARK SMILES IDX 68 66 64 67 65 68 66 69 67 70 5 71 6 72 7 73 8 74 9 76 10 77
REMARK SMILES IDX 11 78 34 79 12 80 14 81 13 82 15 83 16 84 33 85 17 86 25 87
REMARK SMILES IDX 24 88 18 89 19 90 23 91 20 92 22 93 21 94 26 95 27 96 31 97
REMARK SMILES IDX 28 98 30 99 32 100 29 101
REMARK H PARENT 3 5 91 23 59 34 7 75
REMARK Flexibility Score: inf
ROOT
ATOM      1  C   UNL A   1      33.006  29.178  25.381  1.00  0.00     0.118 C 
ENDROOT
BRANCH   1   2
ATOM      2  N   UNL A   1      32.538  30.491  25.807  1.00  0.00    -0.352 N 
ATOM      3  O   UNL A   1      32.295  32.279  27.147  1.00  0.00    -0.269 OA
ATOM      4  C   UNL A   1      32.951  31.282  26.850  1.00  0.00     0.251 C 
ATOM      5  H   UNL A   1      31.811  30.871  25.261  1.00  0.00     0.163 HD
BRANCH   4   6
ATOM      6  C   UNL A   1      34.164  30.934  27.621  1.00  0.00     0.039 A 
ATOM      7  C   UNL A   1      34.415  29.615  28.003  1.00  0.00     0.014 A 
ATOM      8  C   UNL A   1      35.086  31.939  27.933  1.00  0.00     0.014 A 
ATOM      9  C   UNL A   1      35.505  29.325  28.816  1.00  0.00     0.010 A 
ATOM     10  C   UNL A   1      36.230  31.629  28.675  1.00  0.00     0.010 A 
ATOM     11  C   UNL A   1      36.437  30.323  29.143  1.00  0.00    -0.014 A 
BRANCH  11  12
ATOM     12  C   UNL A   1      37.649  29.955  29.917  1.00  0.00     0.031 A 
ATOM     13  C   UNL A   1      38.747  29.133  29.302  1.00  0.00     0.074 A 
ATOM     14  C   UNL A   1      37.770  30.413  31.180  1.00  0.00     0.049 A 
ATOM     15  N   UNL A   1      39.873  28.736  29.838  1.00  0.00    -0.248 NA
ATOM     16  C   UNL A   1      38.558  28.697  27.911  1.00  0.00     0.031 C 
ATOM     17  C   UNL A   1      36.769  31.228  31.877  1.00  0.00     0.029 A 
ATOM     18  N   UNL A   1      38.787  30.289  32.091  1.00  0.00    -0.354 N 
ATOM     19  C   UNL A   1      40.524  27.997  28.857  1.00  0.00     0.074 A 
ATOM     20  C   UNL A   1      39.653  27.977  27.701  1.00  0.00     0.031 C 
ATOM     21  C   UNL A   1      37.249  31.581  33.078  1.00  0.00     0.029 A 
ATOM     22  C   UNL A   1      38.554  30.960  33.269  1.00  0.00     0.049 A 
ATOM     23  H   UNL A   1      39.606  29.771  31.919  1.00  0.00     0.167 HD
ATOM     24  C   UNL A   1      41.740  27.400  28.917  1.00  0.00     0.034 A 
ATOM     25  C   UNL A   1      39.296  31.053  34.389  1.00  0.00     0.034 A 
ATOM     26  C   UNL A   1      42.600  27.435  30.074  1.00  0.00     0.049 A 
ATOM     27  C   UNL A   1      40.614  30.337  34.448  1.00  0.00     0.074 A 
ATOM     28  C   UNL A   1      43.856  26.875  30.229  1.00  0.00     0.029 A 
ATOM     29  N   UNL A   1      42.295  28.061  31.276  1.00  0.00    -0.354 N 
ATOM     30  N   UNL A   1      41.199  29.617  33.520  1.00  0.00    -0.248 NA
ATOM     31  C   UNL A   1      41.367  30.434  35.704  1.00  0.00     0.031 C 
ATOM     32  C   UNL A   1      44.285  27.111  31.539  1.00  0.00     0.029 A 
ATOM     33  C   UNL A   1      43.327  27.877  32.183  1.00  0.00     0.049 A 
ATOM     34  H   UNL A   1      41.467  28.563  31.457  1.00  0.00     0.167 HD
ATOM     35  C   UNL A   1      42.396  29.183  34.077  1.00  0.00     0.074 A 
ATOM     36  C   UNL A   1      42.454  29.728  35.420  1.00  0.00     0.031 C 
ATOM     37  C   UNL A   1      43.360  28.407  33.525  1.00  0.00     0.034 A 
BRANCH  24  38
ATOM     38  C   UNL A   1      42.202  26.624  27.710  1.00  0.00     0.023 A 
ATOM     39  C   UNL A   1      42.257  25.220  27.710  1.00  0.00     0.031 A 
ATOM     40  C   UNL A   1      42.558  27.301  26.530  1.00  0.00     0.131 A 
ATOM     41  C   UNL A   1      42.695  24.539  26.564  1.00  0.00     0.055 A 
ATOM     42  C   UNL A   1      42.934  26.616  25.374  1.00  0.00     0.041 A 
ATOM     43  F   UNL A   1      42.538  28.643  26.480  1.00  0.00    -0.206 F 
ATOM     44  C   UNL A   1      43.010  25.225  25.389  1.00  0.00     0.022 A 
BRANCH  41  45
ATOM     45  S   UNL A   1      42.913  22.740  26.649  1.00  0.00     0.124 S 
ATOM     46  O   UNL A   1      42.131  22.401  27.836  1.00  0.00    -0.237 OA
ATOM     47  O   UNL A   1      42.362  22.291  25.375  1.00  0.00    -0.237 OA
ATOM     48  O   UNL A   1      44.358  22.576  26.795  1.00  0.00    -0.744 OA
ENDBRANCH  41  45
ENDBRANCH  24  38
BRANCH  25  49
ATOM     49  C   UNL A   1      38.782  31.830  35.548  1.00  0.00     0.023 A 
ATOM     50  C   UNL A   1      38.152  31.191  36.626  1.00  0.00     0.031 A 
ATOM     51  C   UNL A   1      38.945  33.227  35.606  1.00  0.00     0.131 A 
ATOM     52  C   UNL A   1      37.698  31.951  37.715  1.00  0.00     0.055 A 
ATOM     53  C   UNL A   1      38.528  33.972  36.707  1.00  0.00     0.041 A 
ATOM     54  F   UNL A   1      39.553  33.879  34.602  1.00  0.00    -0.206 F 
ATOM     55  C   UNL A   1      37.895  33.334  37.769  1.00  0.00     0.022 A 
BRANCH  52  56
ATOM     56  S   UNL A   1      36.826  31.108  39.064  1.00  0.00     0.124 S 
ATOM     57  O   UNL A   1      36.643  29.772  38.509  1.00  0.00    -0.237 OA
ATOM     58  O   UNL A   1      37.778  31.224  40.164  1.00  0.00    -0.237 OA
ATOM     59  O   UNL A   1      35.602  31.892  39.219  1.00  0.00    -0.744 OA
ENDBRANCH  52  56
ENDBRANCH  25  49
BRANCH  37  60
ATOM     60  C   UNL A   1      44.575  28.120  34.364  1.00  0.00     0.023 A 
ATOM     61  C   UNL A   1      44.655  26.974  35.172  1.00  0.00     0.031 A 
ATOM     62  C   UNL A   1      45.681  28.987  34.323  1.00  0.00     0.131 A 
ATOM     63  C   UNL A   1      45.809  26.739  35.934  1.00  0.00     0.055 A 
ATOM     64  C   UNL A   1      46.844  28.724  35.048  1.00  0.00     0.041 A 
ATOM     65  F   UNL A   1      45.653  30.093  33.564  1.00  0.00    -0.206 F 
ATOM     66  C   UNL A   1      46.911  27.597  35.862  1.00  0.00     0.022 A 
BRANCH  63  67
ATOM     67  S   UNL A   1      45.848  25.306  37.044  1.00  0.00     0.124 S 
ATOM     68  O   UNL A   1      44.430  25.112  37.332  1.00  0.00    -0.237 OA
ATOM     69  O   UNL A   1      46.476  24.281  36.218  1.00  0.00    -0.237 OA
ATOM     70  O   UNL A   1      46.653  25.769  38.173  1.00  0.00    -0.744 OA
ENDBRANCH  63  67
ENDBRANCH  37  60
ENDBRANCH  11  12
ENDBRANCH   4   6
ENDBRANCH   1   2
BRANCH   1  71
ATOM     71  C   UNL A   1      32.803  28.935  23.890  1.00  0.00     0.042 C 
BRANCH  71  72
ATOM     72  C   UNL A   1      33.934  28.154  23.234  1.00  0.00     0.117 C 
BRANCH  72  73
ATOM     73  N   UNL A   1      33.546  27.624  21.938  1.00  0.00    -0.356 N 
ATOM     74  C   UNL A   1      33.102  26.375  21.619  1.00  0.00     0.224 C 
ATOM     75  H   UNL A   1      33.613  28.254  21.186  1.00  0.00     0.163 HD
ATOM     76  O   UNL A   1      32.922  26.112  20.429  1.00  0.00    -0.275 OA
BRANCH  74  77
ATOM     77  C   UNL A   1      32.768  25.400  22.735  1.00  0.00     0.098 C 
ATOM     78  C   UNL A   1      31.285  25.557  23.110  1.00  0.00     0.017 C 
ATOM     79  C   UNL A   1      33.055  23.970  22.269  1.00  0.00     0.131 C 
ATOM     80  C   UNL A   1      30.858  24.509  24.133  1.00  0.00     0.022 C 
ATOM     81  N   UNL A   1      32.528  22.999  23.224  1.00  0.00    -0.356 N 
ATOM     82  C   UNL A   1      31.135  23.096  23.622  1.00  0.00     0.118 C 
BRANCH  81  83
ATOM     83  C   UNL A   1      33.392  22.140  23.867  1.00  0.00     0.133 A 
ATOM     84  C   UNL A   1      33.025  20.824  24.054  1.00  0.00     0.077 A 
ATOM     85  N   UNL A   1      34.593  22.591  24.261  1.00  0.00    -0.211 NA
ATOM     86  C   UNL A   1      33.950  19.974  24.625  1.00  0.00     0.095 A 
ATOM     87  C   UNL A   1      35.424  21.704  24.845  1.00  0.00     0.165 A 
ATOM     88  N   UNL A   1      35.156  20.403  25.038  1.00  0.00    -0.226 NA
BRANCH  86  89
ATOM     89  C   UNL A   1      33.675  18.536  24.745  1.00  0.00     0.089 A 
ATOM     90  C   UNL A   1      34.342  17.605  23.944  1.00  0.00     0.030 A 
ATOM     91  N   UNL A   1      32.719  18.164  25.635  1.00  0.00    -0.255 NA
ATOM     92  C   UNL A   1      34.029  16.255  24.067  1.00  0.00     0.004 A 
ATOM     93  C   UNL A   1      32.451  16.847  25.747  1.00  0.00     0.112 A 
ATOM     94  C   UNL A   1      33.067  15.865  24.990  1.00  0.00     0.020 A 
ENDBRANCH  86  89
BRANCH  87  95
ATOM     95  C   UNL A   1      36.683  22.208  25.383  1.00  0.00     0.055 A 
ATOM     96  C   UNL A   1      36.774  23.505  25.921  1.00  0.00     0.015 A 
ATOM     97  C   UNL A   1      37.829  21.406  25.411  1.00  0.00     0.134 A 
ATOM     98  C   UNL A   1      37.970  23.968  26.482  1.00  0.00     0.001 A 
ATOM     99  C   UNL A   1      39.027  21.866  25.960  1.00  0.00     0.040 A 
ATOM    100  F   UNL A   1      37.803  20.169  24.890  1.00  0.00    -0.206 F 
ATOM    101  C   UNL A   1      39.097  23.147  26.501  1.00  0.00     0.003 A 
ENDBRANCH  87  95
ENDBRANCH  81  83
ENDBRANCH  74  77
ENDBRANCH  72  73
ENDBRANCH  71  72
ENDBRANCH   1  71
TORSDOF 16
ENDMDL
MODEL 2
REMARK VINA RESULT:     -14.3      5.118     10.686
REMARK SMILES O=C(NCCCNC(=O)[C@H]1CCCN(c2cc(-c3ccccn3)nc(-c3ccccc3F)n2)C1)c1ccc(-c2c3nc(c(-c4cc(S(=O)(=O)[O-])ccc4F)c4ccc([nH]4)c(-c4cc(S(=O)(=O)[O-])ccc4F)c4nc(c(-c5cc(S(=O)(=O)[O-])ccc5F)c5ccc2[nH]5)C=C4)C=C3)cc1
REMARK SMILES IDX 4 1 3 2 1 3 2 4 35 6 36 7 97 8 37 9 96 10 38 11 39 12 40 13
REMARK SMILES IDX 90 14 41 15 95 16 89 17 91 18 42 19 94 20 88 21 87 22 43 24
REMARK SMILES IDX 75 25 55 26 74 27 56 28 59 29 73 30 92 31 57 32 58 33 72 35
REMARK SMILES IDX 93 36 60 37 44 38 45 39 53 40 46 41 52 42 54 43 51 44 47 45
REMARK SMILES IDX 48 46 49 47 50 48 76 49 77 50 85 51 78 52 84 53 86 54 83 55
REMARK SMILES IDX 79 56 80 57 81 58 82 59 61 60 62 61 70 62 63 63 69 64 71 65
REMARK SMILES IDX 68 66 64 67 65 68 66 69 67 70 5 71 6 72 7 73 8 74 9 76 10 77
REMARK SMILES IDX 11 78 34 79 12 80 14 81 13 82 15 83 16 84 33 85 17 86 25 87
REMARK SMILES IDX 24 88 18 89 19 90 23 91 20 92 22 93 21 94 26 95 27 96 31 97
REMARK SMILES IDX 28 98 30 99 32 100 29 101
REMARK H PARENT 3 5 91 23 59 34 7 75
REMARK Flexibility Score: inf
ROOT
ATOM      1  C   UNL A   1      35.718  22.266  25.997  1.00  0.00     0.118 C 
ENDROOT
BRANCH   1   2
ATOM      2  N   UNL A   1      36.670  21.177  25.808  1.00  0.00    -0.352 N 
ATOM      3  O   UNL A   1      38.651  20.191  25.416  1.00  0.00    -0.269 OA
ATOM      4  C   UNL A   1      38.042  21.198  25.771  1.00  0.00     0.251 C 
ATOM      5  H   UNL A   1      36.265  20.287  25.689  1.00  0.00     0.163 HD
BRANCH   4   6
ATOM      6  C   UNL A   1      38.784  22.423  26.140  1.00  0.00     0.039 A 
ATOM      7  C   UNL A   1      38.304  23.685  25.784  1.00  0.00     0.014 A 
ATOM      8  C   UNL A   1      39.960  22.309  26.888  1.00  0.00     0.014 A 
ATOM      9  C   UNL A   1      39.068  24.816  26.048  1.00  0.00     0.010 A 
ATOM     10  C   UNL A   1      40.682  23.457  27.232  1.00  0.00     0.010 A 
ATOM     11  C   UNL A   1      40.254  24.719  26.794  1.00  0.00    -0.014 A 
BRANCH  11  12
ATOM     12  C   UNL A   1      40.985  25.959  27.155  1.00  0.00     0.031 A 
ATOM     13  C   UNL A   1      40.382  26.977  28.082  1.00  0.00     0.074 A 
ATOM     14  C   UNL A   1      42.230  26.137  26.668  1.00  0.00     0.049 A 
ATOM     15  N   UNL A   1      40.893  28.105  28.505  1.00  0.00    -0.248 NA
ATOM     16  C   UNL A   1      39.034  26.698  28.598  1.00  0.00     0.031 C 
ATOM     17  C   UNL A   1      42.919  25.209  25.766  1.00  0.00     0.029 A 
ATOM     18  N   UNL A   1      43.148  27.134  26.880  1.00  0.00    -0.354 N 
ATOM     19  C   UNL A   1      39.930  28.677  29.329  1.00  0.00     0.074 A 
ATOM     20  C   UNL A   1      38.791  27.783  29.323  1.00  0.00     0.031 C 
ATOM     21  C   UNL A   1      44.168  25.648  25.553  1.00  0.00     0.029 A 
ATOM     22  C   UNL A   1      44.346  26.922  26.240  1.00  0.00     0.049 A 
ATOM     23  H   UNL A   1      42.966  27.925  27.437  1.00  0.00     0.167 HD
ATOM     24  C   UNL A   1      39.997  29.835  30.029  1.00  0.00     0.034 A 
ATOM     25  C   UNL A   1      45.462  27.674  26.191  1.00  0.00     0.034 A 
ATOM     26  C   UNL A   1      41.143  30.712  30.031  1.00  0.00     0.049 A 
ATOM     27  C   UNL A   1      45.490  28.979  26.932  1.00  0.00     0.074 A 
ATOM     28  C   UNL A   1      41.315  31.900  30.720  1.00  0.00     0.029 A 
ATOM     29  N   UNL A   1      42.310  30.501  29.308  1.00  0.00    -0.354 N 
ATOM     30  N   UNL A   1      44.556  29.518  27.681  1.00  0.00    -0.248 NA
ATOM     31  C   UNL A   1      46.712  29.784  26.816  1.00  0.00     0.031 C 
ATOM     32  C   UNL A   1      42.559  32.435  30.370  1.00  0.00     0.029 A 
ATOM     33  C   UNL A   1      43.193  31.549  29.515  1.00  0.00     0.049 A 
ATOM     34  H   UNL A   1      42.485  29.720  28.734  1.00  0.00     0.167 HD
ATOM     35  C   UNL A   1      45.083  30.721  28.134  1.00  0.00     0.074 A 
ATOM     36  C   UNL A   1      46.419  30.827  27.582  1.00  0.00     0.031 C 
ATOM     37  C   UNL A   1      44.513  31.651  28.939  1.00  0.00     0.034 A 
BRANCH  24  38
ATOM     38  C   UNL A   1      38.786  30.245  30.827  1.00  0.00     0.023 A 
ATOM     39  C   UNL A   1      37.922  31.262  30.389  1.00  0.00     0.031 A 
ATOM     40  C   UNL A   1      38.473  29.582  32.027  1.00  0.00     0.131 A 
ATOM     41  C   UNL A   1      36.806  31.613  31.164  1.00  0.00     0.055 A 
ATOM     42  C   UNL A   1      37.329  29.893  32.763  1.00  0.00     0.041 A 
ATOM     43  F   UNL A   1      39.274  28.613  32.500  1.00  0.00    -0.206 F 
ATOM     44  C   UNL A   1      36.490  30.919  32.335  1.00  0.00     0.022 A 
BRANCH  41  45
ATOM     45  S   UNL A   1      35.804  33.038  30.657  1.00  0.00     0.124 S 
ATOM     46  O   UNL A   1      36.259  34.067  31.588  1.00  0.00    -0.237 OA
ATOM     47  O   UNL A   1      36.194  33.223  29.263  1.00  0.00    -0.237 OA
ATOM     48  O   UNL A   1      34.431  32.583  30.864  1.00  0.00    -0.744 OA
ENDBRANCH  41  45
ENDBRANCH  24  38
BRANCH  25  49
ATOM     49  C   UNL A   1      46.622  27.217  25.381  1.00  0.00     0.023 A 
ATOM     50  C   UNL A   1      46.895  27.777  24.125  1.00  0.00     0.031 A 
ATOM     51  C   UNL A   1      47.497  26.230  25.874  1.00  0.00     0.131 A 
ATOM     52  C   UNL A   1      48.011  27.338  23.396  1.00  0.00     0.055 A 
ATOM     53  C   UNL A   1      48.626  25.826  25.163  1.00  0.00     0.041 A 
ATOM     54  F   UNL A   1      47.281  25.675  27.077  1.00  0.00    -0.206 F 
ATOM     55  C   UNL A   1      48.885  26.378  23.913  1.00  0.00     0.022 A 
BRANCH  52  56
ATOM     56  S   UNL A   1      48.301  28.030  21.744  1.00  0.00     0.124 S 
ATOM     57  O   UNL A   1      49.672  28.513  21.862  1.00  0.00    -0.237 OA
ATOM     58  O   UNL A   1      48.099  26.867  20.885  1.00  0.00    -0.237 OA
ATOM     59  O   UNL A   1      47.280  29.070  21.628  1.00  0.00    -0.744 OA
ENDBRANCH  52  56
ENDBRANCH  25  49
BRANCH  37  60
ATOM     60  C   UNL A   1      45.341  32.857  29.291  1.00  0.00     0.023 A 
ATOM     61  C   UNL A   1      45.213  34.066  28.587  1.00  0.00     0.031 A 
ATOM     62  C   UNL A   1      46.242  32.803  30.368  1.00  0.00     0.131 A 
ATOM     63  C   UNL A   1      45.999  35.169  28.952  1.00  0.00     0.055 A 
ATOM     64  C   UNL A   1      46.988  33.916  30.755  1.00  0.00     0.041 A 
ATOM     65  F   UNL A   1      46.398  31.670  31.071  1.00  0.00    -0.206 F 
ATOM     66  C   UNL A   1      46.872  35.107  30.043  1.00  0.00     0.022 A 
BRANCH  63  67
ATOM     67  S   UNL A   1      45.887  36.687  27.966  1.00  0.00     0.124 S 
ATOM     68  O   UNL A   1      47.291  37.067  27.841  1.00  0.00    -0.237 OA
ATOM     69  O   UNL A   1      45.240  36.225  26.743  1.00  0.00    -0.237 OA
ATOM     70  O   UNL A   1      45.075  37.575  28.796  1.00  0.00    -0.744 OA
ENDBRANCH  63  67
ENDBRANCH  37  60
ENDBRANCH  11  12
ENDBRANCH   4   6
ENDBRANCH   1   2
BRANCH   1  71
ATOM     71  C   UNL A   1      34.379  21.790  26.548  1.00  0.00     0.042 C 
BRANCH  71  72
ATOM     72  C   UNL A   1      33.736  22.762  27.527  1.00  0.00     0.117 C 
BRANCH  72  73
ATOM     73  N   UNL A   1      32.326  22.476  27.728  1.00  0.00    -0.356 N 
ATOM     74  C   UNL A   1      31.242  23.012  27.098  1.00  0.00     0.224 C 
ATOM     75  H   UNL A   1      32.124  21.800  28.414  1.00  0.00     0.163 HD
ATOM     76  O   UNL A   1      30.123  22.690  27.499  1.00  0.00    -0.275 OA
BRANCH  74  77
ATOM     77  C   UNL A   1      31.456  23.903  25.887  1.00  0.00     0.098 C 
ATOM     78  C   UNL A   1      31.388  23.044  24.613  1.00  0.00     0.017 C 
ATOM     79  C   UNL A   1      30.380  24.993  25.856  1.00  0.00     0.131 C 
ATOM     80  C   UNL A   1      31.461  23.907  23.357  1.00  0.00     0.022 C 
ATOM     81  N   UNL A   1      30.414  25.719  24.589  1.00  0.00    -0.356 N 
ATOM     82  C   UNL A   1      30.357  24.963  23.351  1.00  0.00     0.118 C 
BRANCH  81  83
ATOM     83  C   UNL A   1      30.687  27.069  24.587  1.00  0.00     0.133 A 
ATOM     84  C   UNL A   1      29.988  27.900  23.738  1.00  0.00     0.077 A 
ATOM     85  N   UNL A   1      31.601  27.554  25.441  1.00  0.00    -0.211 NA
ATOM     86  C   UNL A   1      30.229  29.256  23.823  1.00  0.00     0.095 A 
ATOM     87  C   UNL A   1      31.804  28.888  25.435  1.00  0.00     0.165 A 
ATOM     88  N   UNL A   1      31.146  29.768  24.663  1.00  0.00    -0.226 NA
BRANCH  86  89
ATOM     89  C   UNL A   1      29.436  30.212  23.037  1.00  0.00     0.089 A 
ATOM     90  C   UNL A   1      29.011  31.422  23.591  1.00  0.00     0.030 A 
ATOM     91  N   UNL A   1      29.105  29.842  21.773  1.00  0.00    -0.255 NA
ATOM     92  C   UNL A   1      28.235  32.285  22.822  1.00  0.00     0.004 A 
ATOM     93  C   UNL A   1      28.369  30.708  21.045  1.00  0.00     0.112 A 
ATOM     94  C   UNL A   1      27.909  31.924  21.521  1.00  0.00     0.020 A 
ENDBRANCH  86  89
BRANCH  87  95
ATOM     95  C   UNL A   1      32.875  29.414  26.274  1.00  0.00     0.055 A 
ATOM     96  C   UNL A   1      34.077  28.703  26.444  1.00  0.00     0.015 A 
ATOM     97  C   UNL A   1      32.755  30.656  26.906  1.00  0.00     0.134 A 
ATOM     98  C   UNL A   1      35.123  29.232  27.209  1.00  0.00     0.001 A 
ATOM     99  C   UNL A   1      33.790  31.185  27.677  1.00  0.00     0.040 A 
ATOM    100  F   UNL A   1      31.620  31.366  26.794  1.00  0.00    -0.206 F 
ATOM    101  C   UNL A   1      34.979  30.475  27.825  1.00  0.00     0.003 A 
ENDBRANCH  87  95
ENDBRANCH  81  83
ENDBRANCH  74  77
ENDBRANCH  72  73
ENDBRANCH  71  72
ENDBRANCH   1  71
TORSDOF 16
ENDMDL
MODEL 3
REMARK VINA RESULT:     -14.2      5.078      8.325
REMARK SMILES O=C(NCCCNC(=O)[C@H]1CCCN(c2cc(-c3ccccn3)nc(-c3ccccc3F)n2)C1)c1ccc(-c2c3nc(c(-c4cc(S(=O)(=O)[O-])ccc4F)c4ccc([nH]4)c(-c4cc(S(=O)(=O)[O-])ccc4F)c4nc(c(-c5cc(S(=O)(=O)[O-])ccc5F)c5ccc2[nH]5)C=C4)C=C3)cc1
REMARK SMILES IDX 4 1 3 2 1 3 2 4 35 6 36 7 97 8 37 9 96 10 38 11 39 12 40 13
REMARK SMILES IDX 90 14 41 15 95 16 89 17 91 18 42 19 94 20 88 21 87 22 43 24
REMARK SMILES IDX 75 25 55 26 74 27 56 28 59 29 73 30 92 31 57 32 58 33 72 35
REMARK SMILES IDX 93 36 60 37 44 38 45 39 53 40 46 41 52 42 54 43 51 44 47 45
REMARK SMILES IDX 48 46 49 47 50 48 76 49 77 50 85 51 78 52 84 53 86 54 83 55
REMARK SMILES IDX 79 56 80 57 81 58 82 59 61 60 62 61 70 62 63 63 69 64 71 65
REMARK SMILES IDX 68 66 64 67 65 68 66 69 67 70 5 71 6 72 7 73 8 74 9 76 10 77
REMARK SMILES IDX 11 78 34 79 12 80 14 81 13 82 15 83 16 84 33 85 17 86 25 87
REMARK SMILES IDX 24 88 18 89 19 90 23 91 20 92 22 93 21 94 26 95 27 96 31 97
REMARK SMILES IDX 28 98 30 99 32 100 29 101
REMARK H PARENT 3 5 91 23 59 34 7 75
REMARK Flexibility Score: inf
ROOT
ATOM      1  C   UNL A   1      35.809  22.310  25.971  1.00  0.00     0.118 C 
ENDROOT
BRANCH   1   2
ATOM      2  N   UNL A   1      36.759  21.222  25.771  1.00  0.00    -0.352 N 
ATOM      3  O   UNL A   1      38.742  20.238  25.380  1.00  0.00    -0.269 OA
ATOM      4  C   UNL A   1      38.132  21.240  25.748  1.00  0.00     0.251 C 
ATOM      5  H   UNL A   1      36.353  20.336  25.628  1.00  0.00     0.163 HD
BRANCH   4   6
ATOM      6  C   UNL A   1      38.874  22.454  26.151  1.00  0.00     0.039 A 
ATOM      7  C   UNL A   1      38.419  23.723  25.788  1.00  0.00     0.014 A 
ATOM      8  C   UNL A   1      40.023  22.323  26.937  1.00  0.00     0.014 A 
ATOM      9  C   UNL A   1      39.185  24.845  26.085  1.00  0.00     0.010 A 
ATOM     10  C   UNL A   1      40.744  23.461  27.312  1.00  0.00     0.010 A 
ATOM     11  C   UNL A   1      40.344  24.730  26.869  1.00  0.00    -0.014 A 
BRANCH  11  12
ATOM     12  C   UNL A   1      41.075  25.961  27.263  1.00  0.00     0.031 A 
ATOM     13  C   UNL A   1      42.455  26.249  26.739  1.00  0.00     0.074 A 
ATOM     14  C   UNL A   1      40.457  26.845  28.072  1.00  0.00     0.049 A 
ATOM     15  N   UNL A   1      43.223  27.281  26.977  1.00  0.00    -0.248 NA
ATOM     16  C   UNL A   1      43.050  25.253  25.837  1.00  0.00     0.031 C 
ATOM     17  C   UNL A   1      39.114  26.673  28.633  1.00  0.00     0.029 A 
ATOM     18  N   UNL A   1      40.855  28.072  28.539  1.00  0.00    -0.354 N 
ATOM     19  C   UNL A   1      44.396  27.059  26.265  1.00  0.00     0.074 A 
ATOM     20  C   UNL A   1      44.248  25.777  25.607  1.00  0.00     0.031 C 
ATOM     21  C   UNL A   1      38.777  27.777  29.315  1.00  0.00     0.029 A 
ATOM     22  C   UNL A   1      39.902  28.703  29.303  1.00  0.00     0.049 A 
ATOM     23  H   UNL A   1      41.737  28.463  28.345  1.00  0.00     0.167 HD
ATOM     24  C   UNL A   1      45.487  27.856  26.164  1.00  0.00     0.034 A 
ATOM     25  C   UNL A   1      39.932  29.888  29.942  1.00  0.00     0.034 A 
ATOM     26  C   UNL A   1      45.616  29.134  26.819  1.00  0.00     0.049 A 
ATOM     27  C   UNL A   1      41.175  30.727  29.859  1.00  0.00     0.074 A 
ATOM     28  C   UNL A   1      46.675  30.024  26.768  1.00  0.00     0.029 A 
ATOM     29  N   UNL A   1      44.659  29.706  27.648  1.00  0.00    -0.354 N 
ATOM     30  N   UNL A   1      42.286  30.484  29.204  1.00  0.00    -0.248 NA
ATOM     31  C   UNL A   1      41.175  31.990  30.606  1.00  0.00     0.031 C 
ATOM     32  C   UNL A   1      46.384  31.103  27.608  1.00  0.00     0.029 A 
ATOM     33  C   UNL A   1      45.115  30.922  28.133  1.00  0.00     0.049 A 
ATOM     34  H   UNL A   1      43.784  29.307  27.859  1.00  0.00     0.167 HD
ATOM     35  C   UNL A   1      43.115  31.571  29.452  1.00  0.00     0.074 A 
ATOM     36  C   UNL A   1      42.374  32.475  30.310  1.00  0.00     0.031 C 
ATOM     37  C   UNL A   1      44.374  31.801  29.006  1.00  0.00     0.034 A 
BRANCH  24  38
ATOM     38  C   UNL A   1      46.648  27.356  25.343  1.00  0.00     0.023 A 
ATOM     39  C   UNL A   1      46.888  27.824  24.041  1.00  0.00     0.031 A 
ATOM     40  C   UNL A   1      47.549  26.423  25.888  1.00  0.00     0.131 A 
ATOM     41  C   UNL A   1      47.981  27.331  23.311  1.00  0.00     0.055 A 
ATOM     42  C   UNL A   1      48.668  25.982  25.181  1.00  0.00     0.041 A 
ATOM     43  F   UNL A   1      47.358  25.931  27.123  1.00  0.00    -0.206 F 
ATOM     44  C   UNL A   1      48.886  26.432  23.881  1.00  0.00     0.022 A 
BRANCH  41  45
ATOM     45  S   UNL A   1      48.169  27.829  21.577  1.00  0.00     0.124 S 
ATOM     46  O   UNL A   1      46.878  28.456  21.306  1.00  0.00    -0.237 OA
ATOM     47  O   UNL A   1      49.316  28.729  21.626  1.00  0.00    -0.237 OA
ATOM     48  O   UNL A   1      48.399  26.565  20.880  1.00  0.00    -0.744 OA
ENDBRANCH  41  45
ENDBRANCH  24  38
BRANCH  25  49
ATOM     49  C   UNL A   1      38.755  30.322  30.740  1.00  0.00     0.023 A 
ATOM     50  C   UNL A   1      37.905  31.340  30.283  1.00  0.00     0.031 A 
ATOM     51  C   UNL A   1      38.446  29.697  31.963  1.00  0.00     0.131 A 
ATOM     52  C   UNL A   1      36.790  31.711  31.050  1.00  0.00     0.055 A 
ATOM     53  C   UNL A   1      37.316  30.042  32.702  1.00  0.00     0.041 A 
ATOM     54  F   UNL A   1      39.225  28.710  32.434  1.00  0.00    -0.206 F 
ATOM     55  C   UNL A   1      36.482  31.059  32.248  1.00  0.00     0.022 A 
BRANCH  52  56
ATOM     56  S   UNL A   1      35.747  33.077  30.469  1.00  0.00     0.124 S 
ATOM     57  O   UNL A   1      36.197  33.227  29.090  1.00  0.00    -0.237 OA
ATOM     58  O   UNL A   1      34.404  32.535  30.653  1.00  0.00    -0.237 OA
ATOM     59  O   UNL A   1      36.098  34.177  31.365  1.00  0.00    -0.744 OA
ENDBRANCH  52  56
ENDBRANCH  25  49
BRANCH  37  60
ATOM     60  C   UNL A   1      45.025  33.094  29.418  1.00  0.00     0.023 A 
ATOM     61  C   UNL A   1      44.814  34.282  28.700  1.00  0.00     0.031 A 
ATOM     62  C   UNL A   1      45.835  33.140  30.565  1.00  0.00     0.131 A 
ATOM     63  C   UNL A   1      45.434  35.468  29.122  1.00  0.00     0.055 A 
ATOM     64  C   UNL A   1      46.412  34.331  31.006  1.00  0.00     0.041 A 
ATOM     65  F   UNL A   1      46.064  32.029  31.284  1.00  0.00    -0.206 F 
ATOM     66  C   UNL A   1      46.216  35.503  30.281  1.00  0.00     0.022 A 
BRANCH  63  67
ATOM     67  S   UNL A   1      45.226  36.967  28.124  1.00  0.00     0.124 S 
ATOM     68  O   UNL A   1      46.343  36.862  27.190  1.00  0.00    -0.237 OA
ATOM     69  O   UNL A   1      43.897  36.785  27.550  1.00  0.00    -0.237 OA
ATOM     70  O   UNL A   1      45.333  38.048  29.102  1.00  0.00    -0.744 OA
ENDBRANCH  63  67
ENDBRANCH  37  60
ENDBRANCH  11  12
ENDBRANCH   4   6
ENDBRANCH   1   2
BRANCH   1  71
ATOM     71  C   UNL A   1      34.464  21.827  26.502  1.00  0.00     0.042 C 
BRANCH  71  72
ATOM     72  C   UNL A   1      33.789  22.809  27.450  1.00  0.00     0.117 C 
BRANCH  72  73
ATOM     73  N   UNL A   1      32.392  22.477  27.668  1.00  0.00    -0.356 N 
ATOM     74  C   UNL A   1      31.284  22.967  27.043  1.00  0.00     0.224 C 
ATOM     75  H   UNL A   1      32.221  21.804  28.366  1.00  0.00     0.163 HD
ATOM     76  O   UNL A   1      30.181  22.613  27.460  1.00  0.00    -0.275 OA
BRANCH  74  77
ATOM     77  C   UNL A   1      31.455  23.850  25.819  1.00  0.00     0.098 C 
ATOM     78  C   UNL A   1      31.319  22.985  24.555  1.00  0.00     0.017 C 
ATOM     79  C   UNL A   1      30.393  24.953  25.830  1.00  0.00     0.131 C 
ATOM     80  C   UNL A   1      31.347  23.840  23.291  1.00  0.00     0.022 C 
ATOM     81  N   UNL A   1      30.379  25.672  24.559  1.00  0.00    -0.356 N 
ATOM     82  C   UNL A   1      30.258  24.911  23.328  1.00  0.00     0.118 C 
BRANCH  81  83
ATOM     83  C   UNL A   1      30.669  27.019  24.536  1.00  0.00     0.133 A 
ATOM     84  C   UNL A   1      29.978  27.846  23.677  1.00  0.00     0.077 A 
ATOM     85  N   UNL A   1      31.591  27.505  25.381  1.00  0.00    -0.211 NA
ATOM     86  C   UNL A   1      30.236  29.200  23.742  1.00  0.00     0.095 A 
ATOM     87  C   UNL A   1      31.811  28.835  25.356  1.00  0.00     0.165 A 
ATOM     88  N   UNL A   1      31.162  29.712  24.573  1.00  0.00    -0.226 NA
BRANCH  86  89
ATOM     89  C   UNL A   1      29.454  30.154  22.944  1.00  0.00     0.089 A 
ATOM     90  C   UNL A   1      29.142  31.422  23.440  1.00  0.00     0.030 A 
ATOM     91  N   UNL A   1      29.017  29.728  21.731  1.00  0.00    -0.255 NA
ATOM     92  C   UNL A   1      28.371  32.284  22.665  1.00  0.00     0.004 A 
ATOM     93  C   UNL A   1      28.289  30.592  20.993  1.00  0.00     0.112 A 
ATOM     94  C   UNL A   1      27.938  31.863  21.414  1.00  0.00     0.020 A 
ENDBRANCH  86  89
BRANCH  87  95
ATOM     95  C   UNL A   1      32.890  29.360  26.185  1.00  0.00     0.055 A 
ATOM     96  C   UNL A   1      32.790  30.627  26.788  1.00  0.00     0.015 A 
ATOM     97  C   UNL A   1      34.042  28.606  26.433  1.00  0.00     0.134 A 
ATOM     98  C   UNL A   1      33.805  31.107  27.624  1.00  0.00     0.001 A 
ATOM     99  C   UNL A   1      35.062  29.084  27.257  1.00  0.00     0.040 A 
ATOM    100  F   UNL A   1      34.199  27.400  25.863  1.00  0.00    -0.206 F 
ATOM    101  C   UNL A   1      34.941  30.334  27.857  1.00  0.00     0.003 A 
ENDBRANCH  87  95
ENDBRANCH  81  83
ENDBRANCH  74  77
ENDBRANCH  72  73
ENDBRANCH  71  72
ENDBRANCH   1  71
TORSDOF 16
ENDMDL
