MODEL 1
REMARK VINA RESULT:     -13.5      0.000      0.000
REMARK SMILES Cc1ccc(N2C(=O)C[C@H](Sc3ccccc3C(=O)NCCCNC(=O)c3ccc(-c4c5nc(c(-c6cc(S(=O)(=O)[O-])ccc6F)c6ccc([nH]6)c(-c6cc(S(=O)(=O)[O-])ccc6F)c6nc(c(-c7cc(S(=O)(=O)[O-])ccc7F)c7ccc4[nH]7)C=C6)C=C5)cc3)C2=O)cc1
REMARK SMILES IDX 22 1 21 2 20 3 18 4 19 5 17 7 12 8 13 9 14 10 16 11 15 12
REMARK SMILES IDX 11 13 10 14 6 15 7 16 90 17 8 18 9 19 91 20 5 21 1 22 2 23
REMARK SMILES IDX 3 24 93 25 4 26 92 27 23 28 24 29 25 30 26 32 27 33 28 34
REMARK SMILES IDX 89 35 29 36 88 37 30 38 31 39 32 40 82 41 33 42 87 43 81 44
REMARK SMILES IDX 83 45 34 46 86 47 80 48 79 49 35 51 67 52 47 53 66 54 48 55
REMARK SMILES IDX 51 56 65 57 84 58 49 59 50 60 64 62 85 63 52 64 36 65 37 66
REMARK SMILES IDX 45 67 38 68 44 69 46 70 43 71 39 72 40 73 41 74 42 75 68 76
REMARK SMILES IDX 69 77 77 78 70 79 76 80 78 81 75 82 71 83 72 84 73 85 74 86
REMARK SMILES IDX 53 87 54 88 62 89 55 90 61 91 63 92 60 93 56 94 57 95 58 96
REMARK SMILES IDX 59 97
REMARK H PARENT 20 6 24 31 83 50 51 61
REMARK Flexibility Score: inf
ROOT
ATOM      1  C   UNL A   1      33.044  31.165  27.366  1.00  0.00     0.042 C 
ENDROOT
BRANCH   1   2
ATOM      2  C   UNL A   1      32.231  29.885  27.256  1.00  0.00     0.118 C 
BRANCH   2   3
ATOM      3  N   UNL A   1      33.035  28.699  26.966  1.00  0.00    -0.352 N 
ATOM      4  C   UNL A   1      32.979  27.748  25.967  1.00  0.00     0.252 C 
ATOM      5  O   UNL A   1      33.751  26.793  25.984  1.00  0.00    -0.269 OA
ATOM      6  H   UNL A   1      33.761  28.547  27.614  1.00  0.00     0.163 HD
BRANCH   4   7
ATOM      7  C   UNL A   1      31.984  27.859  24.858  1.00  0.00     0.053 A 
ATOM      8  C   UNL A   1      30.812  27.073  24.769  1.00  0.00     0.021 A 
ATOM      9  C   UNL A   1      29.918  27.316  23.705  1.00  0.00     0.016 A 
ATOM     10  C   UNL A   1      30.196  28.270  22.723  1.00  0.00     0.001 A 
ATOM     11  C   UNL A   1      32.297  28.727  23.794  1.00  0.00     0.015 A 
ATOM     12  C   UNL A   1      31.402  28.956  22.752  1.00  0.00     0.001 A 
BRANCH   8  13
ATOM     13  S   UNL A   1      30.510  25.534  25.655  1.00  0.00    -0.111 SA
BRANCH  13  14
ATOM     14  C   UNL A   1      31.328  24.229  24.685  1.00  0.00     0.151 C 
ATOM     15  N   UNL A   1      33.626  23.847  24.503  1.00  0.00    -0.250 N 
ATOM     16  C   UNL A   1      33.266  24.526  23.359  1.00  0.00     0.235 C 
ATOM     17  C   UNL A   1      32.554  23.658  25.348  1.00  0.00     0.247 C 
ATOM     18  O   UNL A   1      33.987  24.910  22.447  1.00  0.00    -0.274 OA
ATOM     19  C   UNL A   1      31.774  24.625  23.300  1.00  0.00     0.126 C 
ATOM     20  O   UNL A   1      32.556  23.150  26.464  1.00  0.00    -0.273 OA
BRANCH  15  21
ATOM     21  C   UNL A   1      34.937  23.356  24.747  1.00  0.00     0.052 A 
ATOM     22  C   UNL A   1      38.808  21.740  25.822  1.00  0.00     0.044 C 
ATOM     23  C   UNL A   1      37.488  22.315  25.404  1.00  0.00    -0.051 A 
ATOM     24  C   UNL A   1      37.137  23.618  25.766  1.00  0.00     0.005 A 
ATOM     25  C   UNL A   1      36.561  21.538  24.708  1.00  0.00     0.005 A 
ATOM     26  C   UNL A   1      35.884  24.140  25.423  1.00  0.00     0.027 A 
ATOM     27  C   UNL A   1      35.298  22.051  24.392  1.00  0.00     0.027 A 
ENDBRANCH  15  21
ENDBRANCH  13  14
ENDBRANCH   8  13
ENDBRANCH   4   7
ENDBRANCH   2   3
ENDBRANCH   1   2
BRANCH   1  28
ATOM     28  C   UNL A   1      34.550  30.938  27.362  1.00  0.00     0.118 C 
BRANCH  28  29
ATOM     29  N   UNL A   1      35.235  31.663  28.442  1.00  0.00    -0.352 N 
ATOM     30  C   UNL A   1      36.283  31.248  29.257  1.00  0.00     0.251 C 
ATOM     31  H   UNL A   1      34.905  32.574  28.612  1.00  0.00     0.163 HD
ATOM     32  O   UNL A   1      36.785  31.944  30.103  1.00  0.00    -0.269 OA
BRANCH  30  33
ATOM     33  C   UNL A   1      36.844  29.912  28.965  1.00  0.00     0.039 A 
ATOM     34  C   UNL A   1      37.127  29.105  30.071  1.00  0.00     0.014 A 
ATOM     35  C   UNL A   1      37.423  29.684  27.719  1.00  0.00     0.014 A 
ATOM     36  C   UNL A   1      38.198  28.225  29.998  1.00  0.00     0.010 A 
ATOM     37  C   UNL A   1      38.532  28.855  27.671  1.00  0.00     0.010 A 
ATOM     38  C   UNL A   1      38.972  28.205  28.836  1.00  0.00    -0.014 A 
BRANCH  38  39
ATOM     39  C   UNL A   1      40.359  27.738  28.846  1.00  0.00     0.031 A 
ATOM     40  C   UNL A   1      40.713  26.374  28.415  1.00  0.00     0.074 A 
ATOM     41  C   UNL A   1      41.352  28.573  29.231  1.00  0.00     0.049 A 
ATOM     42  N   UNL A   1      41.772  25.746  28.803  1.00  0.00    -0.248 NA
ATOM     43  C   UNL A   1      39.864  25.585  27.536  1.00  0.00     0.031 C 
ATOM     44  C   UNL A   1      42.792  28.365  29.090  1.00  0.00     0.029 A 
ATOM     45  N   UNL A   1      41.244  29.674  30.083  1.00  0.00    -0.354 N 
ATOM     46  C   UNL A   1      41.899  24.619  28.029  1.00  0.00     0.074 A 
ATOM     47  C   UNL A   1      40.653  24.533  27.299  1.00  0.00     0.031 C 
ATOM     48  C   UNL A   1      43.424  29.085  30.028  1.00  0.00     0.029 A 
ATOM     49  C   UNL A   1      42.413  29.687  30.874  1.00  0.00     0.049 A 
ATOM     50  H   UNL A   1      40.498  30.315  30.125  1.00  0.00     0.167 HD
ATOM     51  C   UNL A   1      43.088  23.950  27.996  1.00  0.00     0.034 A 
ATOM     52  C   UNL A   1      42.342  29.597  32.234  1.00  0.00     0.034 A 
ATOM     53  C   UNL A   1      44.079  24.522  28.911  1.00  0.00     0.049 A 
ATOM     54  C   UNL A   1      43.045  28.382  32.812  1.00  0.00     0.074 A 
ATOM     55  C   UNL A   1      45.212  25.304  28.761  1.00  0.00     0.029 A 
ATOM     56  N   UNL A   1      43.819  24.496  30.271  1.00  0.00    -0.354 N 
ATOM     57  N   UNL A   1      43.680  27.485  32.108  1.00  0.00    -0.248 NA
ATOM     58  C   UNL A   1      42.996  28.031  34.232  1.00  0.00     0.031 C 
ATOM     59  C   UNL A   1      45.630  25.741  30.053  1.00  0.00     0.029 A 
ATOM     60  C   UNL A   1      44.758  25.213  30.988  1.00  0.00     0.049 A 
ATOM     61  H   UNL A   1      43.058  24.023  30.679  1.00  0.00     0.167 HD
ATOM     62  C   UNL A   1      44.037  26.434  32.915  1.00  0.00     0.074 A 
ATOM     63  C   UNL A   1      43.593  26.827  34.240  1.00  0.00     0.031 C 
ATOM     64  C   UNL A   1      44.617  25.292  32.433  1.00  0.00     0.034 A 
BRANCH  51  65
ATOM     65  C   UNL A   1      43.428  22.923  26.940  1.00  0.00     0.023 A 
ATOM     66  C   UNL A   1      42.856  21.636  27.012  1.00  0.00     0.031 A 
ATOM     67  C   UNL A   1      44.323  23.125  25.872  1.00  0.00     0.131 A 
ATOM     68  C   UNL A   1      43.262  20.603  26.147  1.00  0.00     0.055 A 
ATOM     69  C   UNL A   1      44.786  22.081  25.060  1.00  0.00     0.041 A 
ATOM     70  F   UNL A   1      44.742  24.351  25.529  1.00  0.00    -0.206 F 
ATOM     71  C   UNL A   1      44.266  20.805  25.206  1.00  0.00     0.022 A 
BRANCH  68  72
ATOM     72  S   UNL A   1      42.444  18.989  26.258  1.00  0.00     0.124 S 
ATOM     73  O   UNL A   1      41.107  19.279  25.751  1.00  0.00    -0.237 OA
ATOM     74  O   UNL A   1      43.291  18.158  25.410  1.00  0.00    -0.237 OA
ATOM     75  O   UNL A   1      42.506  18.676  27.686  1.00  0.00    -0.744 OA
ENDBRANCH  68  72
ENDBRANCH  51  65
BRANCH  52  76
ATOM     76  C   UNL A   1      41.132  30.271  32.791  1.00  0.00     0.023 A 
ATOM     77  C   UNL A   1      41.127  31.685  32.787  1.00  0.00     0.031 A 
ATOM     78  C   UNL A   1      39.905  29.615  32.950  1.00  0.00     0.131 A 
ATOM     79  C   UNL A   1      39.918  32.392  32.760  1.00  0.00     0.055 A 
ATOM     80  C   UNL A   1      38.702  30.331  33.012  1.00  0.00     0.041 A 
ATOM     81  F   UNL A   1      39.832  28.277  32.921  1.00  0.00    -0.206 F 
ATOM     82  C   UNL A   1      38.700  31.720  32.869  1.00  0.00     0.022 A 
BRANCH  79  83
ATOM     83  S   UNL A   1      39.944  34.149  32.286  1.00  0.00     0.124 S 
ATOM     84  O   UNL A   1      41.090  34.653  33.031  1.00  0.00    -0.237 OA
ATOM     85  O   UNL A   1      40.094  34.096  30.831  1.00  0.00    -0.237 OA
ATOM     86  O   UNL A   1      38.641  34.646  32.721  1.00  0.00    -0.744 OA
ENDBRANCH  79  83
ENDBRANCH  52  76
BRANCH  64  87
ATOM     87  C   UNL A   1      45.042  24.128  33.301  1.00  0.00     0.023 A 
ATOM     88  C   UNL A   1      46.348  24.001  33.803  1.00  0.00     0.031 A 
ATOM     89  C   UNL A   1      44.162  23.061  33.600  1.00  0.00     0.131 A 
ATOM     90  C   UNL A   1      46.703  22.923  34.636  1.00  0.00     0.055 A 
ATOM     91  C   UNL A   1      44.540  21.952  34.362  1.00  0.00     0.041 A 
ATOM     92  F   UNL A   1      42.885  23.061  33.194  1.00  0.00    -0.206 F 
ATOM     93  C   UNL A   1      45.813  21.887  34.903  1.00  0.00     0.022 A 
BRANCH  90  94
ATOM     94  S   UNL A   1      48.332  22.942  35.430  1.00  0.00     0.124 S 
ATOM     95  O   UNL A   1      48.579  24.368  35.615  1.00  0.00    -0.237 OA
ATOM     96  O   UNL A   1      48.077  22.179  36.649  1.00  0.00    -0.237 OA
ATOM     97  O   UNL A   1      49.198  22.281  34.456  1.00  0.00    -0.744 OA
ENDBRANCH  90  94
ENDBRANCH  64  87
ENDBRANCH  38  39
ENDBRANCH  30  33
ENDBRANCH  28  29
ENDBRANCH   1  28
TORSDOF 16
ENDMDL
MODEL 2
REMARK VINA RESULT:     -12.9      3.918     10.428
REMARK SMILES Cc1ccc(N2C(=O)C[C@H](Sc3ccccc3C(=O)NCCCNC(=O)c3ccc(-c4c5nc(c(-c6cc(S(=O)(=O)[O-])ccc6F)c6ccc([nH]6)c(-c6cc(S(=O)(=O)[O-])ccc6F)c6nc(c(-c7cc(S(=O)(=O)[O-])ccc7F)c7ccc4[nH]7)C=C6)C=C5)cc3)C2=O)cc1
REMARK SMILES IDX 22 1 21 2 20 3 18 4 19 5 17 7 12 8 13 9 14 10 16 11 15 12
REMARK SMILES IDX 11 13 10 14 6 15 7 16 90 17 8 18 9 19 91 20 5 21 1 22 2 23
REMARK SMILES IDX 3 24 93 25 4 26 92 27 23 28 24 29 25 30 26 32 27 33 28 34
REMARK SMILES IDX 89 35 29 36 88 37 30 38 31 39 32 40 82 41 33 42 87 43 81 44
REMARK SMILES IDX 83 45 34 46 86 47 80 48 79 49 35 51 67 52 47 53 66 54 48 55
REMARK SMILES IDX 51 56 65 57 84 58 49 59 50 60 64 62 85 63 52 64 36 65 37 66
REMARK SMILES IDX 45 67 38 68 44 69 46 70 43 71 39 72 40 73 41 74 42 75 68 76
REMARK SMILES IDX 69 77 77 78 70 79 76 80 78 81 75 82 71 83 72 84 73 85 74 86
REMARK SMILES IDX 53 87 54 88 62 89 55 90 61 91 63 92 60 93 56 94 57 95 58 96
REMARK SMILES IDX 59 97
REMARK H PARENT 20 6 24 31 83 50 51 61
REMARK Flexibility Score: inf
ROOT
ATOM      1  C   UNL A   1      38.439  21.354  25.352  1.00  0.00     0.042 C 
ENDROOT
BRANCH   1   2
ATOM      2  C   UNL A   1      36.981  21.272  24.928  1.00  0.00     0.118 C 
BRANCH   2   3
ATOM      3  N   UNL A   1      36.036  21.456  26.028  1.00  0.00    -0.352 N 
ATOM      4  C   UNL A   1      34.709  21.112  26.192  1.00  0.00     0.252 C 
ATOM      5  O   UNL A   1      34.111  21.442  27.213  1.00  0.00    -0.269 OA
ATOM      6  H   UNL A   1      36.422  21.919  26.806  1.00  0.00     0.163 HD
BRANCH   4   7
ATOM      7  C   UNL A   1      33.980  20.342  25.140  1.00  0.00     0.053 A 
ATOM      8  C   UNL A   1      32.850  20.833  24.445  1.00  0.00     0.021 A 
ATOM      9  C   UNL A   1      32.287  20.034  23.427  1.00  0.00     0.016 A 
ATOM     10  C   UNL A   1      32.789  18.763  23.137  1.00  0.00     0.001 A 
ATOM     11  C   UNL A   1      34.389  19.015  24.910  1.00  0.00     0.015 A 
ATOM     12  C   UNL A   1      33.824  18.241  23.901  1.00  0.00     0.001 A 
BRANCH   8  13
ATOM     13  S   UNL A   1      31.812  22.210  24.967  1.00  0.00    -0.111 SA
BRANCH  13  14
ATOM     14  C   UNL A   1      32.470  23.681  24.121  1.00  0.00     0.151 C 
ATOM     15  N   UNL A   1      32.286  25.902  24.821  1.00  0.00    -0.250 N 
ATOM     16  C   UNL A   1      31.319  25.732  23.855  1.00  0.00     0.235 C 
ATOM     17  C   UNL A   1      32.988  24.740  25.058  1.00  0.00     0.247 C 
ATOM     18  O   UNL A   1      30.486  26.540  23.464  1.00  0.00    -0.274 OA
ATOM     19  C   UNL A   1      31.507  24.396  23.206  1.00  0.00     0.126 C 
ATOM     20  O   UNL A   1      33.862  24.546  25.895  1.00  0.00    -0.273 OA
BRANCH  15  21
ATOM     21  C   UNL A   1      32.559  27.147  25.450  1.00  0.00     0.052 A 
ATOM     22  C   UNL A   1      33.555  30.747  27.642  1.00  0.00     0.044 C 
ATOM     23  C   UNL A   1      33.187  29.530  26.847  1.00  0.00    -0.051 A 
ATOM     24  C   UNL A   1      32.001  28.841  27.115  1.00  0.00     0.005 A 
ATOM     25  C   UNL A   1      34.053  29.026  25.875  1.00  0.00     0.005 A 
ATOM     26  C   UNL A   1      31.680  27.674  26.409  1.00  0.00     0.027 A 
ATOM     27  C   UNL A   1      33.745  27.844  25.193  1.00  0.00     0.027 A 
ENDBRANCH  15  21
ENDBRANCH  13  14
ENDBRANCH   8  13
ENDBRANCH   4   7
ENDBRANCH   2   3
ENDBRANCH   1   2
BRANCH   1  28
ATOM     28  C   UNL A   1      38.779  22.611  26.141  1.00  0.00     0.118 C 
BRANCH  28  29
ATOM     29  N   UNL A   1      40.225  22.774  26.351  1.00  0.00    -0.352 N 
ATOM     30  C   UNL A   1      40.953  23.928  26.618  1.00  0.00     0.251 C 
ATOM     31  H   UNL A   1      40.754  21.946  26.296  1.00  0.00     0.163 HD
ATOM     32  O   UNL A   1      42.145  23.939  26.796  1.00  0.00    -0.269 OA
BRANCH  30  33
ATOM     33  C   UNL A   1      40.167  25.170  26.782  1.00  0.00     0.039 A 
ATOM     34  C   UNL A   1      40.671  26.309  26.146  1.00  0.00     0.014 A 
ATOM     35  C   UNL A   1      39.255  25.254  27.830  1.00  0.00     0.014 A 
ATOM     36  C   UNL A   1      40.463  27.548  26.735  1.00  0.00     0.010 A 
ATOM     37  C   UNL A   1      39.106  26.483  28.451  1.00  0.00     0.010 A 
ATOM     38  C   UNL A   1      39.790  27.605  27.958  1.00  0.00    -0.014 A 
BRANCH  38  39
ATOM     39  C   UNL A   1      39.971  28.725  28.882  1.00  0.00     0.031 A 
ATOM     40  C   UNL A   1      38.968  29.800  28.994  1.00  0.00     0.074 A 
ATOM     41  C   UNL A   1      41.065  28.778  29.677  1.00  0.00     0.049 A 
ATOM     42  N   UNL A   1      39.231  30.995  29.404  1.00  0.00    -0.248 NA
ATOM     43  C   UNL A   1      37.579  29.617  28.603  1.00  0.00     0.031 C 
ATOM     44  C   UNL A   1      41.302  29.678  30.804  1.00  0.00     0.029 A 
ATOM     45  N   UNL A   1      42.309  28.188  29.439  1.00  0.00    -0.354 N 
ATOM     46  C   UNL A   1      38.037  31.642  29.605  1.00  0.00     0.074 A 
ATOM     47  C   UNL A   1      37.041  30.762  29.032  1.00  0.00     0.031 C 
ATOM     48  C   UNL A   1      42.625  29.814  30.974  1.00  0.00     0.029 A 
ATOM     49  C   UNL A   1      43.282  29.103  29.896  1.00  0.00     0.049 A 
ATOM     50  H   UNL A   1      42.474  27.308  29.030  1.00  0.00     0.167 HD
ATOM     51  C   UNL A   1      38.004  32.790  30.341  1.00  0.00     0.034 A 
ATOM     52  C   UNL A   1      44.219  29.613  29.047  1.00  0.00     0.034 A 
ATOM     53  C   UNL A   1      39.339  33.228  30.756  1.00  0.00     0.049 A 
ATOM     54  C   UNL A   1      44.168  31.123  28.901  1.00  0.00     0.074 A 
ATOM     55  C   UNL A   1      40.049  33.208  31.946  1.00  0.00     0.029 A 
ATOM     56  N   UNL A   1      40.254  33.586  29.781  1.00  0.00    -0.354 N 
ATOM     57  N   UNL A   1      43.323  31.901  29.522  1.00  0.00    -0.248 NA
ATOM     58  C   UNL A   1      45.005  31.865  27.957  1.00  0.00     0.031 C 
ATOM     59  C   UNL A   1      41.402  33.566  31.667  1.00  0.00     0.029 A 
ATOM     60  C   UNL A   1      41.510  33.815  30.312  1.00  0.00     0.049 A 
ATOM     61  H   UNL A   1      40.037  33.669  28.824  1.00  0.00     0.167 HD
ATOM     62  C   UNL A   1      43.426  33.178  29.029  1.00  0.00     0.074 A 
ATOM     63  C   UNL A   1      44.501  33.106  28.056  1.00  0.00     0.031 C 
ATOM     64  C   UNL A   1      42.588  34.190  29.410  1.00  0.00     0.034 A 
BRANCH  51  65
ATOM     65  C   UNL A   1      36.728  33.380  30.895  1.00  0.00     0.023 A 
ATOM     66  C   UNL A   1      35.814  34.005  30.021  1.00  0.00     0.031 A 
ATOM     67  C   UNL A   1      36.367  33.398  32.256  1.00  0.00     0.131 A 
ATOM     68  C   UNL A   1      34.693  34.702  30.507  1.00  0.00     0.055 A 
ATOM     69  C   UNL A   1      35.297  34.156  32.749  1.00  0.00     0.041 A 
ATOM     70  F   UNL A   1      36.998  32.635  33.159  1.00  0.00    -0.206 F 
ATOM     71  C   UNL A   1      34.460  34.829  31.873  1.00  0.00     0.022 A 
BRANCH  68  72
ATOM     72  S   UNL A   1      33.528  35.433  29.325  1.00  0.00     0.124 S 
ATOM     73  O   UNL A   1      32.609  34.330  29.067  1.00  0.00    -0.237 OA
ATOM     74  O   UNL A   1      32.992  36.559  30.081  1.00  0.00    -0.237 OA
ATOM     75  O   UNL A   1      34.381  35.801  28.194  1.00  0.00    -0.744 OA
ENDBRANCH  68  72
ENDBRANCH  51  65
BRANCH  52  76
ATOM     76  C   UNL A   1      44.639  28.634  27.999  1.00  0.00     0.023 A 
ATOM     77  C   UNL A   1      45.486  27.579  28.410  1.00  0.00     0.031 A 
ATOM     78  C   UNL A   1      43.961  28.490  26.782  1.00  0.00     0.131 A 
ATOM     79  C   UNL A   1      45.499  26.365  27.713  1.00  0.00     0.055 A 
ATOM     80  C   UNL A   1      44.047  27.305  26.040  1.00  0.00     0.041 A 
ATOM     81  F   UNL A   1      43.111  29.433  26.353  1.00  0.00    -0.206 F 
ATOM     82  C   UNL A   1      44.779  26.219  26.527  1.00  0.00     0.022 A 
BRANCH  79  83
ATOM     83  S   UNL A   1      46.219  24.902  28.520  1.00  0.00     0.124 S 
ATOM     84  O   UNL A   1      47.099  25.499  29.516  1.00  0.00    -0.237 OA
ATOM     85  O   UNL A   1      45.045  24.198  29.037  1.00  0.00    -0.237 OA
ATOM     86  O   UNL A   1      46.889  24.196  27.430  1.00  0.00    -0.744 OA
ENDBRANCH  79  83
ENDBRANCH  52  76
BRANCH  64  87
ATOM     87  C   UNL A   1      42.692  35.611  28.902  1.00  0.00     0.023 A 
ATOM     88  C   UNL A   1      43.276  36.640  29.660  1.00  0.00     0.031 A 
ATOM     89  C   UNL A   1      42.141  36.000  27.657  1.00  0.00     0.131 A 
ATOM     90  C   UNL A   1      43.388  37.946  29.145  1.00  0.00     0.055 A 
ATOM     91  C   UNL A   1      42.184  37.313  27.183  1.00  0.00     0.041 A 
ATOM     92  F   UNL A   1      41.566  35.117  26.830  1.00  0.00    -0.206 F 
ATOM     93  C   UNL A   1      42.828  38.294  27.919  1.00  0.00     0.022 A 
BRANCH  90  94
ATOM     94  S   UNL A   1      44.352  39.164  30.077  1.00  0.00     0.124 S 
ATOM     95  O   UNL A   1      45.326  39.621  29.093  1.00  0.00    -0.237 OA
ATOM     96  O   UNL A   1      43.324  40.133  30.449  1.00  0.00    -0.237 OA
ATOM     97  O   UNL A   1      44.903  38.391  31.188  1.00  0.00    -0.744 OA
ENDBRANCH  90  94
ENDBRANCH  64  87
ENDBRANCH  38  39
ENDBRANCH  30  33
ENDBRANCH  28  29
ENDBRANCH   1  28
TORSDOF 16
ENDMDL
MODEL 3
REMARK VINA RESULT:     -12.5      4.000     10.122
REMARK SMILES Cc1ccc(N2C(=O)C[C@H](Sc3ccccc3C(=O)NCCCNC(=O)c3ccc(-c4c5nc(c(-c6cc(S(=O)(=O)[O-])ccc6F)c6ccc([nH]6)c(-c6cc(S(=O)(=O)[O-])ccc6F)c6nc(c(-c7cc(S(=O)(=O)[O-])ccc7F)c7ccc4[nH]7)C=C6)C=C5)cc3)C2=O)cc1
REMARK SMILES IDX 22 1 21 2 20 3 18 4 19 5 17 7 12 8 13 9 14 10 16 11 15 12
REMARK SMILES IDX 11 13 10 14 6 15 7 16 90 17 8 18 9 19 91 20 5 21 1 22 2 23
REMARK SMILES IDX 3 24 93 25 4 26 92 27 23 28 24 29 25 30 26 32 27 33 28 34
REMARK SMILES IDX 89 35 29 36 88 37 30 38 31 39 32 40 82 41 33 42 87 43 81 44
REMARK SMILES IDX 83 45 34 46 86 47 80 48 79 49 35 51 67 52 47 53 66 54 48 55
REMARK SMILES IDX 51 56 65 57 84 58 49 59 50 60 64 62 85 63 52 64 36 65 37 66
REMARK SMILES IDX 45 67 38 68 44 69 46 70 43 71 39 72 40 73 41 74 42 75 68 76
REMARK SMILES IDX 69 77 77 78 70 79 76 80 78 81 75 82 71 83 72 84 73 85 74 86
REMARK SMILES IDX 53 87 54 88 62 89 55 90 61 91 63 92 60 93 56 94 57 95 58 96
REMARK SMILES IDX 59 97
REMARK H PARENT 20 6 24 31 83 50 51 61
REMARK Flexibility Score: inf
ROOT
ATOM      1  C   UNL A   1      38.392  20.856  25.076  1.00  0.00     0.042 C 
ENDROOT
BRANCH   1   2
ATOM      2  C   UNL A   1      36.911  20.519  25.015  1.00  0.00     0.118 C 
BRANCH   2   3
ATOM      3  N   UNL A   1      36.112  21.184  26.044  1.00  0.00    -0.352 N 
ATOM      4  C   UNL A   1      34.808  21.635  26.074  1.00  0.00     0.252 C 
ATOM      5  O   UNL A   1      34.385  22.229  27.062  1.00  0.00    -0.269 OA
ATOM      6  H   UNL A   1      36.602  21.342  26.883  1.00  0.00     0.163 HD
BRANCH   4   7
ATOM      7  C   UNL A   1      33.894  21.416  24.912  1.00  0.00     0.053 A 
ATOM      8  C   UNL A   1      33.666  22.374  23.897  1.00  0.00     0.021 A 
ATOM      9  C   UNL A   1      32.828  22.024  22.817  1.00  0.00     0.016 A 
ATOM     10  C   UNL A   1      32.187  20.784  22.765  1.00  0.00     0.001 A 
ATOM     11  C   UNL A   1      33.145  20.224  24.895  1.00  0.00     0.015 A 
ATOM     12  C   UNL A   1      32.323  19.894  23.821  1.00  0.00     0.001 A 
BRANCH   8  13
ATOM     13  S   UNL A   1      34.029  24.135  24.014  1.00  0.00    -0.111 SA
BRANCH  13  14
ATOM     14  C   UNL A   1      32.553  24.902  24.753  1.00  0.00     0.151 C 
ATOM     15  N   UNL A   1      31.484  26.855  24.046  1.00  0.00    -0.250 N 
ATOM     16  C   UNL A   1      32.261  27.222  25.123  1.00  0.00     0.235 C 
ATOM     17  C   UNL A   1      31.619  25.517  23.745  1.00  0.00     0.247 C 
ATOM     18  O   UNL A   1      32.421  28.339  25.598  1.00  0.00    -0.274 OA
ATOM     19  C   UNL A   1      32.818  25.989  25.765  1.00  0.00     0.126 C 
ATOM     20  O   UNL A   1      31.116  24.902  22.812  1.00  0.00    -0.273 OA
BRANCH  15  21
ATOM     21  C   UNL A   1      30.607  27.746  23.369  1.00  0.00     0.052 A 
ATOM     22  C   UNL A   1      27.938  30.671  21.617  1.00  0.00     0.044 C 
ATOM     23  C   UNL A   1      28.859  29.630  22.179  1.00  0.00    -0.051 A 
ATOM     24  C   UNL A   1      28.353  28.575  22.942  1.00  0.00     0.005 A 
ATOM     25  C   UNL A   1      30.241  29.736  22.010  1.00  0.00     0.005 A 
ATOM     26  C   UNL A   1      29.216  27.631  23.513  1.00  0.00     0.027 A 
ATOM     27  C   UNL A   1      31.102  28.809  22.606  1.00  0.00     0.027 A 
ENDBRANCH  15  21
ENDBRANCH  13  14
ENDBRANCH   8  13
ENDBRANCH   4   7
ENDBRANCH   2   3
ENDBRANCH   1   2
BRANCH   1  28
ATOM     28  C   UNL A   1      38.719  22.021  26.000  1.00  0.00     0.118 C 
BRANCH  28  29
ATOM     29  N   UNL A   1      40.162  22.164  26.243  1.00  0.00    -0.352 N 
ATOM     30  C   UNL A   1      40.901  23.307  26.526  1.00  0.00     0.251 C 
ATOM     31  H   UNL A   1      40.680  21.328  26.200  1.00  0.00     0.163 HD
ATOM     32  O   UNL A   1      42.088  23.301  26.731  1.00  0.00    -0.269 OA
BRANCH  30  33
ATOM     33  C   UNL A   1      40.130  24.560  26.671  1.00  0.00     0.039 A 
ATOM     34  C   UNL A   1      40.758  25.728  26.229  1.00  0.00     0.014 A 
ATOM     35  C   UNL A   1      39.060  24.591  27.561  1.00  0.00     0.014 A 
ATOM     36  C   UNL A   1      40.488  26.921  26.887  1.00  0.00     0.010 A 
ATOM     37  C   UNL A   1      38.841  25.768  28.259  1.00  0.00     0.010 A 
ATOM     38  C   UNL A   1      39.624  26.901  27.985  1.00  0.00    -0.014 A 
BRANCH  38  39
ATOM     39  C   UNL A   1      39.679  27.931  29.023  1.00  0.00     0.031 A 
ATOM     40  C   UNL A   1      38.789  29.106  28.987  1.00  0.00     0.074 A 
ATOM     41  C   UNL A   1      40.541  27.804  30.058  1.00  0.00     0.049 A 
ATOM     42  N   UNL A   1      39.058  30.233  29.555  1.00  0.00    -0.248 NA
ATOM     43  C   UNL A   1      37.529  29.111  28.259  1.00  0.00     0.031 C 
ATOM     44  C   UNL A   1      40.578  28.597  31.285  1.00  0.00     0.029 A 
ATOM     45  N   UNL A   1      41.741  27.090  30.073  1.00  0.00    -0.354 N 
ATOM     46  C   UNL A   1      37.920  31.001  29.521  1.00  0.00     0.074 A 
ATOM     47  C   UNL A   1      37.016  30.282  28.648  1.00  0.00     0.031 C 
ATOM     48  C   UNL A   1      41.824  28.567  31.779  1.00  0.00     0.029 A 
ATOM     49  C   UNL A   1      42.655  27.854  30.830  1.00  0.00     0.049 A 
ATOM     50  H   UNL A   1      41.916  26.224  29.638  1.00  0.00     0.167 HD
ATOM     51  C   UNL A   1      37.818  32.096  30.328  1.00  0.00     0.034 A 
ATOM     52  C   UNL A   1      43.819  28.304  30.280  1.00  0.00     0.034 A 
ATOM     53  C   UNL A   1      39.044  32.348  31.089  1.00  0.00     0.049 A 
ATOM     54  C   UNL A   1      43.953  29.816  30.264  1.00  0.00     0.074 A 
ATOM     55  C   UNL A   1      39.431  32.170  32.408  1.00  0.00     0.029 A 
ATOM     56  N   UNL A   1      40.203  32.658  30.398  1.00  0.00    -0.354 N 
ATOM     57  N   UNL A   1      43.060  30.647  30.732  1.00  0.00    -0.248 NA
ATOM     58  C   UNL A   1      45.067  30.514  29.619  1.00  0.00     0.031 C 
ATOM     59  C   UNL A   1      40.838  32.384  32.495  1.00  0.00     0.029 A 
ATOM     60  C   UNL A   1      41.303  32.705  31.233  1.00  0.00     0.049 A 
ATOM     61  H   UNL A   1      40.239  32.827  29.429  1.00  0.00     0.167 HD
ATOM     62  C   UNL A   1      43.407  31.932  30.395  1.00  0.00     0.074 A 
ATOM     63  C   UNL A   1      44.677  31.796  29.706  1.00  0.00     0.031 C 
ATOM     64  C   UNL A   1      42.603  33.008  30.653  1.00  0.00     0.034 A 
BRANCH  51  65
ATOM     65  C   UNL A   1      36.507  32.795  30.611  1.00  0.00     0.023 A 
ATOM     66  C   UNL A   1      35.849  33.484  29.572  1.00  0.00     0.031 A 
ATOM     67  C   UNL A   1      35.876  32.855  31.868  1.00  0.00     0.131 A 
ATOM     68  C   UNL A   1      34.713  34.277  29.821  1.00  0.00     0.055 A 
ATOM     69  C   UNL A   1      34.793  33.703  32.135  1.00  0.00     0.041 A 
ATOM     70  F   UNL A   1      36.240  32.050  32.876  1.00  0.00    -0.206 F 
ATOM     71  C   UNL A   1      34.215  34.435  31.110  1.00  0.00     0.022 A 
BRANCH  68  72
ATOM     72  S   UNL A   1      33.883  35.091  28.429  1.00  0.00     0.124 S 
ATOM     73  O   UNL A   1      33.804  36.476  28.879  1.00  0.00    -0.237 OA
ATOM     74  O   UNL A   1      34.799  34.819  27.327  1.00  0.00    -0.237 OA
ATOM     75  O   UNL A   1      32.598  34.395  28.349  1.00  0.00    -0.744 OA
ENDBRANCH  68  72
ENDBRANCH  51  65
BRANCH  52  76
ATOM     76  C   UNL A   1      44.388  27.351  29.280  1.00  0.00     0.023 A 
ATOM     77  C   UNL A   1      44.325  27.736  27.921  1.00  0.00     0.031 A 
ATOM     78  C   UNL A   1      45.282  26.332  29.629  1.00  0.00     0.131 A 
ATOM     79  C   UNL A   1      45.254  27.239  26.998  1.00  0.00     0.055 A 
ATOM     80  C   UNL A   1      46.150  25.773  28.682  1.00  0.00     0.041 A 
ATOM     81  F   UNL A   1      45.422  25.947  30.905  1.00  0.00    -0.206 F 
ATOM     82  C   UNL A   1      46.172  26.258  27.373  1.00  0.00     0.022 A 
BRANCH  79  83
ATOM     83  S   UNL A   1      45.441  28.093  25.402  1.00  0.00     0.124 S 
ATOM     84  O   UNL A   1      45.720  29.462  25.815  1.00  0.00    -0.237 OA
ATOM     85  O   UNL A   1      46.547  27.372  24.770  1.00  0.00    -0.237 OA
ATOM     86  O   UNL A   1      44.155  27.883  24.741  1.00  0.00    -0.744 OA
ENDBRANCH  79  83
ENDBRANCH  52  76
BRANCH  64  87
ATOM     87  C   UNL A   1      42.968  34.437  30.316  1.00  0.00     0.023 A 
ATOM     88  C   UNL A   1      42.956  34.926  29.000  1.00  0.00     0.031 A 
ATOM     89  C   UNL A   1      43.410  35.346  31.307  1.00  0.00     0.131 A 
ATOM     90  C   UNL A   1      43.268  36.271  28.723  1.00  0.00     0.055 A 
ATOM     91  C   UNL A   1      43.795  36.658  31.019  1.00  0.00     0.041 A 
ATOM     92  F   UNL A   1      43.458  35.013  32.604  1.00  0.00    -0.206 F 
ATOM     93  C   UNL A   1      43.707  37.135  29.722  1.00  0.00     0.022 A 
BRANCH  90  94
ATOM     94  S   UNL A   1      43.012  36.890  27.039  1.00  0.00     0.124 S 
ATOM     95  O   UNL A   1      42.722  35.671  26.292  1.00  0.00    -0.237 OA
ATOM     96  O   UNL A   1      41.887  37.802  27.226  1.00  0.00    -0.237 OA
ATOM     97  O   UNL A   1      44.283  37.534  26.712  1.00  0.00    -0.744 OA
ENDBRANCH  90  94
ENDBRANCH  64  87
ENDBRANCH  38  39
ENDBRANCH  30  33
ENDBRANCH  28  29
ENDBRANCH   1  28
TORSDOF 16
ENDMDL
