MODEL 1
REMARK VINA RESULT:     -11.9      0.000      0.000
REMARK SMILES Cc1cc(C(=O)N[C@H](C(=O)NCCCNC(=O)c2ccc(-c3c4nc(c(-c5cc(S(=O)(=O)[O-])ccc5F)c5ccc([nH]5)c(-c5cc(S(=O)(=O)[O-])ccc5F)c5nc(c(-c6cc(S(=O)(=O)[O-])ccc6F)c6ccc3[nH]6)C=C5)C=C4)cc2)C(C)C)c(C)s1
REMARK SMILES IDX 13 1 12 2 11 3 9 4 10 5 8 7 7 8 5 9 6 10 4 12 1 13 2 14 3 15
REMARK SMILES IDX 86 16 84 17 85 18 81 19 82 20 83 21 14 22 15 23 16 24 17 26
REMARK SMILES IDX 18 27 19 28 80 29 20 30 79 31 21 32 22 33 23 34 73 35 24 36
REMARK SMILES IDX 78 37 72 38 74 39 25 40 77 41 71 42 70 43 26 45 58 46 38 47
REMARK SMILES IDX 57 48 39 49 42 50 56 51 75 52 40 53 41 54 55 56 76 57 43 58
REMARK SMILES IDX 27 59 28 60 36 61 29 62 35 63 37 64 34 65 30 66 31 67 32 68
REMARK SMILES IDX 33 69 59 70 60 71 68 72 61 73 67 74 69 75 66 76 62 77 63 78
REMARK SMILES IDX 64 79 65 80 44 81 45 82 53 83 46 84 52 85 54 86 51 87 47 88
REMARK SMILES IDX 48 89 49 90 50 91
REMARK H PARENT 11 6 7 11 15 25 74 44 42 55
REMARK Flexibility Score: inf
ROOT
ATOM      1  C   UNL A   1      31.770  31.625  26.658  1.00  0.00     0.042 C 
ENDROOT
BRANCH   1   2
ATOM      2  C   UNL A   1      31.990  30.130  26.466  1.00  0.00     0.117 C 
BRANCH   2   3
ATOM      3  N   UNL A   1      33.044  29.848  25.504  1.00  0.00    -0.354 N 
ATOM      4  C   UNL A   1      33.283  28.743  24.735  1.00  0.00     0.242 C 
ATOM      5  O   UNL A   1      34.361  28.727  24.138  1.00  0.00    -0.273 OA
ATOM      6  H   UNL A   1      33.697  30.575  25.388  1.00  0.00     0.163 HD
BRANCH   4   7
ATOM      7  C   UNL A   1      32.301  27.533  24.754  1.00  0.00     0.174 C 
BRANCH   7   8
ATOM      8  N   UNL A   1      32.089  27.029  23.388  1.00  0.00    -0.340 N 
ATOM      9  C   UNL A   1      31.129  27.190  22.422  1.00  0.00     0.253 C 
ATOM     10  O   UNL A   1      31.268  26.456  21.445  1.00  0.00    -0.269 OA
ATOM     11  H   UNL A   1      32.814  26.432  23.096  1.00  0.00     0.164 HD
BRANCH   9  12
ATOM     12  C   UNL A   1      30.055  28.192  22.505  1.00  0.00     0.053 A 
ATOM     13  C   UNL A   1      28.424  31.436  21.399  1.00  0.00     0.056 C 
ATOM     14  C   UNL A   1      28.813  30.143  22.027  1.00  0.00     0.003 A 
ATOM     15  C   UNL A   1      30.051  29.545  22.024  1.00  0.00     0.029 A 
ATOM     16  S   UNL A   1      27.688  29.206  22.879  1.00  0.00    -0.145 S 
ATOM     17  C   UNL A   1      28.826  27.937  23.120  1.00  0.00     0.014 A 
ATOM     18  C   UNL A   1      28.341  26.752  23.899  1.00  0.00     0.057 C 
ENDBRANCH   9  12
ENDBRANCH   7   8
BRANCH   7  19
ATOM     19  C   UNL A   1      32.498  26.387  25.786  1.00  0.00     0.015 C 
ATOM     20  C   UNL A   1      31.337  25.396  25.885  1.00  0.00     0.010 C 
ATOM     21  C   UNL A   1      33.781  25.604  25.465  1.00  0.00     0.010 C 
ENDBRANCH   7  19
ENDBRANCH   4   7
ENDBRANCH   2   3
ENDBRANCH   1   2
BRANCH   1  22
ATOM     22  C   UNL A   1      32.931  32.365  27.308  1.00  0.00     0.118 C 
BRANCH  22  23
ATOM     23  N   UNL A   1      32.616  33.747  27.637  1.00  0.00    -0.352 N 
ATOM     24  C   UNL A   1      33.169  34.570  28.591  1.00  0.00     0.251 C 
ATOM     25  H   UNL A   1      31.901  34.154  27.095  1.00  0.00     0.163 HD
ATOM     26  O   UNL A   1      32.658  35.664  28.813  1.00  0.00    -0.269 OA
BRANCH  24  27
ATOM     27  C   UNL A   1      34.346  34.127  29.373  1.00  0.00     0.039 A 
ATOM     28  C   UNL A   1      34.144  33.340  30.511  1.00  0.00     0.014 A 
ATOM     29  C   UNL A   1      35.644  34.477  28.993  1.00  0.00     0.014 A 
ATOM     30  C   UNL A   1      35.243  32.835  31.213  1.00  0.00     0.010 A 
ATOM     31  C   UNL A   1      36.737  33.907  29.644  1.00  0.00     0.010 A 
ATOM     32  C   UNL A   1      36.550  33.076  30.759  1.00  0.00    -0.014 A 
BRANCH  32  33
ATOM     33  C   UNL A   1      37.730  32.464  31.427  1.00  0.00     0.031 A 
ATOM     34  C   UNL A   1      38.474  31.336  30.762  1.00  0.00     0.074 A 
ATOM     35  C   UNL A   1      38.080  32.866  32.667  1.00  0.00     0.049 A 
ATOM     36  N   UNL A   1      39.450  30.600  31.228  1.00  0.00    -0.248 NA
ATOM     37  C   UNL A   1      38.039  30.966  29.406  1.00  0.00     0.031 C 
ATOM     38  C   UNL A   1      37.406  33.915  33.439  1.00  0.00     0.029 A 
ATOM     39  N   UNL A   1      39.074  32.428  33.508  1.00  0.00    -0.354 N 
ATOM     40  C   UNL A   1      39.726  29.663  30.238  1.00  0.00     0.074 A 
ATOM     41  C   UNL A   1      38.786  29.898  29.163  1.00  0.00     0.031 C 
ATOM     42  C   UNL A   1      38.011  34.044  34.631  1.00  0.00     0.029 A 
ATOM     43  C   UNL A   1      39.085  33.059  34.732  1.00  0.00     0.049 A 
ATOM     44  H   UNL A   1      39.718  31.727  33.259  1.00  0.00     0.167 HD
ATOM     45  C   UNL A   1      40.684  28.704  30.222  1.00  0.00     0.034 A 
ATOM     46  C   UNL A   1      39.856  32.858  35.820  1.00  0.00     0.034 A 
ATOM     47  C   UNL A   1      41.642  28.506  31.282  1.00  0.00     0.049 A 
ATOM     48  C   UNL A   1      40.927  31.797  35.766  1.00  0.00     0.074 A 
ATOM     49  C   UNL A   1      42.712  27.628  31.323  1.00  0.00     0.029 A 
ATOM     50  N   UNL A   1      41.646  29.192  32.490  1.00  0.00    -0.354 N 
ATOM     51  N   UNL A   1      41.220  30.968  34.790  1.00  0.00    -0.248 NA
ATOM     52  C   UNL A   1      41.782  31.653  36.952  1.00  0.00     0.031 C 
ATOM     53  C   UNL A   1      43.323  27.737  32.576  1.00  0.00     0.029 A 
ATOM     54  C   UNL A   1      42.679  28.733  33.293  1.00  0.00     0.049 A 
ATOM     55  H   UNL A   1      41.009  29.899  32.739  1.00  0.00     0.167 HD
ATOM     56  C   UNL A   1      42.311  30.228  35.237  1.00  0.00     0.074 A 
ATOM     57  C   UNL A   1      42.634  30.719  36.559  1.00  0.00     0.031 C 
ATOM     58  C   UNL A   1      42.987  29.232  34.611  1.00  0.00     0.034 A 
BRANCH  45  59
ATOM     59  C   UNL A   1      40.734  27.778  29.033  1.00  0.00     0.023 A 
ATOM     60  C   UNL A   1      41.652  27.964  27.985  1.00  0.00     0.031 A 
ATOM     61  C   UNL A   1      39.854  26.684  28.952  1.00  0.00     0.131 A 
ATOM     62  C   UNL A   1      41.634  27.101  26.878  1.00  0.00     0.055 A 
ATOM     63  C   UNL A   1      39.887  25.790  27.882  1.00  0.00     0.041 A 
ATOM     64  F   UNL A   1      38.942  26.469  29.915  1.00  0.00    -0.206 F 
ATOM     65  C   UNL A   1      40.774  26.001  26.831  1.00  0.00     0.022 A 
BRANCH  62  66
ATOM     66  S   UNL A   1      42.681  27.496  25.451  1.00  0.00     0.124 S 
ATOM     67  O   UNL A   1      43.992  27.638  26.080  1.00  0.00    -0.237 OA
ATOM     68  O   UNL A   1      42.506  26.328  24.597  1.00  0.00    -0.237 OA
ATOM     69  O   UNL A   1      42.105  28.737  24.937  1.00  0.00    -0.744 OA
ENDBRANCH  62  66
ENDBRANCH  45  59
BRANCH  46  70
ATOM     70  C   UNL A   1      39.639  33.648  37.066  1.00  0.00     0.023 A 
ATOM     71  C   UNL A   1      39.050  33.066  38.200  1.00  0.00     0.031 A 
ATOM     72  C   UNL A   1      39.955  35.017  37.118  1.00  0.00     0.131 A 
ATOM     73  C   UNL A   1      38.739  33.862  39.314  1.00  0.00     0.055 A 
ATOM     74  C   UNL A   1      39.696  35.792  38.250  1.00  0.00     0.041 A 
ATOM     75  F   UNL A   1      40.526  35.624  36.064  1.00  0.00    -0.206 F 
ATOM     76  C   UNL A   1      39.068  35.219  39.351  1.00  0.00     0.022 A 
BRANCH  73  77
ATOM     77  S   UNL A   1      37.791  33.121  40.672  1.00  0.00     0.124 S 
ATOM     78  O   UNL A   1      37.986  34.097  41.738  1.00  0.00    -0.237 OA
ATOM     79  O   UNL A   1      36.451  33.054  40.101  1.00  0.00    -0.237 OA
ATOM     80  O   UNL A   1      38.446  31.831  40.879  1.00  0.00    -0.744 OA
ENDBRANCH  73  77
ENDBRANCH  46  70
BRANCH  58  81
ATOM     81  C   UNL A   1      44.173  28.647  35.336  1.00  0.00     0.023 A 
ATOM     82  C   UNL A   1      44.031  27.598  36.260  1.00  0.00     0.031 A 
ATOM     83  C   UNL A   1      45.463  29.156  35.103  1.00  0.00     0.131 A 
ATOM     84  C   UNL A   1      45.152  27.127  36.959  1.00  0.00     0.055 A 
ATOM     85  C   UNL A   1      46.583  28.645  35.759  1.00  0.00     0.041 A 
ATOM     86  F   UNL A   1      45.655  30.159  34.230  1.00  0.00    -0.206 F 
ATOM     87  C   UNL A   1      46.429  27.633  36.703  1.00  0.00     0.022 A 
BRANCH  84  88
ATOM     88  S   UNL A   1      44.909  25.898  38.269  1.00  0.00     0.124 S 
ATOM     89  O   UNL A   1      44.487  24.724  37.511  1.00  0.00    -0.237 OA
ATOM     90  O   UNL A   1      46.233  25.822  38.877  1.00  0.00    -0.237 OA
ATOM     91  O   UNL A   1      43.875  26.494  39.113  1.00  0.00    -0.744 OA
ENDBRANCH  84  88
ENDBRANCH  58  81
ENDBRANCH  32  33
ENDBRANCH  24  27
ENDBRANCH  22  23
ENDBRANCH   1  22
TORSDOF 16
ENDMDL
MODEL 2
REMARK VINA RESULT:     -11.5      1.424      2.405
REMARK SMILES Cc1cc(C(=O)N[C@H](C(=O)NCCCNC(=O)c2ccc(-c3c4nc(c(-c5cc(S(=O)(=O)[O-])ccc5F)c5ccc([nH]5)c(-c5cc(S(=O)(=O)[O-])ccc5F)c5nc(c(-c6cc(S(=O)(=O)[O-])ccc6F)c6ccc3[nH]6)C=C5)C=C4)cc2)C(C)C)c(C)s1
REMARK SMILES IDX 13 1 12 2 11 3 9 4 10 5 8 7 7 8 5 9 6 10 4 12 1 13 2 14 3 15
REMARK SMILES IDX 86 16 84 17 85 18 81 19 82 20 83 21 14 22 15 23 16 24 17 26
REMARK SMILES IDX 18 27 19 28 80 29 20 30 79 31 21 32 22 33 23 34 73 35 24 36
REMARK SMILES IDX 78 37 72 38 74 39 25 40 77 41 71 42 70 43 26 45 58 46 38 47
REMARK SMILES IDX 57 48 39 49 42 50 56 51 75 52 40 53 41 54 55 56 76 57 43 58
REMARK SMILES IDX 27 59 28 60 36 61 29 62 35 63 37 64 34 65 30 66 31 67 32 68
REMARK SMILES IDX 33 69 59 70 60 71 68 72 61 73 67 74 69 75 66 76 62 77 63 78
REMARK SMILES IDX 64 79 65 80 44 81 45 82 53 83 46 84 52 85 54 86 51 87 47 88
REMARK SMILES IDX 48 89 49 90 50 91
REMARK H PARENT 11 6 7 11 15 25 74 44 42 55
REMARK Flexibility Score: inf
ROOT
ATOM      1  C   UNL A   1      31.341  32.053  26.544  1.00  0.00     0.042 C 
ENDROOT
BRANCH   1   2
ATOM      2  C   UNL A   1      31.448  30.643  25.975  1.00  0.00     0.117 C 
BRANCH   2   3
ATOM      3  N   UNL A   1      30.661  30.478  24.763  1.00  0.00    -0.354 N 
ATOM      4  C   UNL A   1      30.769  29.576  23.741  1.00  0.00     0.242 C 
ATOM      5  O   UNL A   1      30.061  29.795  22.756  1.00  0.00    -0.273 OA
ATOM      6  H   UNL A   1      29.927  31.125  24.661  1.00  0.00     0.163 HD
BRANCH   4   7
ATOM      7  C   UNL A   1      31.838  28.444  23.788  1.00  0.00     0.174 C 
BRANCH   7   8
ATOM      8  N   UNL A   1      31.592  27.468  22.714  1.00  0.00    -0.340 N 
ATOM      9  C   UNL A   1      31.646  26.103  22.600  1.00  0.00     0.253 C 
ATOM     10  O   UNL A   1      31.498  25.686  21.452  1.00  0.00    -0.269 OA
ATOM     11  H   UNL A   1      31.321  27.902  21.874  1.00  0.00     0.164 HD
BRANCH   9  12
ATOM     12  C   UNL A   1      31.807  25.198  23.749  1.00  0.00     0.053 A 
ATOM     13  C   UNL A   1      30.378  23.128  26.593  1.00  0.00     0.056 C 
ATOM     14  C   UNL A   1      31.218  23.828  25.581  1.00  0.00     0.003 A 
ATOM     15  C   UNL A   1      30.868  24.902  24.795  1.00  0.00     0.029 A 
ATOM     16  S   UNL A   1      32.810  23.342  25.271  1.00  0.00    -0.145 S 
ATOM     17  C   UNL A   1      32.980  24.478  23.989  1.00  0.00     0.014 A 
ATOM     18  C   UNL A   1      34.312  24.508  23.302  1.00  0.00     0.057 C 
ENDBRANCH   9  12
ENDBRANCH   7   8
BRANCH   7  19
ATOM     19  C   UNL A   1      33.344  28.802  23.933  1.00  0.00     0.015 C 
ATOM     20  C   UNL A   1      34.063  28.124  25.101  1.00  0.00     0.010 C 
ATOM     21  C   UNL A   1      34.094  28.460  22.636  1.00  0.00     0.010 C 
ENDBRANCH   7  19
ENDBRANCH   4   7
ENDBRANCH   2   3
ENDBRANCH   1   2
BRANCH   1  22
ATOM     22  C   UNL A   1      32.666  32.676  26.960  1.00  0.00     0.118 C 
BRANCH  22  23
ATOM     23  N   UNL A   1      32.509  33.965  27.617  1.00  0.00    -0.352 N 
ATOM     24  C   UNL A   1      33.208  34.503  28.674  1.00  0.00     0.251 C 
ATOM     25  H   UNL A   1      31.797  34.539  27.250  1.00  0.00     0.163 HD
ATOM     26  O   UNL A   1      32.821  35.551  29.182  1.00  0.00    -0.269 OA
BRANCH  24  27
ATOM     27  C   UNL A   1      34.394  33.804  29.222  1.00  0.00     0.039 A 
ATOM     28  C   UNL A   1      35.668  34.280  28.898  1.00  0.00     0.014 A 
ATOM     29  C   UNL A   1      34.261  32.689  30.053  1.00  0.00     0.014 A 
ATOM     30  C   UNL A   1      36.798  33.693  29.474  1.00  0.00     0.010 A 
ATOM     31  C   UNL A   1      35.381  32.158  30.690  1.00  0.00     0.010 A 
ATOM     32  C   UNL A   1      36.663  32.656  30.412  1.00  0.00    -0.014 A 
BRANCH  32  33
ATOM     33  C   UNL A   1      37.843  32.086  31.117  1.00  0.00     0.031 A 
ATOM     34  C   UNL A   1      38.637  30.975  30.481  1.00  0.00     0.074 A 
ATOM     35  C   UNL A   1      38.147  32.507  32.361  1.00  0.00     0.049 A 
ATOM     36  N   UNL A   1      39.622  30.272  30.979  1.00  0.00    -0.248 NA
ATOM     37  C   UNL A   1      38.250  30.581  29.118  1.00  0.00     0.031 C 
ATOM     38  C   UNL A   1      37.422  33.542  33.106  1.00  0.00     0.029 A 
ATOM     39  N   UNL A   1      39.130  32.106  33.233  1.00  0.00    -0.354 N 
ATOM     40  C   UNL A   1      39.952  29.335  30.006  1.00  0.00     0.074 A 
ATOM     41  C   UNL A   1      39.035  29.534  28.904  1.00  0.00     0.031 C 
ATOM     42  C   UNL A   1      37.990  33.698  34.312  1.00  0.00     0.029 A 
ATOM     43  C   UNL A   1      39.090  32.748  34.451  1.00  0.00     0.049 A 
ATOM     44  H   UNL A   1      39.802  31.423  33.007  1.00  0.00     0.167 HD
ATOM     45  C   UNL A   1      40.938  28.406  30.023  1.00  0.00     0.034 A 
ATOM     46  C   UNL A   1      39.837  32.578  35.560  1.00  0.00     0.034 A 
ATOM     47  C   UNL A   1      41.873  28.245  31.110  1.00  0.00     0.049 A 
ATOM     48  C   UNL A   1      40.941  31.549  35.544  1.00  0.00     0.074 A 
ATOM     49  C   UNL A   1      42.967  27.400  31.187  1.00  0.00     0.029 A 
ATOM     50  N   UNL A   1      41.824  28.940  32.311  1.00  0.00    -0.354 N 
ATOM     51  N   UNL A   1      41.284  30.722  34.583  1.00  0.00    -0.248 NA
ATOM     52  C   UNL A   1      41.767  31.440  36.754  1.00  0.00     0.031 C 
ATOM     53  C   UNL A   1      43.541  27.537  32.455  1.00  0.00     0.029 A 
ATOM     54  C   UNL A   1      42.848  28.519  33.145  1.00  0.00     0.049 A 
ATOM     55  H   UNL A   1      41.159  29.630  32.537  1.00  0.00     0.167 HD
ATOM     56  C   UNL A   1      42.384  30.018  35.066  1.00  0.00     0.074 A 
ATOM     57  C   UNL A   1      42.657  30.529  36.392  1.00  0.00     0.031 C 
ATOM     58  C   UNL A   1      43.105  29.037  34.467  1.00  0.00     0.034 A 
BRANCH  45  59
ATOM     59  C   UNL A   1      41.048  27.472  28.844  1.00  0.00     0.023 A 
ATOM     60  C   UNL A   1      42.038  27.632  27.860  1.00  0.00     0.031 A 
ATOM     61  C   UNL A   1      40.151  26.398  28.709  1.00  0.00     0.131 A 
ATOM     62  C   UNL A   1      42.074  26.763  26.758  1.00  0.00     0.055 A 
ATOM     63  C   UNL A   1      40.235  25.496  27.647  1.00  0.00     0.041 A 
ATOM     64  F   UNL A   1      39.172  26.208  29.609  1.00  0.00    -0.206 F 
ATOM     65  C   UNL A   1      41.196  25.682  26.658  1.00  0.00     0.022 A 
BRANCH  62  66
ATOM     66  S   UNL A   1      43.224  27.128  25.403  1.00  0.00     0.124 S 
ATOM     67  O   UNL A   1      42.410  27.990  24.550  1.00  0.00    -0.237 OA
ATOM     68  O   UNL A   1      44.332  27.777  26.095  1.00  0.00    -0.237 OA
ATOM     69  O   UNL A   1      43.524  25.811  24.844  1.00  0.00    -0.744 OA
ENDBRANCH  62  66
ENDBRANCH  45  59
BRANCH  46  70
ATOM     70  C   UNL A   1      39.563  33.371  36.794  1.00  0.00     0.023 A 
ATOM     71  C   UNL A   1      38.840  32.821  37.864  1.00  0.00     0.031 A 
ATOM     72  C   UNL A   1      39.963  34.716  36.891  1.00  0.00     0.131 A 
ATOM     73  C   UNL A   1      38.485  33.627  38.957  1.00  0.00     0.055 A 
ATOM     74  C   UNL A   1      39.656  35.498  38.007  1.00  0.00     0.041 A 
ATOM     75  F   UNL A   1      40.662  35.291  35.899  1.00  0.00    -0.206 F 
ATOM     76  C   UNL A   1      38.898  34.959  39.040  1.00  0.00     0.022 A 
BRANCH  73  77
ATOM     77  S   UNL A   1      37.375  32.941  40.217  1.00  0.00     0.124 S 
ATOM     78  O   UNL A   1      38.124  31.774  40.670  1.00  0.00    -0.237 OA
ATOM     79  O   UNL A   1      37.275  34.047  41.163  1.00  0.00    -0.237 OA
ATOM     80  O   UNL A   1      36.154  32.648  39.470  1.00  0.00    -0.744 OA
ENDBRANCH  73  77
ENDBRANCH  46  70
BRANCH  58  81
ATOM     81  C   UNL A   1      44.289  28.494  35.228  1.00  0.00     0.023 A 
ATOM     82  C   UNL A   1      44.144  27.493  36.203  1.00  0.00     0.031 A 
ATOM     83  C   UNL A   1      45.578  28.996  34.979  1.00  0.00     0.131 A 
ATOM     84  C   UNL A   1      45.261  27.061  36.932  1.00  0.00     0.055 A 
ATOM     85  C   UNL A   1      46.696  28.522  35.667  1.00  0.00     0.041 A 
ATOM     86  F   UNL A   1      45.773  29.954  34.058  1.00  0.00    -0.206 F 
ATOM     87  C   UNL A   1      46.539  27.559  36.659  1.00  0.00     0.022 A 
BRANCH  84  88
ATOM     88  S   UNL A   1      45.013  25.898  38.301  1.00  0.00     0.124 S 
ATOM     89  O   UNL A   1      44.262  24.825  37.656  1.00  0.00    -0.237 OA
ATOM     90  O   UNL A   1      46.382  25.574  38.688  1.00  0.00    -0.237 OA
ATOM     91  O   UNL A   1      44.262  26.678  39.282  1.00  0.00    -0.744 OA
ENDBRANCH  84  88
ENDBRANCH  58  81
ENDBRANCH  32  33
ENDBRANCH  24  27
ENDBRANCH  22  23
ENDBRANCH   1  22
TORSDOF 16
ENDMDL
MODEL 3
REMARK VINA RESULT:     -11.5      4.169      9.505
REMARK SMILES Cc1cc(C(=O)N[C@H](C(=O)NCCCNC(=O)c2ccc(-c3c4nc(c(-c5cc(S(=O)(=O)[O-])ccc5F)c5ccc([nH]5)c(-c5cc(S(=O)(=O)[O-])ccc5F)c5nc(c(-c6cc(S(=O)(=O)[O-])ccc6F)c6ccc3[nH]6)C=C5)C=C4)cc2)C(C)C)c(C)s1
REMARK SMILES IDX 13 1 12 2 11 3 9 4 10 5 8 7 7 8 5 9 6 10 4 12 1 13 2 14 3 15
REMARK SMILES IDX 86 16 84 17 85 18 81 19 82 20 83 21 14 22 15 23 16 24 17 26
REMARK SMILES IDX 18 27 19 28 80 29 20 30 79 31 21 32 22 33 23 34 73 35 24 36
REMARK SMILES IDX 78 37 72 38 74 39 25 40 77 41 71 42 70 43 26 45 58 46 38 47
REMARK SMILES IDX 57 48 39 49 42 50 56 51 75 52 40 53 41 54 55 56 76 57 43 58
REMARK SMILES IDX 27 59 28 60 36 61 29 62 35 63 37 64 34 65 30 66 31 67 32 68
REMARK SMILES IDX 33 69 59 70 60 71 68 72 61 73 67 74 69 75 66 76 62 77 63 78
REMARK SMILES IDX 64 79 65 80 44 81 45 82 53 83 46 84 52 85 54 86 51 87 47 88
REMARK SMILES IDX 48 89 49 90 50 91
REMARK H PARENT 11 6 7 11 15 25 74 44 42 55
REMARK Flexibility Score: inf
ROOT
ATOM      1  C   UNL A   1      33.806  28.333  26.008  1.00  0.00     0.042 C 
ENDROOT
BRANCH   1   2
ATOM      2  C   UNL A   1      32.779  27.753  25.045  1.00  0.00     0.117 C 
BRANCH   2   3
ATOM      3  N   UNL A   1      31.586  27.281  25.731  1.00  0.00    -0.354 N 
ATOM      4  C   UNL A   1      31.163  26.013  26.023  1.00  0.00     0.242 C 
ATOM      5  O   UNL A   1      30.016  25.920  26.463  1.00  0.00    -0.273 OA
ATOM      6  H   UNL A   1      30.981  27.994  26.036  1.00  0.00     0.163 HD
BRANCH   4   7
ATOM      7  C   UNL A   1      32.044  24.778  25.666  1.00  0.00     0.174 C 
BRANCH   7   8
ATOM      8  N   UNL A   1      32.181  23.898  26.837  1.00  0.00    -0.340 N 
ATOM      9  C   UNL A   1      33.040  22.899  27.216  1.00  0.00     0.253 C 
ATOM     10  O   UNL A   1      32.705  22.307  28.242  1.00  0.00    -0.269 OA
ATOM     11  H   UNL A   1      31.488  24.070  27.514  1.00  0.00     0.164 HD
BRANCH   9  12
ATOM     12  C   UNL A   1      34.289  22.588  26.502  1.00  0.00     0.053 A 
ATOM     13  C   UNL A   1      37.984  23.152  25.843  1.00  0.00     0.056 C 
ATOM     14  C   UNL A   1      36.564  22.705  25.878  1.00  0.00     0.003 A 
ATOM     15  C   UNL A   1      35.484  23.378  26.400  1.00  0.00     0.029 A 
ATOM     16  S   UNL A   1      36.094  21.214  25.228  1.00  0.00    -0.145 S 
ATOM     17  C   UNL A   1      34.472  21.410  25.772  1.00  0.00     0.014 A 
ATOM     18  C   UNL A   1      33.520  20.305  25.431  1.00  0.00     0.057 C 
ENDBRANCH   9  12
ENDBRANCH   7   8
BRANCH   7  19
ATOM     19  C   UNL A   1      31.779  23.987  24.355  1.00  0.00     0.015 C 
ATOM     20  C   UNL A   1      30.542  24.429  23.569  1.00  0.00     0.010 C 
ATOM     21  C   UNL A   1      33.002  24.078  23.429  1.00  0.00     0.010 C 
ENDBRANCH   7  19
ENDBRANCH   4   7
ENDBRANCH   2   3
ENDBRANCH   1   2
BRANCH   1  22
ATOM     22  C   UNL A   1      33.230  28.871  27.310  1.00  0.00     0.118 C 
BRANCH  22  23
ATOM     23  N   UNL A   1      33.402  30.308  27.460  1.00  0.00    -0.352 N 
ATOM     24  C   UNL A   1      34.457  31.015  27.991  1.00  0.00     0.251 C 
ATOM     25  H   UNL A   1      32.653  30.857  27.132  1.00  0.00     0.163 HD
ATOM     26  O   UNL A   1      34.345  32.226  28.164  1.00  0.00    -0.269 OA
BRANCH  24  27
ATOM     27  C   UNL A   1      35.703  30.319  28.387  1.00  0.00     0.039 A 
ATOM     28  C   UNL A   1      36.783  30.310  27.499  1.00  0.00     0.014 A 
ATOM     29  C   UNL A   1      35.816  29.681  29.624  1.00  0.00     0.014 A 
ATOM     30  C   UNL A   1      37.998  29.738  27.887  1.00  0.00     0.010 A 
ATOM     31  C   UNL A   1      37.050  29.184  30.040  1.00  0.00     0.010 A 
ATOM     32  C   UNL A   1      38.157  29.210  29.179  1.00  0.00    -0.014 A 
BRANCH  32  33
ATOM     33  C   UNL A   1      39.469  28.690  29.651  1.00  0.00     0.031 A 
ATOM     34  C   UNL A   1      40.214  29.406  30.747  1.00  0.00     0.074 A 
ATOM     35  C   UNL A   1      40.028  27.627  29.036  1.00  0.00     0.049 A 
ATOM     36  N   UNL A   1      41.415  29.179  31.217  1.00  0.00    -0.248 NA
ATOM     37  C   UNL A   1      39.532  30.548  31.374  1.00  0.00     0.031 C 
ATOM     38  C   UNL A   1      39.429  26.879  27.927  1.00  0.00     0.029 A 
ATOM     39  N   UNL A   1      41.234  27.001  29.239  1.00  0.00    -0.354 N 
ATOM     40  C   UNL A   1      41.643  30.164  32.171  1.00  0.00     0.074 A 
ATOM     41  C   UNL A   1      40.472  31.015  32.183  1.00  0.00     0.031 C 
ATOM     42  C   UNL A   1      40.263  25.894  27.556  1.00  0.00     0.029 A 
ATOM     43  C   UNL A   1      41.476  25.965  28.366  1.00  0.00     0.049 A 
ATOM     44  H   UNL A   1      41.867  27.270  29.943  1.00  0.00     0.167 HD
ATOM     45  C   UNL A   1      42.723  30.335  32.972  1.00  0.00     0.034 A 
ATOM     46  C   UNL A   1      42.558  25.173  28.218  1.00  0.00     0.034 A 
ATOM     47  C   UNL A   1      43.865  29.455  32.979  1.00  0.00     0.049 A 
ATOM     48  C   UNL A   1      43.737  25.373  29.137  1.00  0.00     0.074 A 
ATOM     49  C   UNL A   1      44.967  29.482  33.817  1.00  0.00     0.029 A 
ATOM     50  N   UNL A   1      44.058  28.392  32.107  1.00  0.00    -0.354 N 
ATOM     51  N   UNL A   1      43.904  26.267  30.084  1.00  0.00    -0.248 NA
ATOM     52  C   UNL A   1      44.869  24.449  28.978  1.00  0.00     0.031 C 
ATOM     53  C   UNL A   1      45.853  28.479  33.412  1.00  0.00     0.029 A 
ATOM     54  C   UNL A   1      45.273  27.779  32.366  1.00  0.00     0.049 A 
ATOM     55  H   UNL A   1      43.424  28.115  31.407  1.00  0.00     0.167 HD
ATOM     56  C   UNL A   1      45.145  25.992  30.651  1.00  0.00     0.074 A 
ATOM     57  C   UNL A   1      45.676  24.840  29.953  1.00  0.00     0.031 C 
ATOM     58  C   UNL A   1      45.789  26.632  31.659  1.00  0.00     0.034 A 
BRANCH  45  59
ATOM     59  C   UNL A   1      42.734  31.528  33.894  1.00  0.00     0.023 A 
ATOM     60  C   UNL A   1      42.414  31.417  35.257  1.00  0.00     0.031 A 
ATOM     61  C   UNL A   1      43.084  32.798  33.400  1.00  0.00     0.131 A 
ATOM     62  C   UNL A   1      42.398  32.563  36.067  1.00  0.00     0.055 A 
ATOM     63  C   UNL A   1      43.133  33.922  34.226  1.00  0.00     0.041 A 
ATOM     64  F   UNL A   1      43.381  32.967  32.101  1.00  0.00    -0.206 F 
ATOM     65  C   UNL A   1      42.779  33.810  35.567  1.00  0.00     0.022 A 
BRANCH  62  66
ATOM     66  S   UNL A   1      41.772  32.418  37.764  1.00  0.00     0.124 S 
ATOM     67  O   UNL A   1      40.333  32.305  37.538  1.00  0.00    -0.237 OA
ATOM     68  O   UNL A   1      42.439  31.214  38.245  1.00  0.00    -0.237 OA
ATOM     69  O   UNL A   1      42.202  33.664  38.395  1.00  0.00    -0.744 OA
ENDBRANCH  62  66
ENDBRANCH  45  59
BRANCH  46  70
ATOM     70  C   UNL A   1      42.603  24.135  27.147  1.00  0.00     0.023 A 
ATOM     71  C   UNL A   1      41.995  22.882  27.326  1.00  0.00     0.031 A 
ATOM     72  C   UNL A   1      43.314  24.357  25.955  1.00  0.00     0.131 A 
ATOM     73  C   UNL A   1      42.161  21.878  26.359  1.00  0.00     0.055 A 
ATOM     74  C   UNL A   1      43.428  23.374  24.970  1.00  0.00     0.041 A 
ATOM     75  F   UNL A   1      43.911  25.539  25.728  1.00  0.00    -0.206 F 
ATOM     76  C   UNL A   1      42.865  22.120  25.177  1.00  0.00     0.022 A 
BRANCH  73  77
ATOM     77  S   UNL A   1      41.540  20.213  26.721  1.00  0.00     0.124 S 
ATOM     78  O   UNL A   1      41.726  19.540  25.441  1.00  0.00    -0.237 OA
ATOM     79  O   UNL A   1      42.424  19.792  27.802  1.00  0.00    -0.237 OA
ATOM     80  O   UNL A   1      40.150  20.446  27.109  1.00  0.00    -0.744 OA
ENDBRANCH  73  77
ENDBRANCH  46  70
BRANCH  58  81
ATOM     81  C   UNL A   1      47.117  26.063  32.094  1.00  0.00     0.023 A 
ATOM     82  C   UNL A   1      48.302  26.330  31.389  1.00  0.00     0.031 A 
ATOM     83  C   UNL A   1      47.190  25.234  33.227  1.00  0.00     0.131 A 
ATOM     84  C   UNL A   1      49.504  25.730  31.792  1.00  0.00     0.055 A 
ATOM     85  C   UNL A   1      48.399  24.684  33.657  1.00  0.00     0.041 A 
ATOM     86  F   UNL A   1      46.087  24.945  33.937  1.00  0.00    -0.206 F 
ATOM     87  C   UNL A   1      49.563  24.921  32.931  1.00  0.00     0.022 A 
BRANCH  84  88
ATOM     88  S   UNL A   1      50.978  25.953  30.760  1.00  0.00     0.124 S 
ATOM     89  O   UNL A   1      50.584  25.292  29.520  1.00  0.00    -0.237 OA
ATOM     90  O   UNL A   1      51.100  27.405  30.697  1.00  0.00    -0.237 OA
ATOM     91  O   UNL A   1      52.031  25.277  31.515  1.00  0.00    -0.744 OA
ENDBRANCH  84  88
ENDBRANCH  58  81
ENDBRANCH  32  33
ENDBRANCH  24  27
ENDBRANCH  22  23
ENDBRANCH   1  22
TORSDOF 16
ENDMDL
