MODEL 1
REMARK VINA RESULT:     -12.7      0.000      0.000
REMARK SMILES O=C(NCCCNC(=O)[C@@]1(Cl)C=CC=C(c2ccccc2)[C@H]1Cl)c1ccc(-c2c3nc(c(-c4cc(S(=O)(=O)[O-])ccc4F)c4ccc([nH]4)c(-c4cc(S(=O)(=O)[O-])ccc4F)c4nc(c(-c5cc(S(=O)(=O)[O-])ccc5F)c5ccc2[nH]5)C=C4)C=C3)cc1
REMARK SMILES IDX 4 1 3 2 1 3 2 4 24 6 25 7 86 8 26 9 85 10 27 11 28 12 29 13
REMARK SMILES IDX 79 14 30 15 84 16 78 17 80 18 31 19 83 20 77 21 76 22 32 24
REMARK SMILES IDX 64 25 44 26 63 27 45 28 48 29 62 30 81 31 46 32 47 33 61 35
REMARK SMILES IDX 82 36 49 37 33 38 34 39 42 40 35 41 41 42 43 43 40 44 36 45
REMARK SMILES IDX 37 46 38 47 39 48 65 49 66 50 74 51 67 52 73 53 75 54 72 55
REMARK SMILES IDX 68 56 69 57 70 58 71 59 50 60 51 61 59 62 52 63 58 64 60 65
REMARK SMILES IDX 57 66 53 67 54 68 55 69 56 70 5 71 6 72 7 73 8 74 9 76 10 77
REMARK SMILES IDX 11 78 12 79 22 80 13 81 15 82 23 83 14 84 16 85 17 86 21 87
REMARK SMILES IDX 18 88 20 89 19 90
REMARK H PARENT 3 5 80 23 48 34 7 75
REMARK Flexibility Score: inf
ROOT
ATOM      1  C   UNL A   1      32.701  32.466  27.336  1.00  0.00     0.118 C 
ENDROOT
BRANCH   1   2
ATOM      2  N   UNL A   1      32.513  33.876  27.647  1.00  0.00    -0.352 N 
ATOM      3  O   UNL A   1      32.670  35.751  28.880  1.00  0.00    -0.269 OA
ATOM      4  C   UNL A   1      33.121  34.637  28.613  1.00  0.00     0.251 C 
ATOM      5  H   UNL A   1      31.856  34.349  27.086  1.00  0.00     0.163 HD
BRANCH   4   6
ATOM      6  C   UNL A   1      34.308  34.121  29.327  1.00  0.00     0.039 A 
ATOM      7  C   UNL A   1      34.160  33.263  30.420  1.00  0.00     0.014 A 
ATOM      8  C   UNL A   1      35.583  34.460  28.868  1.00  0.00     0.014 A 
ATOM      9  C   UNL A   1      35.281  32.831  31.120  1.00  0.00     0.010 A 
ATOM     10  C   UNL A   1      36.711  33.955  29.520  1.00  0.00     0.010 A 
ATOM     11  C   UNL A   1      36.568  33.141  30.654  1.00  0.00    -0.014 A 
BRANCH  11  12
ATOM     12  C   UNL A   1      37.747  32.509  31.298  1.00  0.00     0.031 A 
ATOM     13  C   UNL A   1      38.474  31.371  30.643  1.00  0.00     0.074 A 
ATOM     14  C   UNL A   1      38.141  32.976  32.501  1.00  0.00     0.049 A 
ATOM     15  N   UNL A   1      39.489  30.678  31.093  1.00  0.00    -0.248 NA
ATOM     16  C   UNL A   1      37.999  30.951  29.317  1.00  0.00     0.031 C 
ATOM     17  C   UNL A   1      37.498  34.078  33.225  1.00  0.00     0.029 A 
ATOM     18  N   UNL A   1      39.165  32.593  33.328  1.00  0.00    -0.354 N 
ATOM     19  C   UNL A   1      39.763  29.725  30.119  1.00  0.00     0.074 A 
ATOM     20  C   UNL A   1      38.794  29.919  29.059  1.00  0.00     0.031 C 
ATOM     21  C   UNL A   1      38.155  34.295  34.372  1.00  0.00     0.029 A 
ATOM     22  C   UNL A   1      39.210  33.301  34.509  1.00  0.00     0.049 A 
ATOM     23  H   UNL A   1      39.806  31.882  33.100  1.00  0.00     0.167 HD
ATOM     24  C   UNL A   1      40.735  28.780  30.118  1.00  0.00     0.034 A 
ATOM     25  C   UNL A   1      39.982  33.138  35.600  1.00  0.00     0.034 A 
ATOM     26  C   UNL A   1      41.692  28.614  31.187  1.00  0.00     0.049 A 
ATOM     27  C   UNL A   1      41.010  32.037  35.594  1.00  0.00     0.074 A 
ATOM     28  C   UNL A   1      42.761  27.737  31.255  1.00  0.00     0.029 A 
ATOM     29  N   UNL A   1      41.682  29.319  32.385  1.00  0.00    -0.354 N 
ATOM     30  N   UNL A   1      41.294  31.183  34.638  1.00  0.00    -0.248 NA
ATOM     31  C   UNL A   1      41.818  31.876  36.809  1.00  0.00     0.031 C 
ATOM     32  C   UNL A   1      43.339  27.847  32.523  1.00  0.00     0.029 A 
ATOM     33  C   UNL A   1      42.689  28.856  33.218  1.00  0.00     0.049 A 
ATOM     34  H   UNL A   1      41.052  30.042  32.609  1.00  0.00     0.167 HD
ATOM     35  C   UNL A   1      42.328  30.394  35.133  1.00  0.00     0.074 A 
ATOM     36  C   UNL A   1      42.632  30.892  36.459  1.00  0.00     0.031 C 
ATOM     37  C   UNL A   1      42.968  29.351  34.546  1.00  0.00     0.034 A 
BRANCH  24  38
ATOM     38  C   UNL A   1      40.786  27.813  28.960  1.00  0.00     0.023 A 
ATOM     39  C   UNL A   1      41.725  27.934  27.922  1.00  0.00     0.031 A 
ATOM     40  C   UNL A   1      39.888  26.731  28.911  1.00  0.00     0.131 A 
ATOM     41  C   UNL A   1      41.714  27.017  26.858  1.00  0.00     0.055 A 
ATOM     42  C   UNL A   1      39.928  25.783  27.887  1.00  0.00     0.041 A 
ATOM     43  F   UNL A   1      38.953  26.577  29.863  1.00  0.00    -0.206 F 
ATOM     44  C   UNL A   1      40.840  25.929  26.847  1.00  0.00     0.022 A 
BRANCH  41  45
ATOM     45  S   UNL A   1      42.786  27.331  25.428  1.00  0.00     0.124 S 
ATOM     46  O   UNL A   1      44.045  27.695  26.075  1.00  0.00    -0.237 OA
ATOM     47  O   UNL A   1      42.773  26.048  24.736  1.00  0.00    -0.237 OA
ATOM     48  O   UNL A   1      42.116  28.425  24.729  1.00  0.00    -0.744 OA
ENDBRANCH  41  45
ENDBRANCH  24  38
BRANCH  25  49
ATOM     49  C   UNL A   1      39.769  33.984  36.809  1.00  0.00     0.023 A 
ATOM     50  C   UNL A   1      39.202  33.454  37.977  1.00  0.00     0.031 A 
ATOM     51  C   UNL A   1      40.082  35.357  36.795  1.00  0.00     0.131 A 
ATOM     52  C   UNL A   1      38.914  34.299  39.060  1.00  0.00     0.055 A 
ATOM     53  C   UNL A   1      39.859  36.178  37.900  1.00  0.00     0.041 A 
ATOM     54  F   UNL A   1      40.624  35.920  35.703  1.00  0.00    -0.206 F 
ATOM     55  C   UNL A   1      39.255  35.654  39.036  1.00  0.00     0.022 A 
BRANCH  52  56
ATOM     56  S   UNL A   1      37.975  33.625  40.457  1.00  0.00     0.124 S 
ATOM     57  O   UNL A   1      36.819  33.044  39.784  1.00  0.00    -0.237 OA
ATOM     58  O   UNL A   1      38.926  32.679  41.031  1.00  0.00    -0.237 OA
ATOM     59  O   UNL A   1      37.694  34.801  41.277  1.00  0.00    -0.744 OA
ENDBRANCH  52  56
ENDBRANCH  25  49
BRANCH  37  60
ATOM     60  C   UNL A   1      44.081  28.704  35.330  1.00  0.00     0.023 A 
ATOM     61  C   UNL A   1      43.837  27.629  36.204  1.00  0.00     0.031 A 
ATOM     62  C   UNL A   1      45.402  29.168  35.201  1.00  0.00     0.131 A 
ATOM     63  C   UNL A   1      44.892  27.085  36.950  1.00  0.00     0.055 A 
ATOM     64  C   UNL A   1      46.457  28.580  35.899  1.00  0.00     0.041 A 
ATOM     65  F   UNL A   1      45.688  30.194  34.385  1.00  0.00    -0.206 F 
ATOM     66  C   UNL A   1      46.204  27.539  36.787  1.00  0.00     0.022 A 
BRANCH  63  67
ATOM     67  S   UNL A   1      44.517  25.822  38.196  1.00  0.00     0.124 S 
ATOM     68  O   UNL A   1      43.967  26.623  39.283  1.00  0.00    -0.237 OA
ATOM     69  O   UNL A   1      43.569  24.961  37.495  1.00  0.00    -0.237 OA
ATOM     70  O   UNL A   1      45.819  25.213  38.469  1.00  0.00    -0.744 OA
ENDBRANCH  63  67
ENDBRANCH  37  60
ENDBRANCH  11  12
ENDBRANCH   4   6
ENDBRANCH   1   2
BRANCH   1  71
ATOM     71  C   UNL A   1      31.558  31.908  26.495  1.00  0.00     0.042 C 
BRANCH  71  72
ATOM     72  C   UNL A   1      31.820  30.489  26.002  1.00  0.00     0.117 C 
BRANCH  72  73
ATOM     73  N   UNL A   1      31.665  29.529  27.082  1.00  0.00    -0.354 N 
ATOM     74  C   UNL A   1      31.492  28.177  27.097  1.00  0.00     0.247 C 
ATOM     75  H   UNL A   1      31.688  29.936  27.978  1.00  0.00     0.163 HD
ATOM     76  O   UNL A   1      31.368  27.681  28.225  1.00  0.00    -0.273 OA
BRANCH  74  77
ATOM     77  C   UNL A   1      31.570  27.276  25.828  1.00  0.00     0.161 C 
ATOM     78  Cl  UNL A   1      30.291  25.970  26.095  1.00  0.00    -0.102 Cl
ATOM     79  C   UNL A   1      31.168  27.859  24.488  1.00  0.00     0.008 C 
ATOM     80  C   UNL A   1      32.969  26.580  25.810  1.00  0.00     0.146 C 
ATOM     81  C   UNL A   1      31.771  27.507  23.341  1.00  0.00    -0.002 C 
ATOM     82  C   UNL A   1      33.333  26.004  24.451  1.00  0.00    -0.020 C 
ATOM     83  Cl  UNL A   1      34.329  27.729  26.208  1.00  0.00    -0.115 Cl
ATOM     84  C   UNL A   1      32.776  26.471  23.318  1.00  0.00     0.006 C 
BRANCH  82  85
ATOM     85  C   UNL A   1      34.297  24.895  24.399  1.00  0.00    -0.021 A 
ATOM     86  C   UNL A   1      34.410  24.110  23.243  1.00  0.00     0.008 A 
ATOM     87  C   UNL A   1      35.116  24.611  25.499  1.00  0.00     0.008 A 
ATOM     88  C   UNL A   1      35.326  23.059  23.189  1.00  0.00     0.001 A 
ATOM     89  C   UNL A   1      36.030  23.557  25.444  1.00  0.00     0.001 A 
ATOM     90  C   UNL A   1      36.135  22.783  24.290  1.00  0.00     0.000 A 
ENDBRANCH  82  85
ENDBRANCH  74  77
ENDBRANCH  72  73
ENDBRANCH  71  72
ENDBRANCH   1  71
TORSDOF 14
ENDMDL
MODEL 2
REMARK VINA RESULT:     -12.7      6.392     10.516
REMARK SMILES O=C(NCCCNC(=O)[C@@]1(Cl)C=CC=C(c2ccccc2)[C@H]1Cl)c1ccc(-c2c3nc(c(-c4cc(S(=O)(=O)[O-])ccc4F)c4ccc([nH]4)c(-c4cc(S(=O)(=O)[O-])ccc4F)c4nc(c(-c5cc(S(=O)(=O)[O-])ccc5F)c5ccc2[nH]5)C=C4)C=C3)cc1
REMARK SMILES IDX 4 1 3 2 1 3 2 4 24 6 25 7 86 8 26 9 85 10 27 11 28 12 29 13
REMARK SMILES IDX 79 14 30 15 84 16 78 17 80 18 31 19 83 20 77 21 76 22 32 24
REMARK SMILES IDX 64 25 44 26 63 27 45 28 48 29 62 30 81 31 46 32 47 33 61 35
REMARK SMILES IDX 82 36 49 37 33 38 34 39 42 40 35 41 41 42 43 43 40 44 36 45
REMARK SMILES IDX 37 46 38 47 39 48 65 49 66 50 74 51 67 52 73 53 75 54 72 55
REMARK SMILES IDX 68 56 69 57 70 58 71 59 50 60 51 61 59 62 52 63 58 64 60 65
REMARK SMILES IDX 57 66 53 67 54 68 55 69 56 70 5 71 6 72 7 73 8 74 9 76 10 77
REMARK SMILES IDX 11 78 12 79 22 80 13 81 15 82 23 83 14 84 16 85 17 86 21 87
REMARK SMILES IDX 18 88 20 89 19 90
REMARK H PARENT 3 5 80 23 48 34 7 75
REMARK Flexibility Score: inf
ROOT
ATOM      1  C   UNL A   1      41.041  20.150  26.578  1.00  0.00     0.118 C 
ENDROOT
BRANCH   1   2
ATOM      2  N   UNL A   1      39.673  20.306  26.109  1.00  0.00    -0.352 N 
ATOM      3  O   UNL A   1      37.659  21.292  25.924  1.00  0.00    -0.269 OA
ATOM      4  C   UNL A   1      38.862  21.411  26.160  1.00  0.00     0.251 C 
ATOM      5  H   UNL A   1      39.272  19.505  25.698  1.00  0.00     0.163 HD
BRANCH   4   6
ATOM      6  C   UNL A   1      39.430  22.734  26.494  1.00  0.00     0.039 A 
ATOM      7  C   UNL A   1      40.397  22.857  27.496  1.00  0.00     0.014 A 
ATOM      8  C   UNL A   1      39.028  23.856  25.765  1.00  0.00     0.014 A 
ATOM      9  C   UNL A   1      40.881  24.113  27.843  1.00  0.00     0.010 A 
ATOM     10  C   UNL A   1      39.580  25.105  26.057  1.00  0.00     0.010 A 
ATOM     11  C   UNL A   1      40.507  25.244  27.102  1.00  0.00    -0.014 A 
BRANCH  11  12
ATOM     12  C   UNL A   1      41.184  26.540  27.360  1.00  0.00     0.031 A 
ATOM     13  C   UNL A   1      42.555  26.822  26.820  1.00  0.00     0.074 A 
ATOM     14  C   UNL A   1      40.538  27.457  28.109  1.00  0.00     0.049 A 
ATOM     15  N   UNL A   1      43.304  27.881  26.993  1.00  0.00    -0.248 NA
ATOM     16  C   UNL A   1      43.170  25.781  25.983  1.00  0.00     0.031 C 
ATOM     17  C   UNL A   1      39.200  27.278  28.685  1.00  0.00     0.029 A 
ATOM     18  N   UNL A   1      40.906  28.713  28.518  1.00  0.00    -0.354 N 
ATOM     19  C   UNL A   1      44.487  27.629  26.309  1.00  0.00     0.074 A 
ATOM     20  C   UNL A   1      44.363  26.307  25.730  1.00  0.00     0.031 C 
ATOM     21  C   UNL A   1      38.854  28.388  29.350  1.00  0.00     0.029 A 
ATOM     22  C   UNL A   1      39.970  29.324  29.322  1.00  0.00     0.049 A 
ATOM     23  H   UNL A   1      41.756  29.136  28.262  1.00  0.00     0.167 HD
ATOM     24  C   UNL A   1      45.572  28.433  26.182  1.00  0.00     0.034 A 
ATOM     25  C   UNL A   1      40.021  30.486  30.000  1.00  0.00     0.034 A 
ATOM     26  C   UNL A   1      45.665  29.750  26.765  1.00  0.00     0.049 A 
ATOM     27  C   UNL A   1      41.265  31.327  29.889  1.00  0.00     0.074 A 
ATOM     28  C   UNL A   1      46.687  30.677  26.638  1.00  0.00     0.029 A 
ATOM     29  N   UNL A   1      44.718  30.321  27.607  1.00  0.00    -0.354 N 
ATOM     30  N   UNL A   1      42.352  31.100  29.188  1.00  0.00    -0.248 NA
ATOM     31  C   UNL A   1      41.294  32.577  30.659  1.00  0.00     0.031 C 
ATOM     32  C   UNL A   1      46.401  31.762  27.471  1.00  0.00     0.029 A 
ATOM     33  C   UNL A   1      45.158  31.558  28.051  1.00  0.00     0.049 A 
ATOM     34  H   UNL A   1      43.859  29.906  27.853  1.00  0.00     0.167 HD
ATOM     35  C   UNL A   1      43.186  32.189  29.420  1.00  0.00     0.074 A 
ATOM     36  C   UNL A   1      42.465  33.082  30.304  1.00  0.00     0.031 C 
ATOM     37  C   UNL A   1      44.435  32.429  28.948  1.00  0.00     0.034 A 
BRANCH  24  38
ATOM     38  C   UNL A   1      46.769  27.899  25.432  1.00  0.00     0.023 A 
ATOM     39  C   UNL A   1      46.988  28.178  24.072  1.00  0.00     0.031 A 
ATOM     40  C   UNL A   1      47.724  27.115  26.105  1.00  0.00     0.131 A 
ATOM     41  C   UNL A   1      48.108  27.638  23.419  1.00  0.00     0.055 A 
ATOM     42  C   UNL A   1      48.872  26.641  25.468  1.00  0.00     0.041 A 
ATOM     43  F   UNL A   1      47.557  26.798  27.399  1.00  0.00    -0.206 F 
ATOM     44  C   UNL A   1      49.064  26.894  24.114  1.00  0.00     0.022 A 
BRANCH  41  45
ATOM     45  S   UNL A   1      48.242  27.828  21.620  1.00  0.00     0.124 S 
ATOM     46  O   UNL A   1      48.632  26.481  21.207  1.00  0.00    -0.237 OA
ATOM     47  O   UNL A   1      46.896  28.245  21.245  1.00  0.00    -0.237 OA
ATOM     48  O   UNL A   1      49.279  28.845  21.458  1.00  0.00    -0.744 OA
ENDBRANCH  41  45
ENDBRANCH  24  38
BRANCH  25  49
ATOM     49  C   UNL A   1      38.898  30.889  30.894  1.00  0.00     0.023 A 
ATOM     50  C   UNL A   1      37.854  31.702  30.429  1.00  0.00     0.031 A 
ATOM     51  C   UNL A   1      38.880  30.509  32.250  1.00  0.00     0.131 A 
ATOM     52  C   UNL A   1      36.869  32.154  31.321  1.00  0.00     0.055 A 
ATOM     53  C   UNL A   1      37.861  30.902  33.116  1.00  0.00     0.041 A 
ATOM     54  F   UNL A   1      39.855  29.733  32.751  1.00  0.00    -0.206 F 
ATOM     55  C   UNL A   1      36.855  31.745  32.657  1.00  0.00     0.022 A 
BRANCH  52  56
ATOM     56  S   UNL A   1      35.671  33.384  30.737  1.00  0.00     0.124 S 
ATOM     57  O   UNL A   1      35.798  34.424  31.750  1.00  0.00    -0.237 OA
ATOM     58  O   UNL A   1      36.194  33.709  29.414  1.00  0.00    -0.237 OA
ATOM     59  O   UNL A   1      34.405  32.655  30.745  1.00  0.00    -0.744 OA
ENDBRANCH  52  56
ENDBRANCH  25  49
BRANCH  37  60
ATOM     60  C   UNL A   1      45.082  33.727  29.359  1.00  0.00     0.023 A 
ATOM     61  C   UNL A   1      44.913  34.905  28.609  1.00  0.00     0.031 A 
ATOM     62  C   UNL A   1      45.876  33.787  30.517  1.00  0.00     0.131 A 
ATOM     63  C   UNL A   1      45.569  36.081  29.000  1.00  0.00     0.055 A 
ATOM     64  C   UNL A   1      46.474  34.976  30.936  1.00  0.00     0.041 A 
ATOM     65  F   UNL A   1      46.075  32.691  31.267  1.00  0.00    -0.206 F 
ATOM     66  C   UNL A   1      46.331  36.129  30.170  1.00  0.00     0.022 A 
BRANCH  63  67
ATOM     67  S   UNL A   1      45.474  37.533  27.918  1.00  0.00     0.124 S 
ATOM     68  O   UNL A   1      46.738  37.454  27.195  1.00  0.00    -0.237 OA
ATOM     69  O   UNL A   1      44.273  37.262  27.133  1.00  0.00    -0.237 OA
ATOM     70  O   UNL A   1      45.362  38.651  28.853  1.00  0.00    -0.744 OA
ENDBRANCH  63  67
ENDBRANCH  37  60
ENDBRANCH  11  12
ENDBRANCH   4   6
ENDBRANCH   1   2
BRANCH   1  71
ATOM     71  C   UNL A   1      41.651  18.824  26.136  1.00  0.00     0.042 C 
BRANCH  71  72
ATOM     72  C   UNL A   1      43.168  18.883  25.996  1.00  0.00     0.117 C 
BRANCH  72  73
ATOM     73  N   UNL A   1      43.551  19.143  24.619  1.00  0.00    -0.354 N 
ATOM     74  C   UNL A   1      44.434  20.013  24.055  1.00  0.00     0.247 C 
ATOM     75  H   UNL A   1      43.078  18.579  23.965  1.00  0.00     0.163 HD
ATOM     76  O   UNL A   1      44.484  19.976  22.818  1.00  0.00    -0.273 OA
BRANCH  74  77
ATOM     77  C   UNL A   1      45.415  20.908  24.872  1.00  0.00     0.161 C 
ATOM     78  Cl  UNL A   1      46.522  19.717  25.751  1.00  0.00    -0.102 Cl
ATOM     79  C   UNL A   1      46.403  21.784  24.127  1.00  0.00     0.008 C 
ATOM     80  C   UNL A   1      44.589  21.679  25.950  1.00  0.00     0.146 C 
ATOM     81  C   UNL A   1      46.779  22.990  24.583  1.00  0.00    -0.002 C 
ATOM     82  C   UNL A   1      45.332  22.868  26.537  1.00  0.00    -0.020 C 
ATOM     83  Cl  UNL A   1      43.044  22.381  25.280  1.00  0.00    -0.115 Cl
ATOM     84  C   UNL A   1      46.332  23.471  25.868  1.00  0.00     0.006 C 
BRANCH  82  85
ATOM     85  C   UNL A   1      44.952  23.336  27.879  1.00  0.00    -0.021 A 
ATOM     86  C   UNL A   1      45.516  24.505  28.405  1.00  0.00     0.008 A 
ATOM     87  C   UNL A   1      44.020  22.622  28.643  1.00  0.00     0.008 A 
ATOM     88  C   UNL A   1      45.154  24.954  29.676  1.00  0.00     0.001 A 
ATOM     89  C   UNL A   1      43.662  23.071  29.916  1.00  0.00     0.001 A 
ATOM     90  C   UNL A   1      44.228  24.236  30.431  1.00  0.00     0.000 A 
ENDBRANCH  82  85
ENDBRANCH  74  77
ENDBRANCH  72  73
ENDBRANCH  71  72
ENDBRANCH   1  71
TORSDOF 14
ENDMDL
MODEL 3
REMARK VINA RESULT:     -12.5      1.617      1.999
REMARK SMILES O=C(NCCCNC(=O)[C@@]1(Cl)C=CC=C(c2ccccc2)[C@H]1Cl)c1ccc(-c2c3nc(c(-c4cc(S(=O)(=O)[O-])ccc4F)c4ccc([nH]4)c(-c4cc(S(=O)(=O)[O-])ccc4F)c4nc(c(-c5cc(S(=O)(=O)[O-])ccc5F)c5ccc2[nH]5)C=C4)C=C3)cc1
REMARK SMILES IDX 4 1 3 2 1 3 2 4 24 6 25 7 86 8 26 9 85 10 27 11 28 12 29 13
REMARK SMILES IDX 79 14 30 15 84 16 78 17 80 18 31 19 83 20 77 21 76 22 32 24
REMARK SMILES IDX 64 25 44 26 63 27 45 28 48 29 62 30 81 31 46 32 47 33 61 35
REMARK SMILES IDX 82 36 49 37 33 38 34 39 42 40 35 41 41 42 43 43 40 44 36 45
REMARK SMILES IDX 37 46 38 47 39 48 65 49 66 50 74 51 67 52 73 53 75 54 72 55
REMARK SMILES IDX 68 56 69 57 70 58 71 59 50 60 51 61 59 62 52 63 58 64 60 65
REMARK SMILES IDX 57 66 53 67 54 68 55 69 56 70 5 71 6 72 7 73 8 74 9 76 10 77
REMARK SMILES IDX 11 78 12 79 22 80 13 81 15 82 23 83 14 84 16 85 17 86 21 87
REMARK SMILES IDX 18 88 20 89 19 90
REMARK H PARENT 3 5 80 23 48 34 7 75
REMARK Flexibility Score: inf
ROOT
ATOM      1  C   UNL A   1      32.724  32.466  27.289  1.00  0.00     0.118 C 
ENDROOT
BRANCH   1   2
ATOM      2  N   UNL A   1      32.533  33.868  27.630  1.00  0.00    -0.352 N 
ATOM      3  O   UNL A   1      32.687  35.717  28.903  1.00  0.00    -0.269 OA
ATOM      4  C   UNL A   1      33.139  34.609  28.612  1.00  0.00     0.251 C 
ATOM      5  H   UNL A   1      31.876  34.352  27.079  1.00  0.00     0.163 HD
BRANCH   4   6
ATOM      6  C   UNL A   1      34.327  34.080  29.315  1.00  0.00     0.039 A 
ATOM      7  C   UNL A   1      34.180  33.216  30.403  1.00  0.00     0.014 A 
ATOM      8  C   UNL A   1      35.601  34.414  28.850  1.00  0.00     0.014 A 
ATOM      9  C   UNL A   1      35.302  32.772  31.093  1.00  0.00     0.010 A 
ATOM     10  C   UNL A   1      36.730  33.896  29.492  1.00  0.00     0.010 A 
ATOM     11  C   UNL A   1      36.589  33.076  30.622  1.00  0.00    -0.014 A 
BRANCH  11  12
ATOM     12  C   UNL A   1      37.767  32.431  31.254  1.00  0.00     0.031 A 
ATOM     13  C   UNL A   1      38.483  31.294  30.586  1.00  0.00     0.074 A 
ATOM     14  C   UNL A   1      38.171  32.886  32.458  1.00  0.00     0.049 A 
ATOM     15  N   UNL A   1      39.496  30.591  31.024  1.00  0.00    -0.248 NA
ATOM     16  C   UNL A   1      37.998  30.887  29.259  1.00  0.00     0.031 C 
ATOM     17  C   UNL A   1      37.538  33.986  33.195  1.00  0.00     0.029 A 
ATOM     18  N   UNL A   1      39.197  32.490  33.276  1.00  0.00    -0.354 N 
ATOM     19  C   UNL A   1      39.759  29.644  30.041  1.00  0.00     0.074 A 
ATOM     20  C   UNL A   1      38.785  29.852  28.989  1.00  0.00     0.031 C 
ATOM     21  C   UNL A   1      38.203  34.190  34.340  1.00  0.00     0.029 A 
ATOM     22  C   UNL A   1      39.253  33.187  34.462  1.00  0.00     0.049 A 
ATOM     23  H   UNL A   1      39.832  31.777  33.039  1.00  0.00     0.167 HD
ATOM     24  C   UNL A   1      40.725  28.692  30.028  1.00  0.00     0.034 A 
ATOM     25  C   UNL A   1      40.029  33.011  35.548  1.00  0.00     0.034 A 
ATOM     26  C   UNL A   1      41.686  28.512  31.089  1.00  0.00     0.049 A 
ATOM     27  C   UNL A   1      41.050  31.904  35.527  1.00  0.00     0.074 A 
ATOM     28  C   UNL A   1      42.751  27.628  31.145  1.00  0.00     0.029 A 
ATOM     29  N   UNL A   1      41.688  29.208  32.293  1.00  0.00    -0.354 N 
ATOM     30  N   UNL A   1      41.324  31.056  34.563  1.00  0.00    -0.248 NA
ATOM     31  C   UNL A   1      41.864  31.729  36.736  1.00  0.00     0.031 C 
ATOM     32  C   UNL A   1      43.336  27.724  32.410  1.00  0.00     0.029 A 
ATOM     33  C   UNL A   1      42.696  28.731  33.117  1.00  0.00     0.049 A 
ATOM     34  H   UNL A   1      41.063  29.932  32.527  1.00  0.00     0.167 HD
ATOM     35  C   UNL A   1      42.355  30.256  35.046  1.00  0.00     0.074 A 
ATOM     36  C   UNL A   1      42.670  30.742  36.374  1.00  0.00     0.031 C 
ATOM     37  C   UNL A   1      42.985  29.215  34.447  1.00  0.00     0.034 A 
BRANCH  24  38
ATOM     38  C   UNL A   1      40.763  27.735  28.861  1.00  0.00     0.023 A 
ATOM     39  C   UNL A   1      41.730  27.827  27.846  1.00  0.00     0.031 A 
ATOM     40  C   UNL A   1      39.823  26.690  28.782  1.00  0.00     0.131 A 
ATOM     41  C   UNL A   1      41.707  26.921  26.773  1.00  0.00     0.055 A 
ATOM     42  C   UNL A   1      39.848  25.751  27.750  1.00  0.00     0.041 A 
ATOM     43  F   UNL A   1      38.862  26.566  29.710  1.00  0.00    -0.206 F 
ATOM     44  C   UNL A   1      40.789  25.869  26.732  1.00  0.00     0.022 A 
BRANCH  41  45
ATOM     45  S   UNL A   1      42.823  27.203  25.371  1.00  0.00     0.124 S 
ATOM     46  O   UNL A   1      44.075  27.531  26.050  1.00  0.00    -0.237 OA
ATOM     47  O   UNL A   1      42.790  25.922  24.677  1.00  0.00    -0.237 OA
ATOM     48  O   UNL A   1      42.202  28.317  24.656  1.00  0.00    -0.744 OA
ENDBRANCH  41  45
ENDBRANCH  24  38
BRANCH  25  49
ATOM     49  C   UNL A   1      39.828  33.849  36.765  1.00  0.00     0.023 A 
ATOM     50  C   UNL A   1      40.675  34.930  37.051  1.00  0.00     0.031 A 
ATOM     51  C   UNL A   1      38.813  33.546  37.692  1.00  0.00     0.131 A 
ATOM     52  C   UNL A   1      40.528  35.632  38.258  1.00  0.00     0.055 A 
ATOM     53  C   UNL A   1      38.626  34.291  38.856  1.00  0.00     0.041 A 
ATOM     54  F   UNL A   1      37.974  32.520  37.472  1.00  0.00    -0.206 F 
ATOM     55  C   UNL A   1      39.498  35.332  39.154  1.00  0.00     0.022 A 
BRANCH  52  56
ATOM     56  S   UNL A   1      41.779  36.869  38.696  1.00  0.00     0.124 S 
ATOM     57  O   UNL A   1      42.460  37.065  37.422  1.00  0.00    -0.237 OA
ATOM     58  O   UNL A   1      40.956  37.980  39.162  1.00  0.00    -0.237 OA
ATOM     59  O   UNL A   1      42.568  36.202  39.729  1.00  0.00    -0.744 OA
ENDBRANCH  52  56
ENDBRANCH  25  49
BRANCH  37  60
ATOM     60  C   UNL A   1      44.098  28.554  35.220  1.00  0.00     0.023 A 
ATOM     61  C   UNL A   1      43.842  27.534  36.153  1.00  0.00     0.031 A 
ATOM     62  C   UNL A   1      45.433  28.950  35.019  1.00  0.00     0.131 A 
ATOM     63  C   UNL A   1      44.901  26.977  36.885  1.00  0.00     0.055 A 
ATOM     64  C   UNL A   1      46.487  28.347  35.705  1.00  0.00     0.041 A 
ATOM     65  F   UNL A   1      45.732  29.923  34.145  1.00  0.00    -0.206 F 
ATOM     66  C   UNL A   1      46.223  27.362  36.652  1.00  0.00     0.022 A 
BRANCH  63  67
ATOM     67  S   UNL A   1      44.519  25.792  38.204  1.00  0.00     0.124 S 
ATOM     68  O   UNL A   1      45.782  25.730  38.931  1.00  0.00    -0.237 OA
ATOM     69  O   UNL A   1      43.413  26.441  38.901  1.00  0.00    -0.237 OA
ATOM     70  O   UNL A   1      44.161  24.574  37.477  1.00  0.00    -0.744 OA
ENDBRANCH  63  67
ENDBRANCH  37  60
ENDBRANCH  11  12
ENDBRANCH   4   6
ENDBRANCH   1   2
BRANCH   1  71
ATOM     71  C   UNL A   1      31.540  31.899  26.512  1.00  0.00     0.042 C 
BRANCH  71  72
ATOM     72  C   UNL A   1      31.622  30.389  26.320  1.00  0.00     0.117 C 
BRANCH  72  73
ATOM     73  N   UNL A   1      32.246  30.061  25.050  1.00  0.00    -0.354 N 
ATOM     74  C   UNL A   1      32.989  28.997  24.634  1.00  0.00     0.247 C 
ATOM     75  H   UNL A   1      32.106  30.743  24.354  1.00  0.00     0.163 HD
ATOM     76  O   UNL A   1      33.388  29.066  23.463  1.00  0.00    -0.273 OA
BRANCH  74  77
ATOM     77  C   UNL A   1      33.228  27.716  25.489  1.00  0.00     0.161 C 
ATOM     78  Cl  UNL A   1      34.347  28.262  26.855  1.00  0.00    -0.102 Cl
ATOM     79  C   UNL A   1      32.063  27.108  26.244  1.00  0.00     0.008 C 
ATOM     80  C   UNL A   1      34.009  26.685  24.614  1.00  0.00     0.146 C 
ATOM     81  C   UNL A   1      31.935  25.784  26.424  1.00  0.00    -0.002 C 
ATOM     82  C   UNL A   1      33.956  25.269  25.166  1.00  0.00    -0.020 C 
ATOM     83  Cl  UNL A   1      33.338  26.549  22.923  1.00  0.00    -0.115 Cl
ATOM     84  C   UNL A   1      32.966  24.873  25.988  1.00  0.00     0.006 C 
BRANCH  82  85
ATOM     85  C   UNL A   1      35.034  24.337  24.803  1.00  0.00    -0.021 A 
ATOM     86  C   UNL A   1      36.102  24.115  25.683  1.00  0.00     0.008 A 
ATOM     87  C   UNL A   1      35.006  23.659  23.578  1.00  0.00     0.008 A 
ATOM     88  C   UNL A   1      37.125  23.229  25.343  1.00  0.00     0.001 A 
ATOM     89  C   UNL A   1      36.032  22.774  23.239  1.00  0.00     0.001 A 
ATOM     90  C   UNL A   1      37.090  22.560  24.121  1.00  0.00     0.000 A 
ENDBRANCH  82  85
ENDBRANCH  74  77
ENDBRANCH  72  73
ENDBRANCH  71  72
ENDBRANCH   1  71
TORSDOF 14
ENDMDL
