MODEL 1
REMARK VINA RESULT:     -12.1      0.000      0.000
REMARK SMILES O=C(CN1C(=O)/C(=C\c2c(F)cccc2Cl)Oc2ccccc21)NCCCNC(=O)c1ccc(-c2c3nc(c(-c4cc(S(=O)(=O)[O-])ccc4F)c4ccc([nH]4)c(-c4cc(S(=O)(=O)[O-])ccc4F)c4nc(c(-c5cc(S(=O)(=O)[O-])ccc5F)c5ccc2[nH]5)C=C4)C=C3)cc1
REMARK SMILES IDX 26 1 25 2 24 3 1 4 2 5 3 7 4 8 5 9 23 10 6 11 7 12 18 13
REMARK SMILES IDX 22 14 8 15 17 16 19 17 21 18 20 19 9 20 10 21 15 22 11 23
REMARK SMILES IDX 12 24 14 25 16 26 13 27 27 28 28 29 29 30 30 32 31 33 32 34
REMARK SMILES IDX 93 35 33 36 92 37 34 38 35 39 36 40 86 41 37 42 91 43 85 44
REMARK SMILES IDX 87 45 38 46 90 47 84 48 83 49 39 51 71 52 51 53 70 54 52 55
REMARK SMILES IDX 55 56 69 57 88 58 53 59 54 60 68 62 89 63 56 64 40 65 41 66
REMARK SMILES IDX 49 67 42 68 48 69 50 70 47 71 43 72 44 73 45 74 46 75 72 76
REMARK SMILES IDX 73 77 81 78 74 79 80 80 82 81 79 82 75 83 76 84 77 85 78 86
REMARK SMILES IDX 57 87 58 88 66 89 59 90 65 91 67 92 64 93 60 94 61 95 62 96
REMARK SMILES IDX 63 97
REMARK H PARENT 24 6 28 31 87 50 55 61
REMARK Flexibility Score: inf
ROOT
ATOM      1  C   UNL A   1      39.195  19.866  25.379  1.00  0.00     0.042 C 
ENDROOT
BRANCH   1   2
ATOM      2  C   UNL A   1      38.878  21.326  25.641  1.00  0.00     0.117 C 
BRANCH   2   3
ATOM      3  N   UNL A   1      37.558  21.726  25.202  1.00  0.00    -0.354 N 
ATOM      4  O   UNL A   1      37.673  23.890  25.950  1.00  0.00    -0.273 OA
ATOM      5  C   UNL A   1      37.142  23.039  25.239  1.00  0.00     0.240 C 
ATOM      6  H   UNL A   1      36.939  21.039  24.868  1.00  0.00     0.163 HD
BRANCH   5   7
ATOM      7  C   UNL A   1      35.963  23.391  24.316  1.00  0.00     0.226 C 
BRANCH   7   8
ATOM      8  N   UNL A   1      34.623  23.242  24.902  1.00  0.00    -0.293 N 
ATOM      9  C   UNL A   1      34.062  21.974  24.911  1.00  0.00     0.294 C 
ATOM     10  C   UNL A   1      33.923  24.361  25.434  1.00  0.00     0.088 A 
ATOM     11  O   UNL A   1      34.698  20.981  24.562  1.00  0.00    -0.265 OA
ATOM     12  C   UNL A   1      32.627  21.883  25.362  1.00  0.00     0.193 C 
ATOM     13  C   UNL A   1      32.618  24.189  25.899  1.00  0.00     0.151 A 
ATOM     14  C   UNL A   1      34.469  25.654  25.461  1.00  0.00     0.030 A 
ATOM     15  C   UNL A   1      31.889  20.773  25.169  1.00  0.00     0.065 C 
ATOM     16  O   UNL A   1      31.997  22.971  25.951  1.00  0.00    -0.449 OA
ATOM     17  C   UNL A   1      31.853  25.282  26.316  1.00  0.00     0.049 A 
ATOM     18  C   UNL A   1      33.699  26.752  25.857  1.00  0.00     0.002 A 
ATOM     19  C   UNL A   1      32.387  26.568  26.274  1.00  0.00     0.004 A 
BRANCH  15  20
ATOM     20  C   UNL A   1      32.320  19.573  24.438  1.00  0.00     0.033 A 
ATOM     21  C   UNL A   1      32.810  18.469  25.145  1.00  0.00     0.132 A 
ATOM     22  C   UNL A   1      32.335  19.524  23.035  1.00  0.00     0.051 A 
ATOM     23  F   UNL A   1      32.816  18.475  26.488  1.00  0.00    -0.206 F 
ATOM     24  C   UNL A   1      33.320  17.352  24.485  1.00  0.00     0.040 A 
ATOM     25  C   UNL A   1      32.836  18.401  22.366  1.00  0.00     0.021 A 
ATOM     26  Cl  UNL A   1      31.764  20.847  22.074  1.00  0.00    -0.084 Cl
ATOM     27  C   UNL A   1      33.337  17.319  23.092  1.00  0.00     0.005 A 
ENDBRANCH  15  20
ENDBRANCH   7   8
ENDBRANCH   5   7
ENDBRANCH   2   3
ENDBRANCH   1   2
BRANCH   1  28
ATOM     28  C   UNL A   1      40.085  19.217  26.431  1.00  0.00     0.118 C 
BRANCH  28  29
ATOM     29  N   UNL A   1      41.406  18.842  25.935  1.00  0.00    -0.352 N 
ATOM     30  C   UNL A   1      42.555  19.586  25.791  1.00  0.00     0.251 C 
ATOM     31  H   UNL A   1      41.487  17.900  25.657  1.00  0.00     0.163 HD
ATOM     32  O   UNL A   1      43.530  19.077  25.244  1.00  0.00    -0.269 OA
BRANCH  30  33
ATOM     33  C   UNL A   1      42.609  20.996  26.246  1.00  0.00     0.039 A 
ATOM     34  C   UNL A   1      42.587  22.053  25.338  1.00  0.00     0.014 A 
ATOM     35  C   UNL A   1      42.694  21.265  27.617  1.00  0.00     0.014 A 
ATOM     36  C   UNL A   1      42.854  23.347  25.775  1.00  0.00     0.010 A 
ATOM     37  C   UNL A   1      42.861  22.581  28.064  1.00  0.00     0.010 A 
ATOM     38  C   UNL A   1      43.006  23.628  27.143  1.00  0.00    -0.014 A 
BRANCH  38  39
ATOM     39  C   UNL A   1      43.316  25.019  27.573  1.00  0.00     0.031 A 
ATOM     40  C   UNL A   1      44.671  25.627  27.322  1.00  0.00     0.074 A 
ATOM     41  C   UNL A   1      42.342  25.764  28.136  1.00  0.00     0.049 A 
ATOM     42  N   UNL A   1      45.082  26.846  27.561  1.00  0.00    -0.248 NA
ATOM     43  C   UNL A   1      45.701  24.757  26.731  1.00  0.00     0.031 C 
ATOM     44  C   UNL A   1      40.994  25.283  28.435  1.00  0.00     0.029 A 
ATOM     45  N   UNL A   1      42.321  27.080  28.525  1.00  0.00    -0.354 N 
ATOM     46  C   UNL A   1      46.415  26.888  27.163  1.00  0.00     0.074 A 
ATOM     47  C   UNL A   1      46.756  25.560  26.705  1.00  0.00     0.031 C 
ATOM     48  C   UNL A   1      40.257  26.302  28.898  1.00  0.00     0.029 A 
ATOM     49  C   UNL A   1      41.095  27.495  28.994  1.00  0.00     0.049 A 
ATOM     50  H   UNL A   1      43.107  27.670  28.475  1.00  0.00     0.167 HD
ATOM     51  C   UNL A   1      47.266  27.941  27.159  1.00  0.00     0.034 A 
ATOM     52  C   UNL A   1      40.685  28.697  29.451  1.00  0.00     0.034 A 
ATOM     53  C   UNL A   1      46.910  29.268  27.596  1.00  0.00     0.049 A 
ATOM     54  C   UNL A   1      41.658  29.846  29.457  1.00  0.00     0.074 A 
ATOM     55  C   UNL A   1      47.696  30.406  27.596  1.00  0.00     0.029 A 
ATOM     56  N   UNL A   1      45.672  29.638  28.101  1.00  0.00    -0.354 N 
ATOM     57  N   UNL A   1      42.896  29.879  29.025  1.00  0.00    -0.248 NA
ATOM     58  C   UNL A   1      41.183  31.122  30.011  1.00  0.00     0.031 C 
ATOM     59  C   UNL A   1      46.954  31.451  28.151  1.00  0.00     0.029 A 
ATOM     60  C   UNL A   1      45.683  30.981  28.441  1.00  0.00     0.049 A 
ATOM     61  H   UNL A   1      44.900  29.036  28.203  1.00  0.00     0.167 HD
ATOM     62  C   UNL A   1      43.346  31.178  29.245  1.00  0.00     0.074 A 
ATOM     63  C   UNL A   1      42.234  31.909  29.817  1.00  0.00     0.031 C 
ATOM     64  C   UNL A   1      44.570  31.710  29.003  1.00  0.00     0.034 A 
BRANCH  51  65
ATOM     65  C   UNL A   1      48.672  27.731  26.652  1.00  0.00     0.023 A 
ATOM     66  C   UNL A   1      48.950  27.836  25.276  1.00  0.00     0.031 A 
ATOM     67  C   UNL A   1      49.702  27.304  27.507  1.00  0.00     0.131 A 
ATOM     68  C   UNL A   1      50.219  27.490  24.794  1.00  0.00     0.055 A 
ATOM     69  C   UNL A   1      50.975  26.994  27.027  1.00  0.00     0.041 A 
ATOM     70  F   UNL A   1      49.486  27.186  28.828  1.00  0.00    -0.206 F 
ATOM     71  C   UNL A   1      51.234  27.076  25.662  1.00  0.00     0.022 A 
BRANCH  68  72
ATOM     72  S   UNL A   1      50.587  27.506  23.018  1.00  0.00     0.124 S 
ATOM     73  O   UNL A   1      50.583  28.937  22.724  1.00  0.00    -0.237 OA
ATOM     74  O   UNL A   1      51.898  26.864  22.970  1.00  0.00    -0.237 OA
ATOM     75  O   UNL A   1      49.491  26.748  22.425  1.00  0.00    -0.744 OA
ENDBRANCH  68  72
ENDBRANCH  51  65
BRANCH  52  76
ATOM     76  C   UNL A   1      39.266  28.861  29.884  1.00  0.00     0.023 A 
ATOM     77  C   UNL A   1      38.295  29.374  29.003  1.00  0.00     0.031 A 
ATOM     78  C   UNL A   1      38.888  28.620  31.215  1.00  0.00     0.131 A 
ATOM     79  C   UNL A   1      37.022  29.702  29.484  1.00  0.00     0.055 A 
ATOM     80  C   UNL A   1      37.594  28.879  31.672  1.00  0.00     0.041 A 
ATOM     81  F   UNL A   1      39.782  28.141  32.096  1.00  0.00    -0.206 F 
ATOM     82  C   UNL A   1      36.660  29.442  30.808  1.00  0.00     0.022 A 
BRANCH  79  83
ATOM     83  S   UNL A   1      35.845  30.615  28.447  1.00  0.00     0.124 S 
ATOM     84  O   UNL A   1      35.142  31.432  29.430  1.00  0.00    -0.237 OA
ATOM     85  O   UNL A   1      36.741  31.340  27.548  1.00  0.00    -0.237 OA
ATOM     86  O   UNL A   1      35.055  29.563  27.816  1.00  0.00    -0.744 OA
ENDBRANCH  79  83
ENDBRANCH  52  76
BRANCH  64  87
ATOM     87  C   UNL A   1      44.809  33.157  29.358  1.00  0.00     0.023 A 
ATOM     88  C   UNL A   1      44.722  34.153  28.367  1.00  0.00     0.031 A 
ATOM     89  C   UNL A   1      45.268  33.525  30.635  1.00  0.00     0.131 A 
ATOM     90  C   UNL A   1      45.127  35.462  28.658  1.00  0.00     0.055 A 
ATOM     91  C   UNL A   1      45.628  34.841  30.931  1.00  0.00     0.041 A 
ATOM     92  F   UNL A   1      45.378  32.610  31.610  1.00  0.00    -0.206 F 
ATOM     93  C   UNL A   1      45.571  35.813  29.937  1.00  0.00     0.022 A 
BRANCH  90  94
ATOM     94  S   UNL A   1      45.171  36.739  27.369  1.00  0.00     0.124 S 
ATOM     95  O   UNL A   1      43.752  36.919  27.074  1.00  0.00    -0.237 OA
ATOM     96  O   UNL A   1      45.812  37.853  28.061  1.00  0.00    -0.237 OA
ATOM     97  O   UNL A   1      45.956  36.131  26.299  1.00  0.00    -0.744 OA
ENDBRANCH  90  94
ENDBRANCH  64  87
ENDBRANCH  38  39
ENDBRANCH  30  33
ENDBRANCH  28  29
ENDBRANCH   1  28
TORSDOF 15
ENDMDL
MODEL 2
REMARK VINA RESULT:     -12.0      2.282      8.241
REMARK SMILES O=C(CN1C(=O)/C(=C\c2c(F)cccc2Cl)Oc2ccccc21)NCCCNC(=O)c1ccc(-c2c3nc(c(-c4cc(S(=O)(=O)[O-])ccc4F)c4ccc([nH]4)c(-c4cc(S(=O)(=O)[O-])ccc4F)c4nc(c(-c5cc(S(=O)(=O)[O-])ccc5F)c5ccc2[nH]5)C=C4)C=C3)cc1
REMARK SMILES IDX 26 1 25 2 24 3 1 4 2 5 3 7 4 8 5 9 23 10 6 11 7 12 18 13
REMARK SMILES IDX 22 14 8 15 17 16 19 17 21 18 20 19 9 20 10 21 15 22 11 23
REMARK SMILES IDX 12 24 14 25 16 26 13 27 27 28 28 29 29 30 30 32 31 33 32 34
REMARK SMILES IDX 93 35 33 36 92 37 34 38 35 39 36 40 86 41 37 42 91 43 85 44
REMARK SMILES IDX 87 45 38 46 90 47 84 48 83 49 39 51 71 52 51 53 70 54 52 55
REMARK SMILES IDX 55 56 69 57 88 58 53 59 54 60 68 62 89 63 56 64 40 65 41 66
REMARK SMILES IDX 49 67 42 68 48 69 50 70 47 71 43 72 44 73 45 74 46 75 72 76
REMARK SMILES IDX 73 77 81 78 74 79 80 80 82 81 79 82 75 83 76 84 77 85 78 86
REMARK SMILES IDX 57 87 58 88 66 89 59 90 65 91 67 92 64 93 60 94 61 95 62 96
REMARK SMILES IDX 63 97
REMARK H PARENT 24 6 28 31 87 50 55 61
REMARK Flexibility Score: inf
ROOT
ATOM      1  C   UNL A   1      39.633  21.412  26.784  1.00  0.00     0.042 C 
ENDROOT
BRANCH   1   2
ATOM      2  C   UNL A   1      39.315  22.799  26.259  1.00  0.00     0.117 C 
BRANCH   2   3
ATOM      3  N   UNL A   1      37.933  23.190  26.438  1.00  0.00    -0.354 N 
ATOM      4  O   UNL A   1      37.234  22.681  24.315  1.00  0.00    -0.273 OA
ATOM      5  C   UNL A   1      36.969  22.923  25.490  1.00  0.00     0.240 C 
ATOM      6  H   UNL A   1      37.674  23.661  27.262  1.00  0.00     0.163 HD
BRANCH   5   7
ATOM      7  C   UNL A   1      35.516  22.932  25.996  1.00  0.00     0.226 C 
BRANCH   7   8
ATOM      8  N   UNL A   1      34.476  22.916  24.957  1.00  0.00    -0.293 N 
ATOM      9  C   UNL A   1      34.051  24.135  24.453  1.00  0.00     0.294 C 
ATOM     10  C   UNL A   1      33.918  21.692  24.492  1.00  0.00     0.088 A 
ATOM     11  O   UNL A   1      34.602  25.192  24.759  1.00  0.00    -0.265 OA
ATOM     12  C   UNL A   1      32.871  24.095  23.516  1.00  0.00     0.193 C 
ATOM     13  C   UNL A   1      32.871  21.728  23.570  1.00  0.00     0.151 A 
ATOM     14  C   UNL A   1      34.340  20.439  24.965  1.00  0.00     0.030 A 
ATOM     15  C   UNL A   1      32.198  25.209  23.169  1.00  0.00     0.065 C 
ATOM     16  O   UNL A   1      32.401  22.888  23.017  1.00  0.00    -0.449 OA
ATOM     17  C   UNL A   1      32.215  20.557  23.180  1.00  0.00     0.049 A 
ATOM     18  C   UNL A   1      33.672  19.268  24.594  1.00  0.00     0.002 A 
ATOM     19  C   UNL A   1      32.602  19.328  23.709  1.00  0.00     0.004 A 
BRANCH  15  20
ATOM     20  C   UNL A   1      32.442  26.558  23.700  1.00  0.00     0.033 A 
ATOM     21  C   UNL A   1      33.308  27.425  23.023  1.00  0.00     0.132 A 
ATOM     22  C   UNL A   1      31.894  26.985  24.921  1.00  0.00     0.051 A 
ATOM     23  F   UNL A   1      33.855  27.055  21.855  1.00  0.00    -0.206 F 
ATOM     24  C   UNL A   1      33.640  28.673  23.546  1.00  0.00     0.040 A 
ATOM     25  C   UNL A   1      32.216  28.242  25.446  1.00  0.00     0.021 A 
ATOM     26  Cl  UNL A   1      30.825  25.977  25.839  1.00  0.00    -0.084 Cl
ATOM     27  C   UNL A   1      33.097  29.082  24.763  1.00  0.00     0.005 A 
ENDBRANCH  15  20
ENDBRANCH   7   8
ENDBRANCH   5   7
ENDBRANCH   2   3
ENDBRANCH   1   2
BRANCH   1  28
ATOM     28  C   UNL A   1      39.647  20.324  25.719  1.00  0.00     0.118 C 
BRANCH  28  29
ATOM     29  N   UNL A   1      40.642  19.281  25.955  1.00  0.00    -0.352 N 
ATOM     30  C   UNL A   1      41.986  19.371  26.237  1.00  0.00     0.251 C 
ATOM     31  H   UNL A   1      40.292  18.362  25.904  1.00  0.00     0.163 HD
ATOM     32  O   UNL A   1      42.654  18.341  26.291  1.00  0.00    -0.269 OA
BRANCH  30  33
ATOM     33  C   UNL A   1      42.636  20.690  26.429  1.00  0.00     0.039 A 
ATOM     34  C   UNL A   1      42.870  21.205  27.703  1.00  0.00     0.014 A 
ATOM     35  C   UNL A   1      43.012  21.432  25.303  1.00  0.00     0.014 A 
ATOM     36  C   UNL A   1      43.281  22.526  27.851  1.00  0.00     0.010 A 
ATOM     37  C   UNL A   1      43.522  22.727  25.457  1.00  0.00     0.010 A 
ATOM     38  C   UNL A   1      43.602  23.309  26.730  1.00  0.00    -0.014 A 
BRANCH  38  39
ATOM     39  C   UNL A   1      44.014  24.727  26.923  1.00  0.00     0.031 A 
ATOM     40  C   UNL A   1      43.046  25.753  27.452  1.00  0.00     0.074 A 
ATOM     41  C   UNL A   1      45.295  25.077  26.684  1.00  0.00     0.049 A 
ATOM     42  N   UNL A   1      43.261  27.009  27.752  1.00  0.00    -0.248 NA
ATOM     43  C   UNL A   1      41.656  25.319  27.668  1.00  0.00     0.031 C 
ATOM     44  C   UNL A   1      46.321  24.173  26.165  1.00  0.00     0.029 A 
ATOM     45  N   UNL A   1      45.959  26.263  26.872  1.00  0.00    -0.354 N 
ATOM     46  C   UNL A   1      42.039  27.517  28.180  1.00  0.00     0.074 A 
ATOM     47  C   UNL A   1      41.076  26.446  28.061  1.00  0.00     0.031 C 
ATOM     48  C   UNL A   1      47.497  24.815  26.137  1.00  0.00     0.029 A 
ATOM     49  C   UNL A   1      47.301  26.195  26.572  1.00  0.00     0.049 A 
ATOM     50  H   UNL A   1      45.519  27.084  27.189  1.00  0.00     0.167 HD
ATOM     51  C   UNL A   1      41.753  28.755  28.648  1.00  0.00     0.034 A 
ATOM     52  C   UNL A   1      48.269  27.133  26.637  1.00  0.00     0.034 A 
ATOM     53  C   UNL A   1      42.725  29.810  28.785  1.00  0.00     0.049 A 
ATOM     54  C   UNL A   1      47.920  28.509  27.141  1.00  0.00     0.074 A 
ATOM     55  C   UNL A   1      42.534  31.087  29.283  1.00  0.00     0.029 A 
ATOM     56  N   UNL A   1      44.064  29.715  28.434  1.00  0.00    -0.354 N 
ATOM     57  N   UNL A   1      46.770  28.953  27.592  1.00  0.00    -0.248 NA
ATOM     58  C   UNL A   1      48.993  29.513  27.146  1.00  0.00     0.031 C 
ATOM     59  C   UNL A   1      43.742  31.781  29.182  1.00  0.00     0.029 A 
ATOM     60  C   UNL A   1      44.703  30.919  28.679  1.00  0.00     0.049 A 
ATOM     61  H   UNL A   1      44.495  28.911  28.065  1.00  0.00     0.167 HD
ATOM     62  C   UNL A   1      46.984  30.283  27.944  1.00  0.00     0.074 A 
ATOM     63  C   UNL A   1      48.382  30.560  27.685  1.00  0.00     0.031 C 
ATOM     64  C   UNL A   1      46.099  31.191  28.428  1.00  0.00     0.034 A 
BRANCH  51  65
ATOM     65  C   UNL A   1      40.336  29.056  29.074  1.00  0.00     0.023 A 
ATOM     66  C   UNL A   1      39.967  28.945  30.427  1.00  0.00     0.031 A 
ATOM     67  C   UNL A   1      39.331  29.325  28.130  1.00  0.00     0.131 A 
ATOM     68  C   UNL A   1      38.620  29.075  30.794  1.00  0.00     0.055 A 
ATOM     69  C   UNL A   1      37.996  29.488  28.504  1.00  0.00     0.041 A 
ATOM     70  F   UNL A   1      39.632  29.439  26.826  1.00  0.00    -0.206 F 
ATOM     71  C   UNL A   1      37.635  29.352  29.841  1.00  0.00     0.022 A 
BRANCH  68  72
ATOM     72  S   UNL A   1      38.085  28.831  32.510  1.00  0.00     0.124 S 
ATOM     73  O   UNL A   1      39.064  29.627  33.245  1.00  0.00    -0.237 OA
ATOM     74  O   UNL A   1      36.730  29.374  32.489  1.00  0.00    -0.237 OA
ATOM     75  O   UNL A   1      38.184  27.389  32.708  1.00  0.00    -0.744 OA
ENDBRANCH  68  72
ENDBRANCH  51  65
BRANCH  52  76
ATOM     76  C   UNL A   1      49.664  26.762  26.259  1.00  0.00     0.023 A 
ATOM     77  C   UNL A   1      50.222  27.191  25.041  1.00  0.00     0.031 A 
ATOM     78  C   UNL A   1      50.413  25.878  27.053  1.00  0.00     0.131 A 
ATOM     79  C   UNL A   1      51.453  26.674  24.617  1.00  0.00     0.055 A 
ATOM     80  C   UNL A   1      51.674  25.424  26.662  1.00  0.00     0.041 A 
ATOM     81  F   UNL A   1      49.919  25.432  28.220  1.00  0.00    -0.206 F 
ATOM     82  C   UNL A   1      52.190  25.807  25.427  1.00  0.00     0.022 A 
BRANCH  79  83
ATOM     83  S   UNL A   1      52.064  26.992  22.938  1.00  0.00     0.124 S 
ATOM     84  O   UNL A   1      53.053  25.932  22.768  1.00  0.00    -0.237 OA
ATOM     85  O   UNL A   1      50.845  26.852  22.145  1.00  0.00    -0.237 OA
ATOM     86  O   UNL A   1      52.598  28.348  23.017  1.00  0.00    -0.744 OA
ENDBRANCH  79  83
ENDBRANCH  52  76
BRANCH  64  87
ATOM     87  C   UNL A   1      46.586  32.591  28.710  1.00  0.00     0.023 A 
ATOM     88  C   UNL A   1      46.490  33.587  27.718  1.00  0.00     0.031 A 
ATOM     89  C   UNL A   1      47.277  32.895  29.896  1.00  0.00     0.131 A 
ATOM     90  C   UNL A   1      47.110  34.827  27.916  1.00  0.00     0.055 A 
ATOM     91  C   UNL A   1      47.854  34.148  30.105  1.00  0.00     0.041 A 
ATOM     92  F   UNL A   1      47.404  31.975  30.865  1.00  0.00    -0.206 F 
ATOM     93  C   UNL A   1      47.785  35.116  29.107  1.00  0.00     0.022 A 
BRANCH  90  94
ATOM     94  S   UNL A   1      47.138  36.081  26.605  1.00  0.00     0.124 S 
ATOM     95  O   UNL A   1      45.836  36.723  26.774  1.00  0.00    -0.237 OA
ATOM     96  O   UNL A   1      48.289  36.896  26.982  1.00  0.00    -0.237 OA
ATOM     97  O   UNL A   1      47.293  35.306  25.379  1.00  0.00    -0.744 OA
ENDBRANCH  90  94
ENDBRANCH  64  87
ENDBRANCH  38  39
ENDBRANCH  30  33
ENDBRANCH  28  29
ENDBRANCH   1  28
TORSDOF 15
ENDMDL
MODEL 3
REMARK VINA RESULT:     -12.0      5.975     10.955
REMARK SMILES O=C(CN1C(=O)/C(=C\c2c(F)cccc2Cl)Oc2ccccc21)NCCCNC(=O)c1ccc(-c2c3nc(c(-c4cc(S(=O)(=O)[O-])ccc4F)c4ccc([nH]4)c(-c4cc(S(=O)(=O)[O-])ccc4F)c4nc(c(-c5cc(S(=O)(=O)[O-])ccc5F)c5ccc2[nH]5)C=C4)C=C3)cc1
REMARK SMILES IDX 26 1 25 2 24 3 1 4 2 5 3 7 4 8 5 9 23 10 6 11 7 12 18 13
REMARK SMILES IDX 22 14 8 15 17 16 19 17 21 18 20 19 9 20 10 21 15 22 11 23
REMARK SMILES IDX 12 24 14 25 16 26 13 27 27 28 28 29 29 30 30 32 31 33 32 34
REMARK SMILES IDX 93 35 33 36 92 37 34 38 35 39 36 40 86 41 37 42 91 43 85 44
REMARK SMILES IDX 87 45 38 46 90 47 84 48 83 49 39 51 71 52 51 53 70 54 52 55
REMARK SMILES IDX 55 56 69 57 88 58 53 59 54 60 68 62 89 63 56 64 40 65 41 66
REMARK SMILES IDX 49 67 42 68 48 69 50 70 47 71 43 72 44 73 45 74 46 75 72 76
REMARK SMILES IDX 73 77 81 78 74 79 80 80 82 81 79 82 75 83 76 84 77 85 78 86
REMARK SMILES IDX 57 87 58 88 66 89 59 90 65 91 67 92 64 93 60 94 61 95 62 96
REMARK SMILES IDX 63 97
REMARK H PARENT 24 6 28 31 87 50 55 61
REMARK Flexibility Score: inf
ROOT
ATOM      1  C   UNL A   1      32.286  32.202  27.486  1.00  0.00     0.042 C 
ENDROOT
BRANCH   1   2
ATOM      2  C   UNL A   1      33.367  31.139  27.534  1.00  0.00     0.117 C 
BRANCH   2   3
ATOM      3  N   UNL A   1      33.463  30.347  26.327  1.00  0.00    -0.354 N 
ATOM      4  O   UNL A   1      31.983  28.715  26.959  1.00  0.00    -0.273 OA
ATOM      5  C   UNL A   1      32.616  29.290  26.076  1.00  0.00     0.240 C 
ATOM      6  H   UNL A   1      34.156  30.570  25.664  1.00  0.00     0.163 HD
BRANCH   5   7
ATOM      7  C   UNL A   1      32.492  28.869  24.602  1.00  0.00     0.226 C 
BRANCH   7   8
ATOM      8  N   UNL A   1      31.310  28.064  24.261  1.00  0.00    -0.293 N 
ATOM      9  C   UNL A   1      31.425  26.685  24.343  1.00  0.00     0.294 C 
ATOM     10  C   UNL A   1      30.092  28.679  23.854  1.00  0.00     0.088 A 
ATOM     11  O   UNL A   1      32.429  26.144  24.803  1.00  0.00    -0.265 OA
ATOM     12  C   UNL A   1      30.255  25.886  23.829  1.00  0.00     0.193 C 
ATOM     13  C   UNL A   1      29.025  27.874  23.455  1.00  0.00     0.151 A 
ATOM     14  C   UNL A   1      29.934  30.072  23.781  1.00  0.00     0.030 A 
ATOM     15  C   UNL A   1      30.341  24.561  23.606  1.00  0.00     0.065 C 
ATOM     16  O   UNL A   1      29.054  26.507  23.515  1.00  0.00    -0.449 OA
ATOM     17  C   UNL A   1      27.856  28.436  22.933  1.00  0.00     0.049 A 
ATOM     18  C   UNL A   1      28.776  30.636  23.239  1.00  0.00     0.002 A 
ATOM     19  C   UNL A   1      27.740  29.818  22.805  1.00  0.00     0.004 A 
BRANCH  15  20
ATOM     20  C   UNL A   1      31.558  23.746  23.733  1.00  0.00     0.033 A 
ATOM     21  C   UNL A   1      32.527  23.784  22.723  1.00  0.00     0.132 A 
ATOM     22  C   UNL A   1      31.749  22.859  24.804  1.00  0.00     0.051 A 
ATOM     23  F   UNL A   1      32.382  24.617  21.680  1.00  0.00    -0.206 F 
ATOM     24  C   UNL A   1      33.645  22.954  22.759  1.00  0.00     0.040 A 
ATOM     25  C   UNL A   1      32.875  22.030  24.851  1.00  0.00     0.021 A 
ATOM     26  Cl  UNL A   1      30.597  22.730  26.093  1.00  0.00    -0.084 Cl
ATOM     27  C   UNL A   1      33.819  22.071  23.824  1.00  0.00     0.005 A 
ENDBRANCH  15  20
ENDBRANCH   7   8
ENDBRANCH   5   7
ENDBRANCH   2   3
ENDBRANCH   1   2
BRANCH   1  28
ATOM     28  C   UNL A   1      32.786  33.592  27.119  1.00  0.00     0.118 C 
BRANCH  28  29
ATOM     29  N   UNL A   1      32.619  34.578  28.184  1.00  0.00    -0.352 N 
ATOM     30  C   UNL A   1      33.317  34.759  29.357  1.00  0.00     0.251 C 
ATOM     31  H   UNL A   1      31.885  35.218  28.038  1.00  0.00     0.163 HD
ATOM     32  O   UNL A   1      32.923  35.600  30.161  1.00  0.00    -0.269 OA
BRANCH  30  33
ATOM     33  C   UNL A   1      34.501  33.925  29.673  1.00  0.00     0.039 A 
ATOM     34  C   UNL A   1      34.403  32.805  30.496  1.00  0.00     0.014 A 
ATOM     35  C   UNL A   1      35.745  34.281  29.137  1.00  0.00     0.014 A 
ATOM     36  C   UNL A   1      35.557  32.172  30.947  1.00  0.00     0.010 A 
ATOM     37  C   UNL A   1      36.896  33.579  29.512  1.00  0.00     0.010 A 
ATOM     38  C   UNL A   1      36.821  32.557  30.469  1.00  0.00    -0.014 A 
BRANCH  38  39
ATOM     39  C   UNL A   1      38.038  31.875  30.991  1.00  0.00     0.031 A 
ATOM     40  C   UNL A   1      38.535  32.135  32.389  1.00  0.00     0.074 A 
ATOM     41  C   UNL A   1      38.659  30.960  30.219  1.00  0.00     0.049 A 
ATOM     42  N   UNL A   1      39.529  31.570  33.026  1.00  0.00    -0.248 NA
ATOM     43  C   UNL A   1      37.833  33.164  33.174  1.00  0.00     0.031 C 
ATOM     44  C   UNL A   1      38.274  30.628  28.848  1.00  0.00     0.029 A 
ATOM     45  N   UNL A   1      39.716  30.125  30.479  1.00  0.00    -0.354 N 
ATOM     46  C   UNL A   1      39.580  32.178  34.277  1.00  0.00     0.074 A 
ATOM     47  C   UNL A   1      38.543  33.185  34.294  1.00  0.00     0.031 C 
ATOM     48  C   UNL A   1      39.036  29.617  28.410  1.00  0.00     0.029 A 
ATOM     49  C   UNL A   1      40.011  29.271  29.441  1.00  0.00     0.049 A 
ATOM     50  H   UNL A   1      40.217  30.136  31.326  1.00  0.00     0.167 HD
ATOM     51  C   UNL A   1      40.401  31.907  35.319  1.00  0.00     0.034 A 
ATOM     52  C   UNL A   1      40.957  28.315  29.325  1.00  0.00     0.034 A 
ATOM     53  C   UNL A   1      41.416  30.884  35.300  1.00  0.00     0.049 A 
ATOM     54  C   UNL A   1      41.872  28.048  30.491  1.00  0.00     0.074 A 
ATOM     55  C   UNL A   1      42.272  30.514  36.322  1.00  0.00     0.029 A 
ATOM     56  N   UNL A   1      41.710  30.068  34.217  1.00  0.00    -0.354 N 
ATOM     57  N   UNL A   1      41.867  28.596  31.683  1.00  0.00    -0.248 NA
ATOM     58  C   UNL A   1      42.919  27.034  30.302  1.00  0.00     0.031 C 
ATOM     59  C   UNL A   1      43.120  29.513  35.841  1.00  0.00     0.029 A 
ATOM     60  C   UNL A   1      42.753  29.214  34.539  1.00  0.00     0.049 A 
ATOM     61  H   UNL A   1      41.247  30.092  33.349  1.00  0.00     0.167 HD
ATOM     62  C   UNL A   1      42.902  27.988  32.389  1.00  0.00     0.074 A 
ATOM     63  C   UNL A   1      43.488  27.006  31.500  1.00  0.00     0.031 C 
ATOM     64  C   UNL A   1      43.331  28.230  33.653  1.00  0.00     0.034 A 
BRANCH  51  65
ATOM     65  C   UNL A   1      40.240  32.703  36.591  1.00  0.00     0.023 A 
ATOM     66  C   UNL A   1      39.273  32.327  37.543  1.00  0.00     0.031 A 
ATOM     67  C   UNL A   1      40.948  33.898  36.799  1.00  0.00     0.131 A 
ATOM     68  C   UNL A   1      39.023  33.155  38.645  1.00  0.00     0.055 A 
ATOM     69  C   UNL A   1      40.721  34.702  37.917  1.00  0.00     0.041 A 
ATOM     70  F   UNL A   1      41.880  34.301  35.920  1.00  0.00    -0.206 F 
ATOM     71  C   UNL A   1      39.746  34.337  38.841  1.00  0.00     0.022 A 
BRANCH  68  72
ATOM     72  S   UNL A   1      37.712  32.765  39.836  1.00  0.00     0.124 S 
ATOM     73  O   UNL A   1      37.747  33.933  40.713  1.00  0.00    -0.237 OA
ATOM     74  O   UNL A   1      36.536  32.666  38.976  1.00  0.00    -0.237 OA
ATOM     75  O   UNL A   1      38.153  31.516  40.449  1.00  0.00    -0.744 OA
ENDBRANCH  68  72
ENDBRANCH  51  65
BRANCH  52  76
ATOM     76  C   UNL A   1      41.031  27.519  28.065  1.00  0.00     0.023 A 
ATOM     77  C   UNL A   1      40.629  26.170  28.037  1.00  0.00     0.031 A 
ATOM     78  C   UNL A   1      41.612  28.058  26.906  1.00  0.00     0.131 A 
ATOM     79  C   UNL A   1      40.888  25.389  26.903  1.00  0.00     0.055 A 
ATOM     80  C   UNL A   1      41.799  27.295  25.751  1.00  0.00     0.041 A 
ATOM     81  F   UNL A   1      42.021  29.337  26.886  1.00  0.00    -0.206 F 
ATOM     82  C   UNL A   1      41.454  25.947  25.755  1.00  0.00     0.022 A 
BRANCH  79  83
ATOM     83  S   UNL A   1      40.635  23.592  26.938  1.00  0.00     0.124 S 
ATOM     84  O   UNL A   1      41.576  23.133  25.921  1.00  0.00    -0.237 OA
ATOM     85  O   UNL A   1      40.989  23.268  28.318  1.00  0.00    -0.237 OA
ATOM     86  O   UNL A   1      39.222  23.437  26.609  1.00  0.00    -0.744 OA
ENDBRANCH  79  83
ENDBRANCH  52  76
BRANCH  64  87
ATOM     87  C   UNL A   1      44.503  27.440  34.180  1.00  0.00     0.023 A 
ATOM     88  C   UNL A   1      44.288  26.244  34.893  1.00  0.00     0.031 A 
ATOM     89  C   UNL A   1      45.812  27.946  34.108  1.00  0.00     0.131 A 
ATOM     90  C   UNL A   1      45.360  25.616  35.538  1.00  0.00     0.055 A 
ATOM     91  C   UNL A   1      46.884  27.291  34.716  1.00  0.00     0.041 A 
ATOM     92  F   UNL A   1      46.066  29.087  33.449  1.00  0.00    -0.206 F 
ATOM     93  C   UNL A   1      46.658  26.129  35.447  1.00  0.00     0.022 A 
BRANCH  90  94
ATOM     94  S   UNL A   1      45.100  24.159  36.589  1.00  0.00     0.124 S 
ATOM     95  O   UNL A   1      44.536  24.756  37.797  1.00  0.00    -0.237 OA
ATOM     96  O   UNL A   1      44.168  23.367  35.791  1.00  0.00    -0.237 OA
ATOM     97  O   UNL A   1      46.435  23.592  36.741  1.00  0.00    -0.744 OA
ENDBRANCH  90  94
ENDBRANCH  64  87
ENDBRANCH  38  39
ENDBRANCH  30  33
ENDBRANCH  28  29
ENDBRANCH   1  28
TORSDOF 15
ENDMDL
