MODEL 1
REMARK VINA RESULT:     -12.7      0.000      0.000
REMARK SMILES O=C(NCCCNC(=O)c1cccc(OS(=O)(=O)c2cccc([N+](=O)[O-])c2)c1)c1ccc(-c2c3nc(c(-c4cc(S(=O)(=O)[O-])ccc4F)c4ccc([nH]4)c(-c4cc(S(=O)(=O)[O-])ccc4F)c4nc(c(-c5cc(S(=O)(=O)[O-])ccc5F)c5ccc2[nH]5)C=C4)C=C3)cc1
REMARK SMILES IDX 5 1 4 2 3 3 1 4 2 5 29 7 30 8 91 9 31 10 90 11 32 12 33 13
REMARK SMILES IDX 34 14 84 15 35 16 89 17 83 18 85 19 36 20 88 21 82 22 81 23
REMARK SMILES IDX 37 25 69 26 49 27 68 28 50 29 53 30 67 31 86 32 51 33 52 34
REMARK SMILES IDX 66 36 87 37 54 38 38 39 39 40 47 41 40 42 46 43 48 44 45 45
REMARK SMILES IDX 41 46 42 47 43 48 44 49 70 50 71 51 79 52 72 53 78 54 80 55
REMARK SMILES IDX 77 56 73 57 74 58 75 59 76 60 55 61 56 62 64 63 57 64 63 65
REMARK SMILES IDX 65 66 62 67 58 68 59 69 60 70 61 71 6 72 7 73 8 74 9 76
REMARK SMILES IDX 10 77 11 78 28 79 12 80 14 81 13 82 15 83 16 84 17 85 18 86
REMARK SMILES IDX 19 87 20 88 27 89 21 90 23 91 22 92 24 93 25 94 26 95
REMARK H PARENT 3 6 85 24 53 35 7 75
REMARK Flexibility Score: inf
ROOT
ATOM      1  C   UNL A   1      31.557  32.437  26.557  1.00  0.00     0.042 C 
ENDROOT
BRANCH   1   2
ATOM      2  C   UNL A   1      32.780  32.985  27.274  1.00  0.00     0.118 C 
BRANCH   2   3
ATOM      3  N   UNL A   1      32.553  34.301  27.857  1.00  0.00    -0.352 N 
ATOM      4  O   UNL A   1      32.702  35.958  29.372  1.00  0.00    -0.269 OA
ATOM      5  C   UNL A   1      33.154  34.902  28.936  1.00  0.00     0.251 C 
ATOM      6  H   UNL A   1      31.863  34.842  27.410  1.00  0.00     0.163 HD
BRANCH   5   7
ATOM      7  C   UNL A   1      34.327  34.274  29.583  1.00  0.00     0.039 A 
ATOM      8  C   UNL A   1      34.177  33.425  30.682  1.00  0.00     0.014 A 
ATOM      9  C   UNL A   1      35.600  34.524  29.062  1.00  0.00     0.014 A 
ATOM     10  C   UNL A   1      35.300  32.945  31.350  1.00  0.00     0.010 A 
ATOM     11  C   UNL A   1      36.722  33.965  29.678  1.00  0.00     0.010 A 
ATOM     12  C   UNL A   1      36.583  33.194  30.844  1.00  0.00    -0.014 A 
BRANCH  12  13
ATOM     13  C   UNL A   1      37.776  32.609  31.507  1.00  0.00     0.031 A 
ATOM     14  C   UNL A   1      38.515  31.463  30.877  1.00  0.00     0.074 A 
ATOM     15  C   UNL A   1      38.170  33.093  32.700  1.00  0.00     0.049 A 
ATOM     16  N   UNL A   1      39.495  30.743  31.360  1.00  0.00    -0.248 NA
ATOM     17  C   UNL A   1      38.080  31.065  29.531  1.00  0.00     0.031 C 
ATOM     18  C   UNL A   1      37.538  34.212  33.401  1.00  0.00     0.029 A 
ATOM     19  N   UNL A   1      39.178  32.699  33.542  1.00  0.00    -0.354 N 
ATOM     20  C   UNL A   1      39.782  29.790  30.389  1.00  0.00     0.074 A 
ATOM     21  C   UNL A   1      38.841  30.003  29.307  1.00  0.00     0.031 C 
ATOM     22  C   UNL A   1      38.175  34.418  34.562  1.00  0.00     0.029 A 
ATOM     23  C   UNL A   1      39.204  33.398  34.726  1.00  0.00     0.049 A 
ATOM     24  H   UNL A   1      39.821  31.987  33.320  1.00  0.00     0.167 HD
ATOM     25  C   UNL A   1      40.743  28.830  30.403  1.00  0.00     0.034 A 
ATOM     26  C   UNL A   1      39.933  33.209  35.843  1.00  0.00     0.034 A 
ATOM     27  C   UNL A   1      41.655  28.630  31.506  1.00  0.00     0.049 A 
ATOM     28  C   UNL A   1      40.937  32.090  35.878  1.00  0.00     0.074 A 
ATOM     29  C   UNL A   1      42.686  27.713  31.616  1.00  0.00     0.029 A 
ATOM     30  N   UNL A   1      41.633  29.342  32.700  1.00  0.00    -0.354 N 
ATOM     31  N   UNL A   1      41.207  31.199  34.951  1.00  0.00    -0.248 NA
ATOM     32  C   UNL A   1      41.735  31.950  37.100  1.00  0.00     0.031 C 
ATOM     33  C   UNL A   1      43.221  27.807  32.905  1.00  0.00     0.029 A 
ATOM     34  C   UNL A   1      42.601  28.855  33.566  1.00  0.00     0.049 A 
ATOM     35  H   UNL A   1      41.019  30.085  32.902  1.00  0.00     0.167 HD
ATOM     36  C   UNL A   1      42.234  30.414  35.466  1.00  0.00     0.074 A 
ATOM     37  C   UNL A   1      42.528  30.933  36.788  1.00  0.00     0.031 C 
ATOM     38  C   UNL A   1      42.885  29.373  34.888  1.00  0.00     0.034 A 
BRANCH  25  39
ATOM     39  C   UNL A   1      40.800  27.887  29.220  1.00  0.00     0.023 A 
ATOM     40  C   UNL A   1      41.760  28.028  28.203  1.00  0.00     0.031 A 
ATOM     41  C   UNL A   1      39.840  26.869  29.075  1.00  0.00     0.131 A 
ATOM     42  C   UNL A   1      41.673  27.244  27.042  1.00  0.00     0.055 A 
ATOM     43  C   UNL A   1      39.823  26.022  27.964  1.00  0.00     0.041 A 
ATOM     44  F   UNL A   1      38.882  26.693  29.999  1.00  0.00    -0.206 F 
ATOM     45  C   UNL A   1      40.728  26.223  26.927  1.00  0.00     0.022 A 
BRANCH  42  46
ATOM     46  S   UNL A   1      42.678  27.716  25.606  1.00  0.00     0.124 S 
ATOM     47  O   UNL A   1      41.908  28.832  25.059  1.00  0.00    -0.237 OA
ATOM     48  O   UNL A   1      43.957  28.060  26.214  1.00  0.00    -0.237 OA
ATOM     49  O   UNL A   1      42.682  26.511  24.778  1.00  0.00    -0.744 OA
ENDBRANCH  42  46
ENDBRANCH  25  39
BRANCH  26  50
ATOM     50  C   UNL A   1      39.687  34.075  37.030  1.00  0.00     0.023 A 
ATOM     51  C   UNL A   1      39.053  33.578  38.178  1.00  0.00     0.031 A 
ATOM     52  C   UNL A   1      40.114  35.417  37.037  1.00  0.00     0.131 A 
ATOM     53  C   UNL A   1      38.846  34.424  39.279  1.00  0.00     0.055 A 
ATOM     54  C   UNL A   1      39.952  36.238  38.152  1.00  0.00     0.041 A 
ATOM     55  F   UNL A   1      40.731  35.938  35.965  1.00  0.00    -0.206 F 
ATOM     56  C   UNL A   1      39.308  35.744  39.282  1.00  0.00     0.022 A 
BRANCH  53  57
ATOM     57  S   UNL A   1      37.913  33.790  40.698  1.00  0.00     0.124 S 
ATOM     58  O   UNL A   1      37.547  35.022  41.387  1.00  0.00    -0.237 OA
ATOM     59  O   UNL A   1      36.823  33.069  40.048  1.00  0.00    -0.237 OA
ATOM     60  O   UNL A   1      38.883  32.949  41.396  1.00  0.00    -0.744 OA
ENDBRANCH  53  57
ENDBRANCH  26  50
BRANCH  38  61
ATOM     61  C   UNL A   1      44.037  28.761  35.646  1.00  0.00     0.023 A 
ATOM     62  C   UNL A   1      43.869  27.684  36.532  1.00  0.00     0.031 A 
ATOM     63  C   UNL A   1      45.340  29.250  35.439  1.00  0.00     0.131 A 
ATOM     64  C   UNL A   1      44.985  27.148  37.197  1.00  0.00     0.055 A 
ATOM     65  C   UNL A   1      46.452  28.677  36.057  1.00  0.00     0.041 A 
ATOM     66  F   UNL A   1      45.557  30.285  34.609  1.00  0.00    -0.206 F 
ATOM     67  C   UNL A   1      46.276  27.623  36.947  1.00  0.00     0.022 A 
BRANCH  64  68
ATOM     68  S   UNL A   1      44.728  25.855  38.444  1.00  0.00     0.124 S 
ATOM     69  O   UNL A   1      44.095  26.601  39.527  1.00  0.00    -0.237 OA
ATOM     70  O   UNL A   1      43.875  24.905  37.740  1.00  0.00    -0.237 OA
ATOM     71  O   UNL A   1      46.081  25.379  38.729  1.00  0.00    -0.744 OA
ENDBRANCH  64  68
ENDBRANCH  38  61
ENDBRANCH  12  13
ENDBRANCH   5   7
ENDBRANCH   2   3
ENDBRANCH   1   2
BRANCH   1  72
ATOM     72  C   UNL A   1      31.644  30.959  26.215  1.00  0.00     0.118 C 
BRANCH  72  73
ATOM     73  N   UNL A   1      30.867  30.605  25.029  1.00  0.00    -0.352 N 
ATOM     74  C   UNL A   1      30.940  29.489  24.232  1.00  0.00     0.251 C 
ATOM     75  H   UNL A   1      30.188  31.267  24.762  1.00  0.00     0.163 HD
ATOM     76  O   UNL A   1      30.323  29.435  23.173  1.00  0.00    -0.269 OA
BRANCH  74  77
ATOM     77  C   UNL A   1      31.760  28.338  24.662  1.00  0.00     0.043 A 
ATOM     78  C   UNL A   1      33.100  28.253  24.284  1.00  0.00     0.014 A 
ATOM     79  C   UNL A   1      31.181  27.334  25.439  1.00  0.00     0.062 A 
ATOM     80  C   UNL A   1      33.875  27.193  24.755  1.00  0.00     0.005 A 
ATOM     81  C   UNL A   1      31.967  26.317  25.971  1.00  0.00     0.143 A 
ATOM     82  C   UNL A   1      33.315  26.240  25.614  1.00  0.00     0.048 A 
BRANCH  81  83
ATOM     83  O   UNL A   1      31.496  25.372  26.850  1.00  0.00    -0.379 OA
BRANCH  83  84
ATOM     84  S   UNL A   1      30.691  24.054  26.306  1.00  0.00     0.339 S 
ATOM     85  O   UNL A   1      29.712  23.648  27.294  1.00  0.00    -0.181 OA
ATOM     86  O   UNL A   1      30.298  24.277  24.925  1.00  0.00    -0.181 OA
BRANCH  84  87
ATOM     87  C   UNL A   1      31.945  22.795  26.251  1.00  0.00     0.112 A 
ATOM     88  C   UNL A   1      33.079  22.897  27.063  1.00  0.00     0.024 A 
ATOM     89  C   UNL A   1      31.726  21.669  25.452  1.00  0.00     0.109 A 
ATOM     90  C   UNL A   1      34.020  21.865  27.060  1.00  0.00     0.009 A 
ATOM     91  C   UNL A   1      32.674  20.642  25.461  1.00  0.00     0.270 A 
ATOM     92  C   UNL A   1      33.822  20.737  26.260  1.00  0.00     0.086 A 
BRANCH  91  93
ATOM     93  N   UNL A   1      32.457  19.451  24.630  1.00  0.00     0.062 N 
ATOM     94  O   UNL A   1      32.645  19.556  23.410  1.00  0.00    -0.258 OA
ATOM     95  O   UNL A   1      32.088  18.413  25.197  1.00  0.00    -0.258 OA
ENDBRANCH  91  93
ENDBRANCH  84  87
ENDBRANCH  83  84
ENDBRANCH  81  83
ENDBRANCH  74  77
ENDBRANCH  72  73
ENDBRANCH   1  72
TORSDOF 17
ENDMDL
MODEL 2
REMARK VINA RESULT:     -12.5      1.952      2.396
REMARK SMILES O=C(NCCCNC(=O)c1cccc(OS(=O)(=O)c2cccc([N+](=O)[O-])c2)c1)c1ccc(-c2c3nc(c(-c4cc(S(=O)(=O)[O-])ccc4F)c4ccc([nH]4)c(-c4cc(S(=O)(=O)[O-])ccc4F)c4nc(c(-c5cc(S(=O)(=O)[O-])ccc5F)c5ccc2[nH]5)C=C4)C=C3)cc1
REMARK SMILES IDX 5 1 4 2 3 3 1 4 2 5 29 7 30 8 91 9 31 10 90 11 32 12 33 13
REMARK SMILES IDX 34 14 84 15 35 16 89 17 83 18 85 19 36 20 88 21 82 22 81 23
REMARK SMILES IDX 37 25 69 26 49 27 68 28 50 29 53 30 67 31 86 32 51 33 52 34
REMARK SMILES IDX 66 36 87 37 54 38 38 39 39 40 47 41 40 42 46 43 48 44 45 45
REMARK SMILES IDX 41 46 42 47 43 48 44 49 70 50 71 51 79 52 72 53 78 54 80 55
REMARK SMILES IDX 77 56 73 57 74 58 75 59 76 60 55 61 56 62 64 63 57 64 63 65
REMARK SMILES IDX 65 66 62 67 58 68 59 69 60 70 61 71 6 72 7 73 8 74 9 76
REMARK SMILES IDX 10 77 11 78 28 79 12 80 14 81 13 82 15 83 16 84 17 85 18 86
REMARK SMILES IDX 19 87 20 88 27 89 21 90 23 91 22 92 24 93 25 94 26 95
REMARK H PARENT 3 6 85 24 53 35 7 75
REMARK Flexibility Score: inf
ROOT
ATOM      1  C   UNL A   1      31.403  32.003  26.505  1.00  0.00     0.042 C 
ENDROOT
BRANCH   1   2
ATOM      2  C   UNL A   1      32.713  32.557  27.044  1.00  0.00     0.118 C 
BRANCH   2   3
ATOM      3  N   UNL A   1      32.565  33.875  27.646  1.00  0.00    -0.352 N 
ATOM      4  O   UNL A   1      32.866  35.519  29.153  1.00  0.00    -0.269 OA
ATOM      5  C   UNL A   1      33.257  34.453  28.683  1.00  0.00     0.251 C 
ATOM      6  H   UNL A   1      31.862  34.438  27.249  1.00  0.00     0.163 HD
BRANCH   5   7
ATOM      7  C   UNL A   1      34.452  33.788  29.245  1.00  0.00     0.039 A 
ATOM      8  C   UNL A   1      34.332  32.706  30.122  1.00  0.00     0.014 A 
ATOM      9  C   UNL A   1      35.718  34.243  28.867  1.00  0.00     0.014 A 
ATOM     10  C   UNL A   1      35.464  32.177  30.734  1.00  0.00     0.010 A 
ATOM     11  C   UNL A   1      36.859  33.647  29.411  1.00  0.00     0.010 A 
ATOM     12  C   UNL A   1      36.740  32.628  30.371  1.00  0.00    -0.014 A 
BRANCH  12  13
ATOM     13  C   UNL A   1      37.952  32.002  30.959  1.00  0.00     0.031 A 
ATOM     14  C   UNL A   1      38.717  30.957  30.200  1.00  0.00     0.074 A 
ATOM     15  C   UNL A   1      38.339  32.356  32.199  1.00  0.00     0.049 A 
ATOM     16  N   UNL A   1      39.718  30.212  30.594  1.00  0.00    -0.248 NA
ATOM     17  C   UNL A   1      38.286  30.705  28.819  1.00  0.00     0.031 C 
ATOM     18  C   UNL A   1      37.682  33.370  33.026  1.00  0.00     0.029 A 
ATOM     19  N   UNL A   1      39.362  31.895  32.988  1.00  0.00    -0.354 N 
ATOM     20  C   UNL A   1      40.024  29.385  29.520  1.00  0.00     0.074 A 
ATOM     21  C   UNL A   1      39.072  29.696  28.472  1.00  0.00     0.031 C 
ATOM     22  C   UNL A   1      38.319  33.458  34.201  1.00  0.00     0.029 A 
ATOM     23  C   UNL A   1      39.376  32.454  34.245  1.00  0.00     0.049 A 
ATOM     24  H   UNL A   1      40.022  31.231  32.684  1.00  0.00     0.167 HD
ATOM     25  C   UNL A   1      41.010  28.455  29.421  1.00  0.00     0.034 A 
ATOM     26  C   UNL A   1      40.115  32.157  35.331  1.00  0.00     0.034 A 
ATOM     27  C   UNL A   1      41.933  28.155  30.491  1.00  0.00     0.049 A 
ATOM     28  C   UNL A   1      41.148  31.068  35.234  1.00  0.00     0.074 A 
ATOM     29  C   UNL A   1      42.989  27.258  30.492  1.00  0.00     0.029 A 
ATOM     30  N   UNL A   1      41.899  28.724  31.759  1.00  0.00    -0.354 N 
ATOM     31  N   UNL A   1      41.437  30.298  34.210  1.00  0.00    -0.248 NA
ATOM     32  C   UNL A   1      41.957  30.809  36.430  1.00  0.00     0.031 C 
ATOM     33  C   UNL A   1      43.528  27.218  31.783  1.00  0.00     0.029 A 
ATOM     34  C   UNL A   1      42.884  28.166  32.561  1.00  0.00     0.049 A 
ATOM     35  H   UNL A   1      41.267  29.422  32.047  1.00  0.00     0.167 HD
ATOM     36  C   UNL A   1      42.487  29.486  34.630  1.00  0.00     0.074 A 
ATOM     37  C   UNL A   1      42.774  29.857  36.001  1.00  0.00     0.031 C 
ATOM     38  C   UNL A   1      43.161  28.536  33.933  1.00  0.00     0.034 A 
BRANCH  25  39
ATOM     39  C   UNL A   1      41.085  27.657  28.137  1.00  0.00     0.023 A 
ATOM     40  C   UNL A   1      40.694  26.307  28.077  1.00  0.00     0.031 A 
ATOM     41  C   UNL A   1      41.614  28.236  26.969  1.00  0.00     0.131 A 
ATOM     42  C   UNL A   1      40.940  25.556  26.917  1.00  0.00     0.055 A 
ATOM     43  C   UNL A   1      41.759  27.509  25.785  1.00  0.00     0.041 A 
ATOM     44  F   UNL A   1      42.026  29.513  26.964  1.00  0.00    -0.206 F 
ATOM     45  C   UNL A   1      41.443  26.154  25.760  1.00  0.00     0.022 A 
BRANCH  42  46
ATOM     46  S   UNL A   1      40.783  23.750  27.011  1.00  0.00     0.124 S 
ATOM     47  O   UNL A   1      41.689  23.319  25.948  1.00  0.00    -0.237 OA
ATOM     48  O   UNL A   1      41.215  23.465  28.373  1.00  0.00    -0.237 OA
ATOM     49  O   UNL A   1      39.366  23.514  26.740  1.00  0.00    -0.744 OA
ENDBRANCH  42  46
ENDBRANCH  25  39
BRANCH  26  50
ATOM     50  C   UNL A   1      39.853  32.874  36.610  1.00  0.00     0.023 A 
ATOM     51  C   UNL A   1      38.906  32.402  37.530  1.00  0.00     0.031 A 
ATOM     52  C   UNL A   1      40.576  34.036  36.939  1.00  0.00     0.131 A 
ATOM     53  C   UNL A   1      38.693  33.102  38.729  1.00  0.00     0.055 A 
ATOM     54  C   UNL A   1      40.398  34.698  38.153  1.00  0.00     0.041 A 
ATOM     55  F   UNL A   1      41.498  34.524  36.094  1.00  0.00    -0.206 F 
ATOM     56  C   UNL A   1      39.445  34.235  39.055  1.00  0.00     0.022 A 
BRANCH  53  57
ATOM     57  S   UNL A   1      37.375  32.541  39.840  1.00  0.00     0.124 S 
ATOM     58  O   UNL A   1      37.199  33.704  40.702  1.00  0.00    -0.237 OA
ATOM     59  O   UNL A   1      36.289  32.261  38.907  1.00  0.00    -0.237 OA
ATOM     60  O   UNL A   1      37.954  31.366  40.489  1.00  0.00    -0.744 OA
ENDBRANCH  53  57
ENDBRANCH  26  50
BRANCH  38  61
ATOM     61  C   UNL A   1      44.333  27.872  34.613  1.00  0.00     0.023 A 
ATOM     62  C   UNL A   1      44.201  26.686  35.356  1.00  0.00     0.031 A 
ATOM     63  C   UNL A   1      45.619  28.426  34.475  1.00  0.00     0.131 A 
ATOM     64  C   UNL A   1      45.334  26.108  35.953  1.00  0.00     0.055 A 
ATOM     65  C   UNL A   1      46.749  27.817  35.021  1.00  0.00     0.041 A 
ATOM     66  F   UNL A   1      45.801  29.564  33.783  1.00  0.00    -0.206 F 
ATOM     67  C   UNL A   1      46.608  26.653  35.771  1.00  0.00     0.022 A 
BRANCH  64  68
ATOM     68  S   UNL A   1      45.120  24.660  37.025  1.00  0.00     0.124 S 
ATOM     69  O   UNL A   1      46.478  24.443  37.515  1.00  0.00    -0.237 OA
ATOM     70  O   UNL A   1      44.156  25.138  38.009  1.00  0.00    -0.237 OA
ATOM     71  O   UNL A   1      44.618  23.631  36.117  1.00  0.00    -0.744 OA
ENDBRANCH  64  68
ENDBRANCH  38  61
ENDBRANCH  12  13
ENDBRANCH   5   7
ENDBRANCH   2   3
ENDBRANCH   1   2
BRANCH   1  72
ATOM     72  C   UNL A   1      31.408  30.500  26.278  1.00  0.00     0.118 C 
BRANCH  72  73
ATOM     73  N   UNL A   1      32.351  30.088  25.240  1.00  0.00    -0.352 N 
ATOM     74  C   UNL A   1      32.455  28.891  24.573  1.00  0.00     0.251 C 
ATOM     75  H   UNL A   1      33.010  30.771  24.979  1.00  0.00     0.163 HD
ATOM     76  O   UNL A   1      33.418  28.661  23.849  1.00  0.00    -0.269 OA
BRANCH  74  77
ATOM     77  C   UNL A   1      31.390  27.879  24.721  1.00  0.00     0.043 A 
ATOM     78  C   UNL A   1      30.360  27.803  23.784  1.00  0.00     0.014 A 
ATOM     79  C   UNL A   1      31.418  27.007  25.811  1.00  0.00     0.062 A 
ATOM     80  C   UNL A   1      29.401  26.797  23.904  1.00  0.00     0.005 A 
ATOM     81  C   UNL A   1      30.508  25.958  25.894  1.00  0.00     0.143 A 
ATOM     82  C   UNL A   1      29.488  25.864  24.945  1.00  0.00     0.048 A 
BRANCH  81  83
ATOM     83  O   UNL A   1      30.556  24.984  26.861  1.00  0.00    -0.379 OA
BRANCH  83  84
ATOM     84  S   UNL A   1      31.277  23.545  26.560  1.00  0.00     0.339 S 
ATOM     85  O   UNL A   1      31.784  22.994  27.801  1.00  0.00    -0.181 OA
ATOM     86  O   UNL A   1      30.415  22.754  25.698  1.00  0.00    -0.181 OA
BRANCH  84  87
ATOM     87  C   UNL A   1      32.681  23.984  25.562  1.00  0.00     0.112 A 
ATOM     88  C   UNL A   1      33.931  24.183  26.156  1.00  0.00     0.024 A 
ATOM     89  C   UNL A   1      32.522  24.036  24.173  1.00  0.00     0.109 A 
ATOM     90  C   UNL A   1      35.038  24.458  25.349  1.00  0.00     0.009 A 
ATOM     91  C   UNL A   1      33.639  24.309  23.378  1.00  0.00     0.270 A 
ATOM     92  C   UNL A   1      34.896  24.524  23.961  1.00  0.00     0.086 A 
BRANCH  91  93
ATOM     93  N   UNL A   1      33.491  24.364  21.918  1.00  0.00     0.062 N 
ATOM     94  O   UNL A   1      33.441  25.481  21.384  1.00  0.00    -0.258 OA
ATOM     95  O   UNL A   1      33.412  23.288  21.307  1.00  0.00    -0.258 OA
ENDBRANCH  91  93
ENDBRANCH  84  87
ENDBRANCH  83  84
ENDBRANCH  81  83
ENDBRANCH  74  77
ENDBRANCH  72  73
ENDBRANCH   1  72
TORSDOF 17
ENDMDL
MODEL 3
REMARK VINA RESULT:     -12.5      6.382     11.676
REMARK SMILES O=C(NCCCNC(=O)c1cccc(OS(=O)(=O)c2cccc([N+](=O)[O-])c2)c1)c1ccc(-c2c3nc(c(-c4cc(S(=O)(=O)[O-])ccc4F)c4ccc([nH]4)c(-c4cc(S(=O)(=O)[O-])ccc4F)c4nc(c(-c5cc(S(=O)(=O)[O-])ccc5F)c5ccc2[nH]5)C=C4)C=C3)cc1
REMARK SMILES IDX 5 1 4 2 3 3 1 4 2 5 29 7 30 8 91 9 31 10 90 11 32 12 33 13
REMARK SMILES IDX 34 14 84 15 35 16 89 17 83 18 85 19 36 20 88 21 82 22 81 23
REMARK SMILES IDX 37 25 69 26 49 27 68 28 50 29 53 30 67 31 86 32 51 33 52 34
REMARK SMILES IDX 66 36 87 37 54 38 38 39 39 40 47 41 40 42 46 43 48 44 45 45
REMARK SMILES IDX 41 46 42 47 43 48 44 49 70 50 71 51 79 52 72 53 78 54 80 55
REMARK SMILES IDX 77 56 73 57 74 58 75 59 76 60 55 61 56 62 64 63 57 64 63 65
REMARK SMILES IDX 65 66 62 67 58 68 59 69 60 70 61 71 6 72 7 73 8 74 9 76
REMARK SMILES IDX 10 77 11 78 28 79 12 80 14 81 13 82 15 83 16 84 17 85 18 86
REMARK SMILES IDX 19 87 20 88 27 89 21 90 23 91 22 92 24 93 25 94 26 95
REMARK H PARENT 3 6 85 24 53 35 7 75
REMARK Flexibility Score: inf
ROOT
ATOM      1  C   UNL A   1      38.183  19.843  24.989  1.00  0.00     0.042 C 
ENDROOT
BRANCH   1   2
ATOM      2  C   UNL A   1      39.202  20.023  26.103  1.00  0.00     0.118 C 
BRANCH   2   3
ATOM      3  N   UNL A   1      40.371  19.167  25.946  1.00  0.00    -0.352 N 
ATOM      4  O   UNL A   1      42.538  18.642  25.648  1.00  0.00    -0.269 OA
ATOM      5  C   UNL A   1      41.706  19.487  25.969  1.00  0.00     0.251 C 
ATOM      6  H   UNL A   1      40.173  18.214  25.801  1.00  0.00     0.163 HD
BRANCH   5   7
ATOM      7  C   UNL A   1      42.142  20.847  26.356  1.00  0.00     0.039 A 
ATOM      8  C   UNL A   1      42.437  21.160  27.686  1.00  0.00     0.014 A 
ATOM      9  C   UNL A   1      42.281  21.820  25.363  1.00  0.00     0.014 A 
ATOM     10  C   UNL A   1      42.724  22.473  28.045  1.00  0.00     0.010 A 
ATOM     11  C   UNL A   1      42.661  23.117  25.714  1.00  0.00     0.010 A 
ATOM     12  C   UNL A   1      42.859  23.461  27.061  1.00  0.00    -0.014 A 
BRANCH  12  13
ATOM     13  C   UNL A   1      43.253  24.843  27.436  1.00  0.00     0.031 A 
ATOM     14  C   UNL A   1      42.266  25.770  28.086  1.00  0.00     0.074 A 
ATOM     15  C   UNL A   1      44.497  25.272  27.153  1.00  0.00     0.049 A 
ATOM     16  N   UNL A   1      42.386  27.042  28.370  1.00  0.00    -0.248 NA
ATOM     17  C   UNL A   1      40.966  25.190  28.449  1.00  0.00     0.031 C 
ATOM     18  C   UNL A   1      45.546  24.457  26.536  1.00  0.00     0.029 A 
ATOM     19  N   UNL A   1      45.089  26.497  27.329  1.00  0.00    -0.354 N 
ATOM     20  C   UNL A   1      41.169  27.424  28.924  1.00  0.00     0.074 A 
ATOM     21  C   UNL A   1      40.314  26.254  28.897  1.00  0.00     0.031 C 
ATOM     22  C   UNL A   1      46.650  25.201  26.388  1.00  0.00     0.029 A 
ATOM     23  C   UNL A   1      46.366  26.563  26.823  1.00  0.00     0.049 A 
ATOM     24  H   UNL A   1      44.642  27.254  27.773  1.00  0.00     0.167 HD
ATOM     25  C   UNL A   1      40.805  28.639  29.410  1.00  0.00     0.034 A 
ATOM     26  C   UNL A   1      47.199  27.611  26.673  1.00  0.00     0.034 A 
ATOM     27  C   UNL A   1      41.675  29.793  29.407  1.00  0.00     0.049 A 
ATOM     28  C   UNL A   1      46.753  28.970  27.140  1.00  0.00     0.074 A 
ATOM     29  C   UNL A   1      41.425  31.062  29.901  1.00  0.00     0.029 A 
ATOM     30  N   UNL A   1      42.954  29.828  28.863  1.00  0.00    -0.354 N 
ATOM     31  N   UNL A   1      45.604  29.320  27.672  1.00  0.00    -0.248 NA
ATOM     32  C   UNL A   1      47.710  30.071  26.993  1.00  0.00     0.031 C 
ATOM     33  C   UNL A   1      42.510  31.882  29.571  1.00  0.00     0.029 A 
ATOM     34  C   UNL A   1      43.485  31.105  28.969  1.00  0.00     0.049 A 
ATOM     35  H   UNL A   1      43.416  29.057  28.460  1.00  0.00     0.167 HD
ATOM     36  C   UNL A   1      45.715  30.677  27.956  1.00  0.00     0.074 A 
ATOM     37  C   UNL A   1      47.039  31.083  27.530  1.00  0.00     0.031 C 
ATOM     38  C   UNL A   1      44.807  31.504  28.535  1.00  0.00     0.034 A 
BRANCH  25  39
ATOM     39  C   UNL A   1      39.387  28.788  29.917  1.00  0.00     0.023 A 
ATOM     40  C   UNL A   1      38.341  29.221  29.082  1.00  0.00     0.031 A 
ATOM     41  C   UNL A   1      39.086  28.553  31.271  1.00  0.00     0.131 A 
ATOM     42  C   UNL A   1      37.080  29.510  29.628  1.00  0.00     0.055 A 
ATOM     43  C   UNL A   1      37.802  28.743  31.786  1.00  0.00     0.041 A 
ATOM     44  F   UNL A   1      40.042  28.158  32.126  1.00  0.00    -0.206 F 
ATOM     45  C   UNL A   1      36.795  29.248  30.969  1.00  0.00     0.022 A 
BRANCH  42  46
ATOM     46  S   UNL A   1      35.889  30.425  28.609  1.00  0.00     0.124 S 
ATOM     47  O   UNL A   1      36.770  31.106  27.662  1.00  0.00    -0.237 OA
ATOM     48  O   UNL A   1      35.060  29.360  28.058  1.00  0.00    -0.237 OA
ATOM     49  O   UNL A   1      35.223  31.306  29.567  1.00  0.00    -0.744 OA
ENDBRANCH  42  46
ENDBRANCH  25  39
BRANCH  26  50
ATOM     50  C   UNL A   1      48.513  27.409  26.001  1.00  0.00     0.023 A 
ATOM     51  C   UNL A   1      48.642  27.505  24.608  1.00  0.00     0.031 A 
ATOM     52  C   UNL A   1      49.669  27.141  26.757  1.00  0.00     0.131 A 
ATOM     53  C   UNL A   1      49.899  27.315  24.012  1.00  0.00     0.055 A 
ATOM     54  C   UNL A   1      50.924  27.005  26.165  1.00  0.00     0.041 A 
ATOM     55  F   UNL A   1      49.599  27.046  28.094  1.00  0.00    -0.206 F 
ATOM     56  C   UNL A   1      51.044  27.084  24.781  1.00  0.00     0.022 A 
BRANCH  53  57
ATOM     57  S   UNL A   1      50.012  27.320  22.202  1.00  0.00     0.124 S 
ATOM     58  O   UNL A   1      48.918  26.428  21.835  1.00  0.00    -0.237 OA
ATOM     59  O   UNL A   1      49.822  28.733  21.889  1.00  0.00    -0.237 OA
ATOM     60  O   UNL A   1      51.353  26.801  21.943  1.00  0.00    -0.744 OA
ENDBRANCH  53  57
ENDBRANCH  26  50
BRANCH  38  61
ATOM     61  C   UNL A   1      45.236  32.924  28.815  1.00  0.00     0.023 A 
ATOM     62  C   UNL A   1      44.787  34.013  28.048  1.00  0.00     0.031 A 
ATOM     63  C   UNL A   1      46.084  33.189  29.907  1.00  0.00     0.131 A 
ATOM     64  C   UNL A   1      45.211  35.313  28.369  1.00  0.00     0.055 A 
ATOM     65  C   UNL A   1      46.454  34.488  30.256  1.00  0.00     0.041 A 
ATOM     66  F   UNL A   1      46.549  32.185  30.668  1.00  0.00    -0.206 F 
ATOM     67  C   UNL A   1      46.022  35.558  29.480  1.00  0.00     0.022 A 
BRANCH  64  68
ATOM     68  S   UNL A   1      44.738  36.686  27.280  1.00  0.00     0.124 S 
ATOM     69  O   UNL A   1      44.254  37.677  28.235  1.00  0.00    -0.237 OA
ATOM     70  O   UNL A   1      45.994  37.003  26.611  1.00  0.00    -0.237 OA
ATOM     71  O   UNL A   1      43.710  36.102  26.419  1.00  0.00    -0.744 OA
ENDBRANCH  64  68
ENDBRANCH  38  61
ENDBRANCH  12  13
ENDBRANCH   5   7
ENDBRANCH   2   3
ENDBRANCH   1   2
BRANCH   1  72
ATOM     72  C   UNL A   1      37.432  21.112  24.620  1.00  0.00     0.118 C 
BRANCH  72  73
ATOM     73  N   UNL A   1      37.944  22.294  25.311  1.00  0.00    -0.352 N 
ATOM     74  C   UNL A   1      37.292  23.443  25.685  1.00  0.00     0.251 C 
ATOM     75  H   UNL A   1      38.900  22.260  25.544  1.00  0.00     0.163 HD
ATOM     76  O   UNL A   1      37.919  24.408  26.107  1.00  0.00    -0.269 OA
BRANCH  74  77
ATOM     77  C   UNL A   1      35.820  23.512  25.587  1.00  0.00     0.043 A 
ATOM     78  C   UNL A   1      35.027  23.159  26.678  1.00  0.00     0.014 A 
ATOM     79  C   UNL A   1      35.229  23.923  24.390  1.00  0.00     0.062 A 
ATOM     80  C   UNL A   1      33.642  23.295  26.589  1.00  0.00     0.005 A 
ATOM     81  C   UNL A   1      33.855  24.130  24.320  1.00  0.00     0.143 A 
ATOM     82  C   UNL A   1      33.060  23.799  25.419  1.00  0.00     0.048 A 
BRANCH  81  83
ATOM     83  O   UNL A   1      33.221  24.659  23.223  1.00  0.00    -0.379 OA
BRANCH  83  84
ATOM     84  S   UNL A   1      33.267  26.269  22.928  1.00  0.00     0.339 S 
ATOM     85  O   UNL A   1      34.000  26.930  23.989  1.00  0.00    -0.181 OA
ATOM     86  O   UNL A   1      33.626  26.485  21.537  1.00  0.00    -0.181 OA
BRANCH  84  87
ATOM     87  C   UNL A   1      31.566  26.766  23.068  1.00  0.00     0.112 A 
ATOM     88  C   UNL A   1      30.633  25.916  23.671  1.00  0.00     0.024 A 
ATOM     89  C   UNL A   1      31.209  28.050  22.646  1.00  0.00     0.109 A 
ATOM     90  C   UNL A   1      29.316  26.350  23.836  1.00  0.00     0.009 A 
ATOM     91  C   UNL A   1      29.888  28.473  22.820  1.00  0.00     0.270 A 
ATOM     92  C   UNL A   1      28.939  27.627  23.411  1.00  0.00     0.086 A 
BRANCH  91  93
ATOM     93  N   UNL A   1      29.497  29.820  22.386  1.00  0.00     0.062 N 
ATOM     94  O   UNL A   1      29.234  30.656  23.262  1.00  0.00    -0.258 OA
ATOM     95  O   UNL A   1      29.441  30.038  21.167  1.00  0.00    -0.258 OA
ENDBRANCH  91  93
ENDBRANCH  84  87
ENDBRANCH  83  84
ENDBRANCH  81  83
ENDBRANCH  74  77
ENDBRANCH  72  73
ENDBRANCH   1  72
TORSDOF 17
ENDMDL
