MODEL 1
REMARK VINA RESULT:     -12.2      0.000      0.000
REMARK SMILES C[C@@H]1SCCC[C@H]1Nc1cccc(C(=O)NCCCNC(=O)c2ccc(-c3c4nc(c(-c5cc(S(=O)(=O)[O-])ccc5F)c5ccc([nH]5)c(-c5cc(S(=O)(=O)[O-])ccc5F)c5nc(c(-c6cc(S(=O)(=O)[O-])ccc6F)c6ccc3[nH]6)C=C5)C=C4)cc2)c1
REMARK SMILES IDX 18 1 17 2 16 3 14 4 15 5 13 7 9 8 10 9 86 10 11 11 12 12
REMARK SMILES IDX 8 13 7 15 1 16 2 17 3 18 4 19 6 20 5 21 19 22 20 23 21 24
REMARK SMILES IDX 22 26 23 27 24 28 85 29 25 30 84 31 26 32 27 33 28 34 78 35
REMARK SMILES IDX 29 36 83 37 77 38 79 39 30 40 82 41 76 42 75 43 31 45 63 46
REMARK SMILES IDX 43 47 62 48 44 49 47 50 61 51 80 52 45 53 46 54 60 56 81 57
REMARK SMILES IDX 48 58 32 59 33 60 41 61 34 62 40 63 42 64 39 65 35 66 36 67
REMARK SMILES IDX 37 68 38 69 64 70 65 71 73 72 66 73 72 74 74 75 71 76 67 77
REMARK SMILES IDX 68 78 69 79 70 80 49 81 50 82 58 83 51 84 57 85 59 86 56 87
REMARK SMILES IDX 52 88 53 89 54 90 55 91
REMARK H PARENT 16 6 8 14 20 25 79 44 47 55
REMARK Flexibility Score: inf
ROOT
ATOM      1  C   UNL A   1      35.937  21.258  25.496  1.00  0.00     0.042 C 
ENDROOT
BRANCH   1   2
ATOM      2  C   UNL A   1      35.097  20.126  24.925  1.00  0.00     0.118 C 
BRANCH   2   3
ATOM      3  N   UNL A   1      33.673  20.224  25.215  1.00  0.00    -0.352 N 
ATOM      4  C   UNL A   1      32.706  21.162  24.932  1.00  0.00     0.251 C 
ATOM      5  O   UNL A   1      31.561  20.931  25.327  1.00  0.00    -0.269 OA
ATOM      6  H   UNL A   1      33.327  19.454  25.722  1.00  0.00     0.163 HD
BRANCH   4   7
ATOM      7  C   UNL A   1      32.977  22.455  24.244  1.00  0.00     0.041 A 
ATOM      8  C   UNL A   1      33.121  24.889  24.222  1.00  0.00     0.035 A 
ATOM      9  C   UNL A   1      33.203  24.845  22.827  1.00  0.00     0.026 A 
ATOM     10  C   UNL A   1      33.134  23.673  24.908  1.00  0.00     0.039 A 
ATOM     11  C   UNL A   1      33.232  23.629  22.141  1.00  0.00     0.003 A 
ATOM     12  C   UNL A   1      33.085  22.438  22.848  1.00  0.00     0.014 A 
BRANCH   8  13
ATOM     13  N   UNL A   1      33.088  26.114  24.854  1.00  0.00    -0.381 N 
ATOM     14  H   UNL A   1      33.865  26.703  24.720  1.00  0.00     0.160 HD
BRANCH  13  15
ATOM     15  C   UNL A   1      32.010  26.623  25.704  1.00  0.00     0.092 C 
ATOM     16  C   UNL A   1      31.632  28.364  27.535  1.00  0.00     0.021 C 
ATOM     17  C   UNL A   1      32.494  27.945  26.348  1.00  0.00     0.066 C 
ATOM     18  S   UNL A   1      32.639  29.312  25.132  1.00  0.00    -0.157 SA
ATOM     19  C   UNL A   1      30.977  29.242  24.407  1.00  0.00     0.070 C 
ATOM     20  C   UNL A   1      30.691  26.753  24.923  1.00  0.00     0.027 C 
ATOM     21  C   UNL A   1      30.652  27.858  23.867  1.00  0.00     0.013 C 
ENDBRANCH  13  15
ENDBRANCH   8  13
ENDBRANCH   4   7
ENDBRANCH   2   3
ENDBRANCH   1   2
BRANCH   1  22
ATOM     22  C   UNL A   1      37.330  21.377  24.900  1.00  0.00     0.118 C 
BRANCH  22  23
ATOM     23  N   UNL A   1      38.285  20.456  25.508  1.00  0.00    -0.352 N 
ATOM     24  C   UNL A   1      39.474  20.679  26.162  1.00  0.00     0.251 C 
ATOM     25  H   UNL A   1      38.033  19.506  25.439  1.00  0.00     0.163 HD
ATOM     26  O   UNL A   1      40.216  19.725  26.381  1.00  0.00    -0.269 OA
BRANCH  24  27
ATOM     27  C   UNL A   1      39.879  22.043  26.576  1.00  0.00     0.039 A 
ATOM     28  C   UNL A   1      40.949  22.192  27.465  1.00  0.00     0.014 A 
ATOM     29  C   UNL A   1      39.198  23.174  26.122  1.00  0.00     0.014 A 
ATOM     30  C   UNL A   1      41.391  23.470  27.813  1.00  0.00     0.010 A 
ATOM     31  C   UNL A   1      39.700  24.445  26.391  1.00  0.00     0.010 A 
ATOM     32  C   UNL A   1      40.809  24.608  27.232  1.00  0.00    -0.014 A 
BRANCH  32  33
ATOM     33  C   UNL A   1      41.364  25.969  27.463  1.00  0.00     0.031 A 
ATOM     34  C   UNL A   1      42.723  26.340  26.931  1.00  0.00     0.074 A 
ATOM     35  C   UNL A   1      40.674  26.841  28.228  1.00  0.00     0.049 A 
ATOM     36  N   UNL A   1      43.408  27.439  27.109  1.00  0.00    -0.248 NA
ATOM     37  C   UNL A   1      43.413  25.330  26.113  1.00  0.00     0.031 C 
ATOM     38  C   UNL A   1      39.369  26.575  28.842  1.00  0.00     0.029 A 
ATOM     39  N   UNL A   1      40.972  28.118  28.634  1.00  0.00    -0.354 N 
ATOM     40  C   UNL A   1      44.614  27.250  26.443  1.00  0.00     0.074 A 
ATOM     41  C   UNL A   1      44.586  25.908  25.901  1.00  0.00     0.031 C 
ATOM     42  C   UNL A   1      38.973  27.661  29.523  1.00  0.00     0.029 A 
ATOM     43  C   UNL A   1      40.014  28.678  29.450  1.00  0.00     0.049 A 
ATOM     44  H   UNL A   1      41.795  28.588  28.368  1.00  0.00     0.167 HD
ATOM     45  C   UNL A   1      45.640  28.123  26.284  1.00  0.00     0.034 A 
ATOM     46  C   UNL A   1      39.986  29.866  30.086  1.00  0.00     0.034 A 
ATOM     47  C   UNL A   1      45.642  29.461  26.820  1.00  0.00     0.049 A 
ATOM     48  C   UNL A   1      41.154  30.805  29.915  1.00  0.00     0.074 A 
ATOM     49  C   UNL A   1      46.593  30.454  26.651  1.00  0.00     0.029 A 
ATOM     50  N   UNL A   1      44.657  29.994  27.643  1.00  0.00    -0.354 N 
ATOM     51  N   UNL A   1      42.253  30.637  29.216  1.00  0.00    -0.248 NA
ATOM     52  C   UNL A   1      41.075  32.095  30.613  1.00  0.00     0.031 C 
ATOM     53  C   UNL A   1      46.225  31.551  27.437  1.00  0.00     0.029 A 
ATOM     54  C   UNL A   1      45.002  31.281  28.029  1.00  0.00     0.049 A 
ATOM     55  H   UNL A   1      43.834  29.525  27.913  1.00  0.00     0.167 HD
ATOM     56  C   UNL A   1      42.986  31.810  29.375  1.00  0.00     0.074 A 
ATOM     57  C   UNL A   1      42.190  32.685  30.211  1.00  0.00     0.031 C 
ATOM     58  C   UNL A   1      44.207  32.134  28.879  1.00  0.00     0.034 A 
BRANCH  45  59
ATOM     59  C   UNL A   1      46.856  27.649  25.523  1.00  0.00     0.023 A 
ATOM     60  C   UNL A   1      47.065  27.983  24.173  1.00  0.00     0.031 A 
ATOM     61  C   UNL A   1      47.828  26.857  26.161  1.00  0.00     0.131 A 
ATOM     62  C   UNL A   1      48.182  27.478  23.491  1.00  0.00     0.055 A 
ATOM     63  C   UNL A   1      48.977  26.423  25.498  1.00  0.00     0.041 A 
ATOM     64  F   UNL A   1      47.673  26.488  27.443  1.00  0.00    -0.206 F 
ATOM     65  C   UNL A   1      49.154  26.722  24.152  1.00  0.00     0.022 A 
BRANCH  62  66
ATOM     66  S   UNL A   1      48.285  27.718  21.696  1.00  0.00     0.124 S 
ATOM     67  O   UNL A   1      49.328  28.737  21.595  1.00  0.00    -0.237 OA
ATOM     68  O   UNL A   1      48.643  26.388  21.218  1.00  0.00    -0.237 OA
ATOM     69  O   UNL A   1      46.944  28.173  21.334  1.00  0.00    -0.744 OA
ENDBRANCH  62  66
ENDBRANCH  45  59
BRANCH  46  70
ATOM     70  C   UNL A   1      38.840  30.228  30.971  1.00  0.00     0.023 A 
ATOM     71  C   UNL A   1      37.753  30.972  30.484  1.00  0.00     0.031 A 
ATOM     72  C   UNL A   1      38.839  29.883  32.334  1.00  0.00     0.131 A 
ATOM     73  C   UNL A   1      36.743  31.393  31.362  1.00  0.00     0.055 A 
ATOM     74  C   UNL A   1      37.800  30.250  33.191  1.00  0.00     0.041 A 
ATOM     75  F   UNL A   1      39.852  29.171  32.856  1.00  0.00    -0.206 F 
ATOM     76  C   UNL A   1      36.750  31.025  32.708  1.00  0.00     0.022 A 
BRANCH  73  77
ATOM     77  S   UNL A   1      35.469  32.525  30.739  1.00  0.00     0.124 S 
ATOM     78  O   UNL A   1      35.303  32.059  29.367  1.00  0.00    -0.237 OA
ATOM     79  O   UNL A   1      34.359  32.261  31.647  1.00  0.00    -0.237 OA
ATOM     80  O   UNL A   1      36.088  33.842  30.880  1.00  0.00    -0.744 OA
ENDBRANCH  73  77
ENDBRANCH  46  70
BRANCH  58  81
ATOM     81  C   UNL A   1      44.739  33.507  29.212  1.00  0.00     0.023 A 
ATOM     82  C   UNL A   1      44.414  34.632  28.433  1.00  0.00     0.031 A 
ATOM     83  C   UNL A   1      45.590  33.692  30.316  1.00  0.00     0.131 A 
ATOM     84  C   UNL A   1      44.983  35.877  28.732  1.00  0.00     0.055 A 
ATOM     85  C   UNL A   1      46.099  34.948  30.650  1.00  0.00     0.041 A 
ATOM     86  F   UNL A   1      45.939  32.654  31.093  1.00  0.00    -0.206 F 
ATOM     87  C   UNL A   1      45.808  36.047  29.847  1.00  0.00     0.022 A 
BRANCH  84  88
ATOM     88  S   UNL A   1      44.711  37.256  27.585  1.00  0.00     0.124 S 
ATOM     89  O   UNL A   1      45.828  37.102  26.658  1.00  0.00    -0.237 OA
ATOM     90  O   UNL A   1      43.389  36.957  27.045  1.00  0.00    -0.237 OA
ATOM     91  O   UNL A   1      44.776  38.436  28.445  1.00  0.00    -0.744 OA
ENDBRANCH  84  88
ENDBRANCH  58  81
ENDBRANCH  32  33
ENDBRANCH  24  27
ENDBRANCH  22  23
ENDBRANCH   1  22
TORSDOF 15
ENDMDL
MODEL 2
REMARK VINA RESULT:     -12.2      5.547      8.935
REMARK SMILES C[C@@H]1SCCC[C@H]1Nc1cccc(C(=O)NCCCNC(=O)c2ccc(-c3c4nc(c(-c5cc(S(=O)(=O)[O-])ccc5F)c5ccc([nH]5)c(-c5cc(S(=O)(=O)[O-])ccc5F)c5nc(c(-c6cc(S(=O)(=O)[O-])ccc6F)c6ccc3[nH]6)C=C5)C=C4)cc2)c1
REMARK SMILES IDX 18 1 17 2 16 3 14 4 15 5 13 7 9 8 10 9 86 10 11 11 12 12
REMARK SMILES IDX 8 13 7 15 1 16 2 17 3 18 4 19 6 20 5 21 19 22 20 23 21 24
REMARK SMILES IDX 22 26 23 27 24 28 85 29 25 30 84 31 26 32 27 33 28 34 78 35
REMARK SMILES IDX 29 36 83 37 77 38 79 39 30 40 82 41 76 42 75 43 31 45 63 46
REMARK SMILES IDX 43 47 62 48 44 49 47 50 61 51 80 52 45 53 46 54 60 56 81 57
REMARK SMILES IDX 48 58 32 59 33 60 41 61 34 62 40 63 42 64 39 65 35 66 36 67
REMARK SMILES IDX 37 68 38 69 64 70 65 71 73 72 66 73 72 74 74 75 71 76 67 77
REMARK SMILES IDX 68 78 69 79 70 80 49 81 50 82 58 83 51 84 57 85 59 86 56 87
REMARK SMILES IDX 52 88 53 89 54 90 55 91
REMARK H PARENT 16 6 8 14 20 25 79 44 47 55
REMARK Flexibility Score: inf
ROOT
ATOM      1  C   UNL A   1      31.478  32.171  26.949  1.00  0.00     0.042 C 
ENDROOT
BRANCH   1   2
ATOM      2  C   UNL A   1      31.775  30.706  26.666  1.00  0.00     0.118 C 
BRANCH   2   3
ATOM      3  N   UNL A   1      33.034  30.227  27.220  1.00  0.00    -0.352 N 
ATOM      4  C   UNL A   1      33.926  29.248  26.848  1.00  0.00     0.251 C 
ATOM      5  O   UNL A   1      34.928  29.099  27.551  1.00  0.00    -0.269 OA
ATOM      6  H   UNL A   1      33.306  30.708  28.035  1.00  0.00     0.163 HD
BRANCH   4   7
ATOM      7  C   UNL A   1      33.717  28.325  25.697  1.00  0.00     0.041 A 
ATOM      8  C   UNL A   1      33.720  26.101  24.698  1.00  0.00     0.035 A 
ATOM      9  C   UNL A   1      33.602  26.697  23.437  1.00  0.00     0.026 A 
ATOM     10  C   UNL A   1      33.650  26.936  25.814  1.00  0.00     0.039 A 
ATOM     11  C   UNL A   1      33.483  28.080  23.299  1.00  0.00     0.003 A 
ATOM     12  C   UNL A   1      33.576  28.895  24.425  1.00  0.00     0.014 A 
BRANCH   8  13
ATOM     13  N   UNL A   1      33.841  24.731  24.784  1.00  0.00    -0.381 N 
ATOM     14  H   UNL A   1      33.482  24.304  25.594  1.00  0.00     0.160 HD
BRANCH  13  15
ATOM     15  C   UNL A   1      34.452  23.849  23.787  1.00  0.00     0.092 C 
ATOM     16  C   UNL A   1      36.737  22.880  23.184  1.00  0.00     0.021 C 
ATOM     17  C   UNL A   1      35.865  23.465  24.289  1.00  0.00     0.066 C 
ATOM     18  S   UNL A   1      35.817  22.347  25.744  1.00  0.00    -0.157 SA
ATOM     19  C   UNL A   1      34.734  21.049  25.085  1.00  0.00     0.070 C 
ATOM     20  C   UNL A   1      33.549  22.643  23.474  1.00  0.00     0.027 C 
ATOM     21  C   UNL A   1      33.409  21.612  24.594  1.00  0.00     0.013 C 
ENDBRANCH  13  15
ENDBRANCH   8  13
ENDBRANCH   4   7
ENDBRANCH   2   3
ENDBRANCH   1   2
BRANCH   1  22
ATOM     22  C   UNL A   1      32.696  33.081  26.931  1.00  0.00     0.118 C 
BRANCH  22  23
ATOM     23  N   UNL A   1      32.543  34.246  27.795  1.00  0.00    -0.352 N 
ATOM     24  C   UNL A   1      33.166  34.594  28.971  1.00  0.00     0.251 C 
ATOM     25  H   UNL A   1      31.877  34.899  27.481  1.00  0.00     0.163 HD
ATOM     26  O   UNL A   1      32.699  35.515  29.636  1.00  0.00    -0.269 OA
BRANCH  24  27
ATOM     27  C   UNL A   1      34.360  33.863  29.453  1.00  0.00     0.039 A 
ATOM     28  C   UNL A   1      35.630  34.326  29.092  1.00  0.00     0.014 A 
ATOM     29  C   UNL A   1      34.244  32.710  30.231  1.00  0.00     0.014 A 
ATOM     30  C   UNL A   1      36.770  33.693  29.593  1.00  0.00     0.010 A 
ATOM     31  C   UNL A   1      35.376  32.141  30.808  1.00  0.00     0.010 A 
ATOM     32  C   UNL A   1      36.653  32.631  30.503  1.00  0.00    -0.014 A 
BRANCH  32  33
ATOM     33  C   UNL A   1      37.846  32.046  31.172  1.00  0.00     0.031 A 
ATOM     34  C   UNL A   1      38.600  30.911  30.531  1.00  0.00     0.074 A 
ATOM     35  C   UNL A   1      38.196  32.486  32.399  1.00  0.00     0.049 A 
ATOM     36  N   UNL A   1      39.602  30.214  31.003  1.00  0.00    -0.248 NA
ATOM     37  C   UNL A   1      38.150  30.485  29.197  1.00  0.00     0.031 C 
ATOM     38  C   UNL A   1      37.509  33.546  33.142  1.00  0.00     0.029 A 
ATOM     39  N   UNL A   1      39.203  32.093  33.246  1.00  0.00    -0.354 N 
ATOM     40  C   UNL A   1      39.893  29.259  30.035  1.00  0.00     0.074 A 
ATOM     41  C   UNL A   1      38.925  29.434  28.972  1.00  0.00     0.031 C 
ATOM     42  C   UNL A   1      38.127  33.733  34.318  1.00  0.00     0.029 A 
ATOM     43  C   UNL A   1      39.215  32.771  34.445  1.00  0.00     0.049 A 
ATOM     44  H   UNL A   1      39.854  31.391  33.018  1.00  0.00     0.167 HD
ATOM     45  C   UNL A   1      40.886  28.336  30.026  1.00  0.00     0.034 A 
ATOM     46  C   UNL A   1      39.995  32.620  35.533  1.00  0.00     0.034 A 
ATOM     47  C   UNL A   1      41.849  28.187  31.089  1.00  0.00     0.049 A 
ATOM     48  C   UNL A   1      41.073  31.565  35.508  1.00  0.00     0.074 A 
ATOM     49  C   UNL A   1      42.942  27.340  31.147  1.00  0.00     0.029 A 
ATOM     50  N   UNL A   1      41.829  28.889  32.289  1.00  0.00    -0.354 N 
ATOM     51  N   UNL A   1      41.381  30.722  34.549  1.00  0.00    -0.248 NA
ATOM     52  C   UNL A   1      41.912  31.446  36.707  1.00  0.00     0.031 C 
ATOM     53  C   UNL A   1      43.530  27.468  32.410  1.00  0.00     0.029 A 
ATOM     54  C   UNL A   1      42.860  28.457  33.111  1.00  0.00     0.049 A 
ATOM     55  H   UNL A   1      41.177  29.589  32.522  1.00  0.00     0.167 HD
ATOM     56  C   UNL A   1      42.464  29.987  35.025  1.00  0.00     0.074 A 
ATOM     57  C   UNL A   1      42.771  30.506  36.341  1.00  0.00     0.031 C 
ATOM     58  C   UNL A   1      43.141  28.971  34.430  1.00  0.00     0.034 A 
BRANCH  45  59
ATOM     59  C   UNL A   1      40.965  27.397  28.846  1.00  0.00     0.023 A 
ATOM     60  C   UNL A   1      41.923  27.559  27.830  1.00  0.00     0.031 A 
ATOM     61  C   UNL A   1      40.072  26.315  28.739  1.00  0.00     0.131 A 
ATOM     62  C   UNL A   1      41.926  26.693  26.725  1.00  0.00     0.055 A 
ATOM     63  C   UNL A   1      40.131  25.411  27.677  1.00  0.00     0.041 A 
ATOM     64  F   UNL A   1      39.121  26.120  29.667  1.00  0.00    -0.206 F 
ATOM     65  C   UNL A   1      41.054  25.604  26.655  1.00  0.00     0.022 A 
BRANCH  62  66
ATOM     66  S   UNL A   1      43.005  27.084  25.320  1.00  0.00     0.124 S 
ATOM     67  O   UNL A   1      42.991  25.824  24.579  1.00  0.00    -0.237 OA
ATOM     68  O   UNL A   1      42.312  28.202  24.691  1.00  0.00    -0.237 OA
ATOM     69  O   UNL A   1      44.281  27.414  25.949  1.00  0.00    -0.744 OA
ENDBRANCH  62  66
ENDBRANCH  45  59
BRANCH  46  70
ATOM     70  C   UNL A   1      39.774  33.454  36.750  1.00  0.00     0.023 A 
ATOM     71  C   UNL A   1      39.083  32.947  37.862  1.00  0.00     0.031 A 
ATOM     72  C   UNL A   1      40.201  34.793  36.798  1.00  0.00     0.131 A 
ATOM     73  C   UNL A   1      38.793  33.786  38.949  1.00  0.00     0.055 A 
ATOM     74  C   UNL A   1      39.965  35.606  37.909  1.00  0.00     0.041 A 
ATOM     75  F   UNL A   1      40.867  35.332  35.764  1.00  0.00    -0.206 F 
ATOM     76  C   UNL A   1      39.242  35.108  38.987  1.00  0.00     0.022 A 
BRANCH  73  77
ATOM     77  S   UNL A   1      37.721  33.155  40.270  1.00  0.00     0.124 S 
ATOM     78  O   UNL A   1      36.523  32.782  39.527  1.00  0.00    -0.237 OA
ATOM     79  O   UNL A   1      38.516  32.054  40.803  1.00  0.00    -0.237 OA
ATOM     80  O   UNL A   1      37.571  34.302  41.163  1.00  0.00    -0.744 OA
ENDBRANCH  73  77
ENDBRANCH  46  70
BRANCH  58  81
ATOM     81  C   UNL A   1      44.298  28.379  35.197  1.00  0.00     0.023 A 
ATOM     82  C   UNL A   1      44.105  27.370  36.157  1.00  0.00     0.031 A 
ATOM     83  C   UNL A   1      45.609  28.837  34.975  1.00  0.00     0.131 A 
ATOM     84  C   UNL A   1      45.195  26.894  36.900  1.00  0.00     0.055 A 
ATOM     85  C   UNL A   1      46.699  28.311  35.669  1.00  0.00     0.041 A 
ATOM     86  F   UNL A   1      45.852  29.803  34.075  1.00  0.00    -0.206 F 
ATOM     87  C   UNL A   1      46.493  27.344  36.649  1.00  0.00     0.022 A 
BRANCH  84  88
ATOM     88  S   UNL A   1      44.879  25.749  38.271  1.00  0.00     0.124 S 
ATOM     89  O   UNL A   1      44.509  24.527  37.564  1.00  0.00    -0.237 OA
ATOM     90  O   UNL A   1      46.165  25.724  38.959  1.00  0.00    -0.237 OA
ATOM     91  O   UNL A   1      43.794  26.390  39.011  1.00  0.00    -0.744 OA
ENDBRANCH  84  88
ENDBRANCH  58  81
ENDBRANCH  32  33
ENDBRANCH  24  27
ENDBRANCH  22  23
ENDBRANCH   1  22
TORSDOF 15
ENDMDL
MODEL 3
REMARK VINA RESULT:     -12.1      5.741      9.202
REMARK SMILES C[C@@H]1SCCC[C@H]1Nc1cccc(C(=O)NCCCNC(=O)c2ccc(-c3c4nc(c(-c5cc(S(=O)(=O)[O-])ccc5F)c5ccc([nH]5)c(-c5cc(S(=O)(=O)[O-])ccc5F)c5nc(c(-c6cc(S(=O)(=O)[O-])ccc6F)c6ccc3[nH]6)C=C5)C=C4)cc2)c1
REMARK SMILES IDX 18 1 17 2 16 3 14 4 15 5 13 7 9 8 10 9 86 10 11 11 12 12
REMARK SMILES IDX 8 13 7 15 1 16 2 17 3 18 4 19 6 20 5 21 19 22 20 23 21 24
REMARK SMILES IDX 22 26 23 27 24 28 85 29 25 30 84 31 26 32 27 33 28 34 78 35
REMARK SMILES IDX 29 36 83 37 77 38 79 39 30 40 82 41 76 42 75 43 31 45 63 46
REMARK SMILES IDX 43 47 62 48 44 49 47 50 61 51 80 52 45 53 46 54 60 56 81 57
REMARK SMILES IDX 48 58 32 59 33 60 41 61 34 62 40 63 42 64 39 65 35 66 36 67
REMARK SMILES IDX 37 68 38 69 64 70 65 71 73 72 66 73 72 74 74 75 71 76 67 77
REMARK SMILES IDX 68 78 69 79 70 80 49 81 50 82 58 83 51 84 57 85 59 86 56 87
REMARK SMILES IDX 52 88 53 89 54 90 55 91
REMARK H PARENT 16 6 8 14 20 25 79 44 47 55
REMARK Flexibility Score: inf
ROOT
ATOM      1  C   UNL A   1      31.796  31.864  26.848  1.00  0.00     0.042 C 
ENDROOT
BRANCH   1   2
ATOM      2  C   UNL A   1      31.999  30.359  26.936  1.00  0.00     0.118 C 
BRANCH   2   3
ATOM      3  N   UNL A   1      33.339  29.953  27.338  1.00  0.00    -0.352 N 
ATOM      4  C   UNL A   1      34.231  29.016  26.868  1.00  0.00     0.251 C 
ATOM      5  O   UNL A   1      35.316  28.928  27.447  1.00  0.00    -0.269 OA
ATOM      6  H   UNL A   1      33.681  30.458  28.111  1.00  0.00     0.163 HD
BRANCH   4   7
ATOM      7  C   UNL A   1      33.934  28.068  25.758  1.00  0.00     0.041 A 
ATOM      8  C   UNL A   1      33.746  25.813  24.850  1.00  0.00     0.035 A 
ATOM      9  C   UNL A   1      33.661  26.366  23.567  1.00  0.00     0.026 A 
ATOM     10  C   UNL A   1      33.757  26.694  25.932  1.00  0.00     0.039 A 
ATOM     11  C   UNL A   1      33.652  27.748  23.374  1.00  0.00     0.003 A 
ATOM     12  C   UNL A   1      33.823  28.596  24.465  1.00  0.00     0.014 A 
BRANCH   8  13
ATOM     13  N   UNL A   1      33.759  24.442  24.990  1.00  0.00    -0.381 N 
ATOM     14  H   UNL A   1      33.313  23.920  24.285  1.00  0.00     0.160 HD
BRANCH  13  15
ATOM     15  C   UNL A   1      34.370  23.687  26.085  1.00  0.00     0.092 C 
ATOM     16  C   UNL A   1      33.937  21.599  27.491  1.00  0.00     0.021 C 
ATOM     17  C   UNL A   1      33.665  22.312  26.171  1.00  0.00     0.066 C 
ATOM     18  S   UNL A   1      34.064  21.224  24.747  1.00  0.00    -0.157 SA
ATOM     19  C   UNL A   1      35.876  21.291  24.821  1.00  0.00     0.070 C 
ATOM     20  C   UNL A   1      35.898  23.599  25.923  1.00  0.00     0.027 C 
ATOM     21  C   UNL A   1      36.393  22.720  24.774  1.00  0.00     0.013 C 
ENDBRANCH  13  15
ENDBRANCH   8  13
ENDBRANCH   4   7
ENDBRANCH   2   3
ENDBRANCH   1   2
BRANCH   1  22
ATOM     22  C   UNL A   1      33.024  32.692  27.191  1.00  0.00     0.118 C 
BRANCH  22  23
ATOM     23  N   UNL A   1      32.689  34.030  27.666  1.00  0.00    -0.352 N 
ATOM     24  C   UNL A   1      33.152  34.758  28.736  1.00  0.00     0.251 C 
ATOM     25  H   UNL A   1      32.010  34.494  27.123  1.00  0.00     0.163 HD
ATOM     26  O   UNL A   1      32.546  35.773  29.067  1.00  0.00    -0.269 OA
BRANCH  24  27
ATOM     27  C   UNL A   1      34.341  34.321  29.504  1.00  0.00     0.039 A 
ATOM     28  C   UNL A   1      34.156  33.615  30.697  1.00  0.00     0.014 A 
ATOM     29  C   UNL A   1      35.635  34.627  29.079  1.00  0.00     0.014 A 
ATOM     30  C   UNL A   1      35.264  33.133  31.400  1.00  0.00     0.010 A 
ATOM     31  C   UNL A   1      36.733  34.065  29.725  1.00  0.00     0.010 A 
ATOM     32  C   UNL A   1      36.560  33.303  30.889  1.00  0.00    -0.014 A 
BRANCH  32  33
ATOM     33  C   UNL A   1      37.739  32.665  31.534  1.00  0.00     0.031 A 
ATOM     34  C   UNL A   1      38.442  31.511  30.869  1.00  0.00     0.074 A 
ATOM     35  C   UNL A   1      38.121  33.076  32.762  1.00  0.00     0.049 A 
ATOM     36  N   UNL A   1      39.423  30.772  31.318  1.00  0.00    -0.248 NA
ATOM     37  C   UNL A   1      37.960  31.121  29.535  1.00  0.00     0.031 C 
ATOM     38  C   UNL A   1      37.483  34.151  33.527  1.00  0.00     0.029 A 
ATOM     39  N   UNL A   1      39.123  32.634  33.590  1.00  0.00    -0.354 N 
ATOM     40  C   UNL A   1      39.665  29.820  30.334  1.00  0.00     0.074 A 
ATOM     41  C   UNL A   1      38.691  30.044  29.286  1.00  0.00     0.031 C 
ATOM     42  C   UNL A   1      38.123  34.299  34.697  1.00  0.00     0.029 A 
ATOM     43  C   UNL A   1      39.176  33.295  34.797  1.00  0.00     0.049 A 
ATOM     44  H   UNL A   1      39.745  31.912  33.344  1.00  0.00     0.167 HD
ATOM     45  C   UNL A   1      40.623  28.860  30.300  1.00  0.00     0.034 A 
ATOM     46  C   UNL A   1      39.964  33.101  35.872  1.00  0.00     0.034 A 
ATOM     47  C   UNL A   1      41.594  28.662  31.349  1.00  0.00     0.049 A 
ATOM     48  C   UNL A   1      41.001  32.008  35.820  1.00  0.00     0.074 A 
ATOM     49  C   UNL A   1      42.655  27.774  31.381  1.00  0.00     0.029 A 
ATOM     50  N   UNL A   1      41.615  29.348  32.557  1.00  0.00    -0.354 N 
ATOM     51  N   UNL A   1      41.265  31.166  34.846  1.00  0.00    -0.248 NA
ATOM     52  C   UNL A   1      41.851  31.841  37.006  1.00  0.00     0.031 C 
ATOM     53  C   UNL A   1      43.264  27.863  32.637  1.00  0.00     0.029 A 
ATOM     54  C   UNL A   1      42.640  28.867  33.360  1.00  0.00     0.049 A 
ATOM     55  H   UNL A   1      40.993  30.069  32.808  1.00  0.00     0.167 HD
ATOM     56  C   UNL A   1      42.326  30.385  35.298  1.00  0.00     0.074 A 
ATOM     57  C   UNL A   1      42.669  30.875  36.617  1.00  0.00     0.031 C 
ATOM     58  C   UNL A   1      42.957  29.353  34.682  1.00  0.00     0.034 A 
BRANCH  45  59
ATOM     59  C   UNL A   1      40.652  27.935  29.107  1.00  0.00     0.023 A 
ATOM     60  C   UNL A   1      41.572  28.103  28.057  1.00  0.00     0.031 A 
ATOM     61  C   UNL A   1      39.749  26.859  29.022  1.00  0.00     0.131 A 
ATOM     62  C   UNL A   1      41.529  27.251  26.944  1.00  0.00     0.055 A 
ATOM     63  C   UNL A   1      39.763  25.967  27.948  1.00  0.00     0.041 A 
ATOM     64  F   UNL A   1      38.832  26.659  29.983  1.00  0.00    -0.206 F 
ATOM     65  C   UNL A   1      40.648  26.167  26.894  1.00  0.00     0.022 A 
BRANCH  62  66
ATOM     66  S   UNL A   1      42.555  27.652  25.504  1.00  0.00     0.124 S 
ATOM     67  O   UNL A   1      41.895  28.854  24.997  1.00  0.00    -0.237 OA
ATOM     68  O   UNL A   1      43.872  27.849  26.099  1.00  0.00    -0.237 OA
ATOM     69  O   UNL A   1      42.425  26.473  24.651  1.00  0.00    -0.744 OA
ENDBRANCH  62  66
ENDBRANCH  45  59
BRANCH  46  70
ATOM     70  C   UNL A   1      39.789  33.927  37.103  1.00  0.00     0.023 A 
ATOM     71  C   UNL A   1      40.659  34.991  37.393  1.00  0.00     0.031 A 
ATOM     72  C   UNL A   1      38.782  33.630  38.039  1.00  0.00     0.131 A 
ATOM     73  C   UNL A   1      40.541  35.681  38.610  1.00  0.00     0.055 A 
ATOM     74  C   UNL A   1      38.629  34.361  39.218  1.00  0.00     0.041 A 
ATOM     75  F   UNL A   1      37.921  32.625  37.814  1.00  0.00    -0.206 F 
ATOM     76  C   UNL A   1      39.523  35.384  39.517  1.00  0.00     0.022 A 
BRANCH  73  77
ATOM     77  S   UNL A   1      41.809  36.905  39.038  1.00  0.00     0.124 S 
ATOM     78  O   UNL A   1      42.561  37.002  37.793  1.00  0.00    -0.237 OA
ATOM     79  O   UNL A   1      41.000  38.066  39.393  1.00  0.00    -0.237 OA
ATOM     80  O   UNL A   1      42.521  36.280  40.152  1.00  0.00    -0.744 OA
ENDBRANCH  73  77
ENDBRANCH  46  70
BRANCH  58  81
ATOM     81  C   UNL A   1      44.101  28.708  35.426  1.00  0.00     0.023 A 
ATOM     82  C   UNL A   1      43.892  27.634  36.309  1.00  0.00     0.031 A 
ATOM     83  C   UNL A   1      45.415  29.180  35.259  1.00  0.00     0.131 A 
ATOM     84  C   UNL A   1      44.969  27.108  37.036  1.00  0.00     0.055 A 
ATOM     85  C   UNL A   1      46.493  28.606  35.933  1.00  0.00     0.041 A 
ATOM     86  F   UNL A   1      45.673  30.206  34.433  1.00  0.00    -0.206 F 
ATOM     87  C   UNL A   1      46.271  27.573  36.840  1.00  0.00     0.022 A 
BRANCH  84  88
ATOM     88  S   UNL A   1      44.630  25.870  38.318  1.00  0.00     0.124 S 
ATOM     89  O   UNL A   1      45.910  25.800  39.016  1.00  0.00    -0.237 OA
ATOM     90  O   UNL A   1      43.532  26.479  39.059  1.00  0.00    -0.237 OA
ATOM     91  O   UNL A   1      44.274  24.674  37.555  1.00  0.00    -0.744 OA
ENDBRANCH  84  88
ENDBRANCH  58  81
ENDBRANCH  32  33
ENDBRANCH  24  27
ENDBRANCH  22  23
ENDBRANCH   1  22
TORSDOF 15
ENDMDL
