MODEL 1
REMARK VINA RESULT:     -11.7      0.000      0.000
REMARK SMILES C=CCN1C(=O)/C(=C/c2ccc(OCc3cccc(C(=O)NCCCNC(=O)c4ccc(-c5c6nc(c(-c7cc(S(=O)(=O)[O-])ccc7F)c7ccc([nH]7)c(-c7cc(S(=O)(=O)[O-])ccc7F)c7nc(c(-c8cc(S(=O)(=O)[O-])ccc8F)c8ccc5[nH]8)C=C7)C=C6)cc4)c3)cc2)C(=O)NC1=S
REMARK SMILES IDX 20 1 21 2 22 3 19 5 15 6 16 7 92 8 17 9 18 10 14 11 13 12
REMARK SMILES IDX 12 13 9 14 10 15 94 16 11 17 93 18 8 19 4 20 5 21 98 22 6 23
REMARK SMILES IDX 7 24 97 25 99 26 95 27 96 29 3 30 2 31 1 32 23 33 24 34
REMARK SMILES IDX 25 35 26 36 27 37 28 39 29 40 30 41 91 42 31 43 90 44 32 45
REMARK SMILES IDX 33 46 34 47 84 48 35 49 89 50 83 51 85 52 36 53 88 54 82 55
REMARK SMILES IDX 81 56 37 58 69 59 49 60 68 61 50 62 53 63 67 64 86 65 51 66
REMARK SMILES IDX 52 67 66 69 87 70 54 71 38 72 39 73 47 74 40 75 46 76 48 77
REMARK SMILES IDX 45 78 41 79 42 80 43 81 44 82 70 83 71 84 79 85 72 86 78 87
REMARK SMILES IDX 80 88 77 89 73 90 74 91 75 92 76 93 55 94 56 95 64 96 57 97
REMARK SMILES IDX 63 98 65 99 62 100 58 101 59 102 60 103 61 104
REMARK H PARENT 22 4 97 28 26 38 85 57 53 68
REMARK Flexibility Score: inf
ROOT
ATOM      1  C   UNL A   1      42.581  18.672  26.175  1.00  0.00     0.251 C 
ATOM      2  O   UNL A   1      42.401  17.538  25.729  1.00  0.00    -0.269 OA
ATOM      3  N   UNL A   1      41.642  19.191  27.050  1.00  0.00    -0.352 N 
ATOM      4  H   UNL A   1      40.861  18.618  27.226  1.00  0.00     0.163 HD
ENDROOT
BRANCH   1   5
ATOM      5  C   UNL A   1      43.752  19.468  25.682  1.00  0.00     0.040 A 
ATOM      6  C   UNL A   1      44.773  21.526  24.801  1.00  0.00    -0.010 A 
ATOM      7  C   UNL A   1      45.962  20.816  24.587  1.00  0.00     0.007 A 
ATOM      8  C   UNL A   1      43.700  20.840  25.404  1.00  0.00     0.021 A 
ATOM      9  C   UNL A   1      46.065  19.470  24.949  1.00  0.00     0.001 A 
ATOM     10  C   UNL A   1      44.961  18.797  25.481  1.00  0.00     0.014 A 
BRANCH   6  11
ATOM     11  C   UNL A   1      44.626  22.946  24.258  1.00  0.00     0.265 C 
BRANCH  11  12
ATOM     12  O   UNL A   1      45.252  23.993  25.014  1.00  0.00    -0.489 OA
BRANCH  12  13
ATOM     13  C   UNL A   1      44.888  24.105  26.325  1.00  0.00     0.119 A 
ATOM     14  C   UNL A   1      44.444  23.803  29.076  1.00  0.00    -0.024 A 
ATOM     15  C   UNL A   1      45.722  24.085  28.606  1.00  0.00     0.012 A 
ATOM     16  C   UNL A   1      43.375  23.869  28.167  1.00  0.00     0.012 A 
ATOM     17  C   UNL A   1      45.937  24.254  27.234  1.00  0.00     0.047 A 
ATOM     18  C   UNL A   1      43.587  24.017  26.797  1.00  0.00     0.047 A 
BRANCH  14  19
ATOM     19  C   UNL A   1      44.191  23.463  30.485  1.00  0.00     0.027 C 
ATOM     20  N   UNL A   1      43.718  24.319  33.948  1.00  0.00    -0.281 N 
ATOM     21  C   UNL A   1      44.250  23.566  32.906  1.00  0.00     0.265 C 
ATOM     22  C   UNL A   1      43.680  25.706  33.900  1.00  0.00     0.183 C 
ATOM     23  O   UNL A   1      44.734  22.446  33.064  1.00  0.00    -0.268 OA
ATOM     24  C   UNL A   1      44.314  24.241  31.583  1.00  0.00     0.106 C 
ATOM     25  N   UNL A   1      44.192  26.294  32.763  1.00  0.00    -0.298 N 
ATOM     26  S   UNL A   1      43.115  26.745  35.088  1.00  0.00    -0.040 S 
ATOM     27  C   UNL A   1      44.576  25.683  31.599  1.00  0.00     0.263 C 
ATOM     28  H   UNL A   1      44.294  27.273  32.791  1.00  0.00     0.172 HD
ATOM     29  O   UNL A   1      45.080  26.314  30.669  1.00  0.00    -0.269 OA
BRANCH  20  30
ATOM     30  C   UNL A   1      43.461  23.556  35.182  1.00  0.00     0.155 C 
BRANCH  30  31
ATOM     31  C   UNL A   1      44.657  23.635  36.099  1.00  0.00    -0.013 C 
ATOM     32  C   UNL A   1      45.394  22.569  36.445  1.00  0.00     0.006 C 
ENDBRANCH  30  31
ENDBRANCH  20  30
ENDBRANCH  14  19
ENDBRANCH  12  13
ENDBRANCH  11  12
ENDBRANCH   6  11
ENDBRANCH   1   5
BRANCH   3  33
ATOM     33  C   UNL A   1      41.652  20.465  27.741  1.00  0.00     0.118 C 
BRANCH  33  34
ATOM     34  C   UNL A   1      40.501  21.414  27.429  1.00  0.00     0.042 C 
BRANCH  34  35
ATOM     35  C   UNL A   1      39.801  21.273  26.072  1.00  0.00     0.118 C 
BRANCH  35  36
ATOM     36  N   UNL A   1      38.648  22.145  25.898  1.00  0.00    -0.352 N 
ATOM     37  C   UNL A   1      38.341  23.440  26.251  1.00  0.00     0.251 C 
ATOM     38  H   UNL A   1      37.913  21.705  25.414  1.00  0.00     0.163 HD
ATOM     39  O   UNL A   1      37.167  23.805  26.181  1.00  0.00    -0.269 OA
BRANCH  37  40
ATOM     40  C   UNL A   1      39.293  24.406  26.803  1.00  0.00     0.039 A 
ATOM     41  C   UNL A   1      40.077  25.126  25.884  1.00  0.00     0.014 A 
ATOM     42  C   UNL A   1      39.381  24.681  28.157  1.00  0.00     0.014 A 
ATOM     43  C   UNL A   1      40.782  26.241  26.298  1.00  0.00     0.010 A 
ATOM     44  C   UNL A   1      39.952  25.873  28.549  1.00  0.00     0.010 A 
ATOM     45  C   UNL A   1      40.610  26.681  27.610  1.00  0.00    -0.014 A 
BRANCH  45  46
ATOM     46  C   UNL A   1      41.024  28.033  28.014  1.00  0.00     0.031 A 
ATOM     47  C   UNL A   1      42.479  28.369  28.024  1.00  0.00     0.074 A 
ATOM     48  C   UNL A   1      40.079  28.858  28.507  1.00  0.00     0.049 A 
ATOM     49  N   UNL A   1      43.081  29.410  28.523  1.00  0.00    -0.248 NA
ATOM     50  C   UNL A   1      43.385  27.352  27.465  1.00  0.00     0.031 C 
ATOM     51  C   UNL A   1      38.647  28.542  28.613  1.00  0.00     0.029 A 
ATOM     52  N   UNL A   1      40.171  30.118  29.027  1.00  0.00    -0.354 N 
ATOM     53  C   UNL A   1      44.439  29.153  28.384  1.00  0.00     0.074 A 
ATOM     54  C   UNL A   1      44.565  27.824  27.828  1.00  0.00     0.031 C 
ATOM     55  C   UNL A   1      37.995  29.597  29.121  1.00  0.00     0.029 A 
ATOM     56  C   UNL A   1      38.961  30.638  29.427  1.00  0.00     0.049 A 
ATOM     57  H   UNL A   1      41.021  30.606  29.108  1.00  0.00     0.167 HD
ATOM     58  C   UNL A   1      45.476  29.974  28.678  1.00  0.00     0.034 A 
ATOM     59  C   UNL A   1      38.679  31.830  29.984  1.00  0.00     0.034 A 
ATOM     60  C   UNL A   1      45.274  31.302  29.204  1.00  0.00     0.049 A 
ATOM     61  C   UNL A   1      39.836  32.763  30.214  1.00  0.00     0.074 A 
ATOM     62  C   UNL A   1      46.210  32.276  29.493  1.00  0.00     0.029 A 
ATOM     63  N   UNL A   1      44.027  31.843  29.514  1.00  0.00    -0.354 N 
ATOM     64  N   UNL A   1      41.119  32.542  30.024  1.00  0.00    -0.248 NA
ATOM     65  C   UNL A   1      39.515  34.101  30.709  1.00  0.00     0.031 C 
ATOM     66  C   UNL A   1      45.535  33.385  30.018  1.00  0.00     0.029 A 
ATOM     67  C   UNL A   1      44.170  33.131  30.002  1.00  0.00     0.049 A 
ATOM     68  H   UNL A   1      43.167  31.375  29.403  1.00  0.00     0.167 HD
ATOM     69  C   UNL A   1      41.763  33.722  30.368  1.00  0.00     0.074 A 
ATOM     70  C   UNL A   1      40.716  34.658  30.745  1.00  0.00     0.031 C 
ATOM     71  C   UNL A   1      43.089  34.013  30.384  1.00  0.00     0.034 A 
BRANCH  58  72
ATOM     72  C   UNL A   1      46.869  29.427  28.460  1.00  0.00     0.023 A 
ATOM     73  C   UNL A   1      47.375  29.190  27.167  1.00  0.00     0.031 A 
ATOM     74  C   UNL A   1      47.662  29.037  29.551  1.00  0.00     0.131 A 
ATOM     75  C   UNL A   1      48.569  28.472  26.999  1.00  0.00     0.055 A 
ATOM     76  C   UNL A   1      48.902  28.414  29.376  1.00  0.00     0.041 A 
ATOM     77  F   UNL A   1      47.232  29.214  30.810  1.00  0.00    -0.206 F 
ATOM     78  C   UNL A   1      49.351  28.106  28.095  1.00  0.00     0.022 A 
BRANCH  75  79
ATOM     79  S   UNL A   1      48.983  27.859  25.341  1.00  0.00     0.124 S 
ATOM     80  O   UNL A   1      50.201  28.611  25.046  1.00  0.00    -0.237 OA
ATOM     81  O   UNL A   1      49.155  26.429  25.566  1.00  0.00    -0.237 OA
ATOM     82  O   UNL A   1      47.820  28.229  24.538  1.00  0.00    -0.744 OA
ENDBRANCH  75  79
ENDBRANCH  58  72
BRANCH  59  83
ATOM     83  C   UNL A   1      37.274  32.198  30.317  1.00  0.00     0.023 A 
ATOM     84  C   UNL A   1      36.373  32.585  29.312  1.00  0.00     0.031 A 
ATOM     85  C   UNL A   1      36.797  32.136  31.638  1.00  0.00     0.131 A 
ATOM     86  C   UNL A   1      35.051  32.923  29.645  1.00  0.00     0.055 A 
ATOM     87  C   UNL A   1      35.470  32.434  31.960  1.00  0.00     0.041 A 
ATOM     88  F   UNL A   1      37.607  31.751  32.637  1.00  0.00    -0.206 F 
ATOM     89  C   UNL A   1      34.590  32.840  30.961  1.00  0.00     0.022 A 
BRANCH  86  90
ATOM     90  S   UNL A   1      33.948  33.521  28.334  1.00  0.00     0.124 S 
ATOM     91  O   UNL A   1      32.926  34.226  29.100  1.00  0.00    -0.237 OA
ATOM     92  O   UNL A   1      34.845  34.354  27.541  1.00  0.00    -0.237 OA
ATOM     93  O   UNL A   1      33.500  32.293  27.681  1.00  0.00    -0.744 OA
ENDBRANCH  86  90
ENDBRANCH  59  83
BRANCH  71  94
ATOM     94  C   UNL A   1      43.450  35.409  30.816  1.00  0.00     0.023 A 
ATOM     95  C   UNL A   1      43.591  35.733  32.175  1.00  0.00     0.031 A 
ATOM     96  C   UNL A   1      43.621  36.425  29.863  1.00  0.00     0.131 A 
ATOM     97  C   UNL A   1      43.830  37.061  32.550  1.00  0.00     0.055 A 
ATOM     98  C   UNL A   1      43.925  37.732  30.237  1.00  0.00     0.041 A 
ATOM     99  F   UNL A   1      43.493  36.161  28.552  1.00  0.00    -0.206 F 
ATOM    100  C   UNL A   1      44.016  38.059  31.589  1.00  0.00     0.022 A 
BRANCH  97 101
ATOM    101  S   UNL A   1      43.784  37.482  34.311  1.00  0.00     0.124 S 
ATOM    102  O   UNL A   1      42.609  38.343  34.385  1.00  0.00    -0.237 OA
ATOM    103  O   UNL A   1      43.656  36.171  34.941  1.00  0.00    -0.237 OA
ATOM    104  O   UNL A   1      45.061  38.156  34.534  1.00  0.00    -0.744 OA
ENDBRANCH  97 101
ENDBRANCH  71  94
ENDBRANCH  45  46
ENDBRANCH  37  40
ENDBRANCH  35  36
ENDBRANCH  34  35
ENDBRANCH  33  34
ENDBRANCH   3  33
TORSDOF 19
ENDMDL
MODEL 2
REMARK VINA RESULT:     -11.5      5.049      9.769
REMARK SMILES C=CCN1C(=O)/C(=C/c2ccc(OCc3cccc(C(=O)NCCCNC(=O)c4ccc(-c5c6nc(c(-c7cc(S(=O)(=O)[O-])ccc7F)c7ccc([nH]7)c(-c7cc(S(=O)(=O)[O-])ccc7F)c7nc(c(-c8cc(S(=O)(=O)[O-])ccc8F)c8ccc5[nH]8)C=C7)C=C6)cc4)c3)cc2)C(=O)NC1=S
REMARK SMILES IDX 20 1 21 2 22 3 19 5 15 6 16 7 92 8 17 9 18 10 14 11 13 12
REMARK SMILES IDX 12 13 9 14 10 15 94 16 11 17 93 18 8 19 4 20 5 21 98 22 6 23
REMARK SMILES IDX 7 24 97 25 99 26 95 27 96 29 3 30 2 31 1 32 23 33 24 34
REMARK SMILES IDX 25 35 26 36 27 37 28 39 29 40 30 41 91 42 31 43 90 44 32 45
REMARK SMILES IDX 33 46 34 47 84 48 35 49 89 50 83 51 85 52 36 53 88 54 82 55
REMARK SMILES IDX 81 56 37 58 69 59 49 60 68 61 50 62 53 63 67 64 86 65 51 66
REMARK SMILES IDX 52 67 66 69 87 70 54 71 38 72 39 73 47 74 40 75 46 76 48 77
REMARK SMILES IDX 45 78 41 79 42 80 43 81 44 82 70 83 71 84 79 85 72 86 78 87
REMARK SMILES IDX 80 88 77 89 73 90 74 91 75 92 76 93 55 94 56 95 64 96 57 97
REMARK SMILES IDX 63 98 65 99 62 100 58 101 59 102 60 103 61 104
REMARK H PARENT 22 4 97 28 26 38 85 57 53 68
REMARK Flexibility Score: inf
ROOT
ATOM      1  C   UNL A   1      33.084  28.407  23.712  1.00  0.00     0.251 C 
ATOM      2  O   UNL A   1      33.414  28.700  22.561  1.00  0.00    -0.269 OA
ATOM      3  N   UNL A   1      33.648  29.117  24.759  1.00  0.00    -0.352 N 
ATOM      4  H   UNL A   1      34.317  29.793  24.503  1.00  0.00     0.163 HD
ENDROOT
BRANCH   1   5
ATOM      5  C   UNL A   1      32.163  27.244  23.928  1.00  0.00     0.040 A 
ATOM      6  C   UNL A   1      31.723  24.852  24.302  1.00  0.00    -0.010 A 
ATOM      7  C   UNL A   1      30.355  25.102  24.131  1.00  0.00     0.007 A 
ATOM      8  C   UNL A   1      32.601  25.953  24.252  1.00  0.00     0.021 A 
ATOM      9  C   UNL A   1      29.889  26.399  23.904  1.00  0.00     0.001 A 
ATOM     10  C   UNL A   1      30.790  27.462  23.791  1.00  0.00     0.014 A 
BRANCH   6  11
ATOM     11  C   UNL A   1      32.230  23.414  24.390  1.00  0.00     0.265 C 
BRANCH  11  12
ATOM     12  O   UNL A   1      33.170  23.000  23.388  1.00  0.00    -0.489 OA
BRANCH  12  13
ATOM     13  C   UNL A   1      34.437  22.721  23.813  1.00  0.00     0.119 A 
ATOM     14  C   UNL A   1      36.931  22.606  25.086  1.00  0.00    -0.024 A 
ATOM     15  C   UNL A   1      35.786  22.204  25.765  1.00  0.00     0.012 A 
ATOM     16  C   UNL A   1      36.825  22.878  23.712  1.00  0.00     0.012 A 
ATOM     17  C   UNL A   1      34.545  22.245  25.121  1.00  0.00     0.047 A 
ATOM     18  C   UNL A   1      35.588  22.939  23.072  1.00  0.00     0.047 A 
BRANCH  14  19
ATOM     19  C   UNL A   1      38.232  22.731  25.761  1.00  0.00     0.027 C 
ATOM     20  N   UNL A   1      41.436  21.460  26.795  1.00  0.00    -0.281 N 
ATOM     21  C   UNL A   1      40.235  22.135  26.990  1.00  0.00     0.265 C 
ATOM     22  C   UNL A   1      41.488  20.238  26.138  1.00  0.00     0.183 C 
ATOM     23  O   UNL A   1      40.049  22.920  27.917  1.00  0.00    -0.268 OA
ATOM     24  C   UNL A   1      39.126  21.767  26.071  1.00  0.00     0.106 C 
ATOM     25  N   UNL A   1      40.287  19.735  25.685  1.00  0.00    -0.298 N 
ATOM     26  S   UNL A   1      42.844  19.290  25.868  1.00  0.00    -0.040 S 
ATOM     27  C   UNL A   1      39.071  20.364  25.646  1.00  0.00     0.263 C 
ATOM     28  H   UNL A   1      40.306  18.810  25.349  1.00  0.00     0.172 HD
ATOM     29  O   UNL A   1      38.051  19.785  25.273  1.00  0.00    -0.269 OA
BRANCH  20  30
ATOM     30  C   UNL A   1      42.572  22.001  27.563  1.00  0.00     0.155 C 
BRANCH  30  31
ATOM     31  C   UNL A   1      43.288  23.055  26.757  1.00  0.00    -0.013 C 
ATOM     32  C   UNL A   1      44.371  22.803  26.006  1.00  0.00     0.006 C 
ENDBRANCH  30  31
ENDBRANCH  20  30
ENDBRANCH  14  19
ENDBRANCH  12  13
ENDBRANCH  11  12
ENDBRANCH   6  11
ENDBRANCH   1   5
BRANCH   3  33
ATOM     33  C   UNL A   1      33.389  28.998  26.179  1.00  0.00     0.118 C 
BRANCH  33  34
ATOM     34  C   UNL A   1      32.861  30.245  26.879  1.00  0.00     0.042 C 
BRANCH  34  35
ATOM     35  C   UNL A   1      33.884  31.225  27.467  1.00  0.00     0.118 C 
BRANCH  35  36
ATOM     36  N   UNL A   1      33.396  32.591  27.603  1.00  0.00    -0.352 N 
ATOM     37  C   UNL A   1      33.650  33.638  28.459  1.00  0.00     0.251 C 
ATOM     38  H   UNL A   1      32.726  32.819  26.920  1.00  0.00     0.163 HD
ATOM     39  O   UNL A   1      32.873  34.593  28.465  1.00  0.00    -0.269 OA
BRANCH  37  40
ATOM     40  C   UNL A   1      34.728  33.668  29.449  1.00  0.00     0.039 A 
ATOM     41  C   UNL A   1      34.492  33.010  30.670  1.00  0.00     0.014 A 
ATOM     42  C   UNL A   1      35.964  34.237  29.193  1.00  0.00     0.014 A 
ATOM     43  C   UNL A   1      35.543  32.750  31.531  1.00  0.00     0.010 A 
ATOM     44  C   UNL A   1      37.038  33.849  29.967  1.00  0.00     0.010 A 
ATOM     45  C   UNL A   1      36.835  33.062  31.109  1.00  0.00    -0.014 A 
BRANCH  45  46
ATOM     46  C   UNL A   1      38.009  32.495  31.790  1.00  0.00     0.031 A 
ATOM     47  C   UNL A   1      38.789  31.419  31.108  1.00  0.00     0.074 A 
ATOM     48  C   UNL A   1      38.233  32.865  33.066  1.00  0.00     0.049 A 
ATOM     49  N   UNL A   1      39.721  30.647  31.588  1.00  0.00    -0.248 NA
ATOM     50  C   UNL A   1      38.407  31.121  29.718  1.00  0.00     0.031 C 
ATOM     51  C   UNL A   1      37.438  33.846  33.819  1.00  0.00     0.029 A 
ATOM     52  N   UNL A   1      39.176  32.456  33.966  1.00  0.00    -0.354 N 
ATOM     53  C   UNL A   1      40.004  29.738  30.577  1.00  0.00     0.074 A 
ATOM     54  C   UNL A   1      39.087  30.010  29.492  1.00  0.00     0.031 C 
ATOM     55  C   UNL A   1      37.956  33.992  35.046  1.00  0.00     0.029 A 
ATOM     56  C   UNL A   1      39.080  33.081  35.188  1.00  0.00     0.049 A 
ATOM     57  H   UNL A   1      39.860  31.779  33.759  1.00  0.00     0.167 HD
ATOM     58  C   UNL A   1      40.964  28.782  30.562  1.00  0.00     0.034 A 
ATOM     59  C   UNL A   1      39.825  32.923  36.298  1.00  0.00     0.034 A 
ATOM     60  C   UNL A   1      41.865  28.587  31.670  1.00  0.00     0.049 A 
ATOM     61  C   UNL A   1      40.945  31.923  36.225  1.00  0.00     0.074 A 
ATOM     62  C   UNL A   1      42.927  27.710  31.786  1.00  0.00     0.029 A 
ATOM     63  N   UNL A   1      41.806  29.300  32.867  1.00  0.00    -0.354 N 
ATOM     64  N   UNL A   1      41.253  31.104  35.243  1.00  0.00    -0.248 NA
ATOM     65  C   UNL A   1      41.826  31.836  37.390  1.00  0.00     0.031 C 
ATOM     66  C   UNL A   1      43.478  27.862  33.065  1.00  0.00     0.029 A 
ATOM     67  C   UNL A   1      42.802  28.877  33.729  1.00  0.00     0.049 A 
ATOM     68  H   UNL A   1      41.148  30.005  33.070  1.00  0.00     0.167 HD
ATOM     69  C   UNL A   1      42.375  30.407  35.666  1.00  0.00     0.074 A 
ATOM     70  C   UNL A   1      42.704  30.932  36.982  1.00  0.00     0.031 C 
ATOM     71  C   UNL A   1      43.071  29.421  35.042  1.00  0.00     0.034 A 
BRANCH  58  72
ATOM     72  C   UNL A   1      41.035  27.898  29.336  1.00  0.00     0.023 A 
ATOM     73  C   UNL A   1      42.066  28.035  28.386  1.00  0.00     0.031 A 
ATOM     74  C   UNL A   1      40.008  26.984  29.054  1.00  0.00     0.131 A 
ATOM     75  C   UNL A   1      41.981  27.368  27.154  1.00  0.00     0.055 A 
ATOM     76  C   UNL A   1      39.983  26.243  27.868  1.00  0.00     0.041 A 
ATOM     77  F   UNL A   1      38.983  26.819  29.906  1.00  0.00    -0.206 F 
ATOM     78  C   UNL A   1      40.961  26.452  26.899  1.00  0.00     0.022 A 
BRANCH  75  79
ATOM     79  S   UNL A   1      43.113  27.863  25.824  1.00  0.00     0.124 S 
ATOM     80  O   UNL A   1      43.983  26.692  25.729  1.00  0.00    -0.237 OA
ATOM     81  O   UNL A   1      42.208  28.078  24.701  1.00  0.00    -0.237 OA
ATOM     82  O   UNL A   1      43.755  29.066  26.349  1.00  0.00    -0.744 OA
ENDBRANCH  75  79
ENDBRANCH  58  72
BRANCH  59  83
ATOM     83  C   UNL A   1      39.553  33.736  37.516  1.00  0.00     0.023 A 
ATOM     84  C   UNL A   1      38.806  33.210  38.583  1.00  0.00     0.031 A 
ATOM     85  C   UNL A   1      40.061  35.041  37.651  1.00  0.00     0.131 A 
ATOM     86  C   UNL A   1      38.564  33.992  39.725  1.00  0.00     0.055 A 
ATOM     87  C   UNL A   1      39.853  35.800  38.806  1.00  0.00     0.041 A 
ATOM     88  F   UNL A   1      40.801  35.587  36.673  1.00  0.00    -0.206 F 
ATOM     89  C   UNL A   1      39.092  35.279  39.849  1.00  0.00     0.022 A 
BRANCH  86  90
ATOM     90  S   UNL A   1      37.506  33.315  41.035  1.00  0.00     0.124 S 
ATOM     91  O   UNL A   1      36.284  33.005  40.302  1.00  0.00    -0.237 OA
ATOM     92  O   UNL A   1      38.287  32.172  41.494  1.00  0.00    -0.237 OA
ATOM     93  O   UNL A   1      37.398  34.418  41.987  1.00  0.00    -0.744 OA
ENDBRANCH  86  90
ENDBRANCH  59  83
BRANCH  71  94
ATOM     94  C   UNL A   1      44.254  28.876  35.794  1.00  0.00     0.023 A 
ATOM     95  C   UNL A   1      44.118  27.784  36.666  1.00  0.00     0.031 A 
ATOM     96  C   UNL A   1      45.518  29.473  35.659  1.00  0.00     0.131 A 
ATOM     97  C   UNL A   1      45.216  27.362  37.426  1.00  0.00     0.055 A 
ATOM     98  C   UNL A   1      46.623  29.006  36.367  1.00  0.00     0.041 A 
ATOM     99  F   UNL A   1      45.695  30.521  34.838  1.00  0.00    -0.206 F 
ATOM    100  C   UNL A   1      46.472  27.954  37.268  1.00  0.00     0.022 A 
BRANCH  97 101
ATOM    101  S   UNL A   1      44.951  26.102  38.700  1.00  0.00     0.124 S 
ATOM    102  O   UNL A   1      44.239  25.067  37.958  1.00  0.00    -0.237 OA
ATOM    103  O   UNL A   1      46.315  25.775  39.104  1.00  0.00    -0.237 OA
ATOM    104  O   UNL A   1      44.155  26.799  39.709  1.00  0.00    -0.744 OA
ENDBRANCH  97 101
ENDBRANCH  71  94
ENDBRANCH  45  46
ENDBRANCH  37  40
ENDBRANCH  35  36
ENDBRANCH  34  35
ENDBRANCH  33  34
ENDBRANCH   3  33
TORSDOF 19
ENDMDL
MODEL 3
REMARK VINA RESULT:     -11.5      4.575     11.191
REMARK SMILES C=CCN1C(=O)/C(=C/c2ccc(OCc3cccc(C(=O)NCCCNC(=O)c4ccc(-c5c6nc(c(-c7cc(S(=O)(=O)[O-])ccc7F)c7ccc([nH]7)c(-c7cc(S(=O)(=O)[O-])ccc7F)c7nc(c(-c8cc(S(=O)(=O)[O-])ccc8F)c8ccc5[nH]8)C=C7)C=C6)cc4)c3)cc2)C(=O)NC1=S
REMARK SMILES IDX 20 1 21 2 22 3 19 5 15 6 16 7 92 8 17 9 18 10 14 11 13 12
REMARK SMILES IDX 12 13 9 14 10 15 94 16 11 17 93 18 8 19 4 20 5 21 98 22 6 23
REMARK SMILES IDX 7 24 97 25 99 26 95 27 96 29 3 30 2 31 1 32 23 33 24 34
REMARK SMILES IDX 25 35 26 36 27 37 28 39 29 40 30 41 91 42 31 43 90 44 32 45
REMARK SMILES IDX 33 46 34 47 84 48 35 49 89 50 83 51 85 52 36 53 88 54 82 55
REMARK SMILES IDX 81 56 37 58 69 59 49 60 68 61 50 62 53 63 67 64 86 65 51 66
REMARK SMILES IDX 52 67 66 69 87 70 54 71 38 72 39 73 47 74 40 75 46 76 48 77
REMARK SMILES IDX 45 78 41 79 42 80 43 81 44 82 70 83 71 84 79 85 72 86 78 87
REMARK SMILES IDX 80 88 77 89 73 90 74 91 75 92 76 93 55 94 56 95 64 96 57 97
REMARK SMILES IDX 63 98 65 99 62 100 58 101 59 102 60 103 61 104
REMARK H PARENT 22 4 97 28 26 38 85 57 53 68
REMARK Flexibility Score: inf
ROOT
ATOM      1  C   UNL A   1      30.811  29.220  23.985  1.00  0.00     0.251 C 
ATOM      2  O   UNL A   1      29.764  29.849  23.814  1.00  0.00    -0.269 OA
ATOM      3  N   UNL A   1      31.937  29.917  24.389  1.00  0.00    -0.352 N 
ATOM      4  H   UNL A   1      31.827  30.891  24.474  1.00  0.00     0.163 HD
ENDROOT
BRANCH   1   5
ATOM      5  C   UNL A   1      30.839  27.756  23.662  1.00  0.00     0.040 A 
ATOM      6  C   UNL A   1      30.717  25.381  24.294  1.00  0.00    -0.010 A 
ATOM      7  C   UNL A   1      31.103  25.040  22.991  1.00  0.00     0.007 A 
ATOM      8  C   UNL A   1      30.536  26.748  24.586  1.00  0.00     0.021 A 
ATOM      9  C   UNL A   1      31.314  26.029  22.026  1.00  0.00     0.001 A 
ATOM     10  C   UNL A   1      31.195  27.379  22.364  1.00  0.00     0.014 A 
BRANCH   6  11
ATOM     11  C   UNL A   1      30.644  24.305  25.374  1.00  0.00     0.265 C 
BRANCH  11  12
ATOM     12  O   UNL A   1      30.648  22.941  24.926  1.00  0.00    -0.489 OA
BRANCH  12  13
ATOM     13  C   UNL A   1      31.815  22.249  25.078  1.00  0.00     0.119 A 
ATOM     14  C   UNL A   1      34.432  21.374  25.566  1.00  0.00    -0.024 A 
ATOM     15  C   UNL A   1      33.616  21.748  26.628  1.00  0.00     0.012 A 
ATOM     16  C   UNL A   1      33.852  21.264  24.291  1.00  0.00     0.012 A 
ATOM     17  C   UNL A   1      32.304  22.166  26.383  1.00  0.00     0.047 A 
ATOM     18  C   UNL A   1      32.551  21.699  24.040  1.00  0.00     0.047 A 
BRANCH  14  19
ATOM     19  C   UNL A   1      35.861  21.078  25.750  1.00  0.00     0.027 C 
ATOM     20  N   UNL A   1      39.282  22.040  26.316  1.00  0.00    -0.281 N 
ATOM     21  C   UNL A   1      38.272  21.321  25.684  1.00  0.00     0.265 C 
ATOM     22  C   UNL A   1      39.162  23.399  26.568  1.00  0.00     0.183 C 
ATOM     23  O   UNL A   1      38.481  20.300  25.032  1.00  0.00    -0.268 OA
ATOM     24  C   UNL A   1      36.914  21.924  25.738  1.00  0.00     0.106 C 
ATOM     25  N   UNL A   1      37.987  23.996  26.164  1.00  0.00    -0.298 N 
ATOM     26  S   UNL A   1      40.304  24.403  27.276  1.00  0.00    -0.040 S 
ATOM     27  C   UNL A   1      36.850  23.389  25.702  1.00  0.00     0.263 C 
ATOM     28  H   UNL A   1      37.961  24.979  26.215  1.00  0.00     0.172 HD
ATOM     29  O   UNL A   1      35.879  24.037  25.310  1.00  0.00    -0.269 OA
BRANCH  20  30
ATOM     30  C   UNL A   1      40.560  21.316  26.440  1.00  0.00     0.155 C 
BRANCH  30  31
ATOM     31  C   UNL A   1      41.700  22.192  25.983  1.00  0.00    -0.013 C 
ATOM     32  C   UNL A   1      42.841  21.712  25.467  1.00  0.00     0.006 C 
ENDBRANCH  30  31
ENDBRANCH  20  30
ENDBRANCH  14  19
ENDBRANCH  12  13
ENDBRANCH  11  12
ENDBRANCH   6  11
ENDBRANCH   1   5
BRANCH   3  33
ATOM     33  C   UNL A   1      33.256  29.405  24.701  1.00  0.00     0.118 C 
BRANCH  33  34
ATOM     34  C   UNL A   1      33.458  28.869  26.115  1.00  0.00     0.042 C 
BRANCH  34  35
ATOM     35  C   UNL A   1      32.771  29.610  27.268  1.00  0.00     0.118 C 
BRANCH  35  36
ATOM     36  N   UNL A   1      33.130  31.017  27.376  1.00  0.00    -0.352 N 
ATOM     37  C   UNL A   1      34.239  31.711  27.805  1.00  0.00     0.251 C 
ATOM     38  H   UNL A   1      32.410  31.613  27.071  1.00  0.00     0.163 HD
ATOM     39  O   UNL A   1      34.131  32.920  28.012  1.00  0.00    -0.269 OA
BRANCH  37  40
ATOM     40  C   UNL A   1      35.532  31.106  28.132  1.00  0.00     0.039 A 
ATOM     41  C   UNL A   1      36.624  31.979  28.288  1.00  0.00     0.014 A 
ATOM     42  C   UNL A   1      35.686  29.751  28.367  1.00  0.00     0.014 A 
ATOM     43  C   UNL A   1      37.795  31.528  28.868  1.00  0.00     0.010 A 
ATOM     44  C   UNL A   1      36.787  29.330  29.084  1.00  0.00     0.010 A 
ATOM     45  C   UNL A   1      37.820  30.231  29.380  1.00  0.00    -0.014 A 
BRANCH  45  46
ATOM     46  C   UNL A   1      38.874  29.809  30.316  1.00  0.00     0.031 A 
ATOM     47  C   UNL A   1      38.891  30.390  31.692  1.00  0.00     0.074 A 
ATOM     48  C   UNL A   1      39.867  29.035  29.836  1.00  0.00     0.049 A 
ATOM     49  N   UNL A   1      39.818  30.321  32.603  1.00  0.00    -0.248 NA
ATOM     50  C   UNL A   1      37.738  31.229  32.057  1.00  0.00     0.031 C 
ATOM     51  C   UNL A   1      39.952  28.517  28.462  1.00  0.00     0.029 A 
ATOM     52  N   UNL A   1      41.002  28.561  30.430  1.00  0.00    -0.354 N 
ATOM     53  C   UNL A   1      39.385  31.148  33.632  1.00  0.00     0.074 A 
ATOM     54  C   UNL A   1      38.154  31.765  33.192  1.00  0.00     0.031 C 
ATOM     55  C   UNL A   1      41.053  27.763  28.338  1.00  0.00     0.029 A 
ATOM     56  C   UNL A   1      41.778  27.788  29.597  1.00  0.00     0.049 A 
ATOM     57  H   UNL A   1      41.241  28.754  31.365  1.00  0.00     0.167 HD
ATOM     58  C   UNL A   1      39.965  31.345  34.841  1.00  0.00     0.034 A 
ATOM     59  C   UNL A   1      42.951  27.174  29.838  1.00  0.00     0.034 A 
ATOM     60  C   UNL A   1      41.181  30.671  35.225  1.00  0.00     0.049 A 
ATOM     61  C   UNL A   1      43.528  27.330  31.218  1.00  0.00     0.074 A 
ATOM     62  C   UNL A   1      41.857  30.713  36.429  1.00  0.00     0.029 A 
ATOM     63  N   UNL A   1      41.902  29.815  34.392  1.00  0.00    -0.354 N 
ATOM     64  N   UNL A   1      43.085  28.065  32.215  1.00  0.00    -0.248 NA
ATOM     65  C   UNL A   1      44.740  26.567  31.515  1.00  0.00     0.031 C 
ATOM     66  C   UNL A   1      43.006  29.921  36.309  1.00  0.00     0.029 A 
ATOM     67  C   UNL A   1      43.019  29.333  35.050  1.00  0.00     0.049 A 
ATOM     68  H   UNL A   1      41.651  29.588  33.467  1.00  0.00     0.167 HD
ATOM     69  C   UNL A   1      43.961  27.846  33.268  1.00  0.00     0.074 A 
ATOM     70  C   UNL A   1      44.938  26.882  32.786  1.00  0.00     0.031 C 
ATOM     71  C   UNL A   1      43.974  28.389  34.513  1.00  0.00     0.034 A 
BRANCH  58  72
ATOM     72  C   UNL A   1      39.297  32.334  35.771  1.00  0.00     0.023 A 
ATOM     73  C   UNL A   1      39.711  33.678  35.840  1.00  0.00     0.031 A 
ATOM     74  C   UNL A   1      38.310  31.910  36.676  1.00  0.00     0.131 A 
ATOM     75  C   UNL A   1      39.236  34.510  36.866  1.00  0.00     0.055 A 
ATOM     76  C   UNL A   1      37.765  32.773  37.631  1.00  0.00     0.041 A 
ATOM     77  F   UNL A   1      37.885  30.636  36.679  1.00  0.00    -0.206 F 
ATOM     78  C   UNL A   1      38.245  34.075  37.746  1.00  0.00     0.022 A 
BRANCH  75  79
ATOM     79  S   UNL A   1      40.072  36.096  37.149  1.00  0.00     0.124 S 
ATOM     80  O   UNL A   1      39.960  36.725  35.835  1.00  0.00    -0.237 OA
ATOM     81  O   UNL A   1      39.271  36.691  38.212  1.00  0.00    -0.237 OA
ATOM     82  O   UNL A   1      41.427  35.706  37.532  1.00  0.00    -0.744 OA
ENDBRANCH  75  79
ENDBRANCH  58  72
BRANCH  59  83
ATOM     83  C   UNL A   1      43.609  26.356  28.781  1.00  0.00     0.023 A 
ATOM     84  C   UNL A   1      44.398  26.960  27.788  1.00  0.00     0.031 A 
ATOM     85  C   UNL A   1      43.492  24.954  28.764  1.00  0.00     0.131 A 
ATOM     86  C   UNL A   1      45.014  26.170  26.803  1.00  0.00     0.055 A 
ATOM     87  C   UNL A   1      44.140  24.170  27.806  1.00  0.00     0.041 A 
ATOM     88  F   UNL A   1      42.770  24.321  29.702  1.00  0.00    -0.206 F 
ATOM     89  C   UNL A   1      44.900  24.779  26.811  1.00  0.00     0.022 A 
BRANCH  86  90
ATOM     90  S   UNL A   1      45.934  26.997  25.475  1.00  0.00     0.124 S 
ATOM     91  O   UNL A   1      46.317  25.872  24.630  1.00  0.00    -0.237 OA
ATOM     92  O   UNL A   1      44.929  27.900  24.927  1.00  0.00    -0.237 OA
ATOM     93  O   UNL A   1      47.036  27.649  26.181  1.00  0.00    -0.744 OA
ENDBRANCH  86  90
ENDBRANCH  59  83
BRANCH  71  94
ATOM     94  C   UNL A   1      45.082  27.926  35.419  1.00  0.00     0.023 A 
ATOM     95  C   UNL A   1      44.897  26.843  36.294  1.00  0.00     0.031 A 
ATOM     96  C   UNL A   1      46.317  28.592  35.428  1.00  0.00     0.131 A 
ATOM     97  C   UNL A   1      45.913  26.499  37.195  1.00  0.00     0.055 A 
ATOM     98  C   UNL A   1      47.349  28.203  36.280  1.00  0.00     0.041 A 
ATOM     99  F   UNL A   1      46.538  29.635  34.610  1.00  0.00    -0.206 F 
ATOM    100  C   UNL A   1      47.144  27.160  37.181  1.00  0.00     0.022 A 
BRANCH  97 101
ATOM    101  S   UNL A   1      45.559  25.249  38.456  1.00  0.00     0.124 S 
ATOM    102  O   UNL A   1      46.822  25.187  39.184  1.00  0.00    -0.237 OA
ATOM    103  O   UNL A   1      44.436  25.841  39.177  1.00  0.00    -0.237 OA
ATOM    104  O   UNL A   1      45.235  24.057  37.675  1.00  0.00    -0.744 OA
ENDBRANCH  97 101
ENDBRANCH  71  94
ENDBRANCH  45  46
ENDBRANCH  37  40
ENDBRANCH  35  36
ENDBRANCH  34  35
ENDBRANCH  33  34
ENDBRANCH   3  33
TORSDOF 19
ENDMDL
