MODEL 1
REMARK VINA RESULT:     -11.3      0.000      0.000
REMARK SMILES CCC[NH2+][C@]1(C(=O)NCCCNC(=O)c2ccc(-c3c4nc(c(-c5cc(S(=O)(=O)[O-])ccc5F)c5ccc([nH]5)c(-c5cc(S(=O)(=O)[O-])ccc5F)c5nc(c(-c6cc(S(=O)(=O)[O-])ccc6F)c6ccc3[nH]6)C=C5)C=C4)cc2)CC[C@H](n2nc(C)c(CC)c2C)C1
REMARK SMILES IDX 10 1 9 2 8 3 6 4 7 5 5 7 78 8 90 9 79 10 80 11 4 12 3 15
REMARK SMILES IDX 2 16 1 17 81 18 82 19 88 20 83 21 85 22 89 23 84 24 86 25
REMARK SMILES IDX 87 26 11 27 12 28 13 29 14 31 15 32 16 33 77 34 17 35 76 36
REMARK SMILES IDX 18 37 19 38 20 39 70 40 21 41 75 42 69 43 71 44 22 45 74 46
REMARK SMILES IDX 68 47 67 48 23 50 55 51 35 52 54 53 36 54 39 55 53 56 72 57
REMARK SMILES IDX 37 58 38 59 52 61 73 62 40 63 24 64 25 65 33 66 26 67 32 68
REMARK SMILES IDX 34 69 31 70 27 71 28 72 29 73 30 74 56 75 57 76 65 77 58 78
REMARK SMILES IDX 64 79 66 80 63 81 59 82 60 83 61 84 62 85 41 86 42 87 50 88
REMARK SMILES IDX 43 89 49 90 51 91 48 92 44 93 45 94 46 95 47 96
REMARK H PARENT 8 6 4 13 4 14 12 30 71 49 39 60
REMARK Flexibility Score: inf
ROOT
ATOM      1  C   UNL A   1      36.517  21.626  24.437  1.00  0.00     0.042 C 
ENDROOT
BRANCH   1   2
ATOM      2  C   UNL A   1      35.261  20.880  24.822  1.00  0.00     0.118 C 
BRANCH   2   3
ATOM      3  N   UNL A   1      34.882  20.968  26.215  1.00  0.00    -0.351 N 
ATOM      4  C   UNL A   1      33.862  21.677  26.780  1.00  0.00     0.281 C 
ATOM      5  O   UNL A   1      33.715  21.520  28.000  1.00  0.00    -0.268 OA
ATOM      6  H   UNL A   1      35.436  20.447  26.839  1.00  0.00     0.163 HD
BRANCH   4   7
ATOM      7  C   UNL A   1      32.919  22.640  25.974  1.00  0.00     0.177 C 
ATOM      8  C   UNL A   1      31.773  21.904  25.260  1.00  0.00     0.081 C 
ATOM      9  C   UNL A   1      32.045  23.374  27.015  1.00  0.00     0.106 C 
ATOM     10  C   UNL A   1      30.728  23.026  25.049  1.00  0.00     0.034 C 
ATOM     11  C   UNL A   1      30.879  24.008  26.267  1.00  0.00     0.114 C 
BRANCH   7  12
ATOM     12  N   UNL A   1      33.636  23.372  24.920  1.00  0.00    -0.334 N 
ATOM     13  H   UNL A   1      34.333  22.721  24.557  1.00  0.00     0.347 HD
ATOM     14  H   UNL A   1      32.858  23.685  24.339  1.00  0.00     0.347 HD
BRANCH  12  15
ATOM     15  C   UNL A   1      34.337  24.616  25.132  1.00  0.00     0.261 C 
BRANCH  15  16
ATOM     16  C   UNL A   1      34.159  25.632  23.988  1.00  0.00     0.058 C 
ATOM     17  C   UNL A   1      33.601  25.040  22.701  1.00  0.00     0.010 C 
ENDBRANCH  15  16
ENDBRANCH  12  15
ENDBRANCH   7  12
BRANCH  11  18
ATOM     18  N   UNL A   1      30.994  25.426  25.929  1.00  0.00    -0.266 N 
ATOM     19  N   UNL A   1      31.563  26.222  26.866  1.00  0.00    -0.178 NA
ATOM     20  C   UNL A   1      30.672  26.145  24.781  1.00  0.00     0.039 A 
ATOM     21  C   UNL A   1      31.397  27.466  26.414  1.00  0.00     0.063 A 
ATOM     22  C   UNL A   1      30.803  27.486  25.130  1.00  0.00    -0.004 A 
ATOM     23  C   UNL A   1      30.227  25.605  23.463  1.00  0.00     0.066 C 
ATOM     24  C   UNL A   1      31.823  28.614  27.251  1.00  0.00     0.069 C 
BRANCH  22  25
ATOM     25  C   UNL A   1      30.430  28.689  24.319  1.00  0.00     0.036 C 
ATOM     26  C   UNL A   1      31.425  28.981  23.202  1.00  0.00     0.009 C 
ENDBRANCH  22  25
ENDBRANCH  11  18
ENDBRANCH   4   7
ENDBRANCH   2   3
ENDBRANCH   1   2
BRANCH   1  27
ATOM     27  C   UNL A   1      37.311  22.122  25.620  1.00  0.00     0.118 C 
BRANCH  27  28
ATOM     28  N   UNL A   1      38.395  21.222  25.990  1.00  0.00    -0.352 N 
ATOM     29  C   UNL A   1      39.647  21.472  26.503  1.00  0.00     0.251 C 
ATOM     30  H   UNL A   1      38.197  20.268  25.849  1.00  0.00     0.163 HD
ATOM     31  O   UNL A   1      40.468  20.556  26.548  1.00  0.00    -0.269 OA
BRANCH  29  32
ATOM     32  C   UNL A   1      40.025  22.832  26.947  1.00  0.00     0.039 A 
ATOM     33  C   UNL A   1      40.926  22.988  28.004  1.00  0.00     0.014 A 
ATOM     34  C   UNL A   1      39.501  23.962  26.324  1.00  0.00     0.014 A 
ATOM     35  C   UNL A   1      41.364  24.269  28.359  1.00  0.00     0.010 A 
ATOM     36  C   UNL A   1      40.058  25.209  26.565  1.00  0.00     0.010 A 
ATOM     37  C   UNL A   1      40.977  25.388  27.604  1.00  0.00    -0.014 A 
BRANCH  37  38
ATOM     38  C   UNL A   1      41.475  26.758  27.900  1.00  0.00     0.031 A 
ATOM     39  C   UNL A   1      42.870  27.153  27.482  1.00  0.00     0.074 A 
ATOM     40  C   UNL A   1      40.715  27.612  28.615  1.00  0.00     0.049 A 
ATOM     41  N   UNL A   1      43.540  28.245  27.751  1.00  0.00    -0.248 NA
ATOM     42  C   UNL A   1      43.632  26.163  26.705  1.00  0.00     0.031 C 
ATOM     43  C   UNL A   1      39.374  27.326  29.129  1.00  0.00     0.029 A 
ATOM     44  N   UNL A   1      40.964  28.893  29.040  1.00  0.00    -0.354 N 
ATOM     45  C   UNL A   1      44.805  28.057  27.201  1.00  0.00     0.074 A 
ATOM     46  C   UNL A   1      44.835  26.712  26.671  1.00  0.00     0.031 C 
ATOM     47  C   UNL A   1      38.903  28.411  29.762  1.00  0.00     0.029 A 
ATOM     48  C   UNL A   1      39.927  29.450  29.752  1.00  0.00     0.049 A 
ATOM     49  H   UNL A   1      41.805  29.367  28.853  1.00  0.00     0.167 HD
ATOM     50  C   UNL A   1      45.834  28.936  27.109  1.00  0.00     0.034 A 
ATOM     51  C   UNL A   1      39.817  30.658  30.341  1.00  0.00     0.034 A 
ATOM     52  C   UNL A   1      45.772  30.284  27.618  1.00  0.00     0.049 A 
ATOM     53  C   UNL A   1      40.972  31.620  30.237  1.00  0.00     0.074 A 
ATOM     54  C   UNL A   1      46.722  31.285  27.527  1.00  0.00     0.029 A 
ATOM     55  N   UNL A   1      44.697  30.818  28.320  1.00  0.00    -0.354 N 
ATOM     56  N   UNL A   1      42.142  31.448  29.663  1.00  0.00    -0.248 NA
ATOM     57  C   UNL A   1      40.788  32.942  30.847  1.00  0.00     0.031 C 
ATOM     58  C   UNL A   1      46.254  32.396  28.236  1.00  0.00     0.029 A 
ATOM     59  C   UNL A   1      44.975  32.123  28.696  1.00  0.00     0.049 A 
ATOM     60  H   UNL A   1      43.860  30.339  28.520  1.00  0.00     0.167 HD
ATOM     61  C   UNL A   1      42.822  32.653  29.821  1.00  0.00     0.074 A 
ATOM     62  C   UNL A   1      41.924  33.544  30.528  1.00  0.00     0.031 C 
ATOM     63  C   UNL A   1      44.073  32.994  29.413  1.00  0.00     0.034 A 
BRANCH  50  64
ATOM     64  C   UNL A   1      47.106  28.449  26.450  1.00  0.00     0.023 A 
ATOM     65  C   UNL A   1      47.256  28.437  25.051  1.00  0.00     0.031 A 
ATOM     66  C   UNL A   1      48.161  27.935  27.223  1.00  0.00     0.131 A 
ATOM     67  C   UNL A   1      48.379  27.830  24.469  1.00  0.00     0.055 A 
ATOM     68  C   UNL A   1      49.323  27.423  26.639  1.00  0.00     0.041 A 
ATOM     69  F   UNL A   1      48.074  27.897  28.563  1.00  0.00    -0.206 F 
ATOM     70  C   UNL A   1      49.427  27.348  25.254  1.00  0.00     0.022 A 
BRANCH  67  71
ATOM     71  S   UNL A   1      48.358  27.511  22.682  1.00  0.00     0.124 S 
ATOM     72  O   UNL A   1      48.305  26.052  22.644  1.00  0.00    -0.237 OA
ATOM     73  O   UNL A   1      47.150  28.206  22.253  1.00  0.00    -0.237 OA
ATOM     74  O   UNL A   1      49.614  28.094  22.216  1.00  0.00    -0.744 OA
ENDBRANCH  67  71
ENDBRANCH  50  64
BRANCH  51  75
ATOM     75  C   UNL A   1      38.574  31.024  31.079  1.00  0.00     0.023 A 
ATOM     76  C   UNL A   1      37.483  31.609  30.417  1.00  0.00     0.031 A 
ATOM     77  C   UNL A   1      38.465  30.809  32.465  1.00  0.00     0.131 A 
ATOM     78  C   UNL A   1      36.347  31.993  31.145  1.00  0.00     0.055 A 
ATOM     79  C   UNL A   1      37.311  31.144  33.175  1.00  0.00     0.041 A 
ATOM     80  F   UNL A   1      39.476  30.246  33.146  1.00  0.00    -0.206 F 
ATOM     81  C   UNL A   1      36.247  31.751  32.517  1.00  0.00     0.022 A 
BRANCH  78  82
ATOM     82  S   UNL A   1      35.020  32.883  30.283  1.00  0.00     0.124 S 
ATOM     83  O   UNL A   1      34.679  31.947  29.218  1.00  0.00    -0.237 OA
ATOM     84  O   UNL A   1      34.027  33.045  31.339  1.00  0.00    -0.237 OA
ATOM     85  O   UNL A   1      35.668  34.119  29.846  1.00  0.00    -0.744 OA
ENDBRANCH  78  82
ENDBRANCH  51  75
BRANCH  63  86
ATOM     86  C   UNL A   1      44.522  34.409  29.689  1.00  0.00     0.023 A 
ATOM     87  C   UNL A   1      44.294  35.451  28.775  1.00  0.00     0.031 A 
ATOM     88  C   UNL A   1      45.193  34.714  30.887  1.00  0.00     0.131 A 
ATOM     89  C   UNL A   1      44.783  36.737  29.047  1.00  0.00     0.055 A 
ATOM     90  C   UNL A   1      45.617  36.010  31.183  1.00  0.00     0.041 A 
ATOM     91  F   UNL A   1      45.442  33.757  31.795  1.00  0.00    -0.206 F 
ATOM     92  C   UNL A   1      45.426  37.028  30.253  1.00  0.00     0.022 A 
BRANCH  89  93
ATOM     93  S   UNL A   1      44.659  38.006  27.757  1.00  0.00     0.124 S 
ATOM     94  O   UNL A   1      44.668  39.237  28.541  1.00  0.00    -0.237 OA
ATOM     95  O   UNL A   1      45.851  37.752  26.954  1.00  0.00    -0.237 OA
ATOM     96  O   UNL A   1      43.392  37.701  27.096  1.00  0.00    -0.744 OA
ENDBRANCH  89  93
ENDBRANCH  63  86
ENDBRANCH  37  38
ENDBRANCH  29  32
ENDBRANCH  27  28
ENDBRANCH   1  27
TORSDOF 18
ENDMDL
MODEL 2
REMARK VINA RESULT:     -11.3      2.145      7.899
REMARK SMILES CCC[NH2+][C@]1(C(=O)NCCCNC(=O)c2ccc(-c3c4nc(c(-c5cc(S(=O)(=O)[O-])ccc5F)c5ccc([nH]5)c(-c5cc(S(=O)(=O)[O-])ccc5F)c5nc(c(-c6cc(S(=O)(=O)[O-])ccc6F)c6ccc3[nH]6)C=C5)C=C4)cc2)CC[C@H](n2nc(C)c(CC)c2C)C1
REMARK SMILES IDX 10 1 9 2 8 3 6 4 7 5 5 7 78 8 90 9 79 10 80 11 4 12 3 15
REMARK SMILES IDX 2 16 1 17 81 18 82 19 88 20 83 21 85 22 89 23 84 24 86 25
REMARK SMILES IDX 87 26 11 27 12 28 13 29 14 31 15 32 16 33 77 34 17 35 76 36
REMARK SMILES IDX 18 37 19 38 20 39 70 40 21 41 75 42 69 43 71 44 22 45 74 46
REMARK SMILES IDX 68 47 67 48 23 50 55 51 35 52 54 53 36 54 39 55 53 56 72 57
REMARK SMILES IDX 37 58 38 59 52 61 73 62 40 63 24 64 25 65 33 66 26 67 32 68
REMARK SMILES IDX 34 69 31 70 27 71 28 72 29 73 30 74 56 75 57 76 65 77 58 78
REMARK SMILES IDX 64 79 66 80 63 81 59 82 60 83 61 84 62 85 41 86 42 87 50 88
REMARK SMILES IDX 43 89 49 90 51 91 48 92 44 93 45 94 46 95 47 96
REMARK H PARENT 8 6 4 13 4 14 12 30 71 49 39 60
REMARK Flexibility Score: inf
ROOT
ATOM      1  C   UNL A   1      37.293  19.408  24.942  1.00  0.00     0.042 C 
ENDROOT
BRANCH   1   2
ATOM      2  C   UNL A   1      36.056  20.260  24.776  1.00  0.00     0.118 C 
BRANCH   2   3
ATOM      3  N   UNL A   1      35.342  20.571  25.994  1.00  0.00    -0.351 N 
ATOM      4  C   UNL A   1      34.291  21.424  26.176  1.00  0.00     0.281 C 
ATOM      5  O   UNL A   1      33.819  21.452  27.320  1.00  0.00    -0.268 OA
ATOM      6  H   UNL A   1      35.656  20.105  26.802  1.00  0.00     0.163 HD
BRANCH   4   7
ATOM      7  C   UNL A   1      33.698  22.329  25.038  1.00  0.00     0.177 C 
ATOM      8  C   UNL A   1      33.136  21.520  23.856  1.00  0.00     0.081 C 
ATOM      9  C   UNL A   1      32.342  22.858  25.558  1.00  0.00     0.106 C 
ATOM     10  C   UNL A   1      32.154  22.520  23.198  1.00  0.00     0.034 C 
ATOM     11  C   UNL A   1      31.576  23.405  24.360  1.00  0.00     0.114 C 
BRANCH   7  12
ATOM     12  N   UNL A   1      34.703  23.231  24.458  1.00  0.00    -0.334 N 
ATOM     13  H   UNL A   1      35.320  22.637  23.904  1.00  0.00     0.347 HD
ATOM     14  H   UNL A   1      34.104  23.926  24.012  1.00  0.00     0.347 HD
BRANCH  12  15
ATOM     15  C   UNL A   1      35.574  24.080  25.237  1.00  0.00     0.261 C 
BRANCH  15  16
ATOM     16  C   UNL A   1      37.069  23.738  25.089  1.00  0.00     0.058 C 
ATOM     17  C   UNL A   1      37.873  23.859  26.376  1.00  0.00     0.010 C 
ENDBRANCH  15  16
ENDBRANCH  12  15
ENDBRANCH   7  12
BRANCH  11  18
ATOM     18  N   UNL A   1      31.622  24.850  24.141  1.00  0.00    -0.266 N 
ATOM     19  N   UNL A   1      32.343  25.274  23.075  1.00  0.00    -0.178 NA
ATOM     20  C   UNL A   1      31.015  25.917  24.799  1.00  0.00     0.039 A 
ATOM     21  C   UNL A   1      32.382  26.602  23.187  1.00  0.00     0.063 A 
ATOM     22  C   UNL A   1      31.604  27.064  24.275  1.00  0.00    -0.004 A 
ATOM     23  C   UNL A   1      29.987  25.856  25.878  1.00  0.00     0.066 C 
ATOM     24  C   UNL A   1      33.183  27.396  22.223  1.00  0.00     0.069 C 
BRANCH  22  25
ATOM     25  C   UNL A   1      31.433  28.479  24.735  1.00  0.00     0.036 C 
ATOM     26  C   UNL A   1      30.498  29.283  23.841  1.00  0.00     0.009 C 
ENDBRANCH  22  25
ENDBRANCH  11  18
ENDBRANCH   4   7
ENDBRANCH   2   3
ENDBRANCH   1   2
BRANCH   1  27
ATOM     27  C   UNL A   1      38.473  20.160  25.507  1.00  0.00     0.118 C 
BRANCH  27  28
ATOM     28  N   UNL A   1      39.633  19.307  25.726  1.00  0.00    -0.352 N 
ATOM     29  C   UNL A   1      40.925  19.608  26.090  1.00  0.00     0.251 C 
ATOM     30  H   UNL A   1      39.463  18.347  25.590  1.00  0.00     0.163 HD
ATOM     31  O   UNL A   1      41.786  18.732  26.018  1.00  0.00    -0.269 OA
BRANCH  29  32
ATOM     32  C   UNL A   1      41.292  20.978  26.513  1.00  0.00     0.039 A 
ATOM     33  C   UNL A   1      42.007  21.167  27.699  1.00  0.00     0.014 A 
ATOM     34  C   UNL A   1      40.941  22.085  25.744  1.00  0.00     0.014 A 
ATOM     35  C   UNL A   1      42.444  22.449  28.050  1.00  0.00     0.010 A 
ATOM     36  C   UNL A   1      41.513  23.322  26.005  1.00  0.00     0.010 A 
ATOM     37  C   UNL A   1      42.250  23.530  27.175  1.00  0.00    -0.014 A 
BRANCH  37  38
ATOM     38  C   UNL A   1      42.760  24.895  27.474  1.00  0.00     0.031 A 
ATOM     39  C   UNL A   1      41.849  25.910  28.118  1.00  0.00     0.074 A 
ATOM     40  C   UNL A   1      44.004  25.248  27.091  1.00  0.00     0.049 A 
ATOM     41  N   UNL A   1      42.053  27.183  28.347  1.00  0.00    -0.248 NA
ATOM     42  C   UNL A   1      40.509  25.443  28.505  1.00  0.00     0.031 C 
ATOM     43  C   UNL A   1      44.960  24.376  26.405  1.00  0.00     0.029 A 
ATOM     44  N   UNL A   1      44.677  26.438  27.218  1.00  0.00    -0.354 N 
ATOM     45  C   UNL A   1      40.860  27.667  28.876  1.00  0.00     0.074 A 
ATOM     46  C   UNL A   1      39.914  26.575  28.842  1.00  0.00     0.031 C 
ATOM     47  C   UNL A   1      46.106  25.045  26.210  1.00  0.00     0.029 A 
ATOM     48  C   UNL A   1      45.952  26.410  26.701  1.00  0.00     0.049 A 
ATOM     49  H   UNL A   1      44.284  27.236  27.639  1.00  0.00     0.167 HD
ATOM     50  C   UNL A   1      40.588  28.896  29.382  1.00  0.00     0.034 A 
ATOM     51  C   UNL A   1      46.888  27.377  26.621  1.00  0.00     0.034 A 
ATOM     52  C   UNL A   1      41.557  29.963  29.434  1.00  0.00     0.049 A 
ATOM     53  C   UNL A   1      46.567  28.740  27.180  1.00  0.00     0.074 A 
ATOM     54  C   UNL A   1      41.420  31.227  29.979  1.00  0.00     0.029 A 
ATOM     55  N   UNL A   1      42.844  29.891  28.914  1.00  0.00    -0.354 N 
ATOM     56  N   UNL A   1      45.452  29.167  27.730  1.00  0.00    -0.248 NA
ATOM     57  C   UNL A   1      47.634  29.746  27.119  1.00  0.00     0.031 C 
ATOM     58  C   UNL A   1      42.595  31.942  29.723  1.00  0.00     0.029 A 
ATOM     59  C   UNL A   1      43.500  31.099  29.097  1.00  0.00     0.049 A 
ATOM     60  H   UNL A   1      43.234  29.098  28.480  1.00  0.00     0.167 HD
ATOM     61  C   UNL A   1      45.695  30.485  28.105  1.00  0.00     0.074 A 
ATOM     62  C   UNL A   1      47.066  30.774  27.734  1.00  0.00     0.031 C 
ATOM     63  C   UNL A   1      44.864  31.374  28.708  1.00  0.00     0.034 A 
BRANCH  50  64
ATOM     64  C   UNL A   1      39.185  29.141  29.895  1.00  0.00     0.023 A 
ATOM     65  C   UNL A   1      38.236  29.854  29.140  1.00  0.00     0.031 A 
ATOM     66  C   UNL A   1      38.807  28.709  31.178  1.00  0.00     0.131 A 
ATOM     67  C   UNL A   1      37.003  30.203  29.710  1.00  0.00     0.055 A 
ATOM     68  C   UNL A   1      37.539  28.973  31.701  1.00  0.00     0.041 A 
ATOM     69  F   UNL A   1      39.672  28.042  31.959  1.00  0.00    -0.206 F 
ATOM     70  C   UNL A   1      36.636  29.744  30.975  1.00  0.00     0.022 A 
BRANCH  67  71
ATOM     71  S   UNL A   1      35.970  31.423  28.849  1.00  0.00     0.124 S 
ATOM     72  O   UNL A   1      36.964  32.408  28.430  1.00  0.00    -0.237 OA
ATOM     73  O   UNL A   1      35.368  30.629  27.784  1.00  0.00    -0.237 OA
ATOM     74  O   UNL A   1      35.047  31.881  29.885  1.00  0.00    -0.744 OA
ENDBRANCH  67  71
ENDBRANCH  50  64
BRANCH  51  75
ATOM     75  C   UNL A   1      48.209  27.094  25.991  1.00  0.00     0.023 A 
ATOM     76  C   UNL A   1      48.442  27.381  24.637  1.00  0.00     0.031 A 
ATOM     77  C   UNL A   1      49.256  26.517  26.731  1.00  0.00     0.131 A 
ATOM     78  C   UNL A   1      49.677  27.056  24.055  1.00  0.00     0.055 A 
ATOM     79  C   UNL A   1      50.501  26.245  26.162  1.00  0.00     0.041 A 
ATOM     80  F   UNL A   1      49.089  26.228  28.032  1.00  0.00    -0.206 F 
ATOM     81  C   UNL A   1      50.713  26.503  24.812  1.00  0.00     0.022 A 
BRANCH  78  82
ATOM     82  S   UNL A   1      49.890  27.301  22.269  1.00  0.00     0.124 S 
ATOM     83  O   UNL A   1      51.232  26.772  22.056  1.00  0.00    -0.237 OA
ATOM     84  O   UNL A   1      48.793  26.511  21.722  1.00  0.00    -0.237 OA
ATOM     85  O   UNL A   1      49.756  28.748  22.106  1.00  0.00    -0.744 OA
ENDBRANCH  78  82
ENDBRANCH  51  75
BRANCH  63  86
ATOM     86  C   UNL A   1      45.435  32.732  29.039  1.00  0.00     0.023 A 
ATOM     87  C   UNL A   1      46.122  32.974  30.240  1.00  0.00     0.031 A 
ATOM     88  C   UNL A   1      45.285  33.799  28.136  1.00  0.00     0.131 A 
ATOM     89  C   UNL A   1      46.583  34.267  30.532  1.00  0.00     0.055 A 
ATOM     90  C   UNL A   1      45.805  35.066  28.401  1.00  0.00     0.041 A 
ATOM     91  F   UNL A   1      44.634  33.626  26.974  1.00  0.00    -0.206 F 
ATOM     92  C   UNL A   1      46.446  35.310  29.612  1.00  0.00     0.022 A 
BRANCH  89  93
ATOM     93  S   UNL A   1      47.274  34.594  32.177  1.00  0.00     0.124 S 
ATOM     94  O   UNL A   1      48.186  35.701  31.908  1.00  0.00    -0.237 OA
ATOM     95  O   UNL A   1      46.084  34.923  32.956  1.00  0.00    -0.237 OA
ATOM     96  O   UNL A   1      47.918  33.332  32.536  1.00  0.00    -0.744 OA
ENDBRANCH  89  93
ENDBRANCH  63  86
ENDBRANCH  37  38
ENDBRANCH  29  32
ENDBRANCH  27  28
ENDBRANCH   1  27
TORSDOF 18
ENDMDL
MODEL 3
REMARK VINA RESULT:     -11.2      5.084      7.656
REMARK SMILES CCC[NH2+][C@]1(C(=O)NCCCNC(=O)c2ccc(-c3c4nc(c(-c5cc(S(=O)(=O)[O-])ccc5F)c5ccc([nH]5)c(-c5cc(S(=O)(=O)[O-])ccc5F)c5nc(c(-c6cc(S(=O)(=O)[O-])ccc6F)c6ccc3[nH]6)C=C5)C=C4)cc2)CC[C@H](n2nc(C)c(CC)c2C)C1
REMARK SMILES IDX 10 1 9 2 8 3 6 4 7 5 5 7 78 8 90 9 79 10 80 11 4 12 3 15
REMARK SMILES IDX 2 16 1 17 81 18 82 19 88 20 83 21 85 22 89 23 84 24 86 25
REMARK SMILES IDX 87 26 11 27 12 28 13 29 14 31 15 32 16 33 77 34 17 35 76 36
REMARK SMILES IDX 18 37 19 38 20 39 70 40 21 41 75 42 69 43 71 44 22 45 74 46
REMARK SMILES IDX 68 47 67 48 23 50 55 51 35 52 54 53 36 54 39 55 53 56 72 57
REMARK SMILES IDX 37 58 38 59 52 61 73 62 40 63 24 64 25 65 33 66 26 67 32 68
REMARK SMILES IDX 34 69 31 70 27 71 28 72 29 73 30 74 56 75 57 76 65 77 58 78
REMARK SMILES IDX 64 79 66 80 63 81 59 82 60 83 61 84 62 85 41 86 42 87 50 88
REMARK SMILES IDX 43 89 49 90 51 91 48 92 44 93 45 94 46 95 47 96
REMARK H PARENT 8 6 4 13 4 14 12 30 71 49 39 60
REMARK Flexibility Score: inf
ROOT
ATOM      1  C   UNL A   1      33.643  29.230  24.883  1.00  0.00     0.042 C 
ENDROOT
BRANCH   1   2
ATOM      2  C   UNL A   1      33.635  28.002  24.004  1.00  0.00     0.118 C 
BRANCH   2   3
ATOM      3  N   UNL A   1      32.522  27.896  23.087  1.00  0.00    -0.351 N 
ATOM      4  C   UNL A   1      31.745  26.809  22.807  1.00  0.00     0.281 C 
ATOM      5  O   UNL A   1      30.805  27.012  22.026  1.00  0.00    -0.268 OA
ATOM      6  H   UNL A   1      32.294  28.719  22.598  1.00  0.00     0.163 HD
BRANCH   4   7
ATOM      7  C   UNL A   1      31.996  25.381  23.411  1.00  0.00     0.177 C 
ATOM      8  C   UNL A   1      30.968  24.339  22.940  1.00  0.00     0.081 C 
ATOM      9  C   UNL A   1      33.211  24.793  22.659  1.00  0.00     0.106 C 
ATOM     10  C   UNL A   1      31.713  23.001  23.170  1.00  0.00     0.034 C 
ATOM     11  C   UNL A   1      33.238  23.296  22.936  1.00  0.00     0.114 C 
BRANCH   7  12
ATOM     12  N   UNL A   1      31.924  25.373  24.879  1.00  0.00    -0.334 N 
ATOM     13  H   UNL A   1      32.018  24.396  25.155  1.00  0.00     0.347 HD
ATOM     14  H   UNL A   1      32.645  26.057  25.111  1.00  0.00     0.347 HD
BRANCH  12  15
ATOM     15  C   UNL A   1      30.808  25.888  25.637  1.00  0.00     0.261 C 
BRANCH  15  16
ATOM     16  C   UNL A   1      29.899  24.792  26.226  1.00  0.00     0.058 C 
ATOM     17  C   UNL A   1      30.642  23.566  26.740  1.00  0.00     0.010 C 
ENDBRANCH  15  16
ENDBRANCH  12  15
ENDBRANCH   7  12
BRANCH  11  18
ATOM     18  N   UNL A   1      34.144  22.827  23.984  1.00  0.00    -0.266 N 
ATOM     19  N   UNL A   1      33.564  22.360  25.115  1.00  0.00    -0.178 NA
ATOM     20  C   UNL A   1      35.531  22.712  24.041  1.00  0.00     0.039 A 
ATOM     21  C   UNL A   1      34.570  22.165  25.968  1.00  0.00     0.063 A 
ATOM     22  C   UNL A   1      35.828  22.411  25.367  1.00  0.00    -0.004 A 
ATOM     23  C   UNL A   1      36.508  22.918  22.933  1.00  0.00     0.066 C 
ATOM     24  C   UNL A   1      34.281  21.740  27.360  1.00  0.00     0.069 C 
BRANCH  22  25
ATOM     25  C   UNL A   1      37.176  22.332  26.013  1.00  0.00     0.036 C 
ATOM     26  C   UNL A   1      37.952  23.641  25.927  1.00  0.00     0.009 C 
ENDBRANCH  22  25
ENDBRANCH  11  18
ENDBRANCH   4   7
ENDBRANCH   2   3
ENDBRANCH   1   2
BRANCH   1  27
ATOM     27  C   UNL A   1      32.477  29.298  25.838  1.00  0.00     0.118 C 
BRANCH  27  28
ATOM     28  N   UNL A   1      32.135  30.663  26.215  1.00  0.00    -0.352 N 
ATOM     29  C   UNL A   1      32.745  31.545  27.076  1.00  0.00     0.251 C 
ATOM     30  H   UNL A   1      31.326  31.015  25.778  1.00  0.00     0.163 HD
ATOM     31  O   UNL A   1      32.155  32.579  27.388  1.00  0.00    -0.269 OA
BRANCH  29  32
ATOM     32  C   UNL A   1      34.068  31.238  27.663  1.00  0.00     0.039 A 
ATOM     33  C   UNL A   1      34.997  32.265  27.850  1.00  0.00     0.014 A 
ATOM     34  C   UNL A   1      34.401  29.939  28.041  1.00  0.00     0.014 A 
ATOM     35  C   UNL A   1      36.208  31.997  28.497  1.00  0.00     0.010 A 
ATOM     36  C   UNL A   1      35.521  29.710  28.826  1.00  0.00     0.010 A 
ATOM     37  C   UNL A   1      36.456  30.727  29.043  1.00  0.00    -0.014 A 
BRANCH  37  38
ATOM     38  C   UNL A   1      37.698  30.418  29.802  1.00  0.00     0.031 A 
ATOM     39  C   UNL A   1      38.744  29.519  29.191  1.00  0.00     0.074 A 
ATOM     40  C   UNL A   1      37.846  30.869  31.064  1.00  0.00     0.049 A 
ATOM     41  N   UNL A   1      39.831  29.026  29.727  1.00  0.00    -0.248 NA
ATOM     42  C   UNL A   1      38.505  29.072  27.810  1.00  0.00     0.031 C 
ATOM     43  C   UNL A   1      36.878  31.695  31.789  1.00  0.00     0.029 A 
ATOM     44  N   UNL A   1      38.865  30.690  31.966  1.00  0.00    -0.354 N 
ATOM     45  C   UNL A   1      40.384  28.192  28.759  1.00  0.00     0.074 A 
ATOM     46  C   UNL A   1      39.462  28.175  27.646  1.00  0.00     0.031 C 
ATOM     47  C   UNL A   1      37.367  31.985  33.004  1.00  0.00     0.029 A 
ATOM     48  C   UNL A   1      38.655  31.320  33.171  1.00  0.00     0.049 A 
ATOM     49  H   UNL A   1      39.671  30.160  31.769  1.00  0.00     0.167 HD
ATOM     50  C   UNL A   1      41.570  27.533  28.777  1.00  0.00     0.034 A 
ATOM     51  C   UNL A   1      39.407  31.349  34.289  1.00  0.00     0.034 A 
ATOM     52  C   UNL A   1      42.489  27.589  29.887  1.00  0.00     0.049 A 
ATOM     53  C   UNL A   1      40.719  30.605  34.296  1.00  0.00     0.074 A 
ATOM     54  C   UNL A   1      43.745  27.019  29.996  1.00  0.00     0.029 A 
ATOM     55  N   UNL A   1      42.247  28.251  31.085  1.00  0.00    -0.354 N 
ATOM     56  N   UNL A   1      41.256  29.867  33.351  1.00  0.00    -0.248 NA
ATOM     57  C   UNL A   1      41.530  30.709  35.515  1.00  0.00     0.031 C 
ATOM     58  C   UNL A   1      44.229  27.274  31.284  1.00  0.00     0.029 A 
ATOM     59  C   UNL A   1      43.316  28.076  31.951  1.00  0.00     0.049 A 
ATOM     60  H   UNL A   1      41.436  28.770  31.289  1.00  0.00     0.167 HD
ATOM     61  C   UNL A   1      42.482  29.441  33.853  1.00  0.00     0.074 A 
ATOM     62  C   UNL A   1      42.610  30.019  35.176  1.00  0.00     0.031 C 
ATOM     63  C   UNL A   1      43.421  28.649  33.273  1.00  0.00     0.034 A 
BRANCH  50  64
ATOM     64  C   UNL A   1      41.915  26.691  27.568  1.00  0.00     0.023 A 
ATOM     65  C   UNL A   1      41.679  25.304  27.542  1.00  0.00     0.031 A 
ATOM     66  C   UNL A   1      42.540  27.267  26.450  1.00  0.00     0.131 A 
ATOM     67  C   UNL A   1      42.158  24.529  26.476  1.00  0.00     0.055 A 
ATOM     68  C   UNL A   1      42.924  26.503  25.344  1.00  0.00     0.041 A 
ATOM     69  F   UNL A   1      42.813  28.582  26.418  1.00  0.00    -0.206 F 
ATOM     70  C   UNL A   1      42.755  25.122  25.363  1.00  0.00     0.022 A 
BRANCH  67  71
ATOM     71  S   UNL A   1      42.160  22.723  26.656  1.00  0.00     0.124 S 
ATOM     72  O   UNL A   1      42.374  22.290  25.277  1.00  0.00    -0.237 OA
ATOM     73  O   UNL A   1      43.270  22.499  27.575  1.00  0.00    -0.237 OA
ATOM     74  O   UNL A   1      40.833  22.431  27.194  1.00  0.00    -0.744 OA
ENDBRANCH  67  71
ENDBRANCH  50  64
BRANCH  51  75
ATOM     75  C   UNL A   1      38.944  32.105  35.488  1.00  0.00     0.023 A 
ATOM     76  C   UNL A   1      38.334  31.447  36.568  1.00  0.00     0.031 A 
ATOM     77  C   UNL A   1      39.090  33.502  35.565  1.00  0.00     0.131 A 
ATOM     78  C   UNL A   1      37.858  32.189  37.660  1.00  0.00     0.055 A 
ATOM     79  C   UNL A   1      38.664  34.228  36.678  1.00  0.00     0.041 A 
ATOM     80  F   UNL A   1      39.672  34.180  34.563  1.00  0.00    -0.206 F 
ATOM     81  C   UNL A   1      38.032  33.573  37.729  1.00  0.00     0.022 A 
BRANCH  78  82
ATOM     82  S   UNL A   1      36.941  31.324  38.966  1.00  0.00     0.124 S 
ATOM     83  O   UNL A   1      37.876  31.398  40.083  1.00  0.00    -0.237 OA
ATOM     84  O   UNL A   1      35.737  32.140  39.081  1.00  0.00    -0.237 OA
ATOM     85  O   UNL A   1      36.735  29.988  38.410  1.00  0.00    -0.744 OA
ENDBRANCH  78  82
ENDBRANCH  51  75
BRANCH  63  86
ATOM     86  C   UNL A   1      44.688  28.400  34.055  1.00  0.00     0.023 A 
ATOM     87  C   UNL A   1      44.820  27.304  34.924  1.00  0.00     0.031 A 
ATOM     88  C   UNL A   1      45.779  29.279  33.928  1.00  0.00     0.131 A 
ATOM     89  C   UNL A   1      45.993  27.147  35.676  1.00  0.00     0.055 A 
ATOM     90  C   UNL A   1      46.969  29.080  34.628  1.00  0.00     0.041 A 
ATOM     91  F   UNL A   1      45.707  30.346  33.115  1.00  0.00    -0.206 F 
ATOM     92  C   UNL A   1      47.076  28.017  35.519  1.00  0.00     0.022 A 
BRANCH  89  93
ATOM     93  S   UNL A   1      46.049  25.849  36.941  1.00  0.00     0.124 S 
ATOM     94  O   UNL A   1      47.352  26.080  37.556  1.00  0.00    -0.237 OA
ATOM     95  O   UNL A   1      44.888  26.168  37.767  1.00  0.00    -0.237 OA
ATOM     96  O   UNL A   1      45.937  24.612  36.169  1.00  0.00    -0.744 OA
ENDBRANCH  89  93
ENDBRANCH  63  86
ENDBRANCH  37  38
ENDBRANCH  29  32
ENDBRANCH  27  28
ENDBRANCH   1  27
TORSDOF 18
ENDMDL
