MODEL 1
REMARK VINA RESULT:     -13.5      0.000      0.000
REMARK SMILES Cc1cccc(N2CCN(C(=O)[C@@H]3CC=CC[C@@H]3C(=O)NCCCNC(=O)c3ccc(-c4c5nc(c(-c6cc(S(=O)(=O)[O-])ccc6F)c6ccc([nH]6)c(-c6cc(S(=O)(=O)[O-])ccc6F)c6nc(c(-c7cc(S(=O)(=O)[O-])ccc7F)c7ccc4[nH]7)C=C6)C=C5)cc3)CC2)c1C
REMARK SMILES IDX 23 1 22 2 21 3 19 4 20 5 18 7 13 8 14 9 15 10 17 11 16 12
REMARK SMILES IDX 11 13 7 14 8 15 92 16 9 17 91 18 10 19 12 20 6 21 1 22 2 23
REMARK SMILES IDX 3 24 93 25 4 26 94 27 5 28 24 29 25 30 26 31 27 33 28 34
REMARK SMILES IDX 29 35 90 36 30 37 89 38 31 39 32 40 33 41 83 42 34 43 88 44
REMARK SMILES IDX 82 45 84 46 35 47 87 48 81 49 80 50 36 52 68 53 48 54 67 55
REMARK SMILES IDX 49 56 52 57 66 58 85 59 50 60 51 61 65 63 86 64 53 65 37 66
REMARK SMILES IDX 38 67 46 68 39 69 45 70 47 71 44 72 40 73 41 74 42 75 43 76
REMARK SMILES IDX 69 77 70 78 78 79 71 80 77 81 79 82 76 83 72 84 73 85 74 86
REMARK SMILES IDX 75 87 54 88 55 89 63 90 56 91 62 92 64 93 61 94 57 95 58 96
REMARK SMILES IDX 59 97 60 98
REMARK H PARENT 21 6 25 32 84 51 52 62
REMARK Flexibility Score: inf
ROOT
ATOM      1  C   UNL A   1      33.247  30.325  27.263  1.00  0.00     0.042 C 
ENDROOT
BRANCH   1   2
ATOM      2  C   UNL A   1      34.169  29.205  26.815  1.00  0.00     0.117 C 
BRANCH   2   3
ATOM      3  N   UNL A   1      34.376  29.138  25.385  1.00  0.00    -0.356 N 
ATOM      4  C   UNL A   1      33.787  28.440  24.388  1.00  0.00     0.224 C 
ATOM      5  O   UNL A   1      34.157  28.756  23.247  1.00  0.00    -0.275 OA
ATOM      6  H   UNL A   1      35.101  29.726  25.071  1.00  0.00     0.163 HD
BRANCH   4   7
ATOM      7  C   UNL A   1      32.668  27.390  24.525  1.00  0.00     0.095 C 
ATOM      8  C   UNL A   1      32.338  26.397  23.414  1.00  0.00     0.095 C 
ATOM      9  C   UNL A   1      31.593  27.078  22.211  1.00  0.00     0.041 C 
ATOM     10  C   UNL A   1      30.881  28.366  22.531  1.00  0.00    -0.030 C 
ATOM     11  C   UNL A   1      31.373  28.133  24.938  1.00  0.00     0.041 C 
ATOM     12  C   UNL A   1      30.755  28.841  23.776  1.00  0.00    -0.030 C 
BRANCH   8  13
ATOM     13  C   UNL A   1      33.360  25.322  22.958  1.00  0.00     0.226 C 
ATOM     14  N   UNL A   1      35.972  22.759  24.852  1.00  0.00    -0.368 N 
ATOM     15  C   UNL A   1      35.765  22.867  23.393  1.00  0.00     0.138 C 
ATOM     16  C   UNL A   1      35.038  23.547  25.704  1.00  0.00     0.138 C 
ATOM     17  C   UNL A   1      34.306  23.066  22.962  1.00  0.00     0.141 C 
ATOM     18  C   UNL A   1      33.646  23.878  25.104  1.00  0.00     0.141 C 
ATOM     19  N   UNL A   1      33.665  24.171  23.671  1.00  0.00    -0.339 N 
ATOM     20  O   UNL A   1      33.832  25.455  21.819  1.00  0.00    -0.275 OA
BRANCH  14  21
ATOM     21  C   UNL A   1      37.256  22.461  25.400  1.00  0.00     0.040 A 
ATOM     22  C   UNL A   1      40.065  19.788  25.863  1.00  0.00     0.044 C 
ATOM     23  C   UNL A   1      39.261  21.068  25.932  1.00  0.00    -0.046 A 
ATOM     24  C   UNL A   1      39.874  22.146  26.576  1.00  0.00     0.004 A 
ATOM     25  C   UNL A   1      37.953  21.206  25.341  1.00  0.00    -0.025 A 
ATOM     26  C   UNL A   1      39.213  23.349  26.671  1.00  0.00     0.002 A 
ATOM     27  C   UNL A   1      37.389  19.951  24.709  1.00  0.00     0.047 C 
ATOM     28  C   UNL A   1      37.943  23.491  26.104  1.00  0.00     0.026 A 
ENDBRANCH  14  21
ENDBRANCH   8  13
ENDBRANCH   4   7
ENDBRANCH   2   3
ENDBRANCH   1   2
BRANCH   1  29
ATOM     29  C   UNL A   1      34.033  31.531  27.741  1.00  0.00     0.118 C 
BRANCH  29  30
ATOM     30  N   UNL A   1      33.273  32.776  27.661  1.00  0.00    -0.352 N 
ATOM     31  C   UNL A   1      33.407  33.918  28.418  1.00  0.00     0.251 C 
ATOM     32  H   UNL A   1      32.571  32.802  26.973  1.00  0.00     0.163 HD
ATOM     33  O   UNL A   1      32.539  34.788  28.366  1.00  0.00    -0.269 OA
BRANCH  31  34
ATOM     34  C   UNL A   1      34.501  34.016  29.405  1.00  0.00     0.039 A 
ATOM     35  C   UNL A   1      34.228  33.585  30.704  1.00  0.00     0.014 A 
ATOM     36  C   UNL A   1      35.807  34.315  29.017  1.00  0.00     0.014 A 
ATOM     37  C   UNL A   1      35.285  33.252  31.541  1.00  0.00     0.010 A 
ATOM     38  C   UNL A   1      36.858  33.856  29.797  1.00  0.00     0.010 A 
ATOM     39  C   UNL A   1      36.595  33.271  31.041  1.00  0.00    -0.014 A 
BRANCH  39  40
ATOM     40  C   UNL A   1      37.669  32.567  31.778  1.00  0.00     0.031 A 
ATOM     41  C   UNL A   1      38.411  31.440  31.134  1.00  0.00     0.074 A 
ATOM     42  C   UNL A   1      37.916  32.944  33.050  1.00  0.00     0.049 A 
ATOM     43  N   UNL A   1      39.415  30.747  31.598  1.00  0.00    -0.248 NA
ATOM     44  C   UNL A   1      37.938  31.008  29.811  1.00  0.00     0.031 C 
ATOM     45  C   UNL A   1      37.160  33.964  33.790  1.00  0.00     0.029 A 
ATOM     46  N   UNL A   1      38.873  32.542  33.942  1.00  0.00    -0.354 N 
ATOM     47  C   UNL A   1      39.696  29.798  30.624  1.00  0.00     0.074 A 
ATOM     48  C   UNL A   1      38.701  29.951  29.585  1.00  0.00     0.031 C 
ATOM     49  C   UNL A   1      37.731  34.158  34.988  1.00  0.00     0.029 A 
ATOM     50  C   UNL A   1      38.864  33.255  35.122  1.00  0.00     0.049 A 
ATOM     51  H   UNL A   1      39.508  31.813  33.758  1.00  0.00     0.167 HD
ATOM     52  C   UNL A   1      40.714  28.902  30.592  1.00  0.00     0.034 A 
ATOM     53  C   UNL A   1      39.697  33.196  36.178  1.00  0.00     0.034 A 
ATOM     54  C   UNL A   1      41.678  28.779  31.657  1.00  0.00     0.049 A 
ATOM     55  C   UNL A   1      40.849  32.229  36.100  1.00  0.00     0.074 A 
ATOM     56  C   UNL A   1      42.764  27.928  31.753  1.00  0.00     0.029 A 
ATOM     57  N   UNL A   1      41.663  29.538  32.824  1.00  0.00    -0.354 N 
ATOM     58  N   UNL A   1      41.150  31.384  35.138  1.00  0.00    -0.248 NA
ATOM     59  C   UNL A   1      41.781  32.218  37.231  1.00  0.00     0.031 C 
ATOM     60  C   UNL A   1      43.374  28.140  32.996  1.00  0.00     0.029 A 
ATOM     61  C   UNL A   1      42.709  29.166  33.652  1.00  0.00     0.049 A 
ATOM     62  H   UNL A   1      41.003  30.239  33.031  1.00  0.00     0.167 HD
ATOM     63  C   UNL A   1      42.317  30.748  35.543  1.00  0.00     0.074 A 
ATOM     64  C   UNL A   1      42.680  31.335  36.820  1.00  0.00     0.031 C 
ATOM     65  C   UNL A   1      43.024  29.766  34.927  1.00  0.00     0.034 A 
BRANCH  52  66
ATOM     66  C   UNL A   1      40.787  27.996  29.385  1.00  0.00     0.023 A 
ATOM     67  C   UNL A   1      41.721  28.220  28.356  1.00  0.00     0.031 A 
ATOM     68  C   UNL A   1      39.860  26.955  29.213  1.00  0.00     0.131 A 
ATOM     69  C   UNL A   1      41.641  27.487  27.162  1.00  0.00     0.055 A 
ATOM     70  C   UNL A   1      39.844  26.167  28.057  1.00  0.00     0.041 A 
ATOM     71  F   UNL A   1      38.929  26.705  30.146  1.00  0.00    -0.206 F 
ATOM     72  C   UNL A   1      40.724  26.445  27.015  1.00  0.00     0.022 A 
BRANCH  69  73
ATOM     73  S   UNL A   1      42.634  28.031  25.745  1.00  0.00     0.124 S 
ATOM     74  O   UNL A   1      42.261  27.048  24.729  1.00  0.00    -0.237 OA
ATOM     75  O   UNL A   1      42.156  29.390  25.524  1.00  0.00    -0.237 OA
ATOM     76  O   UNL A   1      44.010  27.924  26.228  1.00  0.00    -0.744 OA
ENDBRANCH  69  73
ENDBRANCH  52  66
BRANCH  53  77
ATOM     77  C   UNL A   1      39.496  34.082  37.362  1.00  0.00     0.023 A 
ATOM     78  C   UNL A   1      38.954  33.587  38.560  1.00  0.00     0.031 A 
ATOM     79  C   UNL A   1      39.831  35.448  37.311  1.00  0.00     0.131 A 
ATOM     80  C   UNL A   1      38.728  34.454  39.642  1.00  0.00     0.055 A 
ATOM     81  C   UNL A   1      39.648  36.297  38.405  1.00  0.00     0.041 A 
ATOM     82  F   UNL A   1      40.364  35.974  36.197  1.00  0.00    -0.206 F 
ATOM     83  C   UNL A   1      39.082  35.804  39.576  1.00  0.00     0.022 A 
BRANCH  80  84
ATOM     84  S   UNL A   1      37.894  33.810  41.119  1.00  0.00     0.124 S 
ATOM     85  O   UNL A   1      36.984  32.825  40.545  1.00  0.00    -0.237 OA
ATOM     86  O   UNL A   1      39.012  33.279  41.890  1.00  0.00    -0.237 OA
ATOM     87  O   UNL A   1      37.252  34.992  41.691  1.00  0.00    -0.744 OA
ENDBRANCH  80  84
ENDBRANCH  53  77
BRANCH  65  88
ATOM     88  C   UNL A   1      44.264  29.295  35.640  1.00  0.00     0.023 A 
ATOM     89  C   UNL A   1      44.226  28.205  36.525  1.00  0.00     0.031 A 
ATOM     90  C   UNL A   1      45.486  29.962  35.451  1.00  0.00     0.131 A 
ATOM     91  C   UNL A   1      45.377  27.852  37.241  1.00  0.00     0.055 A 
ATOM     92  C   UNL A   1      46.643  29.567  36.122  1.00  0.00     0.041 A 
ATOM     93  F   UNL A   1      45.571  31.010  34.617  1.00  0.00    -0.206 F 
ATOM     94  C   UNL A   1      46.589  28.517  37.034  1.00  0.00     0.022 A 
BRANCH  91  95
ATOM     95  S   UNL A   1      45.242  26.575  38.520  1.00  0.00     0.124 S 
ATOM     96  O   UNL A   1      44.563  25.500  37.804  1.00  0.00    -0.237 OA
ATOM     97  O   UNL A   1      46.639  26.329  38.865  1.00  0.00    -0.237 OA
ATOM     98  O   UNL A   1      44.451  27.220  39.567  1.00  0.00    -0.744 OA
ENDBRANCH  91  95
ENDBRANCH  65  88
ENDBRANCH  39  40
ENDBRANCH  31  34
ENDBRANCH  29  30
ENDBRANCH   1  29
TORSDOF 15
ENDMDL
MODEL 2
REMARK VINA RESULT:     -13.3      5.277     11.181
REMARK SMILES Cc1cccc(N2CCN(C(=O)[C@@H]3CC=CC[C@@H]3C(=O)NCCCNC(=O)c3ccc(-c4c5nc(c(-c6cc(S(=O)(=O)[O-])ccc6F)c6ccc([nH]6)c(-c6cc(S(=O)(=O)[O-])ccc6F)c6nc(c(-c7cc(S(=O)(=O)[O-])ccc7F)c7ccc4[nH]7)C=C6)C=C5)cc3)CC2)c1C
REMARK SMILES IDX 23 1 22 2 21 3 19 4 20 5 18 7 13 8 14 9 15 10 17 11 16 12
REMARK SMILES IDX 11 13 7 14 8 15 92 16 9 17 91 18 10 19 12 20 6 21 1 22 2 23
REMARK SMILES IDX 3 24 93 25 4 26 94 27 5 28 24 29 25 30 26 31 27 33 28 34
REMARK SMILES IDX 29 35 90 36 30 37 89 38 31 39 32 40 33 41 83 42 34 43 88 44
REMARK SMILES IDX 82 45 84 46 35 47 87 48 81 49 80 50 36 52 68 53 48 54 67 55
REMARK SMILES IDX 49 56 52 57 66 58 85 59 50 60 51 61 65 63 86 64 53 65 37 66
REMARK SMILES IDX 38 67 46 68 39 69 45 70 47 71 44 72 40 73 41 74 42 75 43 76
REMARK SMILES IDX 69 77 70 78 78 79 71 80 77 81 79 82 76 83 72 84 73 85 74 86
REMARK SMILES IDX 75 87 54 88 55 89 63 90 56 91 62 92 64 93 61 94 57 95 58 96
REMARK SMILES IDX 59 97 60 98
REMARK H PARENT 21 6 25 32 84 51 52 62
REMARK Flexibility Score: inf
ROOT
ATOM      1  C   UNL A   1      37.571  21.226  24.266  1.00  0.00     0.042 C 
ENDROOT
BRANCH   1   2
ATOM      2  C   UNL A   1      36.681  22.455  24.233  1.00  0.00     0.117 C 
BRANCH   2   3
ATOM      3  N   UNL A   1      35.954  22.699  25.460  1.00  0.00    -0.356 N 
ATOM      4  C   UNL A   1      34.658  22.964  25.741  1.00  0.00     0.224 C 
ATOM      5  O   UNL A   1      34.384  22.980  26.950  1.00  0.00    -0.275 OA
ATOM      6  H   UNL A   1      36.525  22.665  26.262  1.00  0.00     0.163 HD
BRANCH   4   7
ATOM      7  C   UNL A   1      33.508  23.147  24.731  1.00  0.00     0.095 C 
ATOM      8  C   UNL A   1      32.054  23.304  25.167  1.00  0.00     0.095 C 
ATOM      9  C   UNL A   1      31.437  21.951  25.672  1.00  0.00     0.041 C 
ATOM     10  C   UNL A   1      32.116  20.701  25.179  1.00  0.00    -0.030 C 
ATOM     11  C   UNL A   1      33.603  21.998  23.696  1.00  0.00     0.041 C 
ATOM     12  C   UNL A   1      33.088  20.713  24.259  1.00  0.00    -0.030 C 
BRANCH   8  13
ATOM     13  C   UNL A   1      31.585  24.527  26.000  1.00  0.00     0.226 C 
ATOM     14  N   UNL A   1      32.718  28.475  26.315  1.00  0.00    -0.368 N 
ATOM     15  C   UNL A   1      31.623  27.824  27.063  1.00  0.00     0.138 C 
ATOM     16  C   UNL A   1      33.360  27.657  25.249  1.00  0.00     0.138 C 
ATOM     17  C   UNL A   1      30.790  26.827  26.246  1.00  0.00     0.141 C 
ATOM     18  C   UNL A   1      32.502  26.530  24.615  1.00  0.00     0.141 C 
ATOM     19  N   UNL A   1      31.622  25.842  25.559  1.00  0.00    -0.339 N 
ATOM     20  O   UNL A   1      31.028  24.280  27.081  1.00  0.00    -0.275 OA
BRANCH  14  21
ATOM     21  C   UNL A   1      33.508  29.507  26.906  1.00  0.00     0.040 A 
ATOM     22  C   UNL A   1      33.663  33.227  28.087  1.00  0.00     0.044 C 
ATOM     23  C   UNL A   1      34.031  31.794  27.769  1.00  0.00    -0.046 A 
ATOM     24  C   UNL A   1      35.311  31.386  28.153  1.00  0.00     0.004 A 
ATOM     25  C   UNL A   1      33.118  30.870  27.142  1.00  0.00    -0.025 A 
ATOM     26  C   UNL A   1      35.718  30.095  27.909  1.00  0.00     0.002 A 
ATOM     27  C   UNL A   1      31.779  31.450  26.742  1.00  0.00     0.047 C 
ATOM     28  C   UNL A   1      34.841  29.193  27.299  1.00  0.00     0.026 A 
ENDBRANCH  14  21
ENDBRANCH   8  13
ENDBRANCH   4   7
ENDBRANCH   2   3
ENDBRANCH   1   2
BRANCH   1  29
ATOM     29  C   UNL A   1      37.921  20.834  25.690  1.00  0.00     0.118 C 
BRANCH  29  30
ATOM     30  N   UNL A   1      39.233  20.204  25.802  1.00  0.00    -0.352 N 
ATOM     31  C   UNL A   1      40.389  20.712  26.351  1.00  0.00     0.251 C 
ATOM     32  H   UNL A   1      39.301  19.293  25.437  1.00  0.00     0.163 HD
ATOM     33  O   UNL A   1      41.458  20.133  26.162  1.00  0.00    -0.269 OA
BRANCH  31  34
ATOM     34  C   UNL A   1      40.363  22.029  27.018  1.00  0.00     0.039 A 
ATOM     35  C   UNL A   1      41.284  22.242  28.045  1.00  0.00     0.014 A 
ATOM     36  C   UNL A   1      39.610  23.088  26.511  1.00  0.00     0.014 A 
ATOM     37  C   UNL A   1      41.600  23.544  28.410  1.00  0.00     0.010 A 
ATOM     38  C   UNL A   1      40.020  24.386  26.773  1.00  0.00     0.010 A 
ATOM     39  C   UNL A   1      41.057  24.616  27.685  1.00  0.00    -0.014 A 
BRANCH  39  40
ATOM     40  C   UNL A   1      41.665  25.959  27.803  1.00  0.00     0.031 A 
ATOM     41  C   UNL A   1      40.985  27.028  28.598  1.00  0.00     0.074 A 
ATOM     42  C   UNL A   1      42.815  26.195  27.137  1.00  0.00     0.049 A 
ATOM     43  N   UNL A   1      41.391  28.240  28.861  1.00  0.00    -0.248 NA
ATOM     44  C   UNL A   1      39.655  26.705  29.135  1.00  0.00     0.031 C 
ATOM     45  C   UNL A   1      43.487  25.237  26.248  1.00  0.00     0.029 A 
ATOM     46  N   UNL A   1      43.636  27.289  27.111  1.00  0.00    -0.354 N 
ATOM     47  C   UNL A   1      40.368  28.826  29.596  1.00  0.00     0.074 A 
ATOM     48  C   UNL A   1      39.290  27.863  29.661  1.00  0.00     0.031 C 
ATOM     49  C   UNL A   1      44.650  25.759  25.830  1.00  0.00     0.029 A 
ATOM     50  C   UNL A   1      44.791  27.097  26.384  1.00  0.00     0.049 A 
ATOM     51  H   UNL A   1      43.423  28.134  27.569  1.00  0.00     0.167 HD
ATOM     52  C   UNL A   1      40.350  30.046  30.187  1.00  0.00     0.034 A 
ATOM     53  C   UNL A   1      45.853  27.908  26.208  1.00  0.00     0.034 A 
ATOM     54  C   UNL A   1      41.447  30.977  30.087  1.00  0.00     0.049 A 
ATOM     55  C   UNL A   1      45.833  29.238  26.914  1.00  0.00     0.074 A 
ATOM     56  C   UNL A   1      41.571  32.237  30.642  1.00  0.00     0.029 A 
ATOM     57  N   UNL A   1      42.618  30.741  29.372  1.00  0.00    -0.354 N 
ATOM     58  N   UNL A   1      44.889  29.754  27.670  1.00  0.00    -0.248 NA
ATOM     59  C   UNL A   1      47.020  30.084  26.763  1.00  0.00     0.031 C 
ATOM     60  C   UNL A   1      42.793  32.779  30.222  1.00  0.00     0.029 A 
ATOM     61  C   UNL A   1      43.462  31.835  29.457  1.00  0.00     0.049 A 
ATOM     62  H   UNL A   1      42.817  29.914  28.876  1.00  0.00     0.167 HD
ATOM     63  C   UNL A   1      45.375  30.983  28.097  1.00  0.00     0.074 A 
ATOM     64  C   UNL A   1      46.709  31.111  27.540  1.00  0.00     0.031 C 
ATOM     65  C   UNL A   1      44.778  31.927  28.870  1.00  0.00     0.034 A 
BRANCH  52  66
ATOM     66  C   UNL A   1      39.099  30.417  30.948  1.00  0.00     0.023 A 
ATOM     67  C   UNL A   1      38.292  31.500  30.549  1.00  0.00     0.031 A 
ATOM     68  C   UNL A   1      38.755  29.745  32.133  1.00  0.00     0.131 A 
ATOM     69  C   UNL A   1      37.250  31.943  31.378  1.00  0.00     0.055 A 
ATOM     70  C   UNL A   1      37.658  30.136  32.908  1.00  0.00     0.041 A 
ATOM     71  F   UNL A   1      39.497  28.721  32.580  1.00  0.00    -0.206 F 
ATOM     72  C   UNL A   1      36.912  31.253  32.543  1.00  0.00     0.022 A 
BRANCH  69  73
ATOM     73  S   UNL A   1      36.459  33.531  30.998  1.00  0.00     0.124 S 
ATOM     74  O   UNL A   1      35.044  33.196  31.142  1.00  0.00    -0.237 OA
ATOM     75  O   UNL A   1      37.013  34.413  32.018  1.00  0.00    -0.237 OA
ATOM     76  O   UNL A   1      36.889  33.810  29.629  1.00  0.00    -0.744 OA
ENDBRANCH  69  73
ENDBRANCH  52  66
BRANCH  53  77
ATOM     77  C   UNL A   1      47.012  27.480  25.371  1.00  0.00     0.023 A 
ATOM     78  C   UNL A   1      47.136  27.889  24.033  1.00  0.00     0.031 A 
ATOM     79  C   UNL A   1      48.014  26.641  25.894  1.00  0.00     0.131 A 
ATOM     80  C   UNL A   1      48.211  27.432  23.253  1.00  0.00     0.055 A 
ATOM     81  C   UNL A   1      49.106  26.226  25.128  1.00  0.00     0.041 A 
ATOM     82  F   UNL A   1      47.955  26.228  27.170  1.00  0.00    -0.206 F 
ATOM     83  C   UNL A   1      49.202  26.611  23.796  1.00  0.00     0.022 A 
BRANCH  80  84
ATOM     84  S   UNL A   1      48.258  27.863  21.491  1.00  0.00     0.124 S 
ATOM     85  O   UNL A   1      46.899  28.338  21.261  1.00  0.00    -0.237 OA
ATOM     86  O   UNL A   1      49.307  28.877  21.457  1.00  0.00    -0.237 OA
ATOM     87  O   UNL A   1      48.595  26.599  20.839  1.00  0.00    -0.744 OA
ENDBRANCH  80  84
ENDBRANCH  53  77
BRANCH  65  88
ATOM     88  C   UNL A   1      45.592  33.162  29.156  1.00  0.00     0.023 A 
ATOM     89  C   UNL A   1      45.595  34.253  28.272  1.00  0.00     0.031 A 
ATOM     90  C   UNL A   1      46.391  33.231  30.309  1.00  0.00     0.131 A 
ATOM     91  C   UNL A   1      46.434  35.346  28.522  1.00  0.00     0.055 A 
ATOM     92  C   UNL A   1      47.179  34.349  30.583  1.00  0.00     0.041 A 
ATOM     93  F   UNL A   1      46.422  32.213  31.182  1.00  0.00    -0.206 F 
ATOM     94  C   UNL A   1      47.214  35.408  29.680  1.00  0.00     0.022 A 
BRANCH  91  95
ATOM     95  S   UNL A   1      46.564  36.643  27.261  1.00  0.00     0.124 S 
ATOM     96  O   UNL A   1      46.459  35.875  26.025  1.00  0.00    -0.237 OA
ATOM     97  O   UNL A   1      45.428  37.502  27.577  1.00  0.00    -0.237 OA
ATOM     98  O   UNL A   1      47.877  37.236  27.514  1.00  0.00    -0.744 OA
ENDBRANCH  91  95
ENDBRANCH  65  88
ENDBRANCH  39  40
ENDBRANCH  31  34
ENDBRANCH  29  30
ENDBRANCH   1  29
TORSDOF 15
ENDMDL
MODEL 3
REMARK VINA RESULT:     -13.2      5.697     11.792
REMARK SMILES Cc1cccc(N2CCN(C(=O)[C@@H]3CC=CC[C@@H]3C(=O)NCCCNC(=O)c3ccc(-c4c5nc(c(-c6cc(S(=O)(=O)[O-])ccc6F)c6ccc([nH]6)c(-c6cc(S(=O)(=O)[O-])ccc6F)c6nc(c(-c7cc(S(=O)(=O)[O-])ccc7F)c7ccc4[nH]7)C=C6)C=C5)cc3)CC2)c1C
REMARK SMILES IDX 23 1 22 2 21 3 19 4 20 5 18 7 13 8 14 9 15 10 17 11 16 12
REMARK SMILES IDX 11 13 7 14 8 15 92 16 9 17 91 18 10 19 12 20 6 21 1 22 2 23
REMARK SMILES IDX 3 24 93 25 4 26 94 27 5 28 24 29 25 30 26 31 27 33 28 34
REMARK SMILES IDX 29 35 90 36 30 37 89 38 31 39 32 40 33 41 83 42 34 43 88 44
REMARK SMILES IDX 82 45 84 46 35 47 87 48 81 49 80 50 36 52 68 53 48 54 67 55
REMARK SMILES IDX 49 56 52 57 66 58 85 59 50 60 51 61 65 63 86 64 53 65 37 66
REMARK SMILES IDX 38 67 46 68 39 69 45 70 47 71 44 72 40 73 41 74 42 75 43 76
REMARK SMILES IDX 69 77 70 78 78 79 71 80 77 81 79 82 76 83 72 84 73 85 74 86
REMARK SMILES IDX 75 87 54 88 55 89 63 90 56 91 62 92 64 93 61 94 57 95 58 96
REMARK SMILES IDX 59 97 60 98
REMARK H PARENT 21 6 25 32 84 51 52 62
REMARK Flexibility Score: inf
ROOT
ATOM      1  C   UNL A   1      37.953  22.186  25.380  1.00  0.00     0.042 C 
ENDROOT
BRANCH   1   2
ATOM      2  C   UNL A   1      37.120  23.308  25.973  1.00  0.00     0.117 C 
BRANCH   2   3
ATOM      3  N   UNL A   1      35.922  22.867  26.653  1.00  0.00    -0.356 N 
ATOM      4  C   UNL A   1      34.772  22.288  26.238  1.00  0.00     0.224 C 
ATOM      5  O   UNL A   1      34.016  21.926  27.152  1.00  0.00    -0.275 OA
ATOM      6  H   UNL A   1      35.949  23.022  27.625  1.00  0.00     0.163 HD
BRANCH   4   7
ATOM      7  C   UNL A   1      34.369  21.960  24.788  1.00  0.00     0.095 C 
ATOM      8  C   UNL A   1      32.913  21.931  24.330  1.00  0.00     0.095 C 
ATOM      9  C   UNL A   1      32.150  20.665  24.861  1.00  0.00     0.041 C 
ATOM     10  C   UNL A   1      33.017  19.492  25.238  1.00  0.00    -0.030 C 
ATOM     11  C   UNL A   1      35.046  20.621  24.402  1.00  0.00     0.041 C 
ATOM     12  C   UNL A   1      34.335  19.455  25.009  1.00  0.00    -0.030 C 
BRANCH   8  13
ATOM     13  C   UNL A   1      32.035  23.210  24.339  1.00  0.00     0.226 C 
ATOM     14  N   UNL A   1      32.735  27.252  24.722  1.00  0.00    -0.368 N 
ATOM     15  C   UNL A   1      31.417  26.613  24.527  1.00  0.00     0.138 C 
ATOM     16  C   UNL A   1      33.919  26.354  24.618  1.00  0.00     0.138 C 
ATOM     17  C   UNL A   1      31.411  25.437  23.541  1.00  0.00     0.141 C 
ATOM     18  C   UNL A   1      33.757  25.072  23.758  1.00  0.00     0.141 C 
ATOM     19  N   UNL A   1      32.439  24.447  23.856  1.00  0.00    -0.339 N 
ATOM     20  O   UNL A   1      30.853  23.068  24.690  1.00  0.00    -0.275 OA
BRANCH  14  21
ATOM     21  C   UNL A   1      32.880  28.427  25.520  1.00  0.00     0.040 A 
ATOM     22  C   UNL A   1      31.403  31.906  26.502  1.00  0.00     0.044 C 
ATOM     23  C   UNL A   1      32.294  30.687  26.412  1.00  0.00    -0.046 A 
ATOM     24  C   UNL A   1      33.396  30.665  27.270  1.00  0.00     0.004 A 
ATOM     25  C   UNL A   1      32.022  29.579  25.529  1.00  0.00    -0.025 A 
ATOM     26  C   UNL A   1      34.249  29.585  27.256  1.00  0.00     0.002 A 
ATOM     27  C   UNL A   1      30.819  29.749  24.627  1.00  0.00     0.047 C 
ATOM     28  C   UNL A   1      33.995  28.509  26.402  1.00  0.00     0.026 A 
ENDBRANCH  14  21
ENDBRANCH   8  13
ENDBRANCH   4   7
ENDBRANCH   2   3
ENDBRANCH   1   2
BRANCH   1  29
ATOM     29  C   UNL A   1      39.228  21.965  26.173  1.00  0.00     0.118 C 
BRANCH  29  30
ATOM     30  N   UNL A   1      39.687  20.579  26.142  1.00  0.00    -0.352 N 
ATOM     31  C   UNL A   1      40.973  20.094  26.220  1.00  0.00     0.251 C 
ATOM     32  H   UNL A   1      38.981  19.900  26.055  1.00  0.00     0.163 HD
ATOM     33  O   UNL A   1      41.195  18.914  25.955  1.00  0.00    -0.269 OA
BRANCH  31  34
ATOM     34  C   UNL A   1      42.092  21.028  26.459  1.00  0.00     0.039 A 
ATOM     35  C   UNL A   1      42.639  21.665  25.345  1.00  0.00     0.014 A 
ATOM     36  C   UNL A   1      42.446  21.426  27.748  1.00  0.00     0.014 A 
ATOM     37  C   UNL A   1      43.369  22.833  25.525  1.00  0.00     0.010 A 
ATOM     38  C   UNL A   1      43.054  22.659  27.924  1.00  0.00     0.010 A 
ATOM     39  C   UNL A   1      43.469  23.394  26.807  1.00  0.00    -0.014 A 
BRANCH  39  40
ATOM     40  C   UNL A   1      43.901  24.802  26.956  1.00  0.00     0.031 A 
ATOM     41  C   UNL A   1      42.951  25.830  27.481  1.00  0.00     0.074 A 
ATOM     42  C   UNL A   1      45.150  25.127  26.562  1.00  0.00     0.049 A 
ATOM     43  N   UNL A   1      43.164  27.093  27.734  1.00  0.00    -0.248 NA
ATOM     44  C   UNL A   1      41.567  25.392  27.715  1.00  0.00     0.031 C 
ATOM     45  C   UNL A   1      46.105  24.201  25.935  1.00  0.00     0.029 A 
ATOM     46  N   UNL A   1      45.846  26.302  26.642  1.00  0.00    -0.354 N 
ATOM     47  C   UNL A   1      41.944  27.601  28.158  1.00  0.00     0.074 A 
ATOM     48  C   UNL A   1      40.978  26.530  28.045  1.00  0.00     0.031 C 
ATOM     49  C   UNL A   1      47.280  24.825  25.762  1.00  0.00     0.029 A 
ATOM     50  C   UNL A   1      47.156  26.199  26.224  1.00  0.00     0.049 A 
ATOM     51  H   UNL A   1      45.450  27.142  26.968  1.00  0.00     0.167 HD
ATOM     52  C   UNL A   1      41.668  28.842  28.629  1.00  0.00     0.034 A 
ATOM     53  C   UNL A   1      48.146  27.112  26.238  1.00  0.00     0.034 A 
ATOM     54  C   UNL A   1      42.663  29.883  28.715  1.00  0.00     0.049 A 
ATOM     55  C   UNL A   1      47.831  28.468  26.810  1.00  0.00     0.074 A 
ATOM     56  C   UNL A   1      42.529  31.177  29.181  1.00  0.00     0.029 A 
ATOM     57  N   UNL A   1      43.989  29.738  28.316  1.00  0.00    -0.354 N 
ATOM     58  N   UNL A   1      46.688  28.917  27.280  1.00  0.00    -0.248 NA
ATOM     59  C   UNL A   1      48.934  29.431  26.875  1.00  0.00     0.031 C 
ATOM     60  C   UNL A   1      43.760  31.827  29.018  1.00  0.00     0.029 A 
ATOM     61  C   UNL A   1      44.680  30.923  28.509  1.00  0.00     0.049 A 
ATOM     62  H   UNL A   1      44.380  28.912  27.949  1.00  0.00     0.167 HD
ATOM     63  C   UNL A   1      46.937  30.215  27.709  1.00  0.00     0.074 A 
ATOM     64  C   UNL A   1      48.348  30.459  27.473  1.00  0.00     0.031 C 
ATOM     65  C   UNL A   1      46.085  31.128  28.243  1.00  0.00     0.034 A 
BRANCH  52  66
ATOM     66  C   UNL A   1      40.241  29.113  29.043  1.00  0.00     0.023 A 
ATOM     67  C   UNL A   1      39.854  29.094  30.397  1.00  0.00     0.031 A 
ATOM     68  C   UNL A   1      39.238  29.303  28.078  1.00  0.00     0.131 A 
ATOM     69  C   UNL A   1      38.495  29.155  30.740  1.00  0.00     0.055 A 
ATOM     70  C   UNL A   1      37.894  29.454  28.433  1.00  0.00     0.041 A 
ATOM     71  F   UNL A   1      39.538  29.307  26.770  1.00  0.00    -0.206 F 
ATOM     72  C   UNL A   1      37.513  29.360  29.769  1.00  0.00     0.022 A 
BRANCH  69  73
ATOM     73  S   UNL A   1      38.018  28.790  32.452  1.00  0.00     0.124 S 
ATOM     74  O   UNL A   1      36.656  29.320  32.498  1.00  0.00    -0.237 OA
ATOM     75  O   UNL A   1      38.141  27.339  32.514  1.00  0.00    -0.237 OA
ATOM     76  O   UNL A   1      38.994  29.534  33.246  1.00  0.00    -0.744 OA
ENDBRANCH  69  73
ENDBRANCH  52  66
BRANCH  53  77
ATOM     77  C   UNL A   1      49.509  26.770  25.734  1.00  0.00     0.023 A 
ATOM     78  C   UNL A   1      49.929  27.154  24.449  1.00  0.00     0.031 A 
ATOM     79  C   UNL A   1      50.414  26.040  26.527  1.00  0.00     0.131 A 
ATOM     80  C   UNL A   1      51.198  26.776  23.981  1.00  0.00     0.055 A 
ATOM     81  C   UNL A   1      51.692  25.706  26.074  1.00  0.00     0.041 A 
ATOM     82  F   UNL A   1      50.072  25.657  27.767  1.00  0.00    -0.206 F 
ATOM     83  C   UNL A   1      52.086  26.064  24.790  1.00  0.00     0.022 A 
BRANCH  80  84
ATOM     84  S   UNL A   1      51.648  27.164  22.266  1.00  0.00     0.124 S 
ATOM     85  O   UNL A   1      51.827  28.610  22.323  1.00  0.00    -0.237 OA
ATOM     86  O   UNL A   1      52.861  26.373  22.087  1.00  0.00    -0.237 OA
ATOM     87  O   UNL A   1      50.491  26.709  21.498  1.00  0.00    -0.744 OA
ENDBRANCH  80  84
ENDBRANCH  53  77
BRANCH  65  88
ATOM     88  C   UNL A   1      46.685  32.459  28.611  1.00  0.00     0.023 A 
ATOM     89  C   UNL A   1      46.750  33.511  27.684  1.00  0.00     0.031 A 
ATOM     90  C   UNL A   1      47.220  32.663  29.894  1.00  0.00     0.131 A 
ATOM     91  C   UNL A   1      47.397  34.704  28.031  1.00  0.00     0.055 A 
ATOM     92  C   UNL A   1      47.809  33.875  30.253  1.00  0.00     0.041 A 
ATOM     93  F   UNL A   1      47.182  31.687  30.814  1.00  0.00    -0.206 F 
ATOM     94  C   UNL A   1      47.913  34.898  29.315  1.00  0.00     0.022 A 
BRANCH  91  95
ATOM     95  S   UNL A   1      47.640  35.961  26.748  1.00  0.00     0.124 S 
ATOM     96  O   UNL A   1      47.305  35.224  25.534  1.00  0.00    -0.237 OA
ATOM     97  O   UNL A   1      46.696  37.001  27.145  1.00  0.00    -0.237 OA
ATOM     98  O   UNL A   1      49.051  36.322  26.885  1.00  0.00    -0.744 OA
ENDBRANCH  91  95
ENDBRANCH  65  88
ENDBRANCH  39  40
ENDBRANCH  31  34
ENDBRANCH  29  30
ENDBRANCH   1  29
TORSDOF 15
ENDMDL
