MODEL 1
REMARK VINA RESULT:     -11.5      0.000      0.000
REMARK SMILES O=C(NCCCNC(=O)[C@@H](Cc1ccccc1Br)CC(F)(F)F)c1ccc(-c2c3nc(c(-c4cc(S(=O)(=O)[O-])ccc4F)c4ccc([nH]4)c(-c4cc(S(=O)(=O)[O-])ccc4F)c4nc(c(-c5cc(S(=O)(=O)[O-])ccc5F)c5ccc2[nH]5)C=C4)C=C3)cc1
REMARK SMILES IDX 4 1 3 2 1 3 2 4 24 6 25 7 86 8 26 9 85 10 27 11 28 12 29 13
REMARK SMILES IDX 79 14 30 15 84 16 78 17 80 18 31 19 83 20 77 21 76 22 32 24
REMARK SMILES IDX 64 25 44 26 63 27 45 28 48 29 62 30 81 31 46 32 47 33 61 35
REMARK SMILES IDX 82 36 49 37 33 38 34 39 42 40 35 41 41 42 43 43 40 44 36 45
REMARK SMILES IDX 37 46 38 47 39 48 65 49 66 50 74 51 67 52 73 53 75 54 72 55
REMARK SMILES IDX 68 56 69 57 70 58 71 59 50 60 51 61 59 62 52 63 58 64 60 65
REMARK SMILES IDX 57 66 53 67 54 68 55 69 56 70 5 71 6 72 7 73 8 74 9 76 10 77
REMARK SMILES IDX 11 78 12 79 13 80 17 81 14 82 16 83 18 84 15 85 19 86 20 87
REMARK SMILES IDX 21 88 22 89 23 90
REMARK H PARENT 3 5 80 23 48 34 7 75
REMARK Flexibility Score: inf
ROOT
ATOM      1  C   UNL A   1      36.113  21.879  25.486  1.00  0.00     0.118 C 
ENDROOT
BRANCH   1   2
ATOM      2  N   UNL A   1      37.256  20.988  25.532  1.00  0.00    -0.352 N 
ATOM      3  O   UNL A   1      39.371  20.306  25.528  1.00  0.00    -0.269 OA
ATOM      4  C   UNL A   1      38.581  21.204  25.823  1.00  0.00     0.251 C 
ATOM      5  H   UNL A   1      37.043  20.053  25.314  1.00  0.00     0.163 HD
BRANCH   4   6
ATOM      6  C   UNL A   1      39.104  22.447  26.463  1.00  0.00     0.039 A 
ATOM      7  C   UNL A   1      40.279  22.496  27.214  1.00  0.00     0.014 A 
ATOM      8  C   UNL A   1      38.465  23.659  26.150  1.00  0.00     0.014 A 
ATOM      9  C   UNL A   1      40.779  23.716  27.685  1.00  0.00     0.010 A 
ATOM     10  C   UNL A   1      39.014  24.888  26.543  1.00  0.00     0.010 A 
ATOM     11  C   UNL A   1      40.190  24.930  27.303  1.00  0.00    -0.014 A 
BRANCH  11  12
ATOM     12  C   UNL A   1      40.903  26.215  27.554  1.00  0.00     0.031 A 
ATOM     13  C   UNL A   1      42.285  26.470  27.021  1.00  0.00     0.074 A 
ATOM     14  C   UNL A   1      40.298  27.150  28.319  1.00  0.00     0.049 A 
ATOM     15  N   UNL A   1      43.053  27.518  27.192  1.00  0.00    -0.248 NA
ATOM     16  C   UNL A   1      42.891  25.411  26.202  1.00  0.00     0.031 C 
ATOM     17  C   UNL A   1      38.972  27.007  28.930  1.00  0.00     0.029 A 
ATOM     18  N   UNL A   1      40.709  28.397  28.724  1.00  0.00    -0.354 N 
ATOM     19  C   UNL A   1      44.239  27.238  26.523  1.00  0.00     0.074 A 
ATOM     20  C   UNL A   1      44.095  25.912  25.957  1.00  0.00     0.031 C 
ATOM     21  C   UNL A   1      38.671  28.126  29.605  1.00  0.00     0.029 A 
ATOM     22  C   UNL A   1      39.804  29.041  29.539  1.00  0.00     0.049 A 
ATOM     23  H   UNL A   1      41.569  28.794  28.455  1.00  0.00     0.167 HD
ATOM     24  C   UNL A   1      45.342  28.019  26.393  1.00  0.00     0.034 A 
ATOM     25  C   UNL A   1      39.883  30.216  30.193  1.00  0.00     0.034 A 
ATOM     26  C   UNL A   1      45.466  29.347  26.945  1.00  0.00     0.049 A 
ATOM     27  C   UNL A   1      41.133  31.042  30.059  1.00  0.00     0.074 A 
ATOM     28  C   UNL A   1      46.495  30.257  26.774  1.00  0.00     0.029 A 
ATOM     29  N   UNL A   1      44.546  29.947  27.794  1.00  0.00    -0.354 N 
ATOM     30  N   UNL A   1      42.214  30.789  29.358  1.00  0.00    -0.248 NA
ATOM     31  C   UNL A   1      41.179  32.305  30.806  1.00  0.00     0.031 C 
ATOM     32  C   UNL A   1      46.232  31.376  27.572  1.00  0.00     0.029 A 
ATOM     33  C   UNL A   1      45.009  31.192  28.195  1.00  0.00     0.049 A 
ATOM     34  H   UNL A   1      43.689  29.548  28.071  1.00  0.00     0.167 HD
ATOM     35  C   UNL A   1      43.065  31.867  29.577  1.00  0.00     0.074 A 
ATOM     36  C   UNL A   1      42.363  32.783  30.453  1.00  0.00     0.031 C 
ATOM     37  C   UNL A   1      44.314  32.081  29.094  1.00  0.00     0.034 A 
BRANCH  24  38
ATOM     38  C   UNL A   1      46.526  27.446  25.657  1.00  0.00     0.023 A 
ATOM     39  C   UNL A   1      46.870  27.865  24.361  1.00  0.00     0.031 A 
ATOM     40  C   UNL A   1      47.339  26.479  26.277  1.00  0.00     0.131 A 
ATOM     41  C   UNL A   1      47.970  27.285  23.709  1.00  0.00     0.055 A 
ATOM     42  C   UNL A   1      48.467  25.950  25.647  1.00  0.00     0.041 A 
ATOM     43  F   UNL A   1      47.047  26.033  27.510  1.00  0.00    -0.206 F 
ATOM     44  C   UNL A   1      48.782  26.346  24.350  1.00  0.00     0.022 A 
BRANCH  41  45
ATOM     45  S   UNL A   1      48.269  27.704  21.970  1.00  0.00     0.124 S 
ATOM     46  O   UNL A   1      49.385  28.640  22.077  1.00  0.00    -0.237 OA
ATOM     47  O   UNL A   1      48.579  26.406  21.381  1.00  0.00    -0.237 OA
ATOM     48  O   UNL A   1      47.005  28.298  21.538  1.00  0.00    -0.744 OA
ENDBRANCH  41  45
ENDBRANCH  24  38
BRANCH  25  49
ATOM     49  C   UNL A   1      38.775  30.654  31.091  1.00  0.00     0.023 A 
ATOM     50  C   UNL A   1      37.632  31.286  30.581  1.00  0.00     0.031 A 
ATOM     51  C   UNL A   1      38.869  30.480  32.484  1.00  0.00     0.131 A 
ATOM     52  C   UNL A   1      36.643  31.754  31.460  1.00  0.00     0.055 A 
ATOM     53  C   UNL A   1      37.859  30.901  33.350  1.00  0.00     0.041 A 
ATOM     54  F   UNL A   1      39.943  29.882  33.023  1.00  0.00    -0.206 F 
ATOM     55  C   UNL A   1      36.743  31.555  32.839  1.00  0.00     0.022 A 
BRANCH  52  56
ATOM     56  S   UNL A   1      35.258  32.711  30.783  1.00  0.00     0.124 S 
ATOM     57  O   UNL A   1      35.872  34.017  30.573  1.00  0.00    -0.237 OA
ATOM     58  O   UNL A   1      34.932  31.955  29.576  1.00  0.00    -0.237 OA
ATOM     59  O   UNL A   1      34.255  32.655  31.841  1.00  0.00    -0.744 OA
ENDBRANCH  52  56
ENDBRANCH  25  49
BRANCH  37  60
ATOM     60  C   UNL A   1      44.987  33.365  29.502  1.00  0.00     0.023 A 
ATOM     61  C   UNL A   1      44.773  34.560  28.793  1.00  0.00     0.031 A 
ATOM     62  C   UNL A   1      45.868  33.389  30.597  1.00  0.00     0.131 A 
ATOM     63  C   UNL A   1      45.468  35.722  29.160  1.00  0.00     0.055 A 
ATOM     64  C   UNL A   1      46.518  34.560  30.987  1.00  0.00     0.041 A 
ATOM     65  F   UNL A   1      46.110  32.273  31.302  1.00  0.00    -0.206 F 
ATOM     66  C   UNL A   1      46.327  35.733  30.261  1.00  0.00     0.022 A 
BRANCH  63  67
ATOM     67  S   UNL A   1      45.281  37.209  28.140  1.00  0.00     0.124 S 
ATOM     68  O   UNL A   1      46.667  37.521  27.804  1.00  0.00    -0.237 OA
ATOM     69  O   UNL A   1      44.449  36.734  27.039  1.00  0.00    -0.237 OA
ATOM     70  O   UNL A   1      44.632  38.163  29.038  1.00  0.00    -0.744 OA
ENDBRANCH  63  67
ENDBRANCH  37  60
ENDBRANCH  11  12
ENDBRANCH   4   6
ENDBRANCH   1   2
BRANCH   1  71
ATOM     71  C   UNL A   1      35.871  22.417  24.082  1.00  0.00     0.042 C 
BRANCH  71  72
ATOM     72  C   UNL A   1      34.396  22.677  23.784  1.00  0.00     0.117 C 
BRANCH  72  73
ATOM     73  N   UNL A   1      34.257  23.675  22.737  1.00  0.00    -0.356 N 
ATOM     74  C   UNL A   1      33.776  24.940  22.735  1.00  0.00     0.223 C 
ATOM     75  H   UNL A   1      34.575  23.372  21.856  1.00  0.00     0.163 HD
ATOM     76  O   UNL A   1      33.650  25.484  21.633  1.00  0.00    -0.275 OA
BRANCH  74  77
ATOM     77  C   UNL A   1      33.428  25.723  23.997  1.00  0.00     0.092 C 
BRANCH  77  78
ATOM     78  C   UNL A   1      33.772  27.229  23.945  1.00  0.00     0.050 C 
BRANCH  78  79
ATOM     79  C   UNL A   1      33.347  28.163  25.057  1.00  0.00    -0.033 A 
ATOM     80  C   UNL A   1      34.106  28.158  26.244  1.00  0.00     0.005 A 
ATOM     81  C   UNL A   1      32.204  28.982  25.024  1.00  0.00     0.021 A 
ATOM     82  C   UNL A   1      33.778  28.980  27.326  1.00  0.00     0.000 A 
ATOM     83  C   UNL A   1      31.897  29.831  26.098  1.00  0.00     0.016 A 
ATOM     84  Br  UNL A   1      30.946  28.956  23.601  1.00  0.00    -0.051 Br
ATOM     85  C   UNL A   1      32.687  29.835  27.244  1.00  0.00     0.001 A 
ENDBRANCH  78  79
ENDBRANCH  77  78
BRANCH  77  86
ATOM     86  C   UNL A   1      32.097  25.349  24.652  1.00  0.00     0.129 C 
BRANCH  86  87
ATOM     87  C   UNL A   1      32.229  24.942  26.107  1.00  0.00     0.389 C 
ATOM     88  F   UNL A   1      31.768  25.903  26.933  1.00  0.00    -0.171 F 
ATOM     89  F   UNL A   1      31.496  23.827  26.339  1.00  0.00    -0.171 F 
ATOM     90  F   UNL A   1      33.500  24.660  26.449  1.00  0.00    -0.171 F 
ENDBRANCH  86  87
ENDBRANCH  77  86
ENDBRANCH  74  77
ENDBRANCH  72  73
ENDBRANCH  71  72
ENDBRANCH   1  71
TORSDOF 17
ENDMDL
MODEL 2
REMARK VINA RESULT:     -11.5      0.944      7.667
REMARK SMILES O=C(NCCCNC(=O)[C@@H](Cc1ccccc1Br)CC(F)(F)F)c1ccc(-c2c3nc(c(-c4cc(S(=O)(=O)[O-])ccc4F)c4ccc([nH]4)c(-c4cc(S(=O)(=O)[O-])ccc4F)c4nc(c(-c5cc(S(=O)(=O)[O-])ccc5F)c5ccc2[nH]5)C=C4)C=C3)cc1
REMARK SMILES IDX 4 1 3 2 1 3 2 4 24 6 25 7 86 8 26 9 85 10 27 11 28 12 29 13
REMARK SMILES IDX 79 14 30 15 84 16 78 17 80 18 31 19 83 20 77 21 76 22 32 24
REMARK SMILES IDX 64 25 44 26 63 27 45 28 48 29 62 30 81 31 46 32 47 33 61 35
REMARK SMILES IDX 82 36 49 37 33 38 34 39 42 40 35 41 41 42 43 43 40 44 36 45
REMARK SMILES IDX 37 46 38 47 39 48 65 49 66 50 74 51 67 52 73 53 75 54 72 55
REMARK SMILES IDX 68 56 69 57 70 58 71 59 50 60 51 61 59 62 52 63 58 64 60 65
REMARK SMILES IDX 57 66 53 67 54 68 55 69 56 70 5 71 6 72 7 73 8 74 9 76 10 77
REMARK SMILES IDX 11 78 12 79 13 80 17 81 14 82 16 83 18 84 15 85 19 86 20 87
REMARK SMILES IDX 21 88 22 89 23 90
REMARK H PARENT 3 5 80 23 48 34 7 75
REMARK Flexibility Score: inf
ROOT
ATOM      1  C   UNL A   1      37.529  21.181  24.806  1.00  0.00     0.118 C 
ENDROOT
BRANCH   1   2
ATOM      2  N   UNL A   1      38.516  20.269  25.353  1.00  0.00    -0.352 N 
ATOM      3  O   UNL A   1      40.442  19.531  26.179  1.00  0.00    -0.269 OA
ATOM      4  C   UNL A   1      39.665  20.481  26.075  1.00  0.00     0.251 C 
ATOM      5  H   UNL A   1      38.327  19.320  25.172  1.00  0.00     0.163 HD
BRANCH   4   6
ATOM      6  C   UNL A   1      40.016  21.777  26.726  1.00  0.00     0.039 A 
ATOM      7  C   UNL A   1      40.955  21.901  27.751  1.00  0.00     0.014 A 
ATOM      8  C   UNL A   1      39.493  22.953  26.159  1.00  0.00     0.014 A 
ATOM      9  C   UNL A   1      41.328  23.161  28.234  1.00  0.00     0.010 A 
ATOM     10  C   UNL A   1      39.933  24.216  26.580  1.00  0.00     0.010 A 
ATOM     11  C   UNL A   1      40.871  24.333  27.614  1.00  0.00    -0.014 A 
BRANCH  11  12
ATOM     12  C   UNL A   1      41.507  25.642  27.936  1.00  0.00     0.031 A 
ATOM     13  C   UNL A   1      40.757  26.729  28.656  1.00  0.00     0.074 A 
ATOM     14  C   UNL A   1      42.775  25.863  27.528  1.00  0.00     0.049 A 
ATOM     15  N   UNL A   1      41.157  27.936  28.969  1.00  0.00    -0.248 NA
ATOM     16  C   UNL A   1      39.379  26.429  29.068  1.00  0.00     0.031 C 
ATOM     17  C   UNL A   1      43.598  24.903  26.784  1.00  0.00     0.029 A 
ATOM     18  N   UNL A   1      43.597  26.955  27.666  1.00  0.00    -0.354 N 
ATOM     19  C   UNL A   1      40.077  28.550  29.592  1.00  0.00     0.074 A 
ATOM     20  C   UNL A   1      38.997  27.583  29.599  1.00  0.00     0.031 C 
ATOM     21  C   UNL A   1      44.807  25.436  26.557  1.00  0.00     0.029 A 
ATOM     22  C   UNL A   1      44.831  26.799  27.073  1.00  0.00     0.049 A 
ATOM     23  H   UNL A   1      43.331  27.772  28.146  1.00  0.00     0.167 HD
ATOM     24  C   UNL A   1      39.998  29.800  30.113  1.00  0.00     0.034 A 
ATOM     25  C   UNL A   1      45.855  27.661  26.923  1.00  0.00     0.034 A 
ATOM     26  C   UNL A   1      41.088  30.747  30.119  1.00  0.00     0.049 A 
ATOM     27  C   UNL A   1      45.725  29.052  27.478  1.00  0.00     0.074 A 
ATOM     28  C   UNL A   1      41.143  31.993  30.720  1.00  0.00     0.029 A 
ATOM     29  N   UNL A   1      42.306  30.566  29.477  1.00  0.00    -0.354 N 
ATOM     30  N   UNL A   1      44.718  29.585  28.132  1.00  0.00    -0.248 NA
ATOM     31  C   UNL A   1      46.860  29.959  27.273  1.00  0.00     0.031 C 
ATOM     32  C   UNL A   1      42.361  32.594  30.383  1.00  0.00     0.029 A 
ATOM     33  C   UNL A   1      43.095  31.698  29.623  1.00  0.00     0.049 A 
ATOM     34  H   UNL A   1      42.571  29.753  28.988  1.00  0.00     0.167 HD
ATOM     35  C   UNL A   1      45.105  30.889  28.419  1.00  0.00     0.074 A 
ATOM     36  C   UNL A   1      46.444  31.054  27.892  1.00  0.00     0.031 C 
ATOM     37  C   UNL A   1      44.415  31.862  29.065  1.00  0.00     0.034 A 
BRANCH  24  38
ATOM     38  C   UNL A   1      38.676  30.241  30.688  1.00  0.00     0.023 A 
ATOM     39  C   UNL A   1      37.752  30.989  29.939  1.00  0.00     0.031 A 
ATOM     40  C   UNL A   1      38.327  29.883  32.003  1.00  0.00     0.131 A 
ATOM     41  C   UNL A   1      36.542  31.393  30.528  1.00  0.00     0.055 A 
ATOM     42  C   UNL A   1      37.097  30.237  32.562  1.00  0.00     0.041 A 
ATOM     43  F   UNL A   1      39.180  29.180  32.767  1.00  0.00    -0.206 F 
ATOM     44  C   UNL A   1      36.201  31.006  31.826  1.00  0.00     0.022 A 
BRANCH  41  45
ATOM     45  S   UNL A   1      35.462  32.520  29.604  1.00  0.00     0.124 S 
ATOM     46  O   UNL A   1      35.281  31.795  28.348  1.00  0.00    -0.237 OA
ATOM     47  O   UNL A   1      34.288  32.607  30.465  1.00  0.00    -0.237 OA
ATOM     48  O   UNL A   1      36.252  33.745  29.500  1.00  0.00    -0.744 OA
ENDBRANCH  41  45
ENDBRANCH  24  38
BRANCH  25  49
ATOM     49  C   UNL A   1      47.070  27.259  26.155  1.00  0.00     0.023 A 
ATOM     50  C   UNL A   1      47.247  27.644  24.818  1.00  0.00     0.031 A 
ATOM     51  C   UNL A   1      48.055  26.445  26.745  1.00  0.00     0.131 A 
ATOM     52  C   UNL A   1      48.364  27.186  24.102  1.00  0.00     0.055 A 
ATOM     53  C   UNL A   1      49.189  26.034  26.045  1.00  0.00     0.041 A 
ATOM     54  F   UNL A   1      47.933  26.048  28.022  1.00  0.00    -0.206 F 
ATOM     55  C   UNL A   1      49.342  26.395  24.710  1.00  0.00     0.022 A 
BRANCH  52  56
ATOM     56  S   UNL A   1      48.479  27.565  22.332  1.00  0.00     0.124 S 
ATOM     57  O   UNL A   1      48.545  26.233  21.744  1.00  0.00    -0.237 OA
ATOM     58  O   UNL A   1      47.241  28.307  22.103  1.00  0.00    -0.237 OA
ATOM     59  O   UNL A   1      49.703  28.353  22.231  1.00  0.00    -0.744 OA
ENDBRANCH  52  56
ENDBRANCH  25  49
BRANCH  37  60
ATOM     60  C   UNL A   1      45.113  33.185  29.239  1.00  0.00     0.023 A 
ATOM     61  C   UNL A   1      45.059  34.176  28.244  1.00  0.00     0.031 A 
ATOM     62  C   UNL A   1      45.857  33.448  30.401  1.00  0.00     0.131 A 
ATOM     63  C   UNL A   1      45.775  35.371  28.410  1.00  0.00     0.055 A 
ATOM     64  C   UNL A   1      46.528  34.659  30.582  1.00  0.00     0.041 A 
ATOM     65  F   UNL A   1      45.944  32.533  31.378  1.00  0.00    -0.206 F 
ATOM     66  C   UNL A   1      46.497  35.624  29.579  1.00  0.00     0.022 A 
BRANCH  63  67
ATOM     67  S   UNL A   1      45.803  36.568  27.048  1.00  0.00     0.124 S 
ATOM     68  O   UNL A   1      46.061  35.710  25.896  1.00  0.00    -0.237 OA
ATOM     69  O   UNL A   1      44.470  37.157  27.119  1.00  0.00    -0.237 OA
ATOM     70  O   UNL A   1      46.896  37.470  27.407  1.00  0.00    -0.744 OA
ENDBRANCH  63  67
ENDBRANCH  37  60
ENDBRANCH  11  12
ENDBRANCH   4   6
ENDBRANCH   1   2
BRANCH   1  71
ATOM     71  C   UNL A   1      36.131  20.880  25.329  1.00  0.00     0.042 C 
BRANCH  71  72
ATOM     72  C   UNL A   1      35.220  22.106  25.350  1.00  0.00     0.117 C 
BRANCH  72  73
ATOM     73  N   UNL A   1      35.046  22.634  24.008  1.00  0.00    -0.356 N 
ATOM     74  C   UNL A   1      34.273  23.624  23.506  1.00  0.00     0.223 C 
ATOM     75  H   UNL A   1      35.598  22.181  23.330  1.00  0.00     0.163 HD
ATOM     76  O   UNL A   1      34.236  23.729  22.275  1.00  0.00    -0.275 OA
BRANCH  74  77
ATOM     77  C   UNL A   1      33.496  24.618  24.362  1.00  0.00     0.092 C 
BRANCH  77  78
ATOM     78  C   UNL A   1      33.751  26.106  24.029  1.00  0.00     0.050 C 
BRANCH  78  79
ATOM     79  C   UNL A   1      33.183  27.206  24.897  1.00  0.00    -0.033 A 
ATOM     80  C   UNL A   1      33.774  27.416  26.159  1.00  0.00     0.005 A 
ATOM     81  C   UNL A   1      32.061  27.988  24.571  1.00  0.00     0.021 A 
ATOM     82  C   UNL A   1      33.306  28.404  27.032  1.00  0.00     0.000 A 
ATOM     83  C   UNL A   1      31.615  29.001  25.433  1.00  0.00     0.016 A 
ATOM     84  Br  UNL A   1      31.008  27.700  23.017  1.00  0.00    -0.051 Br
ATOM     85  C   UNL A   1      32.241  29.213  26.658  1.00  0.00     0.001 A 
ENDBRANCH  78  79
ENDBRANCH  77  78
BRANCH  77  86
ATOM     86  C   UNL A   1      32.049  24.226  24.670  1.00  0.00     0.129 C 
BRANCH  86  87
ATOM     87  C   UNL A   1      31.744  24.143  26.153  1.00  0.00     0.389 C 
ATOM     88  F   UNL A   1      32.871  24.038  26.885  1.00  0.00    -0.171 F 
ATOM     89  F   UNL A   1      31.107  25.269  26.552  1.00  0.00    -0.171 F 
ATOM     90  F   UNL A   1      30.941  23.105  26.455  1.00  0.00    -0.171 F 
ENDBRANCH  86  87
ENDBRANCH  77  86
ENDBRANCH  74  77
ENDBRANCH  72  73
ENDBRANCH  71  72
ENDBRANCH   1  71
TORSDOF 17
ENDMDL
MODEL 3
REMARK VINA RESULT:     -11.5      2.137      7.947
REMARK SMILES O=C(NCCCNC(=O)[C@@H](Cc1ccccc1Br)CC(F)(F)F)c1ccc(-c2c3nc(c(-c4cc(S(=O)(=O)[O-])ccc4F)c4ccc([nH]4)c(-c4cc(S(=O)(=O)[O-])ccc4F)c4nc(c(-c5cc(S(=O)(=O)[O-])ccc5F)c5ccc2[nH]5)C=C4)C=C3)cc1
REMARK SMILES IDX 4 1 3 2 1 3 2 4 24 6 25 7 86 8 26 9 85 10 27 11 28 12 29 13
REMARK SMILES IDX 79 14 30 15 84 16 78 17 80 18 31 19 83 20 77 21 76 22 32 24
REMARK SMILES IDX 64 25 44 26 63 27 45 28 48 29 62 30 81 31 46 32 47 33 61 35
REMARK SMILES IDX 82 36 49 37 33 38 34 39 42 40 35 41 41 42 43 43 40 44 36 45
REMARK SMILES IDX 37 46 38 47 39 48 65 49 66 50 74 51 67 52 73 53 75 54 72 55
REMARK SMILES IDX 68 56 69 57 70 58 71 59 50 60 51 61 59 62 52 63 58 64 60 65
REMARK SMILES IDX 57 66 53 67 54 68 55 69 56 70 5 71 6 72 7 73 8 74 9 76 10 77
REMARK SMILES IDX 11 78 12 79 13 80 17 81 14 82 16 83 18 84 15 85 19 86 20 87
REMARK SMILES IDX 21 88 22 89 23 90
REMARK H PARENT 3 5 80 23 48 34 7 75
REMARK Flexibility Score: inf
ROOT
ATOM      1  C   UNL A   1      37.497  20.733  24.917  1.00  0.00     0.118 C 
ENDROOT
BRANCH   1   2
ATOM      2  N   UNL A   1      38.582  19.864  25.328  1.00  0.00    -0.352 N 
ATOM      3  O   UNL A   1      40.620  19.212  25.929  1.00  0.00    -0.269 OA
ATOM      4  C   UNL A   1      39.786  20.119  25.939  1.00  0.00     0.251 C 
ATOM      5  H   UNL A   1      38.427  18.912  25.134  1.00  0.00     0.163 HD
BRANCH   4   6
ATOM      6  C   UNL A   1      40.132  21.413  26.596  1.00  0.00     0.039 A 
ATOM      7  C   UNL A   1      41.102  21.543  27.591  1.00  0.00     0.014 A 
ATOM      8  C   UNL A   1      39.565  22.585  26.066  1.00  0.00     0.014 A 
ATOM      9  C   UNL A   1      41.465  22.803  28.080  1.00  0.00     0.010 A 
ATOM     10  C   UNL A   1      39.993  23.851  26.490  1.00  0.00     0.010 A 
ATOM     11  C   UNL A   1      40.963  23.974  27.493  1.00  0.00    -0.014 A 
BRANCH  11  12
ATOM     12  C   UNL A   1      41.582  25.292  27.814  1.00  0.00     0.031 A 
ATOM     13  C   UNL A   1      40.806  26.383  28.498  1.00  0.00     0.074 A 
ATOM     14  C   UNL A   1      42.859  25.515  27.437  1.00  0.00     0.049 A 
ATOM     15  N   UNL A   1      41.190  27.597  28.804  1.00  0.00    -0.248 NA
ATOM     16  C   UNL A   1      39.419  26.080  28.876  1.00  0.00     0.031 C 
ATOM     17  C   UNL A   1      43.708  24.549  26.729  1.00  0.00     0.029 A 
ATOM     18  N   UNL A   1      43.671  26.614  27.582  1.00  0.00    -0.354 N 
ATOM     19  C   UNL A   1      40.089  28.213  29.389  1.00  0.00     0.074 A 
ATOM     20  C   UNL A   1      39.016  27.240  29.380  1.00  0.00     0.031 C 
ATOM     21  C   UNL A   1      44.919  25.087  26.528  1.00  0.00     0.029 A 
ATOM     22  C   UNL A   1      44.921  26.457  27.024  1.00  0.00     0.049 A 
ATOM     23  H   UNL A   1      43.386  27.436  28.042  1.00  0.00     0.167 HD
ATOM     24  C   UNL A   1      39.989  29.470  29.889  1.00  0.00     0.034 A 
ATOM     25  C   UNL A   1      45.944  27.323  26.889  1.00  0.00     0.034 A 
ATOM     26  C   UNL A   1      41.073  30.424  29.911  1.00  0.00     0.049 A 
ATOM     27  C   UNL A   1      45.789  28.721  27.421  1.00  0.00     0.074 A 
ATOM     28  C   UNL A   1      41.103  31.679  30.495  1.00  0.00     0.029 A 
ATOM     29  N   UNL A   1      42.308  30.242  29.304  1.00  0.00    -0.354 N 
ATOM     30  N   UNL A   1      44.762  29.257  28.039  1.00  0.00    -0.248 NA
ATOM     31  C   UNL A   1      46.924  29.633  27.233  1.00  0.00     0.031 C 
ATOM     32  C   UNL A   1      42.326  32.283  30.182  1.00  0.00     0.029 A 
ATOM     33  C   UNL A   1      43.086  31.381  29.455  1.00  0.00     0.049 A 
ATOM     34  H   UNL A   1      42.592  29.424  28.835  1.00  0.00     0.167 HD
ATOM     35  C   UNL A   1      45.133  30.568  28.318  1.00  0.00     0.074 A 
ATOM     36  C   UNL A   1      46.485  30.734  27.825  1.00  0.00     0.031 C 
ATOM     37  C   UNL A   1      44.420  31.546  28.931  1.00  0.00     0.034 A 
BRANCH  24  38
ATOM     38  C   UNL A   1      38.649  29.911  30.421  1.00  0.00     0.023 A 
ATOM     39  C   UNL A   1      37.705  30.564  29.612  1.00  0.00     0.031 A 
ATOM     40  C   UNL A   1      38.304  29.647  31.759  1.00  0.00     0.131 A 
ATOM     41  C   UNL A   1      36.479  30.973  30.161  1.00  0.00     0.055 A 
ATOM     42  C   UNL A   1      37.059  30.003  32.283  1.00  0.00     0.041 A 
ATOM     43  F   UNL A   1      39.174  29.038  32.581  1.00  0.00    -0.206 F 
ATOM     44  C   UNL A   1      36.142  30.679  31.485  1.00  0.00     0.022 A 
BRANCH  41  45
ATOM     45  S   UNL A   1      35.367  31.984  29.145  1.00  0.00     0.124 S 
ATOM     46  O   UNL A   1      34.762  30.978  28.275  1.00  0.00    -0.237 OA
ATOM     47  O   UNL A   1      34.484  32.580  30.142  1.00  0.00    -0.237 OA
ATOM     48  O   UNL A   1      36.270  32.918  28.474  1.00  0.00    -0.744 OA
ENDBRANCH  41  45
ENDBRANCH  24  38
BRANCH  25  49
ATOM     49  C   UNL A   1      47.181  26.919  26.161  1.00  0.00     0.023 A 
ATOM     50  C   UNL A   1      48.242  26.284  26.825  1.00  0.00     0.031 A 
ATOM     51  C   UNL A   1      47.334  27.203  24.791  1.00  0.00     0.131 A 
ATOM     52  C   UNL A   1      49.423  25.986  26.127  1.00  0.00     0.055 A 
ATOM     53  C   UNL A   1      48.489  26.859  24.090  1.00  0.00     0.041 A 
ATOM     54  F   UNL A   1      46.349  27.810  24.110  1.00  0.00    -0.206 F 
ATOM     55  C   UNL A   1      49.548  26.257  24.762  1.00  0.00     0.022 A 
BRANCH  52  56
ATOM     56  S   UNL A   1      50.834  25.317  27.050  1.00  0.00     0.124 S 
ATOM     57  O   UNL A   1      50.191  24.322  27.899  1.00  0.00    -0.237 OA
ATOM     58  O   UNL A   1      51.676  24.795  25.976  1.00  0.00    -0.237 OA
ATOM     59  O   UNL A   1      51.368  26.482  27.747  1.00  0.00    -0.744 OA
ENDBRANCH  52  56
ENDBRANCH  25  49
BRANCH  37  60
ATOM     60  C   UNL A   1      45.104  32.876  29.105  1.00  0.00     0.023 A 
ATOM     61  C   UNL A   1      45.004  33.882  28.129  1.00  0.00     0.031 A 
ATOM     62  C   UNL A   1      45.883  33.130  30.247  1.00  0.00     0.131 A 
ATOM     63  C   UNL A   1      45.709  35.084  28.292  1.00  0.00     0.055 A 
ATOM     64  C   UNL A   1      46.542  34.347  30.426  1.00  0.00     0.041 A 
ATOM     65  F   UNL A   1      46.014  32.200  31.205  1.00  0.00    -0.206 F 
ATOM     66  C   UNL A   1      46.465  35.328  29.441  1.00  0.00     0.022 A 
BRANCH  63  67
ATOM     67  S   UNL A   1      45.676  36.304  26.950  1.00  0.00     0.124 S 
ATOM     68  O   UNL A   1      46.090  35.502  25.803  1.00  0.00    -0.237 OA
ATOM     69  O   UNL A   1      44.283  36.740  26.955  1.00  0.00    -0.237 OA
ATOM     70  O   UNL A   1      46.641  37.314  27.381  1.00  0.00    -0.744 OA
ENDBRANCH  63  67
ENDBRANCH  37  60
ENDBRANCH  11  12
ENDBRANCH   4   6
ENDBRANCH   1   2
BRANCH   1  71
ATOM     71  C   UNL A   1      36.152  20.021  24.964  1.00  0.00     0.042 C 
BRANCH  71  72
ATOM     72  C   UNL A   1      34.965  20.979  25.027  1.00  0.00     0.117 C 
BRANCH  72  73
ATOM     73  N   UNL A   1      34.674  21.339  26.405  1.00  0.00    -0.356 N 
ATOM     74  C   UNL A   1      34.100  22.428  26.966  1.00  0.00     0.223 C 
ATOM     75  H   UNL A   1      34.950  20.657  27.059  1.00  0.00     0.163 HD
ATOM     76  O   UNL A   1      34.136  22.502  28.198  1.00  0.00    -0.275 OA
BRANCH  74  77
ATOM     77  C   UNL A   1      33.391  23.522  26.174  1.00  0.00     0.092 C 
BRANCH  77  78
ATOM     78  C   UNL A   1      34.321  24.417  25.323  1.00  0.00     0.050 C 
BRANCH  78  79
ATOM     79  C   UNL A   1      33.893  25.806  24.904  1.00  0.00    -0.033 A 
ATOM     80  C   UNL A   1      33.915  26.821  25.882  1.00  0.00     0.005 A 
ATOM     81  C   UNL A   1      33.404  26.146  23.630  1.00  0.00     0.021 A 
ATOM     82  C   UNL A   1      33.525  28.132  25.585  1.00  0.00     0.000 A 
ATOM     83  C   UNL A   1      33.046  27.468  23.327  1.00  0.00     0.016 A 
ATOM     84  Br  UNL A   1      33.098  24.868  22.259  1.00  0.00    -0.051 Br
ATOM     85  C   UNL A   1      33.113  28.460  24.300  1.00  0.00     0.001 A 
ENDBRANCH  78  79
ENDBRANCH  77  78
BRANCH  77  86
ATOM     86  C   UNL A   1      32.064  23.110  25.532  1.00  0.00     0.129 C 
BRANCH  86  87
ATOM     87  C   UNL A   1      30.903  24.011  25.905  1.00  0.00     0.389 C 
ATOM     88  F   UNL A   1      29.898  23.313  26.471  1.00  0.00    -0.171 F 
ATOM     89  F   UNL A   1      31.311  24.933  26.807  1.00  0.00    -0.171 F 
ATOM     90  F   UNL A   1      30.412  24.682  24.846  1.00  0.00    -0.171 F 
ENDBRANCH  86  87
ENDBRANCH  77  86
ENDBRANCH  74  77
ENDBRANCH  72  73
ENDBRANCH  71  72
ENDBRANCH   1  71
TORSDOF 17
ENDMDL
