MODEL 1
REMARK VINA RESULT:     -11.7      0.000      0.000
REMARK SMILES O=C(CSCc1ccc(C(=O)NCCCNC(=O)c2ccc(-c3c4nc(c(-c5cc(S(=O)(=O)[O-])ccc5F)c5ccc([nH]5)c(-c5cc(S(=O)(=O)[O-])ccc5F)c5nc(c(-c6cc(S(=O)(=O)[O-])ccc6F)c6ccc3[nH]6)C=C5)C=C4)cc2)cc1)Nc1ccc(Cl)cc1
REMARK SMILES IDX 13 1 12 2 10 3 11 4 9 6 6 7 7 8 83 9 8 10 82 11 5 12 4 13
REMARK SMILES IDX 3 14 2 15 1 16 84 17 85 19 86 20 91 21 87 22 90 23 88 24
REMARK SMILES IDX 89 25 14 26 15 27 16 28 17 29 18 31 19 32 20 33 81 34 21 35
REMARK SMILES IDX 80 36 22 37 23 38 24 39 74 40 25 41 79 42 73 43 75 44 26 45
REMARK SMILES IDX 78 46 72 47 71 48 27 50 59 51 39 52 58 53 40 54 43 55 57 56
REMARK SMILES IDX 76 57 41 58 42 59 56 61 77 62 44 63 28 64 29 65 37 66 30 67
REMARK SMILES IDX 36 68 38 69 35 70 31 71 32 72 33 73 34 74 60 75 61 76 69 77
REMARK SMILES IDX 62 78 68 79 70 80 67 81 63 82 64 83 65 84 66 85 45 86 46 87
REMARK SMILES IDX 54 88 47 89 53 90 55 91 52 92 48 93 49 94 50 95 51 96
REMARK H PARENT 12 5 84 18 16 30 75 49 43 60
REMARK Flexibility Score: inf
ROOT
ATOM      1  C   UNL A   1      31.567  30.974  26.463  1.00  0.00     0.118 C 
ENDROOT
BRANCH   1   2
ATOM      2  N   UNL A   1      32.730  30.380  27.099  1.00  0.00    -0.352 N 
ATOM      3  C   UNL A   1      33.303  29.138  27.008  1.00  0.00     0.251 C 
ATOM      4  O   UNL A   1      34.358  28.952  27.616  1.00  0.00    -0.269 OA
ATOM      5  H   UNL A   1      33.198  30.988  27.715  1.00  0.00     0.163 HD
BRANCH   3   6
ATOM      6  C   UNL A   1      32.748  28.034  26.175  1.00  0.00     0.039 A 
ATOM      7  C   UNL A   1      31.795  26.011  24.429  1.00  0.00    -0.038 A 
ATOM      8  C   UNL A   1      32.966  26.719  24.132  1.00  0.00     0.005 A 
ATOM      9  C   UNL A   1      31.167  26.270  25.657  1.00  0.00     0.005 A 
ATOM     10  C   UNL A   1      33.421  27.733  24.982  1.00  0.00     0.014 A 
ATOM     11  C   UNL A   1      31.652  27.250  26.531  1.00  0.00     0.014 A 
BRANCH   7  12
ATOM     12  C   UNL A   1      31.233  24.918  23.554  1.00  0.00     0.105 C 
BRANCH  12  13
ATOM     13  S   UNL A   1      31.463  23.193  24.095  1.00  0.00    -0.147 SA
BRANCH  13  14
ATOM     14  C   UNL A   1      32.678  22.592  22.874  1.00  0.00     0.170 C 
BRANCH  14  15
ATOM     15  C   UNL A   1      34.124  22.935  23.194  1.00  0.00     0.234 C 
ATOM     16  O   UNL A   1      34.635  23.946  22.718  1.00  0.00    -0.274 OA
ATOM     17  N   UNL A   1      34.725  22.079  24.101  1.00  0.00    -0.325 N 
ATOM     18  H   UNL A   1      34.226  21.263  24.333  1.00  0.00     0.169 HD
BRANCH  17  19
ATOM     19  C   UNL A   1      35.975  22.249  24.725  1.00  0.00     0.041 A 
ATOM     20  C   UNL A   1      36.835  21.144  24.769  1.00  0.00     0.027 A 
ATOM     21  C   UNL A   1      36.383  23.447  25.321  1.00  0.00     0.027 A 
ATOM     22  C   UNL A   1      38.093  21.245  25.371  1.00  0.00     0.022 A 
ATOM     23  C   UNL A   1      37.634  23.546  25.938  1.00  0.00     0.022 A 
ATOM     24  C   UNL A   1      38.487  22.447  25.955  1.00  0.00     0.041 A 
ATOM     25  Cl  UNL A   1      40.029  22.571  26.705  1.00  0.00    -0.084 Cl
ENDBRANCH  17  19
ENDBRANCH  14  15
ENDBRANCH  13  14
ENDBRANCH  12  13
ENDBRANCH   7  12
ENDBRANCH   3   6
ENDBRANCH   1   2
BRANCH   1  26
ATOM     26  C   UNL A   1      31.473  32.471  26.764  1.00  0.00     0.042 C 
BRANCH  26  27
ATOM     27  C   UNL A   1      32.804  33.094  27.186  1.00  0.00     0.118 C 
BRANCH  27  28
ATOM     28  N   UNL A   1      32.621  34.407  27.787  1.00  0.00    -0.352 N 
ATOM     29  C   UNL A   1      33.181  34.948  28.917  1.00  0.00     0.251 C 
ATOM     30  H   UNL A   1      31.998  35.000  27.307  1.00  0.00     0.163 HD
ATOM     31  O   UNL A   1      32.710  35.987  29.372  1.00  0.00    -0.269 OA
BRANCH  29  32
ATOM     32  C   UNL A   1      34.325  34.294  29.593  1.00  0.00     0.039 A 
ATOM     33  C   UNL A   1      35.620  34.582  29.150  1.00  0.00     0.014 A 
ATOM     34  C   UNL A   1      34.133  33.358  30.615  1.00  0.00     0.014 A 
ATOM     35  C   UNL A   1      36.720  33.972  29.760  1.00  0.00     0.010 A 
ATOM     36  C   UNL A   1      35.234  32.797  31.263  1.00  0.00     0.010 A 
ATOM     37  C   UNL A   1      36.538  33.093  30.839  1.00  0.00    -0.014 A 
BRANCH  37  38
ATOM     38  C   UNL A   1      37.700  32.469  31.527  1.00  0.00     0.031 A 
ATOM     39  C   UNL A   1      38.443  31.332  30.879  1.00  0.00     0.074 A 
ATOM     40  C   UNL A   1      38.046  32.888  32.760  1.00  0.00     0.049 A 
ATOM     41  N   UNL A   1      39.424  30.607  31.353  1.00  0.00    -0.248 NA
ATOM     42  C   UNL A   1      38.003  30.943  29.532  1.00  0.00     0.031 C 
ATOM     43  C   UNL A   1      37.378  33.958  33.506  1.00  0.00     0.029 A 
ATOM     44  N   UNL A   1      39.035  32.460  33.611  1.00  0.00    -0.354 N 
ATOM     45  C   UNL A   1      39.711  29.666  30.368  1.00  0.00     0.074 A 
ATOM     46  C   UNL A   1      38.760  29.882  29.297  1.00  0.00     0.031 C 
ATOM     47  C   UNL A   1      37.985  34.111  34.694  1.00  0.00     0.029 A 
ATOM     48  C   UNL A   1      39.054  33.125  34.815  1.00  0.00     0.049 A 
ATOM     49  H   UNL A   1      39.668  31.744  33.381  1.00  0.00     0.167 HD
ATOM     50  C   UNL A   1      40.684  28.721  30.353  1.00  0.00     0.034 A 
ATOM     51  C   UNL A   1      39.836  32.952  35.899  1.00  0.00     0.034 A 
ATOM     52  C   UNL A   1      41.633  28.529  31.425  1.00  0.00     0.049 A 
ATOM     53  C   UNL A   1      40.904  31.889  35.865  1.00  0.00     0.074 A 
ATOM     54  C   UNL A   1      42.693  27.642  31.491  1.00  0.00     0.029 A 
ATOM     55  N   UNL A   1      41.629  29.230  32.626  1.00  0.00    -0.354 N 
ATOM     56  N   UNL A   1      41.191  31.038  34.908  1.00  0.00    -0.248 NA
ATOM     57  C   UNL A   1      41.762  31.775  37.051  1.00  0.00     0.031 C 
ATOM     58  C   UNL A   1      43.291  27.762  32.751  1.00  0.00     0.029 A 
ATOM     59  C   UNL A   1      42.651  28.775  33.447  1.00  0.00     0.049 A 
ATOM     60  H   UNL A   1      40.995  29.945  32.859  1.00  0.00     0.167 HD
ATOM     61  C   UNL A   1      42.282  30.305  35.367  1.00  0.00     0.074 A 
ATOM     62  C   UNL A   1      42.609  30.827  36.679  1.00  0.00     0.031 C 
ATOM     63  C   UNL A   1      42.956  29.296  34.759  1.00  0.00     0.034 A 
BRANCH  50  64
ATOM     64  C   UNL A   1      40.751  27.809  29.150  1.00  0.00     0.023 A 
ATOM     65  C   UNL A   1      41.692  28.005  28.124  1.00  0.00     0.031 A 
ATOM     66  C   UNL A   1      39.842  26.744  29.013  1.00  0.00     0.131 A 
ATOM     67  C   UNL A   1      41.654  27.201  26.973  1.00  0.00     0.055 A 
ATOM     68  C   UNL A   1      39.863  25.897  27.903  1.00  0.00     0.041 A 
ATOM     69  F   UNL A   1      38.908  26.517  29.949  1.00  0.00    -0.206 F 
ATOM     70  C   UNL A   1      40.762  26.133  26.866  1.00  0.00     0.022 A 
BRANCH  67  71
ATOM     71  S   UNL A   1      42.688  27.665  25.559  1.00  0.00     0.124 S 
ATOM     72  O   UNL A   1      42.610  26.464  24.729  1.00  0.00    -0.237 OA
ATOM     73  O   UNL A   1      42.005  28.845  25.040  1.00  0.00    -0.237 OA
ATOM     74  O   UNL A   1      43.998  27.915  26.158  1.00  0.00    -0.744 OA
ENDBRANCH  67  71
ENDBRANCH  50  64
BRANCH  51  75
ATOM     75  C   UNL A   1      39.634  33.791  37.114  1.00  0.00     0.023 A 
ATOM     76  C   UNL A   1      38.966  33.286  38.240  1.00  0.00     0.031 A 
ATOM     77  C   UNL A   1      40.078  35.125  37.154  1.00  0.00     0.131 A 
ATOM     78  C   UNL A   1      38.722  34.121  39.342  1.00  0.00     0.055 A 
ATOM     79  C   UNL A   1      39.878  35.937  38.271  1.00  0.00     0.041 A 
ATOM     80  F   UNL A   1      40.730  35.656  36.106  1.00  0.00    -0.206 F 
ATOM     81  C   UNL A   1      39.184  35.439  39.369  1.00  0.00     0.022 A 
BRANCH  78  82
ATOM     82  S   UNL A   1      37.721  33.480  40.712  1.00  0.00     0.124 S 
ATOM     83  O   UNL A   1      36.471  33.151  40.038  1.00  0.00    -0.237 OA
ATOM     84  O   UNL A   1      38.523  32.350  41.169  1.00  0.00    -0.237 OA
ATOM     85  O   UNL A   1      37.654  34.608  41.640  1.00  0.00    -0.744 OA
ENDBRANCH  78  82
ENDBRANCH  51  75
BRANCH  63  86
ATOM     86  C   UNL A   1      44.141  28.724  35.497  1.00  0.00     0.023 A 
ATOM     87  C   UNL A   1      44.004  27.666  36.413  1.00  0.00     0.031 A 
ATOM     88  C   UNL A   1      45.425  29.261  35.293  1.00  0.00     0.131 A 
ATOM     89  C   UNL A   1      45.122  27.215  37.131  1.00  0.00     0.055 A 
ATOM     90  C   UNL A   1      46.544  28.768  35.968  1.00  0.00     0.041 A 
ATOM     91  F   UNL A   1      45.613  30.274  34.433  1.00  0.00    -0.206 F 
ATOM     92  C   UNL A   1      46.393  27.749  36.904  1.00  0.00     0.022 A 
BRANCH  89  93
ATOM     93  S   UNL A   1      44.877  25.982  38.440  1.00  0.00     0.124 S 
ATOM     94  O   UNL A   1      44.366  26.799  39.535  1.00  0.00    -0.237 OA
ATOM     95  O   UNL A   1      43.920  25.065  37.829  1.00  0.00    -0.237 OA
ATOM     96  O   UNL A   1      46.214  25.432  38.648  1.00  0.00    -0.744 OA
ENDBRANCH  89  93
ENDBRANCH  63  86
ENDBRANCH  37  38
ENDBRANCH  29  32
ENDBRANCH  27  28
ENDBRANCH  26  27
ENDBRANCH   1  26
TORSDOF 18
ENDMDL
MODEL 2
REMARK VINA RESULT:     -11.4      2.098      2.533
REMARK SMILES O=C(CSCc1ccc(C(=O)NCCCNC(=O)c2ccc(-c3c4nc(c(-c5cc(S(=O)(=O)[O-])ccc5F)c5ccc([nH]5)c(-c5cc(S(=O)(=O)[O-])ccc5F)c5nc(c(-c6cc(S(=O)(=O)[O-])ccc6F)c6ccc3[nH]6)C=C5)C=C4)cc2)cc1)Nc1ccc(Cl)cc1
REMARK SMILES IDX 13 1 12 2 10 3 11 4 9 6 6 7 7 8 83 9 8 10 82 11 5 12 4 13
REMARK SMILES IDX 3 14 2 15 1 16 84 17 85 19 86 20 91 21 87 22 90 23 88 24
REMARK SMILES IDX 89 25 14 26 15 27 16 28 17 29 18 31 19 32 20 33 81 34 21 35
REMARK SMILES IDX 80 36 22 37 23 38 24 39 74 40 25 41 79 42 73 43 75 44 26 45
REMARK SMILES IDX 78 46 72 47 71 48 27 50 59 51 39 52 58 53 40 54 43 55 57 56
REMARK SMILES IDX 76 57 41 58 42 59 56 61 77 62 44 63 28 64 29 65 37 66 30 67
REMARK SMILES IDX 36 68 38 69 35 70 31 71 32 72 33 73 34 74 60 75 61 76 69 77
REMARK SMILES IDX 62 78 68 79 70 80 67 81 63 82 64 83 65 84 66 85 45 86 46 87
REMARK SMILES IDX 54 88 47 89 53 90 55 91 52 92 48 93 49 94 50 95 51 96
REMARK H PARENT 12 5 84 18 16 30 75 49 43 60
REMARK Flexibility Score: inf
ROOT
ATOM      1  C   UNL A   1      31.537  30.933  26.104  1.00  0.00     0.118 C 
ENDROOT
BRANCH   1   2
ATOM      2  N   UNL A   1      30.664  30.833  24.947  1.00  0.00    -0.352 N 
ATOM      3  C   UNL A   1      30.524  29.880  23.972  1.00  0.00     0.251 C 
ATOM      4  O   UNL A   1      29.619  30.035  23.150  1.00  0.00    -0.269 OA
ATOM      5  H   UNL A   1      30.054  31.598  24.844  1.00  0.00     0.163 HD
BRANCH   3   6
ATOM      6  C   UNL A   1      31.366  28.654  23.890  1.00  0.00     0.039 A 
ATOM      7  C   UNL A   1      33.103  26.427  23.615  1.00  0.00    -0.038 A 
ATOM      8  C   UNL A   1      33.579  27.732  23.434  1.00  0.00     0.005 A 
ATOM      9  C   UNL A   1      31.771  26.266  24.027  1.00  0.00     0.005 A 
ATOM     10  C   UNL A   1      32.715  28.827  23.546  1.00  0.00     0.014 A 
ATOM     11  C   UNL A   1      30.921  27.367  24.186  1.00  0.00     0.014 A 
BRANCH   7  12
ATOM     12  C   UNL A   1      33.969  25.197  23.494  1.00  0.00     0.105 C 
BRANCH  12  13
ATOM     13  S   UNL A   1      33.180  23.655  22.927  1.00  0.00    -0.147 SA
BRANCH  13  14
ATOM     14  C   UNL A   1      34.156  22.401  23.823  1.00  0.00     0.170 C 
BRANCH  14  15
ATOM     15  C   UNL A   1      33.455  21.066  24.011  1.00  0.00     0.234 C 
ATOM     16  O   UNL A   1      32.336  20.887  23.537  1.00  0.00    -0.274 OA
ATOM     17  N   UNL A   1      34.218  20.109  24.658  1.00  0.00    -0.325 N 
ATOM     18  H   UNL A   1      35.062  20.417  25.059  1.00  0.00     0.169 HD
BRANCH  17  19
ATOM     19  C   UNL A   1      33.915  18.742  24.805  1.00  0.00     0.041 A 
ATOM     20  C   UNL A   1      32.793  18.405  25.572  1.00  0.00     0.027 A 
ATOM     21  C   UNL A   1      34.688  17.717  24.251  1.00  0.00     0.027 A 
ATOM     22  C   UNL A   1      32.434  17.066  25.756  1.00  0.00     0.022 A 
ATOM     23  C   UNL A   1      34.340  16.377  24.446  1.00  0.00     0.022 A 
ATOM     24  C   UNL A   1      33.211  16.057  25.192  1.00  0.00     0.041 A 
ATOM     25  Cl  UNL A   1      32.777  14.409  25.425  1.00  0.00    -0.084 Cl
ENDBRANCH  17  19
ENDBRANCH  14  15
ENDBRANCH  13  14
ENDBRANCH  12  13
ENDBRANCH   7  12
ENDBRANCH   3   6
ENDBRANCH   1   2
BRANCH   1  26
ATOM     26  C   UNL A   1      31.472  32.326  26.730  1.00  0.00     0.042 C 
BRANCH  26  27
ATOM     27  C   UNL A   1      32.818  32.822  27.258  1.00  0.00     0.118 C 
BRANCH  27  28
ATOM     28  N   UNL A   1      32.737  34.190  27.749  1.00  0.00    -0.352 N 
ATOM     29  C   UNL A   1      33.383  34.792  28.800  1.00  0.00     0.251 C 
ATOM     30  H   UNL A   1      32.123  34.775  27.248  1.00  0.00     0.163 HD
ATOM     31  O   UNL A   1      32.992  35.891  29.183  1.00  0.00    -0.269 OA
BRANCH  29  32
ATOM     32  C   UNL A   1      34.523  34.133  29.477  1.00  0.00     0.039 A 
ATOM     33  C   UNL A   1      35.819  34.418  29.038  1.00  0.00     0.014 A 
ATOM     34  C   UNL A   1      34.325  33.196  30.496  1.00  0.00     0.014 A 
ATOM     35  C   UNL A   1      36.916  33.802  29.649  1.00  0.00     0.010 A 
ATOM     36  C   UNL A   1      35.422  32.629  31.146  1.00  0.00     0.010 A 
ATOM     37  C   UNL A   1      36.729  32.921  30.726  1.00  0.00    -0.014 A 
BRANCH  37  38
ATOM     38  C   UNL A   1      37.886  32.292  31.416  1.00  0.00     0.031 A 
ATOM     39  C   UNL A   1      38.636  31.163  30.761  1.00  0.00     0.074 A 
ATOM     40  C   UNL A   1      38.224  32.700  32.655  1.00  0.00     0.049 A 
ATOM     41  N   UNL A   1      39.615  30.434  31.234  1.00  0.00    -0.248 NA
ATOM     42  C   UNL A   1      38.205  30.787  29.407  1.00  0.00     0.031 C 
ATOM     43  C   UNL A   1      37.550  33.762  33.407  1.00  0.00     0.029 A 
ATOM     44  N   UNL A   1      39.208  32.264  33.508  1.00  0.00    -0.354 N 
ATOM     45  C   UNL A   1      39.908  29.503  30.242  1.00  0.00     0.074 A 
ATOM     46  C   UNL A   1      38.964  29.729  29.167  1.00  0.00     0.031 C 
ATOM     47  C   UNL A   1      38.149  33.904  34.600  1.00  0.00     0.029 A 
ATOM     48  C   UNL A   1      39.219  32.918  34.718  1.00  0.00     0.049 A 
ATOM     49  H   UNL A   1      39.844  31.551  33.275  1.00  0.00     0.167 HD
ATOM     50  C   UNL A   1      40.883  28.560  30.224  1.00  0.00     0.034 A 
ATOM     51  C   UNL A   1      39.993  32.735  35.806  1.00  0.00     0.034 A 
ATOM     52  C   UNL A   1      41.825  28.358  31.300  1.00  0.00     0.049 A 
ATOM     53  C   UNL A   1      41.063  31.674  35.768  1.00  0.00     0.074 A 
ATOM     54  C   UNL A   1      42.886  27.472  31.364  1.00  0.00     0.029 A 
ATOM     55  N   UNL A   1      41.813  29.047  32.508  1.00  0.00    -0.354 N 
ATOM     56  N   UNL A   1      41.358  30.832  34.805  1.00  0.00    -0.248 NA
ATOM     57  C   UNL A   1      41.914  31.549  36.959  1.00  0.00     0.031 C 
ATOM     58  C   UNL A   1      43.475  27.580  32.630  1.00  0.00     0.029 A 
ATOM     59  C   UNL A   1      42.829  28.585  33.331  1.00  0.00     0.049 A 
ATOM     60  H   UNL A   1      41.176  29.759  32.744  1.00  0.00     0.167 HD
ATOM     61  C   UNL A   1      42.446  30.096  35.264  1.00  0.00     0.074 A 
ATOM     62  C   UNL A   1      42.764  30.605  36.583  1.00  0.00     0.031 C 
ATOM     63  C   UNL A   1      43.125  29.094  34.650  1.00  0.00     0.034 A 
BRANCH  50  64
ATOM     64  C   UNL A   1      40.959  27.660  29.013  1.00  0.00     0.023 A 
ATOM     65  C   UNL A   1      41.971  27.802  28.047  1.00  0.00     0.031 A 
ATOM     66  C   UNL A   1      39.989  26.661  28.806  1.00  0.00     0.131 A 
ATOM     67  C   UNL A   1      41.946  27.017  26.883  1.00  0.00     0.055 A 
ATOM     68  C   UNL A   1      40.018  25.828  27.685  1.00  0.00     0.041 A 
ATOM     69  F   UNL A   1      38.989  26.488  29.682  1.00  0.00    -0.206 F 
ATOM     70  C   UNL A   1      40.991  26.014  26.707  1.00  0.00     0.022 A 
BRANCH  67  71
ATOM     71  S   UNL A   1      43.092  27.426  25.539  1.00  0.00     0.124 S 
ATOM     72  O   UNL A   1      44.141  28.148  26.255  1.00  0.00    -0.237 OA
ATOM     73  O   UNL A   1      43.458  26.111  25.025  1.00  0.00    -0.237 OA
ATOM     74  O   UNL A   1      42.285  28.246  24.637  1.00  0.00    -0.744 OA
ENDBRANCH  67  71
ENDBRANCH  50  64
BRANCH  51  75
ATOM     75  C   UNL A   1      39.783  33.562  37.028  1.00  0.00     0.023 A 
ATOM     76  C   UNL A   1      39.124  33.039  38.151  1.00  0.00     0.031 A 
ATOM     77  C   UNL A   1      40.209  34.902  37.076  1.00  0.00     0.131 A 
ATOM     78  C   UNL A   1      38.871  33.862  39.259  1.00  0.00     0.055 A 
ATOM     79  C   UNL A   1      39.999  35.702  38.201  1.00  0.00     0.041 A 
ATOM     80  F   UNL A   1      40.851  35.449  36.032  1.00  0.00    -0.206 F 
ATOM     81  C   UNL A   1      39.315  35.186  39.296  1.00  0.00     0.022 A 
BRANCH  78  82
ATOM     82  S   UNL A   1      37.882  33.197  40.626  1.00  0.00     0.124 S 
ATOM     83  O   UNL A   1      38.507  31.898  40.841  1.00  0.00    -0.237 OA
ATOM     84  O   UNL A   1      38.097  34.195  41.668  1.00  0.00    -0.237 OA
ATOM     85  O   UNL A   1      36.527  33.157  40.078  1.00  0.00    -0.744 OA
ENDBRANCH  78  82
ENDBRANCH  51  75
BRANCH  63  86
ATOM     86  C   UNL A   1      44.307  28.517  35.390  1.00  0.00     0.023 A 
ATOM     87  C   UNL A   1      44.151  27.530  36.380  1.00  0.00     0.031 A 
ATOM     88  C   UNL A   1      45.607  28.976  35.112  1.00  0.00     0.131 A 
ATOM     89  C   UNL A   1      45.269  27.075  37.094  1.00  0.00     0.055 A 
ATOM     90  C   UNL A   1      46.723  28.476  35.786  1.00  0.00     0.041 A 
ATOM     91  F   UNL A   1      45.813  29.919  34.180  1.00  0.00    -0.206 F 
ATOM     92  C   UNL A   1      46.556  27.530  36.793  1.00  0.00     0.022 A 
BRANCH  89  93
ATOM     93  S   UNL A   1      45.011  25.945  38.491  1.00  0.00     0.124 S 
ATOM     94  O   UNL A   1      44.831  24.664  37.815  1.00  0.00    -0.237 OA
ATOM     95  O   UNL A   1      46.250  26.097  39.248  1.00  0.00    -0.237 OA
ATOM     96  O   UNL A   1      43.817  26.474  39.145  1.00  0.00    -0.744 OA
ENDBRANCH  89  93
ENDBRANCH  63  86
ENDBRANCH  37  38
ENDBRANCH  29  32
ENDBRANCH  27  28
ENDBRANCH  26  27
ENDBRANCH   1  26
TORSDOF 18
ENDMDL
MODEL 3
REMARK VINA RESULT:     -11.3      2.190      8.053
REMARK SMILES O=C(CSCc1ccc(C(=O)NCCCNC(=O)c2ccc(-c3c4nc(c(-c5cc(S(=O)(=O)[O-])ccc5F)c5ccc([nH]5)c(-c5cc(S(=O)(=O)[O-])ccc5F)c5nc(c(-c6cc(S(=O)(=O)[O-])ccc6F)c6ccc3[nH]6)C=C5)C=C4)cc2)cc1)Nc1ccc(Cl)cc1
REMARK SMILES IDX 13 1 12 2 10 3 11 4 9 6 6 7 7 8 83 9 8 10 82 11 5 12 4 13
REMARK SMILES IDX 3 14 2 15 1 16 84 17 85 19 86 20 91 21 87 22 90 23 88 24
REMARK SMILES IDX 89 25 14 26 15 27 16 28 17 29 18 31 19 32 20 33 81 34 21 35
REMARK SMILES IDX 80 36 22 37 23 38 24 39 74 40 25 41 79 42 73 43 75 44 26 45
REMARK SMILES IDX 78 46 72 47 71 48 27 50 59 51 39 52 58 53 40 54 43 55 57 56
REMARK SMILES IDX 76 57 41 58 42 59 56 61 77 62 44 63 28 64 29 65 37 66 30 67
REMARK SMILES IDX 36 68 38 69 35 70 31 71 32 72 33 73 34 74 60 75 61 76 69 77
REMARK SMILES IDX 62 78 68 79 70 80 67 81 63 82 64 83 65 84 66 85 45 86 46 87
REMARK SMILES IDX 54 88 47 89 53 90 55 91 52 92 48 93 49 94 50 95 51 96
REMARK H PARENT 12 5 84 18 16 30 75 49 43 60
REMARK Flexibility Score: inf
ROOT
ATOM      1  C   UNL A   1      31.555  31.030  26.515  1.00  0.00     0.118 C 
ENDROOT
BRANCH   1   2
ATOM      2  N   UNL A   1      30.998  30.723  25.209  1.00  0.00    -0.352 N 
ATOM      3  C   UNL A   1      31.061  29.608  24.413  1.00  0.00     0.251 C 
ATOM      4  O   UNL A   1      30.402  29.613  23.372  1.00  0.00    -0.269 OA
ATOM      5  H   UNL A   1      30.473  31.458  24.820  1.00  0.00     0.163 HD
BRANCH   3   6
ATOM      6  C   UNL A   1      31.836  28.385  24.767  1.00  0.00     0.039 A 
ATOM      7  C   UNL A   1      33.164  26.015  25.583  1.00  0.00    -0.038 A 
ATOM      8  C   UNL A   1      31.792  26.180  25.810  1.00  0.00     0.005 A 
ATOM      9  C   UNL A   1      33.833  27.014  24.860  1.00  0.00     0.005 A 
ATOM     10  C   UNL A   1      31.144  27.360  25.429  1.00  0.00     0.014 A 
ATOM     11  C   UNL A   1      33.172  28.172  24.435  1.00  0.00     0.014 A 
BRANCH   7  12
ATOM     12  C   UNL A   1      33.935  24.780  25.981  1.00  0.00     0.105 C 
BRANCH  12  13
ATOM     13  S   UNL A   1      33.118  23.164  25.772  1.00  0.00    -0.147 SA
BRANCH  13  14
ATOM     14  C   UNL A   1      34.151  22.404  24.475  1.00  0.00     0.170 C 
BRANCH  14  15
ATOM     15  C   UNL A   1      34.455  20.930  24.687  1.00  0.00     0.234 C 
ATOM     16  O   UNL A   1      35.490  20.592  25.257  1.00  0.00    -0.274 OA
ATOM     17  N   UNL A   1      33.449  20.076  24.271  1.00  0.00    -0.325 N 
ATOM     18  H   UNL A   1      32.716  20.479  23.753  1.00  0.00     0.169 HD
BRANCH  17  19
ATOM     19  C   UNL A   1      33.363  18.690  24.507  1.00  0.00     0.041 A 
ATOM     20  C   UNL A   1      32.592  18.264  25.595  1.00  0.00     0.027 A 
ATOM     21  C   UNL A   1      34.028  17.734  23.733  1.00  0.00     0.027 A 
ATOM     22  C   UNL A   1      32.462  16.902  25.884  1.00  0.00     0.022 A 
ATOM     23  C   UNL A   1      33.912  16.372  24.030  1.00  0.00     0.022 A 
ATOM     24  C   UNL A   1      33.125  15.961  25.100  1.00  0.00     0.041 A 
ATOM     25  Cl  UNL A   1      32.975  14.286  25.459  1.00  0.00    -0.084 Cl
ENDBRANCH  17  19
ENDBRANCH  14  15
ENDBRANCH  13  14
ENDBRANCH  12  13
ENDBRANCH   7  12
ENDBRANCH   3   6
ENDBRANCH   1   2
BRANCH   1  26
ATOM     26  C   UNL A   1      31.540  32.535  26.785  1.00  0.00     0.042 C 
BRANCH  26  27
ATOM     27  C   UNL A   1      32.895  33.090  27.223  1.00  0.00     0.118 C 
BRANCH  27  28
ATOM     28  N   UNL A   1      32.760  34.357  27.926  1.00  0.00    -0.352 N 
ATOM     29  C   UNL A   1      33.349  34.792  29.087  1.00  0.00     0.251 C 
ATOM     30  H   UNL A   1      32.151  35.005  27.502  1.00  0.00     0.163 HD
ATOM     31  O   UNL A   1      32.916  35.806  29.627  1.00  0.00    -0.269 OA
BRANCH  29  32
ATOM     32  C   UNL A   1      34.479  34.053  29.696  1.00  0.00     0.039 A 
ATOM     33  C   UNL A   1      35.773  34.303  29.228  1.00  0.00     0.014 A 
ATOM     34  C   UNL A   1      34.271  33.078  30.676  1.00  0.00     0.014 A 
ATOM     35  C   UNL A   1      36.859  33.612  29.774  1.00  0.00     0.010 A 
ATOM     36  C   UNL A   1      35.361  32.434  31.263  1.00  0.00     0.010 A 
ATOM     37  C   UNL A   1      36.666  32.690  30.814  1.00  0.00    -0.014 A 
BRANCH  37  38
ATOM     38  C   UNL A   1      37.816  31.980  31.436  1.00  0.00     0.031 A 
ATOM     39  C   UNL A   1      38.369  32.444  32.756  1.00  0.00     0.074 A 
ATOM     40  C   UNL A   1      38.396  30.954  30.782  1.00  0.00     0.049 A 
ATOM     41  N   UNL A   1      39.413  32.010  33.416  1.00  0.00    -0.248 NA
ATOM     42  C   UNL A   1      37.672  33.565  33.403  1.00  0.00     0.031 C 
ATOM     43  C   UNL A   1      37.970  30.435  29.479  1.00  0.00     0.029 A 
ATOM     44  N   UNL A   1      39.474  30.172  31.113  1.00  0.00    -0.354 N 
ATOM     45  C   UNL A   1      39.508  32.813  34.548  1.00  0.00     0.074 A 
ATOM     46  C   UNL A   1      38.446  33.794  34.452  1.00  0.00     0.031 C 
ATOM     47  C   UNL A   1      38.769  29.414  29.131  1.00  0.00     0.029 A 
ATOM     48  C   UNL A   1      39.788  29.231  30.160  1.00  0.00     0.049 A 
ATOM     49  H   UNL A   1      39.975  30.275  31.953  1.00  0.00     0.167 HD
ATOM     50  C   UNL A   1      40.387  32.730  35.578  1.00  0.00     0.034 A 
ATOM     51  C   UNL A   1      40.790  28.332  30.112  1.00  0.00     0.034 A 
ATOM     52  C   UNL A   1      41.431  31.736  35.663  1.00  0.00     0.049 A 
ATOM     53  C   UNL A   1      41.763  28.264  31.262  1.00  0.00     0.074 A 
ATOM     54  C   UNL A   1      42.340  31.524  36.685  1.00  0.00     0.029 A 
ATOM     55  N   UNL A   1      41.712  30.791  34.683  1.00  0.00    -0.354 N 
ATOM     56  N   UNL A   1      41.811  29.001  32.347  1.00  0.00    -0.248 NA
ATOM     57  C   UNL A   1      42.807  27.234  31.185  1.00  0.00     0.031 C 
ATOM     58  C   UNL A   1      43.209  30.496  36.297  1.00  0.00     0.029 A 
ATOM     59  C   UNL A   1      42.797  30.015  35.064  1.00  0.00     0.049 A 
ATOM     60  H   UNL A   1      41.214  30.687  33.840  1.00  0.00     0.167 HD
ATOM     61  C   UNL A   1      42.874  28.504  33.096  1.00  0.00     0.074 A 
ATOM     62  C   UNL A   1      43.428  27.396  32.345  1.00  0.00     0.031 C 
ATOM     63  C   UNL A   1      43.347  28.922  34.298  1.00  0.00     0.034 A 
BRANCH  50  64
ATOM     64  C   UNL A   1      40.271  33.759  36.678  1.00  0.00     0.023 A 
ATOM     65  C   UNL A   1      39.707  33.446  37.928  1.00  0.00     0.031 A 
ATOM     66  C   UNL A   1      40.704  35.081  36.466  1.00  0.00     0.131 A 
ATOM     67  C   UNL A   1      39.520  34.455  38.886  1.00  0.00     0.055 A 
ATOM     68  C   UNL A   1      40.590  36.061  37.454  1.00  0.00     0.041 A 
ATOM     69  F   UNL A   1      41.234  35.446  35.288  1.00  0.00    -0.206 F 
ATOM     70  C   UNL A   1      39.980  35.755  38.667  1.00  0.00     0.022 A 
BRANCH  67  71
ATOM     71  S   UNL A   1      38.536  34.076  40.361  1.00  0.00     0.124 S 
ATOM     72  O   UNL A   1      39.482  33.293  41.153  1.00  0.00    -0.237 OA
ATOM     73  O   UNL A   1      38.216  35.403  40.877  1.00  0.00    -0.237 OA
ATOM     74  O   UNL A   1      37.402  33.321  39.833  1.00  0.00    -0.744 OA
ENDBRANCH  67  71
ENDBRANCH  50  64
BRANCH  51  75
ATOM     75  C   UNL A   1      40.939  27.431  28.934  1.00  0.00     0.023 A 
ATOM     76  C   UNL A   1      41.919  27.672  27.958  1.00  0.00     0.031 A 
ATOM     77  C   UNL A   1      40.079  26.334  28.749  1.00  0.00     0.131 A 
ATOM     78  C   UNL A   1      41.987  26.853  26.820  1.00  0.00     0.055 A 
ATOM     79  C   UNL A   1      40.183  25.493  27.640  1.00  0.00     0.041 A 
ATOM     80  F   UNL A   1      39.129  26.055  29.657  1.00  0.00    -0.206 F 
ATOM     81  C   UNL A   1      41.134  25.758  26.660  1.00  0.00     0.022 A 
BRANCH  78  82
ATOM     82  S   UNL A   1      43.162  27.287  25.508  1.00  0.00     0.124 S 
ATOM     83  O   UNL A   1      42.330  28.086  24.616  1.00  0.00    -0.237 OA
ATOM     84  O   UNL A   1      44.189  28.011  26.250  1.00  0.00    -0.237 OA
ATOM     85  O   UNL A   1      43.578  25.989  24.980  1.00  0.00    -0.744 OA
ENDBRANCH  78  82
ENDBRANCH  51  75
BRANCH  63  86
ATOM     86  C   UNL A   1      44.496  28.142  34.887  1.00  0.00     0.023 A 
ATOM     87  C   UNL A   1      44.293  26.941  35.590  1.00  0.00     0.031 A 
ATOM     88  C   UNL A   1      45.813  28.619  34.759  1.00  0.00     0.131 A 
ATOM     89  C   UNL A   1      45.383  26.288  36.185  1.00  0.00     0.055 A 
ATOM     90  C   UNL A   1      46.901  27.933  35.303  1.00  0.00     0.041 A 
ATOM     91  F   UNL A   1      46.064  29.762  34.100  1.00  0.00    -0.206 F 
ATOM     92  C   UNL A   1      46.687  26.768  36.033  1.00  0.00     0.022 A 
BRANCH  89  93
ATOM     93  S   UNL A   1      45.065  24.848  37.243  1.00  0.00     0.124 S 
ATOM     94  O   UNL A   1      44.102  25.383  38.200  1.00  0.00    -0.237 OA
ATOM     95  O   UNL A   1      44.542  23.872  36.292  1.00  0.00    -0.237 OA
ATOM     96  O   UNL A   1      46.379  24.531  37.797  1.00  0.00    -0.744 OA
ENDBRANCH  89  93
ENDBRANCH  63  86
ENDBRANCH  37  38
ENDBRANCH  29  32
ENDBRANCH  27  28
ENDBRANCH  26  27
ENDBRANCH   1  26
TORSDOF 18
ENDMDL
