MODEL 1
REMARK VINA RESULT:      -8.6      0.000      0.000
REMARK SMILES CCOc1cc(OCC)cc(-c2ccc([C@@H](C)C(=O)NCCCNC(=O)c3ccc(-c4c5nc(c(-c6cc(S(=O)(=O)[O-])ccc6F)c6ccc([nH]6)c(-c6cc(S(=O)(=O)[O-])ccc6F)c6nc(c(-c7cc(S(=O)(=O)[O-])ccc7F)c7ccc4[nH]7)C=C6)C=C5)cc3)cc2)c1
REMARK SMILES IDX 21 1 20 2 18 3 19 4 16 6 17 7 15 8 12 9 13 10 91 11 14 12
REMARK SMILES IDX 90 13 11 14 4 15 5 16 92 17 6 18 10 19 3 20 2 21 1 22 7 23
REMARK SMILES IDX 8 24 9 25 22 26 23 27 24 28 25 29 26 31 27 32 28 33 89 34
REMARK SMILES IDX 29 35 88 36 30 37 31 38 32 39 82 40 33 41 87 42 81 43 83 44
REMARK SMILES IDX 34 45 86 46 80 47 79 48 35 50 67 51 47 52 66 53 48 54 51 55
REMARK SMILES IDX 65 56 84 57 49 58 50 59 64 61 85 62 52 63 36 64 37 65 45 66
REMARK SMILES IDX 38 67 44 68 46 69 43 70 39 71 40 72 41 73 42 74 68 75 69 76
REMARK SMILES IDX 77 77 70 78 76 79 78 80 75 81 71 82 72 83 73 84 74 85 53 86
REMARK SMILES IDX 54 87 62 88 55 89 61 90 63 91 60 92 56 93 57 94 58 95 59 96
REMARK H PARENT 20 5 24 30 83 49 51 60
REMARK Flexibility Score: inf
ROOT
ATOM      1  C   UNL A   1      43.942  23.332  24.445  1.00  0.00     0.117 C 
ENDROOT
BRANCH   1   2
ATOM      2  N   UNL A   1      42.669  22.982  25.049  1.00  0.00    -0.356 N 
ATOM      3  C   UNL A   1      42.063  23.366  26.206  1.00  0.00     0.227 C 
ATOM      4  O   UNL A   1      40.961  22.852  26.437  1.00  0.00    -0.274 OA
ATOM      5  H   UNL A   1      42.141  22.344  24.517  1.00  0.00     0.163 HD
BRANCH   3   6
ATOM      6  C   UNL A   1      42.649  24.379  27.201  1.00  0.00     0.105 C 
ATOM      7  C   UNL A   1      43.328  23.759  28.421  1.00  0.00     0.023 C 
BRANCH   6   8
ATOM      8  C   UNL A   1      41.715  25.537  27.505  1.00  0.00    -0.036 A 
ATOM      9  C   UNL A   1      40.081  27.787  28.132  1.00  0.00    -0.018 A 
ATOM     10  C   UNL A   1      40.438  27.476  26.811  1.00  0.00     0.009 A 
ATOM     11  C   UNL A   1      40.555  26.935  29.138  1.00  0.00     0.009 A 
ATOM     12  C   UNL A   1      41.196  26.349  26.500  1.00  0.00     0.005 A 
ATOM     13  C   UNL A   1      41.377  25.840  28.833  1.00  0.00     0.005 A 
BRANCH   9  14
ATOM     14  C   UNL A   1      39.242  28.972  28.407  1.00  0.00    -0.011 A 
ATOM     15  C   UNL A   1      37.131  30.175  28.330  1.00  0.00     0.123 A 
ATOM     16  C   UNL A   1      37.660  31.196  29.121  1.00  0.00     0.092 A 
ATOM     17  C   UNL A   1      37.917  29.079  27.968  1.00  0.00     0.055 A 
ATOM     18  C   UNL A   1      38.984  31.132  29.548  1.00  0.00     0.123 A 
ATOM     19  C   UNL A   1      39.760  30.038  29.166  1.00  0.00     0.055 A 
BRANCH  15  20
ATOM     20  O   UNL A   1      35.874  30.339  27.812  1.00  0.00    -0.494 OA
BRANCH  20  21
ATOM     21  C   UNL A   1      35.399  31.691  27.860  1.00  0.00     0.226 C 
ATOM     22  C   UNL A   1      33.884  31.750  28.001  1.00  0.00     0.049 C 
ENDBRANCH  20  21
ENDBRANCH  15  20
BRANCH  18  23
ATOM     23  O   UNL A   1      39.419  32.160  30.341  1.00  0.00    -0.494 OA
BRANCH  23  24
ATOM     24  C   UNL A   1      38.624  33.348  30.409  1.00  0.00     0.226 C 
ATOM     25  C   UNL A   1      37.969  33.532  31.772  1.00  0.00     0.049 C 
ENDBRANCH  23  24
ENDBRANCH  18  23
ENDBRANCH   9  14
ENDBRANCH   6   8
ENDBRANCH   3   6
ENDBRANCH   1   2
BRANCH   1  26
ATOM     26  C   UNL A   1      45.122  22.618  25.100  1.00  0.00     0.042 C 
BRANCH  26  27
ATOM     27  C   UNL A   1      46.061  23.540  25.871  1.00  0.00     0.118 C 
BRANCH  27  28
ATOM     28  N   UNL A   1      46.760  24.468  24.994  1.00  0.00    -0.352 N 
ATOM     29  C   UNL A   1      46.735  25.841  24.933  1.00  0.00     0.251 C 
ATOM     30  H   UNL A   1      47.352  24.041  24.333  1.00  0.00     0.163 HD
ATOM     31  O   UNL A   1      47.233  26.392  23.954  1.00  0.00    -0.269 OA
BRANCH  29  32
ATOM     32  C   UNL A   1      46.112  26.655  26.004  1.00  0.00     0.039 A 
ATOM     33  C   UNL A   1      44.780  27.054  25.854  1.00  0.00     0.014 A 
ATOM     34  C   UNL A   1      46.834  27.080  27.122  1.00  0.00     0.014 A 
ATOM     35  C   UNL A   1      44.160  27.820  26.844  1.00  0.00     0.010 A 
ATOM     36  C   UNL A   1      46.194  27.774  28.148  1.00  0.00     0.010 A 
ATOM     37  C   UNL A   1      44.851  28.157  28.019  1.00  0.00    -0.014 A 
BRANCH  37  38
ATOM     38  C   UNL A   1      44.188  28.913  29.116  1.00  0.00     0.031 A 
ATOM     39  C   UNL A   1      43.894  30.380  28.959  1.00  0.00     0.074 A 
ATOM     40  C   UNL A   1      43.911  28.290  30.278  1.00  0.00     0.049 A 
ATOM     41  N   UNL A   1      43.398  31.226  29.827  1.00  0.00    -0.248 NA
ATOM     42  C   UNL A   1      44.233  30.982  27.661  1.00  0.00     0.031 C 
ATOM     43  C   UNL A   1      44.192  26.883  30.568  1.00  0.00     0.029 A 
ATOM     44  N   UNL A   1      43.345  28.760  31.436  1.00  0.00    -0.354 N 
ATOM     45  C   UNL A   1      43.376  32.460  29.186  1.00  0.00     0.074 A 
ATOM     46  C   UNL A   1      43.975  32.261  27.882  1.00  0.00     0.031 C 
ATOM     47  C   UNL A   1      43.782  26.600  31.815  1.00  0.00     0.029 A 
ATOM     48  C   UNL A   1      43.254  27.812  32.430  1.00  0.00     0.049 A 
ATOM     49  H   UNL A   1      43.034  29.687  31.547  1.00  0.00     0.167 HD
ATOM     50  C   UNL A   1      42.878  33.642  29.632  1.00  0.00     0.034 A 
ATOM     51  C   UNL A   1      42.813  27.911  33.700  1.00  0.00     0.034 A 
ATOM     52  C   UNL A   1      42.284  33.819  30.936  1.00  0.00     0.049 A 
ATOM     53  C   UNL A   1      42.291  29.238  34.188  1.00  0.00     0.074 A 
ATOM     54  C   UNL A   1      41.704  34.955  31.475  1.00  0.00     0.029 A 
ATOM     55  N   UNL A   1      42.207  32.836  31.916  1.00  0.00    -0.354 N 
ATOM     56  N   UNL A   1      42.226  30.385  33.551  1.00  0.00    -0.248 NA
ATOM     57  C   UNL A   1      41.774  29.280  35.561  1.00  0.00     0.031 C 
ATOM     58  C   UNL A   1      41.342  34.679  32.798  1.00  0.00     0.029 A 
ATOM     59  C   UNL A   1      41.621  33.348  33.065  1.00  0.00     0.049 A 
ATOM     60  H   UNL A   1      42.522  31.909  31.810  1.00  0.00     0.167 HD
ATOM     61  C   UNL A   1      41.642  31.280  34.441  1.00  0.00     0.074 A 
ATOM     62  C   UNL A   1      41.355  30.534  35.650  1.00  0.00     0.031 C 
ATOM     63  C   UNL A   1      41.365  32.600  34.274  1.00  0.00     0.034 A 
BRANCH  50  64
ATOM     64  C   UNL A   1      42.986  34.831  28.703  1.00  0.00     0.023 A 
ATOM     65  C   UNL A   1      44.229  35.412  28.392  1.00  0.00     0.031 A 
ATOM     66  C   UNL A   1      41.833  35.427  28.161  1.00  0.00     0.131 A 
ATOM     67  C   UNL A   1      44.284  36.602  27.649  1.00  0.00     0.055 A 
ATOM     68  C   UNL A   1      41.902  36.558  27.344  1.00  0.00     0.041 A 
ATOM     69  F   UNL A   1      40.615  34.933  28.434  1.00  0.00    -0.206 F 
ATOM     70  C   UNL A   1      43.131  37.165  27.101  1.00  0.00     0.022 A 
BRANCH  67  71
ATOM     71  S   UNL A   1      45.862  37.493  27.563  1.00  0.00     0.124 S 
ATOM     72  O   UNL A   1      46.791  36.416  27.229  1.00  0.00    -0.237 OA
ATOM     73  O   UNL A   1      45.614  38.473  26.512  1.00  0.00    -0.237 OA
ATOM     74  O   UNL A   1      46.018  38.045  28.908  1.00  0.00    -0.744 OA
ENDBRANCH  67  71
ENDBRANCH  50  64
BRANCH  51  75
ATOM     75  C   UNL A   1      42.863  26.725  34.601  1.00  0.00     0.023 A 
ATOM     76  C   UNL A   1      44.071  26.297  35.173  1.00  0.00     0.031 A 
ATOM     77  C   UNL A   1      41.697  25.994  34.895  1.00  0.00     0.131 A 
ATOM     78  C   UNL A   1      44.093  25.152  35.984  1.00  0.00     0.055 A 
ATOM     79  C   UNL A   1      41.716  24.886  35.742  1.00  0.00     0.041 A 
ATOM     80  F   UNL A   1      40.515  26.366  34.378  1.00  0.00    -0.206 F 
ATOM     81  C   UNL A   1      42.921  24.452  36.284  1.00  0.00     0.022 A 
BRANCH  78  82
ATOM     82  S   UNL A   1      45.690  24.552  36.599  1.00  0.00     0.124 S 
ATOM     83  O   UNL A   1      45.491  23.107  36.588  1.00  0.00    -0.237 OA
ATOM     84  O   UNL A   1      46.616  25.079  35.600  1.00  0.00    -0.237 OA
ATOM     85  O   UNL A   1      45.796  25.159  37.924  1.00  0.00    -0.744 OA
ENDBRANCH  78  82
ENDBRANCH  51  75
BRANCH  63  86
ATOM     86  C   UNL A   1      40.694  33.308  35.427  1.00  0.00     0.023 A 
ATOM     87  C   UNL A   1      41.426  34.082  36.345  1.00  0.00     0.031 A 
ATOM     88  C   UNL A   1      39.306  33.193  35.616  1.00  0.00     0.131 A 
ATOM     89  C   UNL A   1      40.774  34.665  37.442  1.00  0.00     0.055 A 
ATOM     90  C   UNL A   1      38.654  33.827  36.676  1.00  0.00     0.041 A 
ATOM     91  F   UNL A   1      38.558  32.464  34.773  1.00  0.00    -0.206 F 
ATOM     92  C   UNL A   1      39.391  34.557  37.604  1.00  0.00     0.022 A 
BRANCH  89  93
ATOM     93  S   UNL A   1      41.773  35.491  38.711  1.00  0.00     0.124 S 
ATOM     94  O   UNL A   1      41.960  34.426  39.690  1.00  0.00    -0.237 OA
ATOM     95  O   UNL A   1      42.964  35.885  37.964  1.00  0.00    -0.237 OA
ATOM     96  O   UNL A   1      40.924  36.597  39.150  1.00  0.00    -0.744 OA
ENDBRANCH  89  93
ENDBRANCH  63  86
ENDBRANCH  37  38
ENDBRANCH  29  32
ENDBRANCH  27  28
ENDBRANCH  26  27
ENDBRANCH   1  26
TORSDOF 19
ENDMDL
MODEL 2
REMARK VINA RESULT:      -8.5      6.134     13.544
REMARK SMILES CCOc1cc(OCC)cc(-c2ccc([C@@H](C)C(=O)NCCCNC(=O)c3ccc(-c4c5nc(c(-c6cc(S(=O)(=O)[O-])ccc6F)c6ccc([nH]6)c(-c6cc(S(=O)(=O)[O-])ccc6F)c6nc(c(-c7cc(S(=O)(=O)[O-])ccc7F)c7ccc4[nH]7)C=C6)C=C5)cc3)cc2)c1
REMARK SMILES IDX 21 1 20 2 18 3 19 4 16 6 17 7 15 8 12 9 13 10 91 11 14 12
REMARK SMILES IDX 90 13 11 14 4 15 5 16 92 17 6 18 10 19 3 20 2 21 1 22 7 23
REMARK SMILES IDX 8 24 9 25 22 26 23 27 24 28 25 29 26 31 27 32 28 33 89 34
REMARK SMILES IDX 29 35 88 36 30 37 31 38 32 39 82 40 33 41 87 42 81 43 83 44
REMARK SMILES IDX 34 45 86 46 80 47 79 48 35 50 67 51 47 52 66 53 48 54 51 55
REMARK SMILES IDX 65 56 84 57 49 58 50 59 64 61 85 62 52 63 36 64 37 65 45 66
REMARK SMILES IDX 38 67 44 68 46 69 43 70 39 71 40 72 41 73 42 74 68 75 69 76
REMARK SMILES IDX 77 77 70 78 76 79 78 80 75 81 71 82 72 83 73 84 74 85 53 86
REMARK SMILES IDX 54 87 62 88 55 89 61 90 63 91 60 92 56 93 57 94 58 95 59 96
REMARK H PARENT 20 5 24 30 83 49 51 60
REMARK Flexibility Score: inf
ROOT
ATOM      1  C   UNL A   1      47.717  38.397  25.225  1.00  0.00     0.117 C 
ENDROOT
BRANCH   1   2
ATOM      2  N   UNL A   1      46.390  38.969  25.363  1.00  0.00    -0.356 N 
ATOM      3  C   UNL A   1      45.935  40.251  25.356  1.00  0.00     0.227 C 
ATOM      4  O   UNL A   1      44.717  40.396  25.522  1.00  0.00    -0.274 OA
ATOM      5  H   UNL A   1      45.681  38.297  25.486  1.00  0.00     0.163 HD
BRANCH   3   6
ATOM      6  C   UNL A   1      46.822  41.488  25.146  1.00  0.00     0.105 C 
ATOM      7  C   UNL A   1      47.150  42.264  26.421  1.00  0.00     0.023 C 
BRANCH   6   8
ATOM      8  C   UNL A   1      46.398  42.343  23.965  1.00  0.00    -0.036 A 
ATOM      9  C   UNL A   1      45.503  43.837  21.708  1.00  0.00    -0.018 A 
ATOM     10  C   UNL A   1      45.138  44.183  23.018  1.00  0.00     0.009 A 
ATOM     11  C   UNL A   1      46.340  42.724  21.553  1.00  0.00     0.009 A 
ATOM     12  C   UNL A   1      45.614  43.483  24.124  1.00  0.00     0.005 A 
ATOM     13  C   UNL A   1      46.762  41.975  22.661  1.00  0.00     0.005 A 
BRANCH   9  14
ATOM     14  C   UNL A   1      45.003  44.635  20.569  1.00  0.00    -0.011 A 
ATOM     15  C   UNL A   1      44.851  46.700  19.295  1.00  0.00     0.123 A 
ATOM     16  C   UNL A   1      44.152  46.046  18.280  1.00  0.00     0.092 A 
ATOM     17  C   UNL A   1      45.263  46.004  20.433  1.00  0.00     0.055 A 
ATOM     18  C   UNL A   1      43.851  44.691  18.401  1.00  0.00     0.123 A 
ATOM     19  C   UNL A   1      44.257  44.014  19.550  1.00  0.00     0.055 A 
BRANCH  15  20
ATOM     20  O   UNL A   1      45.004  48.057  19.208  1.00  0.00    -0.494 OA
BRANCH  20  21
ATOM     21  C   UNL A   1      44.874  48.572  17.877  1.00  0.00     0.226 C 
ATOM     22  C   UNL A   1      44.035  49.841  17.843  1.00  0.00     0.049 C 
ENDBRANCH  20  21
ENDBRANCH  15  20
BRANCH  18  23
ATOM     23  O   UNL A   1      43.185  44.118  17.350  1.00  0.00    -0.494 OA
BRANCH  23  24
ATOM     24  C   UNL A   1      42.013  44.771  16.852  1.00  0.00     0.226 C 
ATOM     25  C   UNL A   1      40.856  44.721  17.843  1.00  0.00     0.049 C 
ENDBRANCH  23  24
ENDBRANCH  18  23
ENDBRANCH   9  14
ENDBRANCH   6   8
ENDBRANCH   3   6
ENDBRANCH   1   2
BRANCH   1  26
ATOM     26  C   UNL A   1      48.377  38.107  26.571  1.00  0.00     0.042 C 
BRANCH  26  27
ATOM     27  C   UNL A   1      47.722  36.978  27.359  1.00  0.00     0.118 C 
BRANCH  27  28
ATOM     28  N   UNL A   1      47.418  37.369  28.728  1.00  0.00    -0.352 N 
ATOM     29  C   UNL A   1      46.545  36.833  29.644  1.00  0.00     0.251 C 
ATOM     30  H   UNL A   1      47.924  38.148  29.054  1.00  0.00     0.163 HD
ATOM     31  O   UNL A   1      46.293  37.478  30.659  1.00  0.00    -0.269 OA
BRANCH  29  32
ATOM     32  C   UNL A   1      45.899  35.517  29.424  1.00  0.00     0.039 A 
ATOM     33  C   UNL A   1      44.974  35.391  28.382  1.00  0.00     0.014 A 
ATOM     34  C   UNL A   1      46.144  34.426  30.261  1.00  0.00     0.014 A 
ATOM     35  C   UNL A   1      44.346  34.165  28.144  1.00  0.00     0.010 A 
ATOM     36  C   UNL A   1      45.582  33.182  29.974  1.00  0.00     0.010 A 
ATOM     37  C   UNL A   1      44.672  33.038  28.916  1.00  0.00    -0.014 A 
BRANCH  37  38
ATOM     38  C   UNL A   1      44.067  31.708  28.634  1.00  0.00     0.031 A 
ATOM     39  C   UNL A   1      42.738  31.334  29.233  1.00  0.00     0.074 A 
ATOM     40  C   UNL A   1      44.748  30.813  27.892  1.00  0.00     0.049 A 
ATOM     41  N   UNL A   1      42.089  30.199  29.172  1.00  0.00    -0.248 NA
ATOM     42  C   UNL A   1      42.066  32.367  30.035  1.00  0.00     0.031 C 
ATOM     43  C   UNL A   1      46.066  31.040  27.297  1.00  0.00     0.029 A 
ATOM     44  N   UNL A   1      44.436  29.529  27.522  1.00  0.00    -0.354 N 
ATOM     45  C   UNL A   1      40.939  30.376  29.934  1.00  0.00     0.074 A 
ATOM     46  C   UNL A   1      41.019  31.706  30.502  1.00  0.00     0.031 C 
ATOM     47  C   UNL A   1      46.441  29.941  26.624  1.00  0.00     0.029 A 
ATOM     48  C   UNL A   1      45.416  28.915  26.776  1.00  0.00     0.049 A 
ATOM     49  H   UNL A   1      43.590  29.088  27.768  1.00  0.00     0.167 HD
ATOM     50  C   UNL A   1      39.901  29.522  30.119  1.00  0.00     0.034 A 
ATOM     51  C   UNL A   1      45.490  27.662  26.286  1.00  0.00     0.034 A 
ATOM     52  C   UNL A   1      39.839  28.200  29.543  1.00  0.00     0.049 A 
ATOM     53  C   UNL A   1      44.341  26.717  26.526  1.00  0.00     0.074 A 
ATOM     54  C   UNL A   1      38.818  27.268  29.621  1.00  0.00     0.029 A 
ATOM     55  N   UNL A   1      40.850  27.612  28.790  1.00  0.00    -0.354 N 
ATOM     56  N   UNL A   1      43.235  26.918  27.204  1.00  0.00    -0.248 NA
ATOM     57  C   UNL A   1      44.448  25.381  25.927  1.00  0.00     0.031 C 
ATOM     58  C   UNL A   1      39.239  26.098  28.979  1.00  0.00     0.029 A 
ATOM     59  C   UNL A   1      40.490  26.321  28.429  1.00  0.00     0.049 A 
ATOM     60  H   UNL A   1      41.699  28.049  28.548  1.00  0.00     0.167 HD
ATOM     61  C   UNL A   1      42.504  25.739  27.095  1.00  0.00     0.074 A 
ATOM     62  C   UNL A   1      43.288  24.841  26.269  1.00  0.00     0.031 C 
ATOM     63  C   UNL A   1      41.293  25.426  27.627  1.00  0.00     0.034 A 
BRANCH  50  64
ATOM     64  C   UNL A   1      38.768  29.993  31.004  1.00  0.00     0.023 A 
ATOM     65  C   UNL A   1      37.652  30.668  30.476  1.00  0.00     0.031 A 
ATOM     66  C   UNL A   1      38.822  29.814  32.398  1.00  0.00     0.131 A 
ATOM     67  C   UNL A   1      36.692  31.223  31.336  1.00  0.00     0.055 A 
ATOM     68  C   UNL A   1      37.814  30.287  33.242  1.00  0.00     0.041 A 
ATOM     69  F   UNL A   1      39.868  29.195  32.968  1.00  0.00    -0.206 F 
ATOM     70  C   UNL A   1      36.752  31.015  32.714  1.00  0.00     0.022 A 
BRANCH  67  71
ATOM     71  S   UNL A   1      35.467  32.366  30.640  1.00  0.00     0.124 S 
ATOM     72  O   UNL A   1      36.268  33.571  30.442  1.00  0.00    -0.237 OA
ATOM     73  O   UNL A   1      35.043  31.674  29.428  1.00  0.00    -0.237 OA
ATOM     74  O   UNL A   1      34.455  32.465  31.690  1.00  0.00    -0.744 OA
ENDBRANCH  67  71
ENDBRANCH  50  64
BRANCH  51  75
ATOM     75  C   UNL A   1      46.702  27.226  25.536  1.00  0.00     0.023 A 
ATOM     76  C   UNL A   1      46.948  27.674  24.229  1.00  0.00     0.031 A 
ATOM     77  C   UNL A   1      47.630  26.343  26.118  1.00  0.00     0.131 A 
ATOM     78  C   UNL A   1      48.077  27.213  23.533  1.00  0.00     0.055 A 
ATOM     79  C   UNL A   1      48.777  25.927  25.440  1.00  0.00     0.041 A 
ATOM     80  F   UNL A   1      47.444  25.892  27.369  1.00  0.00    -0.206 F 
ATOM     81  C   UNL A   1      49.000  26.353  24.135  1.00  0.00     0.022 A 
BRANCH  78  82
ATOM     82  S   UNL A   1      48.293  27.707  21.802  1.00  0.00     0.124 S 
ATOM     83  O   UNL A   1      48.568  26.427  21.158  1.00  0.00    -0.237 OA
ATOM     84  O   UNL A   1      47.001  28.313  21.496  1.00  0.00    -0.237 OA
ATOM     85  O   UNL A   1      49.418  28.638  21.850  1.00  0.00    -0.744 OA
ENDBRANCH  78  82
ENDBRANCH  51  75
BRANCH  63  86
ATOM     86  C   UNL A   1      40.738  24.060  27.305  1.00  0.00     0.023 A 
ATOM     87  C   UNL A   1      39.608  23.896  26.484  1.00  0.00     0.031 A 
ATOM     88  C   UNL A   1      41.341  22.907  27.838  1.00  0.00     0.131 A 
ATOM     89  C   UNL A   1      39.083  22.613  26.267  1.00  0.00     0.055 A 
ATOM     90  C   UNL A   1      40.850  21.628  27.568  1.00  0.00     0.041 A 
ATOM     91  F   UNL A   1      42.420  23.003  28.632  1.00  0.00    -0.206 F 
ATOM     92  C   UNL A   1      39.707  21.477  26.789  1.00  0.00     0.022 A 
BRANCH  89  93
ATOM     93  S   UNL A   1      37.517  22.454  25.366  1.00  0.00     0.124 S 
ATOM     94  O   UNL A   1      37.764  21.282  24.532  1.00  0.00    -0.237 OA
ATOM     95  O   UNL A   1      36.551  22.275  26.446  1.00  0.00    -0.237 OA
ATOM     96  O   UNL A   1      37.407  23.719  24.642  1.00  0.00    -0.744 OA
ENDBRANCH  89  93
ENDBRANCH  63  86
ENDBRANCH  37  38
ENDBRANCH  29  32
ENDBRANCH  27  28
ENDBRANCH  26  27
ENDBRANCH   1  26
TORSDOF 19
ENDMDL
MODEL 3
REMARK VINA RESULT:      -8.4      6.163     10.151
REMARK SMILES CCOc1cc(OCC)cc(-c2ccc([C@@H](C)C(=O)NCCCNC(=O)c3ccc(-c4c5nc(c(-c6cc(S(=O)(=O)[O-])ccc6F)c6ccc([nH]6)c(-c6cc(S(=O)(=O)[O-])ccc6F)c6nc(c(-c7cc(S(=O)(=O)[O-])ccc7F)c7ccc4[nH]7)C=C6)C=C5)cc3)cc2)c1
REMARK SMILES IDX 21 1 20 2 18 3 19 4 16 6 17 7 15 8 12 9 13 10 91 11 14 12
REMARK SMILES IDX 90 13 11 14 4 15 5 16 92 17 6 18 10 19 3 20 2 21 1 22 7 23
REMARK SMILES IDX 8 24 9 25 22 26 23 27 24 28 25 29 26 31 27 32 28 33 89 34
REMARK SMILES IDX 29 35 88 36 30 37 31 38 32 39 82 40 33 41 87 42 81 43 83 44
REMARK SMILES IDX 34 45 86 46 80 47 79 48 35 50 67 51 47 52 66 53 48 54 51 55
REMARK SMILES IDX 65 56 84 57 49 58 50 59 64 61 85 62 52 63 36 64 37 65 45 66
REMARK SMILES IDX 38 67 44 68 46 69 43 70 39 71 40 72 41 73 42 74 68 75 69 76
REMARK SMILES IDX 77 77 70 78 76 79 78 80 75 81 71 82 72 83 73 84 74 85 53 86
REMARK SMILES IDX 54 87 62 88 55 89 61 90 63 91 60 92 56 93 57 94 58 95 59 96
REMARK H PARENT 20 5 24 30 83 49 51 60
REMARK Flexibility Score: inf
ROOT
ATOM      1  C   UNL A   1      45.938  37.902  26.887  1.00  0.00     0.117 C 
ENDROOT
BRANCH   1   2
ATOM      2  N   UNL A   1      45.342  39.080  26.285  1.00  0.00    -0.356 N 
ATOM      3  C   UNL A   1      44.093  39.616  26.351  1.00  0.00     0.227 C 
ATOM      4  O   UNL A   1      43.906  40.643  25.686  1.00  0.00    -0.274 OA
ATOM      5  H   UNL A   1      45.963  39.592  25.718  1.00  0.00     0.163 HD
BRANCH   3   6
ATOM      6  C   UNL A   1      42.942  39.040  27.192  1.00  0.00     0.105 C 
ATOM      7  C   UNL A   1      41.563  39.140  26.542  1.00  0.00     0.023 C 
BRANCH   6   8
ATOM      8  C   UNL A   1      42.996  39.452  28.652  1.00  0.00    -0.036 A 
ATOM      9  C   UNL A   1      43.237  40.282  31.369  1.00  0.00    -0.018 A 
ATOM     10  C   UNL A   1      42.413  40.960  30.457  1.00  0.00     0.009 A 
ATOM     11  C   UNL A   1      43.935  39.166  30.889  1.00  0.00     0.009 A 
ATOM     12  C   UNL A   1      42.256  40.526  29.143  1.00  0.00     0.005 A 
ATOM     13  C   UNL A   1      43.834  38.771  29.547  1.00  0.00     0.005 A 
BRANCH   9  14
ATOM     14  C   UNL A   1      43.338  40.759  32.764  1.00  0.00    -0.011 A 
ATOM     15  C   UNL A   1      44.210  40.607  35.028  1.00  0.00     0.123 A 
ATOM     16  C   UNL A   1      43.617  41.826  35.360  1.00  0.00     0.092 A 
ATOM     17  C   UNL A   1      44.063  40.073  33.746  1.00  0.00     0.055 A 
ATOM     18  C   UNL A   1      42.865  42.517  34.412  1.00  0.00     0.123 A 
ATOM     19  C   UNL A   1      42.715  41.963  33.141  1.00  0.00     0.055 A 
BRANCH  15  20
ATOM     20  O   UNL A   1      44.820  39.890  36.021  1.00  0.00    -0.494 OA
BRANCH  20  21
ATOM     21  C   UNL A   1      45.827  40.623  36.731  1.00  0.00     0.226 C 
ATOM     22  C   UNL A   1      47.206  40.004  36.550  1.00  0.00     0.049 C 
ENDBRANCH  20  21
ENDBRANCH  15  20
BRANCH  18  23
ATOM     23  O   UNL A   1      42.339  43.717  34.809  1.00  0.00    -0.494 OA
BRANCH  23  24
ATOM     24  C   UNL A   1      42.020  44.684  33.803  1.00  0.00     0.226 C 
ATOM     25  C   UNL A   1      43.234  45.500  33.375  1.00  0.00     0.049 C 
ENDBRANCH  23  24
ENDBRANCH  18  23
ENDBRANCH   9  14
ENDBRANCH   6   8
ENDBRANCH   3   6
ENDBRANCH   1   2
BRANCH   1  26
ATOM     26  C   UNL A   1      46.819  37.123  25.912  1.00  0.00     0.042 C 
BRANCH  26  27
ATOM     27  C   UNL A   1      46.630  35.611  25.971  1.00  0.00     0.118 C 
BRANCH  27  28
ATOM     28  N   UNL A   1      45.531  35.162  25.128  1.00  0.00    -0.352 N 
ATOM     29  C   UNL A   1      44.342  34.552  25.449  1.00  0.00     0.251 C 
ATOM     30  H   UNL A   1      45.661  35.323  24.165  1.00  0.00     0.163 HD
ATOM     31  O   UNL A   1      43.676  34.056  24.543  1.00  0.00    -0.269 OA
BRANCH  29  32
ATOM     32  C   UNL A   1      43.866  34.468  26.851  1.00  0.00     0.039 A 
ATOM     33  C   UNL A   1      43.222  35.579  27.407  1.00  0.00     0.014 A 
ATOM     34  C   UNL A   1      44.096  33.340  27.641  1.00  0.00     0.014 A 
ATOM     35  C   UNL A   1      42.759  35.535  28.725  1.00  0.00     0.010 A 
ATOM     36  C   UNL A   1      43.562  33.265  28.928  1.00  0.00     0.010 A 
ATOM     37  C   UNL A   1      42.892  34.363  29.487  1.00  0.00    -0.014 A 
BRANCH  37  38
ATOM     38  C   UNL A   1      42.344  34.273  30.867  1.00  0.00     0.031 A 
ATOM     39  C   UNL A   1      40.857  34.232  31.094  1.00  0.00     0.074 A 
ATOM     40  C   UNL A   1      43.186  34.296  31.918  1.00  0.00     0.049 A 
ATOM     41  N   UNL A   1      40.188  34.236  32.219  1.00  0.00    -0.248 NA
ATOM     42  C   UNL A   1      40.010  34.217  29.892  1.00  0.00     0.031 C 
ATOM     43  C   UNL A   1      44.645  34.382  31.828  1.00  0.00     0.029 A 
ATOM     44  N   UNL A   1      42.940  34.261  33.268  1.00  0.00    -0.354 N 
ATOM     45  C   UNL A   1      38.843  34.234  31.862  1.00  0.00     0.074 A 
ATOM     46  C   UNL A   1      38.798  34.301  30.416  1.00  0.00     0.031 C 
ATOM     47  C   UNL A   1      45.163  34.377  33.066  1.00  0.00     0.029 A 
ATOM     48  C   UNL A   1      44.077  34.334  34.039  1.00  0.00     0.049 A 
ATOM     49  H   UNL A   1      42.035  34.191  33.649  1.00  0.00     0.167 HD
ATOM     50  C   UNL A   1      37.750  34.156  32.664  1.00  0.00     0.034 A 
ATOM     51  C   UNL A   1      44.229  34.382  35.377  1.00  0.00     0.034 A 
ATOM     52  C   UNL A   1      37.817  34.090  34.104  1.00  0.00     0.049 A 
ATOM     53  C   UNL A   1      43.003  34.324  36.251  1.00  0.00     0.074 A 
ATOM     54  C   UNL A   1      36.780  33.959  35.013  1.00  0.00     0.029 A 
ATOM     55  N   UNL A   1      38.987  34.164  34.851  1.00  0.00    -0.354 N 
ATOM     56  N   UNL A   1      41.739  34.268  35.899  1.00  0.00    -0.248 NA
ATOM     57  C   UNL A   1      43.226  34.326  37.702  1.00  0.00     0.031 C 
ATOM     58  C   UNL A   1      37.316  34.025  36.304  1.00  0.00     0.029 A 
ATOM     59  C   UNL A   1      38.695  34.117  36.207  1.00  0.00     0.049 A 
ATOM     60  H   UNL A   1      39.893  34.240  34.473  1.00  0.00     0.167 HD
ATOM     61  C   UNL A   1      41.017  34.208  37.086  1.00  0.00     0.074 A 
ATOM     62  C   UNL A   1      41.988  34.213  38.162  1.00  0.00     0.031 C 
ATOM     63  C   UNL A   1      39.672  34.150  37.271  1.00  0.00     0.034 A 
BRANCH  50  64
ATOM     64  C   UNL A   1      36.396  34.167  31.988  1.00  0.00     0.023 A 
ATOM     65  C   UNL A   1      35.575  35.310  32.003  1.00  0.00     0.031 A 
ATOM     66  C   UNL A   1      35.894  33.011  31.366  1.00  0.00     0.131 A 
ATOM     67  C   UNL A   1      34.267  35.244  31.498  1.00  0.00     0.055 A 
ATOM     68  C   UNL A   1      34.625  32.979  30.782  1.00  0.00     0.041 A 
ATOM     69  F   UNL A   1      36.619  31.882  31.333  1.00  0.00    -0.206 F 
ATOM     70  C   UNL A   1      33.795  34.094  30.865  1.00  0.00     0.022 A 
BRANCH  67  71
ATOM     71  S   UNL A   1      33.139  36.622  31.843  1.00  0.00     0.124 S 
ATOM     72  O   UNL A   1      32.680  36.970  30.501  1.00  0.00    -0.237 OA
ATOM     73  O   UNL A   1      32.148  36.007  32.718  1.00  0.00    -0.237 OA
ATOM     74  O   UNL A   1      33.999  37.619  32.477  1.00  0.00    -0.744 OA
ENDBRANCH  67  71
ENDBRANCH  50  64
BRANCH  51  75
ATOM     75  C   UNL A   1      45.591  34.507  35.969  1.00  0.00     0.023 A 
ATOM     76  C   UNL A   1      46.334  33.372  36.331  1.00  0.00     0.031 A 
ATOM     77  C   UNL A   1      46.167  35.772  36.189  1.00  0.00     0.131 A 
ATOM     78  C   UNL A   1      47.597  33.524  36.924  1.00  0.00     0.055 A 
ATOM     79  C   UNL A   1      47.445  35.916  36.733  1.00  0.00     0.041 A 
ATOM     80  F   UNL A   1      45.501  36.888  35.854  1.00  0.00    -0.206 F 
ATOM     81  C   UNL A   1      48.163  34.788  37.114  1.00  0.00     0.022 A 
BRANCH  78  82
ATOM     82  S   UNL A   1      48.471  32.042  37.499  1.00  0.00     0.124 S 
ATOM     83  O   UNL A   1      48.315  32.148  38.946  1.00  0.00    -0.237 OA
ATOM     84  O   UNL A   1      47.717  30.975  36.850  1.00  0.00    -0.237 OA
ATOM     85  O   UNL A   1      49.831  32.233  37.001  1.00  0.00    -0.744 OA
ENDBRANCH  78  82
ENDBRANCH  51  75
BRANCH  63  86
ATOM     86  C   UNL A   1      39.182  34.064  38.697  1.00  0.00     0.023 A 
ATOM     87  C   UNL A   1      38.810  32.837  39.277  1.00  0.00     0.031 A 
ATOM     88  C   UNL A   1      39.073  35.226  39.480  1.00  0.00     0.131 A 
ATOM     89  C   UNL A   1      38.294  32.811  40.581  1.00  0.00     0.055 A 
ATOM     90  C   UNL A   1      38.616  35.184  40.798  1.00  0.00     0.041 A 
ATOM     91  F   UNL A   1      39.410  36.424  38.976  1.00  0.00    -0.206 F 
ATOM     92  C   UNL A   1      38.211  33.973  41.352  1.00  0.00     0.022 A 
BRANCH  89  93
ATOM     93  S   UNL A   1      37.643  31.246  41.228  1.00  0.00     0.124 S 
ATOM     94  O   UNL A   1      38.776  30.743  41.999  1.00  0.00    -0.237 OA
ATOM     95  O   UNL A   1      36.489  31.684  42.006  1.00  0.00    -0.237 OA
ATOM     96  O   UNL A   1      37.324  30.483  40.024  1.00  0.00    -0.744 OA
ENDBRANCH  89  93
ENDBRANCH  63  86
ENDBRANCH  37  38
ENDBRANCH  29  32
ENDBRANCH  27  28
ENDBRANCH  26  27
ENDBRANCH   1  26
TORSDOF 19
ENDMDL
