MODEL 1
REMARK VINA RESULT:     -12.2      0.000      0.000
REMARK SMILES CCN(C(=O)Cc1c(C(=O)NCCCNC(=O)c2ccc(-c3c4nc(c(-c5cc(S(=O)(=O)[O-])ccc5F)c5ccc([nH]5)c(-c5cc(S(=O)(=O)[O-])ccc5F)c5nc(c(-c6cc(S(=O)(=O)[O-])ccc6F)c6ccc3[nH]6)C=C5)C=C4)cc2)[nH]c2ccccc12)c1cccc(C)c1
REMARK SMILES IDX 12 1 11 2 9 3 10 4 8 6 7 7 87 8 81 9 82 10 86 11 83 13 85 14
REMARK SMILES IDX 84 15 6 16 4 17 5 18 3 19 2 20 1 21 88 22 89 23 94 24 90 25
REMARK SMILES IDX 92 26 91 27 93 28 13 29 14 30 15 31 16 32 17 34 18 35 19 36
REMARK SMILES IDX 80 37 20 38 79 39 21 40 22 41 23 42 73 43 24 44 78 45 72 46
REMARK SMILES IDX 74 47 25 48 77 49 71 50 70 51 26 53 58 54 38 55 57 56 39 57
REMARK SMILES IDX 42 58 56 59 75 60 40 61 41 62 55 64 76 65 43 66 27 67 28 68
REMARK SMILES IDX 36 69 29 70 35 71 37 72 34 73 30 74 31 75 32 76 33 77 59 78
REMARK SMILES IDX 60 79 68 80 61 81 67 82 69 83 66 84 62 85 63 86 64 87 65 88
REMARK SMILES IDX 44 89 45 90 53 91 46 92 52 93 54 94 51 95 47 96 48 97 49 98
REMARK SMILES IDX 50 99
REMARK H PARENT 11 5 81 12 15 33 74 52 42 63
REMARK Flexibility Score: inf
ROOT
ATOM      1  C   UNL A   1      32.571  27.474  27.028  1.00  0.00     0.118 C 
ENDROOT
BRANCH   1   2
ATOM      2  N   UNL A   1      31.702  26.320  26.871  1.00  0.00    -0.351 N 
ATOM      3  C   UNL A   1      31.858  25.004  26.524  1.00  0.00     0.268 C 
ATOM      4  O   UNL A   1      30.812  24.353  26.520  1.00  0.00    -0.268 OA
ATOM      5  H   UNL A   1      30.762  26.539  27.064  1.00  0.00     0.163 HD
BRANCH   3   6
ATOM      6  C   UNL A   1      33.134  24.412  26.157  1.00  0.00     0.109 A 
ATOM      7  C   UNL A   1      34.019  24.829  25.146  1.00  0.00    -0.000 A 
ATOM      8  C   UNL A   1      35.067  23.849  25.052  1.00  0.00     0.004 A 
ATOM      9  N   UNL A   1      33.694  23.278  26.694  1.00  0.00    -0.350 N 
ATOM     10  C   UNL A   1      34.854  22.918  26.058  1.00  0.00     0.046 A 
ATOM     11  C   UNL A   1      36.173  23.662  24.197  1.00  0.00     0.010 A 
ATOM     12  H   UNL A   1      33.307  22.780  27.451  1.00  0.00     0.167 HD
ATOM     13  C   UNL A   1      35.701  21.828  26.290  1.00  0.00     0.027 A 
ATOM     14  C   UNL A   1      37.019  22.562  24.392  1.00  0.00     0.001 A 
ATOM     15  C   UNL A   1      36.790  21.665  25.432  1.00  0.00     0.002 A 
BRANCH   7  16
ATOM     16  C   UNL A   1      33.908  26.032  24.242  1.00  0.00     0.139 C 
BRANCH  16  17
ATOM     17  C   UNL A   1      33.218  25.730  22.906  1.00  0.00     0.231 C 
ATOM     18  O   UNL A   1      33.844  25.952  21.862  1.00  0.00    -0.274 OA
BRANCH  17  19
ATOM     19  N   UNL A   1      31.911  25.221  22.916  1.00  0.00    -0.312 N 
BRANCH  19  20
ATOM     20  C   UNL A   1      31.566  23.813  22.651  1.00  0.00     0.122 C 
ATOM     21  C   UNL A   1      32.751  22.883  22.452  1.00  0.00     0.028 C 
ENDBRANCH  19  20
BRANCH  19  22
ATOM     22  C   UNL A   1      30.793  26.112  22.976  1.00  0.00     0.044 A 
ATOM     23  C   UNL A   1      29.635  25.765  23.677  1.00  0.00     0.026 A 
ATOM     24  C   UNL A   1      30.887  27.399  22.428  1.00  0.00     0.029 A 
ATOM     25  C   UNL A   1      28.624  26.708  23.877  1.00  0.00     0.002 A 
ATOM     26  C   UNL A   1      29.884  28.354  22.625  1.00  0.00    -0.049 A 
ATOM     27  C   UNL A   1      28.752  28.000  23.363  1.00  0.00     0.003 A 
ATOM     28  C   UNL A   1      30.021  29.729  22.041  1.00  0.00     0.044 C 
ENDBRANCH  19  22
ENDBRANCH  17  19
ENDBRANCH  16  17
ENDBRANCH   7  16
ENDBRANCH   3   6
ENDBRANCH   1   2
BRANCH   1  29
ATOM     29  C   UNL A   1      32.138  28.693  26.220  1.00  0.00     0.042 C 
BRANCH  29  30
ATOM     30  C   UNL A   1      33.291  29.594  25.774  1.00  0.00     0.118 C 
BRANCH  30  31
ATOM     31  N   UNL A   1      33.146  30.957  26.266  1.00  0.00    -0.352 N 
ATOM     32  C   UNL A   1      33.758  31.610  27.308  1.00  0.00     0.251 C 
ATOM     33  H   UNL A   1      32.499  31.505  25.765  1.00  0.00     0.163 HD
ATOM     34  O   UNL A   1      33.255  32.651  27.726  1.00  0.00    -0.269 OA
BRANCH  32  35
ATOM     35  C   UNL A   1      34.995  31.082  27.927  1.00  0.00     0.039 A 
ATOM     36  C   UNL A   1      36.123  31.906  27.997  1.00  0.00     0.014 A 
ATOM     37  C   UNL A   1      35.075  29.760  28.370  1.00  0.00     0.014 A 
ATOM     38  C   UNL A   1      37.306  31.423  28.563  1.00  0.00     0.010 A 
ATOM     39  C   UNL A   1      36.229  29.305  29.003  1.00  0.00     0.010 A 
ATOM     40  C   UNL A   1      37.361  30.129  29.102  1.00  0.00    -0.014 A 
BRANCH  40  41
ATOM     41  C   UNL A   1      38.588  29.614  29.766  1.00  0.00     0.031 A 
ATOM     42  C   UNL A   1      39.006  30.148  31.110  1.00  0.00     0.074 A 
ATOM     43  C   UNL A   1      39.366  28.720  29.127  1.00  0.00     0.049 A 
ATOM     44  N   UNL A   1      40.082  29.889  31.809  1.00  0.00    -0.248 NA
ATOM     45  C   UNL A   1      38.105  31.128  31.733  1.00  0.00     0.031 C 
ATOM     46  C   UNL A   1      39.085  28.150  27.807  1.00  0.00     0.029 A 
ATOM     47  N   UNL A   1      40.553  28.139  29.493  1.00  0.00    -0.354 N 
ATOM     48  C   UNL A   1      40.000  30.691  32.944  1.00  0.00     0.074 A 
ATOM     49  C   UNL A   1      38.799  31.490  32.800  1.00  0.00     0.031 C 
ATOM     50  C   UNL A   1      40.054  27.275  27.492  1.00  0.00     0.029 A 
ATOM     51  C   UNL A   1      41.049  27.260  28.558  1.00  0.00     0.049 A 
ATOM     52  H   UNL A   1      41.008  28.333  30.344  1.00  0.00     0.167 HD
ATOM     53  C   UNL A   1      40.835  30.741  34.014  1.00  0.00     0.034 A 
ATOM     54  C   UNL A   1      42.181  26.530  28.557  1.00  0.00     0.034 A 
ATOM     55  C   UNL A   1      42.023  29.929  34.141  1.00  0.00     0.049 A 
ATOM     56  C   UNL A   1      43.118  26.633  29.733  1.00  0.00     0.074 A 
ATOM     57  C   UNL A   1      42.903  29.846  35.205  1.00  0.00     0.029 A 
ATOM     58  N   UNL A   1      42.509  29.070  33.161  1.00  0.00    -0.354 N 
ATOM     59  N   UNL A   1      43.002  27.355  30.822  1.00  0.00    -0.248 NA
ATOM     60  C   UNL A   1      44.337  25.816  29.675  1.00  0.00     0.031 C 
ATOM     61  C   UNL A   1      43.957  29.000  34.842  1.00  0.00     0.029 A 
ATOM     62  C   UNL A   1      43.697  28.487  33.580  1.00  0.00     0.049 A 
ATOM     63  H   UNL A   1      42.072  28.900  32.295  1.00  0.00     0.167 HD
ATOM     64  C   UNL A   1      44.119  27.054  31.596  1.00  0.00     0.074 A 
ATOM     65  C   UNL A   1      44.889  26.079  30.851  1.00  0.00     0.031 C 
ATOM     66  C   UNL A   1      44.469  27.533  32.818  1.00  0.00     0.034 A 
BRANCH  53  67
ATOM     67  C   UNL A   1      40.500  31.734  35.105  1.00  0.00     0.023 A 
ATOM     68  C   UNL A   1      39.595  31.424  36.136  1.00  0.00     0.031 A 
ATOM     69  C   UNL A   1      41.042  33.032  35.081  1.00  0.00     0.131 A 
ATOM     70  C   UNL A   1      39.174  32.423  37.026  1.00  0.00     0.055 A 
ATOM     71  C   UNL A   1      40.696  33.995  36.034  1.00  0.00     0.041 A 
ATOM     72  F   UNL A   1      41.898  33.399  34.115  1.00  0.00    -0.206 F 
ATOM     73  C   UNL A   1      39.737  33.700  36.999  1.00  0.00     0.022 A 
BRANCH  70  74
ATOM     74  S   UNL A   1      37.739  32.085  38.085  1.00  0.00     0.124 S 
ATOM     75  O   UNL A   1      38.301  32.296  39.418  1.00  0.00    -0.237 OA
ATOM     76  O   UNL A   1      36.773  33.078  37.634  1.00  0.00    -0.237 OA
ATOM     77  O   UNL A   1      37.404  30.697  37.773  1.00  0.00    -0.744 OA
ENDBRANCH  70  74
ENDBRANCH  53  67
BRANCH  54  78
ATOM     78  C   UNL A   1      42.488  25.627  27.414  1.00  0.00     0.023 A 
ATOM     79  C   UNL A   1      42.019  24.305  27.401  1.00  0.00     0.031 A 
ATOM     80  C   UNL A   1      43.263  26.063  26.325  1.00  0.00     0.131 A 
ATOM     81  C   UNL A   1      42.354  23.453  26.339  1.00  0.00     0.055 A 
ATOM     82  C   UNL A   1      43.557  25.226  25.247  1.00  0.00     0.041 A 
ATOM     83  F   UNL A   1      43.729  27.322  26.284  1.00  0.00    -0.206 F 
ATOM     84  C   UNL A   1      43.109  23.909  25.255  1.00  0.00     0.022 A 
BRANCH  81  85
ATOM     85  S   UNL A   1      41.832  21.718  26.420  1.00  0.00     0.124 S 
ATOM     86  O   UNL A   1      42.660  21.111  25.384  1.00  0.00    -0.237 OA
ATOM     87  O   UNL A   1      42.165  21.365  27.797  1.00  0.00    -0.237 OA
ATOM     88  O   UNL A   1      40.403  21.779  26.125  1.00  0.00    -0.744 OA
ENDBRANCH  81  85
ENDBRANCH  54  78
BRANCH  66  89
ATOM     89  C   UNL A   1      45.726  26.970  33.438  1.00  0.00     0.023 A 
ATOM     90  C   UNL A   1      45.708  25.806  34.227  1.00  0.00     0.031 A 
ATOM     91  C   UNL A   1      46.959  27.621  33.251  1.00  0.00     0.131 A 
ATOM     92  C   UNL A   1      46.887  25.361  34.844  1.00  0.00     0.055 A 
ATOM     93  C   UNL A   1      48.140  27.138  33.816  1.00  0.00     0.041 A 
ATOM     94  F   UNL A   1      47.036  28.740  32.512  1.00  0.00    -0.206 F 
ATOM     95  C   UNL A   1      48.106  26.009  34.628  1.00  0.00     0.022 A 
BRANCH  92  96
ATOM     96  S   UNL A   1      46.791  23.974  36.009  1.00  0.00     0.124 S 
ATOM     97  O   UNL A   1      45.423  24.090  36.505  1.00  0.00    -0.237 OA
ATOM     98  O   UNL A   1      47.064  22.824  35.152  1.00  0.00    -0.237 OA
ATOM     99  O   UNL A   1      47.834  24.276  36.989  1.00  0.00    -0.744 OA
ENDBRANCH  92  96
ENDBRANCH  66  89
ENDBRANCH  40  41
ENDBRANCH  32  35
ENDBRANCH  30  31
ENDBRANCH  29  30
ENDBRANCH   1  29
TORSDOF 18
ENDMDL
MODEL 2
REMARK VINA RESULT:     -12.0      1.984      3.232
REMARK SMILES CCN(C(=O)Cc1c(C(=O)NCCCNC(=O)c2ccc(-c3c4nc(c(-c5cc(S(=O)(=O)[O-])ccc5F)c5ccc([nH]5)c(-c5cc(S(=O)(=O)[O-])ccc5F)c5nc(c(-c6cc(S(=O)(=O)[O-])ccc6F)c6ccc3[nH]6)C=C5)C=C4)cc2)[nH]c2ccccc12)c1cccc(C)c1
REMARK SMILES IDX 12 1 11 2 9 3 10 4 8 6 7 7 87 8 81 9 82 10 86 11 83 13 85 14
REMARK SMILES IDX 84 15 6 16 4 17 5 18 3 19 2 20 1 21 88 22 89 23 94 24 90 25
REMARK SMILES IDX 92 26 91 27 93 28 13 29 14 30 15 31 16 32 17 34 18 35 19 36
REMARK SMILES IDX 80 37 20 38 79 39 21 40 22 41 23 42 73 43 24 44 78 45 72 46
REMARK SMILES IDX 74 47 25 48 77 49 71 50 70 51 26 53 58 54 38 55 57 56 39 57
REMARK SMILES IDX 42 58 56 59 75 60 40 61 41 62 55 64 76 65 43 66 27 67 28 68
REMARK SMILES IDX 36 69 29 70 35 71 37 72 34 73 30 74 31 75 32 76 33 77 59 78
REMARK SMILES IDX 60 79 68 80 61 81 67 82 69 83 66 84 62 85 63 86 64 87 65 88
REMARK SMILES IDX 44 89 45 90 53 91 46 92 52 93 54 94 51 95 47 96 48 97 49 98
REMARK SMILES IDX 50 99
REMARK H PARENT 11 5 81 12 15 33 74 52 42 63
REMARK Flexibility Score: inf
ROOT
ATOM      1  C   UNL A   1      31.352  26.935  26.998  1.00  0.00     0.118 C 
ENDROOT
BRANCH   1   2
ATOM      2  N   UNL A   1      30.310  26.876  25.988  1.00  0.00    -0.351 N 
ATOM      3  C   UNL A   1      29.934  25.999  25.005  1.00  0.00     0.268 C 
ATOM      4  O   UNL A   1      28.950  26.357  24.355  1.00  0.00    -0.268 OA
ATOM      5  H   UNL A   1      29.724  27.666  26.018  1.00  0.00     0.163 HD
BRANCH   3   6
ATOM      6  C   UNL A   1      30.639  24.761  24.714  1.00  0.00     0.109 A 
ATOM      7  C   UNL A   1      31.328  24.419  23.536  1.00  0.00    -0.000 A 
ATOM      8  C   UNL A   1      31.726  23.042  23.649  1.00  0.00     0.004 A 
ATOM      9  N   UNL A   1      30.713  23.653  25.522  1.00  0.00    -0.350 N 
ATOM     10  C   UNL A   1      31.361  22.608  24.915  1.00  0.00     0.046 A 
ATOM     11  C   UNL A   1      32.356  22.120  22.787  1.00  0.00     0.010 A 
ATOM     12  H   UNL A   1      30.342  23.612  26.434  1.00  0.00     0.167 HD
ATOM     13  C   UNL A   1      31.621  21.318  25.391  1.00  0.00     0.027 A 
ATOM     14  C   UNL A   1      32.601  20.813  23.232  1.00  0.00     0.001 A 
ATOM     15  C   UNL A   1      32.247  20.424  24.521  1.00  0.00     0.002 A 
BRANCH   7  16
ATOM     16  C   UNL A   1      31.572  25.268  22.313  1.00  0.00     0.139 C 
BRANCH  16  17
ATOM     17  C   UNL A   1      32.980  25.874  22.261  1.00  0.00     0.231 C 
ATOM     18  O   UNL A   1      33.519  26.004  21.154  1.00  0.00    -0.274 OA
BRANCH  17  19
ATOM     19  N   UNL A   1      33.602  26.252  23.460  1.00  0.00    -0.312 N 
BRANCH  19  20
ATOM     20  C   UNL A   1      33.788  27.647  23.895  1.00  0.00     0.122 C 
ATOM     21  C   UNL A   1      32.863  28.659  23.238  1.00  0.00     0.028 C 
ENDBRANCH  19  20
BRANCH  19  22
ATOM     22  C   UNL A   1      34.299  25.280  24.246  1.00  0.00     0.044 A 
ATOM     23  C   UNL A   1      34.049  25.151  25.615  1.00  0.00     0.026 A 
ATOM     24  C   UNL A   1      35.160  24.362  23.630  1.00  0.00     0.029 A 
ATOM     25  C   UNL A   1      34.602  24.088  26.334  1.00  0.00     0.002 A 
ATOM     26  C   UNL A   1      35.715  23.290  24.337  1.00  0.00    -0.049 A 
ATOM     27  C   UNL A   1      35.422  23.155  25.696  1.00  0.00     0.003 A 
ATOM     28  C   UNL A   1      36.619  22.312  23.646  1.00  0.00     0.044 C 
ENDBRANCH  19  22
ENDBRANCH  17  19
ENDBRANCH  16  17
ENDBRANCH   7  16
ENDBRANCH   3   6
ENDBRANCH   1   2
BRANCH   1  29
ATOM     29  C   UNL A   1      31.707  28.350  27.444  1.00  0.00     0.042 C 
BRANCH  29  30
ATOM     30  C   UNL A   1      33.166  28.738  27.202  1.00  0.00     0.118 C 
BRANCH  30  31
ATOM     31  N   UNL A   1      33.344  30.181  27.110  1.00  0.00    -0.352 N 
ATOM     32  C   UNL A   1      34.283  31.012  27.671  1.00  0.00     0.251 C 
ATOM     33  H   UNL A   1      32.677  30.639  26.549  1.00  0.00     0.163 HD
ATOM     34  O   UNL A   1      34.054  32.219  27.706  1.00  0.00    -0.269 OA
BRANCH  32  35
ATOM     35  C   UNL A   1      35.547  30.479  28.229  1.00  0.00     0.039 A 
ATOM     36  C   UNL A   1      35.525  29.857  29.481  1.00  0.00     0.014 A 
ATOM     37  C   UNL A   1      36.762  30.656  27.565  1.00  0.00     0.014 A 
ATOM     38  C   UNL A   1      36.709  29.361  30.035  1.00  0.00     0.010 A 
ATOM     39  C   UNL A   1      37.928  30.095  28.082  1.00  0.00     0.010 A 
ATOM     40  C   UNL A   1      37.917  29.446  29.326  1.00  0.00    -0.014 A 
BRANCH  40  41
ATOM     41  C   UNL A   1      39.177  28.870  29.864  1.00  0.00     0.031 A 
ATOM     42  C   UNL A   1      39.817  29.456  31.094  1.00  0.00     0.074 A 
ATOM     43  C   UNL A   1      39.786  27.866  29.204  1.00  0.00     0.049 A 
ATOM     44  N   UNL A   1      40.955  29.151  31.665  1.00  0.00    -0.248 NA
ATOM     45  C   UNL A   1      39.092  30.556  31.746  1.00  0.00     0.031 C 
ATOM     46  C   UNL A   1      39.282  27.232  27.984  1.00  0.00     0.029 A 
ATOM     47  N   UNL A   1      40.961  27.206  29.459  1.00  0.00    -0.354 N 
ATOM     48  C   UNL A   1      41.094  30.035  32.732  1.00  0.00     0.074 A 
ATOM     49  C   UNL A   1      39.953  30.927  32.681  1.00  0.00     0.031 C 
ATOM     50  C   UNL A   1      40.124  26.253  27.618  1.00  0.00     0.029 A 
ATOM     51  C   UNL A   1      41.251  26.222  28.542  1.00  0.00     0.049 A 
ATOM     52  H   UNL A   1      41.542  27.417  30.225  1.00  0.00     0.167 HD
ATOM     53  C   UNL A   1      42.068  30.083  33.675  1.00  0.00     0.034 A 
ATOM     54  C   UNL A   1      42.311  25.395  28.453  1.00  0.00     0.034 A 
ATOM     55  C   UNL A   1      43.194  29.178  33.712  1.00  0.00     0.049 A 
ATOM     56  C   UNL A   1      43.405  25.494  29.484  1.00  0.00     0.074 A 
ATOM     57  C   UNL A   1      44.201  29.090  34.656  1.00  0.00     0.029 A 
ATOM     58  N   UNL A   1      43.470  28.212  32.751  1.00  0.00    -0.354 N 
ATOM     59  N   UNL A   1      43.498  26.299  30.517  1.00  0.00    -0.248 NA
ATOM     60  C   UNL A   1      44.534  24.568  29.335  1.00  0.00     0.031 C 
ATOM     61  C   UNL A   1      45.124  28.128  34.229  1.00  0.00     0.029 A 
ATOM     62  C   UNL A   1      44.653  27.554  33.058  1.00  0.00     0.049 A 
ATOM     63  H   UNL A   1      42.906  28.021  31.967  1.00  0.00     0.167 HD
ATOM     64  C   UNL A   1      44.682  25.953  31.161  1.00  0.00     0.074 A 
ATOM     65  C   UNL A   1      45.262  24.861  30.403  1.00  0.00     0.031 C 
ATOM     66  C   UNL A   1      45.234  26.482  32.283  1.00  0.00     0.034 A 
BRANCH  53  67
ATOM     67  C   UNL A   1      41.968  31.177  34.716  1.00  0.00     0.023 A 
ATOM     68  C   UNL A   1      40.922  31.211  35.656  1.00  0.00     0.031 A 
ATOM     69  C   UNL A   1      42.892  32.238  34.731  1.00  0.00     0.131 A 
ATOM     70  C   UNL A   1      40.759  32.329  36.488  1.00  0.00     0.055 A 
ATOM     71  C   UNL A   1      42.783  33.300  35.632  1.00  0.00     0.041 A 
ATOM     72  F   UNL A   1      43.904  32.276  33.850  1.00  0.00    -0.206 F 
ATOM     73  C   UNL A   1      41.697  33.363  36.502  1.00  0.00     0.022 A 
BRANCH  70  74
ATOM     74  S   UNL A   1      39.202  32.503  37.403  1.00  0.00     0.124 S 
ATOM     75  O   UNL A   1      38.632  31.163  37.272  1.00  0.00    -0.237 OA
ATOM     76  O   UNL A   1      39.659  32.875  38.736  1.00  0.00    -0.237 OA
ATOM     77  O   UNL A   1      38.489  33.548  36.671  1.00  0.00    -0.744 OA
ENDBRANCH  70  74
ENDBRANCH  53  67
BRANCH  54  78
ATOM     78  C   UNL A   1      42.384  24.389  27.357  1.00  0.00     0.023 A 
ATOM     79  C   UNL A   1      41.673  23.183  27.446  1.00  0.00     0.031 A 
ATOM     80  C   UNL A   1      43.173  24.609  26.214  1.00  0.00     0.131 A 
ATOM     81  C   UNL A   1      41.788  22.226  26.426  1.00  0.00     0.055 A 
ATOM     82  C   UNL A   1      43.248  23.675  25.180  1.00  0.00     0.041 A 
ATOM     83  F   UNL A   1      43.865  25.751  26.077  1.00  0.00    -0.206 F 
ATOM     84  C   UNL A   1      42.561  22.470  25.288  1.00  0.00     0.022 A 
BRANCH  81  85
ATOM     85  S   UNL A   1      40.952  20.631  26.635  1.00  0.00     0.124 S 
ATOM     86  O   UNL A   1      39.676  20.875  25.972  1.00  0.00    -0.237 OA
ATOM     87  O   UNL A   1      41.866  19.719  25.953  1.00  0.00    -0.237 OA
ATOM     88  O   UNL A   1      40.884  20.469  28.085  1.00  0.00    -0.744 OA
ENDBRANCH  81  85
ENDBRANCH  54  78
BRANCH  66  89
ATOM     89  C   UNL A   1      46.515  25.852  32.778  1.00  0.00     0.023 A 
ATOM     90  C   UNL A   1      47.769  26.211  32.253  1.00  0.00     0.031 A 
ATOM     91  C   UNL A   1      46.475  24.864  33.778  1.00  0.00     0.131 A 
ATOM     92  C   UNL A   1      48.925  25.547  32.691  1.00  0.00     0.055 A 
ATOM     93  C   UNL A   1      47.635  24.252  34.254  1.00  0.00     0.041 A 
ATOM     94  F   UNL A   1      45.305  24.478  34.312  1.00  0.00    -0.206 F 
ATOM     95  C   UNL A   1      48.868  24.583  33.701  1.00  0.00     0.022 A 
BRANCH  92  96
ATOM     96  S   UNL A   1      50.498  25.893  31.856  1.00  0.00     0.124 S 
ATOM     97  O   UNL A   1      50.794  24.612  31.224  1.00  0.00    -0.237 OA
ATOM     98  O   UNL A   1      50.139  26.983  30.952  1.00  0.00    -0.237 OA
ATOM     99  O   UNL A   1      51.393  26.267  32.950  1.00  0.00    -0.744 OA
ENDBRANCH  92  96
ENDBRANCH  66  89
ENDBRANCH  40  41
ENDBRANCH  32  35
ENDBRANCH  30  31
ENDBRANCH  29  30
ENDBRANCH   1  29
TORSDOF 18
ENDMDL
MODEL 3
REMARK VINA RESULT:     -11.7      1.514      3.873
REMARK SMILES CCN(C(=O)Cc1c(C(=O)NCCCNC(=O)c2ccc(-c3c4nc(c(-c5cc(S(=O)(=O)[O-])ccc5F)c5ccc([nH]5)c(-c5cc(S(=O)(=O)[O-])ccc5F)c5nc(c(-c6cc(S(=O)(=O)[O-])ccc6F)c6ccc3[nH]6)C=C5)C=C4)cc2)[nH]c2ccccc12)c1cccc(C)c1
REMARK SMILES IDX 12 1 11 2 9 3 10 4 8 6 7 7 87 8 81 9 82 10 86 11 83 13 85 14
REMARK SMILES IDX 84 15 6 16 4 17 5 18 3 19 2 20 1 21 88 22 89 23 94 24 90 25
REMARK SMILES IDX 92 26 91 27 93 28 13 29 14 30 15 31 16 32 17 34 18 35 19 36
REMARK SMILES IDX 80 37 20 38 79 39 21 40 22 41 23 42 73 43 24 44 78 45 72 46
REMARK SMILES IDX 74 47 25 48 77 49 71 50 70 51 26 53 58 54 38 55 57 56 39 57
REMARK SMILES IDX 42 58 56 59 75 60 40 61 41 62 55 64 76 65 43 66 27 67 28 68
REMARK SMILES IDX 36 69 29 70 35 71 37 72 34 73 30 74 31 75 32 76 33 77 59 78
REMARK SMILES IDX 60 79 68 80 61 81 67 82 69 83 66 84 62 85 63 86 64 87 65 88
REMARK SMILES IDX 44 89 45 90 53 91 46 92 52 93 54 94 51 95 47 96 48 97 49 98
REMARK SMILES IDX 50 99
REMARK H PARENT 11 5 81 12 15 33 74 52 42 63
REMARK Flexibility Score: inf
ROOT
ATOM      1  C   UNL A   1      33.182  27.528  26.634  1.00  0.00     0.118 C 
ENDROOT
BRANCH   1   2
ATOM      2  N   UNL A   1      33.525  27.317  25.238  1.00  0.00    -0.351 N 
ATOM      3  C   UNL A   1      32.921  27.533  24.028  1.00  0.00     0.268 C 
ATOM      4  O   UNL A   1      33.598  27.194  23.055  1.00  0.00    -0.268 OA
ATOM      5  H   UNL A   1      34.418  26.917  25.136  1.00  0.00     0.163 HD
BRANCH   3   6
ATOM      6  C   UNL A   1      31.584  28.084  23.879  1.00  0.00     0.109 A 
ATOM      7  C   UNL A   1      30.377  27.382  23.706  1.00  0.00    -0.000 A 
ATOM      8  C   UNL A   1      29.344  28.349  23.448  1.00  0.00     0.004 A 
ATOM      9  N   UNL A   1      31.251  29.415  23.815  1.00  0.00    -0.350 N 
ATOM     10  C   UNL A   1      29.917  29.607  23.563  1.00  0.00     0.046 A 
ATOM     11  C   UNL A   1      27.975  28.270  23.118  1.00  0.00     0.010 A 
ATOM     12  H   UNL A   1      31.896  30.150  23.936  1.00  0.00     0.167 HD
ATOM     13  C   UNL A   1      29.198  30.797  23.405  1.00  0.00     0.027 A 
ATOM     14  C   UNL A   1      27.241  29.448  22.928  1.00  0.00     0.001 A 
ATOM     15  C   UNL A   1      27.844  30.693  23.082  1.00  0.00     0.002 A 
BRANCH   7  16
ATOM     16  C   UNL A   1      30.153  25.890  23.706  1.00  0.00     0.139 C 
BRANCH  16  17
ATOM     17  C   UNL A   1      30.484  25.222  25.046  1.00  0.00     0.231 C 
ATOM     18  O   UNL A   1      30.262  25.857  26.085  1.00  0.00    -0.274 OA
BRANCH  17  19
ATOM     19  N   UNL A   1      31.023  23.927  25.044  1.00  0.00    -0.312 N 
BRANCH  19  20
ATOM     20  C   UNL A   1      30.418  22.774  25.735  1.00  0.00     0.122 C 
ATOM     21  C   UNL A   1      30.394  22.869  27.252  1.00  0.00     0.028 C 
ENDBRANCH  19  20
BRANCH  19  22
ATOM     22  C   UNL A   1      32.340  23.698  24.534  1.00  0.00     0.044 A 
ATOM     23  C   UNL A   1      32.544  23.391  23.186  1.00  0.00     0.026 A 
ATOM     24  C   UNL A   1      33.458  23.892  25.357  1.00  0.00     0.029 A 
ATOM     25  C   UNL A   1      33.840  23.344  22.664  1.00  0.00     0.002 A 
ATOM     26  C   UNL A   1      34.759  23.853  24.845  1.00  0.00    -0.049 A 
ATOM     27  C   UNL A   1      34.942  23.584  23.487  1.00  0.00     0.003 A 
ATOM     28  C   UNL A   1      35.936  24.083  25.748  1.00  0.00     0.044 C 
ENDBRANCH  19  22
ENDBRANCH  17  19
ENDBRANCH  16  17
ENDBRANCH   7  16
ENDBRANCH   3   6
ENDBRANCH   1   2
BRANCH   1  29
ATOM     29  C   UNL A   1      32.864  28.979  26.984  1.00  0.00     0.042 C 
BRANCH  29  30
ATOM     30  C   UNL A   1      33.907  29.986  26.497  1.00  0.00     0.118 C 
BRANCH  30  31
ATOM     31  N   UNL A   1      33.826  31.252  27.214  1.00  0.00    -0.352 N 
ATOM     32  C   UNL A   1      34.509  31.710  28.314  1.00  0.00     0.251 C 
ATOM     33  H   UNL A   1      33.170  31.887  26.847  1.00  0.00     0.163 HD
ATOM     34  O   UNL A   1      34.058  32.677  28.924  1.00  0.00    -0.269 OA
BRANCH  32  35
ATOM     35  C   UNL A   1      35.759  31.062  28.769  1.00  0.00     0.039 A 
ATOM     36  C   UNL A   1      36.986  31.597  28.363  1.00  0.00     0.014 A 
ATOM     37  C   UNL A   1      35.732  29.890  29.528  1.00  0.00     0.014 A 
ATOM     38  C   UNL A   1      38.180  30.993  28.769  1.00  0.00     0.010 A 
ATOM     39  C   UNL A   1      36.921  29.332  29.993  1.00  0.00     0.010 A 
ATOM     40  C   UNL A   1      38.160  29.874  29.615  1.00  0.00    -0.014 A 
BRANCH  40  41
ATOM     41  C   UNL A   1      39.415  29.251  30.111  1.00  0.00     0.031 A 
ATOM     42  C   UNL A   1      40.110  29.803  31.327  1.00  0.00     0.074 A 
ATOM     43  C   UNL A   1      39.971  28.235  29.423  1.00  0.00     0.049 A 
ATOM     44  N   UNL A   1      41.253  29.454  31.861  1.00  0.00    -0.248 NA
ATOM     45  C   UNL A   1      39.441  30.919  32.010  1.00  0.00     0.031 C 
ATOM     46  C   UNL A   1      39.411  27.630  28.212  1.00  0.00     0.029 A 
ATOM     47  N   UNL A   1      41.130  27.534  29.637  1.00  0.00    -0.354 N 
ATOM     48  C   UNL A   1      41.452  30.322  32.932  1.00  0.00     0.074 A 
ATOM     49  C   UNL A   1      40.341  31.252  32.922  1.00  0.00     0.031 C 
ATOM     50  C   UNL A   1      40.209  26.628  27.813  1.00  0.00     0.029 A 
ATOM     51  C   UNL A   1      41.361  26.550  28.704  1.00  0.00     0.049 A 
ATOM     52  H   UNL A   1      41.740  27.717  30.388  1.00  0.00     0.167 HD
ATOM     53  C   UNL A   1      42.455  30.328  33.847  1.00  0.00     0.034 A 
ATOM     54  C   UNL A   1      42.389  25.689  28.575  1.00  0.00     0.034 A 
ATOM     55  C   UNL A   1      43.550  29.386  33.842  1.00  0.00     0.049 A 
ATOM     56  C   UNL A   1      43.516  25.741  29.575  1.00  0.00     0.074 A 
ATOM     57  C   UNL A   1      44.581  29.255  34.755  1.00  0.00     0.029 A 
ATOM     58  N   UNL A   1      43.766  28.421  32.864  1.00  0.00    -0.354 N 
ATOM     59  N   UNL A   1      43.665  26.532  30.612  1.00  0.00    -0.248 NA
ATOM     60  C   UNL A   1      44.609  24.780  29.384  1.00  0.00     0.031 C 
ATOM     61  C   UNL A   1      45.458  28.268  34.292  1.00  0.00     0.029 A 
ATOM     62  C   UNL A   1      44.934  27.722  33.130  1.00  0.00     0.049 A 
ATOM     63  H   UNL A   1      43.173  28.258  32.095  1.00  0.00     0.167 HD
ATOM     64  C   UNL A   1      44.855  26.140  31.217  1.00  0.00     0.074 A 
ATOM     65  C   UNL A   1      45.376  25.038  30.433  1.00  0.00     0.031 C 
ATOM     66  C   UNL A   1      45.457  26.639  32.328  1.00  0.00     0.034 A 
BRANCH  53  67
ATOM     67  C   UNL A   1      42.421  31.414  34.900  1.00  0.00     0.023 A 
ATOM     68  C   UNL A   1      41.443  31.435  35.910  1.00  0.00     0.031 A 
ATOM     69  C   UNL A   1      43.338  32.480  34.858  1.00  0.00     0.131 A 
ATOM     70  C   UNL A   1      41.332  32.546  36.761  1.00  0.00     0.055 A 
ATOM     71  C   UNL A   1      43.286  33.535  35.774  1.00  0.00     0.041 A 
ATOM     72  F   UNL A   1      44.286  32.531  33.910  1.00  0.00    -0.206 F 
ATOM     73  C   UNL A   1      42.264  33.585  36.717  1.00  0.00     0.022 A 
BRANCH  70  74
ATOM     74  S   UNL A   1      39.842  32.704  37.783  1.00  0.00     0.124 S 
ATOM     75  O   UNL A   1      39.476  34.101  37.557  1.00  0.00    -0.237 OA
ATOM     76  O   UNL A   1      38.952  31.708  37.200  1.00  0.00    -0.237 OA
ATOM     77  O   UNL A   1      40.319  32.404  39.132  1.00  0.00    -0.744 OA
ENDBRANCH  70  74
ENDBRANCH  53  67
BRANCH  54  78
ATOM     78  C   UNL A   1      42.397  24.693  27.468  1.00  0.00     0.023 A 
ATOM     79  C   UNL A   1      41.634  23.519  27.558  1.00  0.00     0.031 A 
ATOM     80  C   UNL A   1      43.173  24.890  26.313  1.00  0.00     0.131 A 
ATOM     81  C   UNL A   1      41.688  22.569  26.528  1.00  0.00     0.055 A 
ATOM     82  C   UNL A   1      43.188  23.964  25.268  1.00  0.00     0.041 A 
ATOM     83  F   UNL A   1      43.914  26.002  26.174  1.00  0.00    -0.206 F 
ATOM     84  C   UNL A   1      42.449  22.790  25.377  1.00  0.00     0.022 A 
BRANCH  81  85
ATOM     85  S   UNL A   1      40.786  21.010  26.736  1.00  0.00     0.124 S 
ATOM     86  O   UNL A   1      40.784  20.860  28.187  1.00  0.00    -0.237 OA
ATOM     87  O   UNL A   1      39.498  21.321  26.122  1.00  0.00    -0.237 OA
ATOM     88  O   UNL A   1      41.602  20.044  26.006  1.00  0.00    -0.744 OA
ENDBRANCH  81  85
ENDBRANCH  54  78
BRANCH  66  89
ATOM     89  C   UNL A   1      46.729  25.962  32.779  1.00  0.00     0.023 A 
ATOM     90  C   UNL A   1      46.714  24.848  33.636  1.00  0.00     0.031 A 
ATOM     91  C   UNL A   1      47.979  26.454  32.358  1.00  0.00     0.131 A 
ATOM     92  C   UNL A   1      47.922  24.296  34.088  1.00  0.00     0.055 A 
ATOM     93  C   UNL A   1      49.176  25.862  32.761  1.00  0.00     0.041 A 
ATOM     94  F   UNL A   1      48.055  27.519  31.544  1.00  0.00    -0.206 F 
ATOM     95  C   UNL A   1      49.153  24.785  33.642  1.00  0.00     0.022 A 
BRANCH  92  96
ATOM     96  S   UNL A   1      47.868  22.988  35.343  1.00  0.00     0.124 S 
ATOM     97  O   UNL A   1      48.976  22.130  34.936  1.00  0.00    -0.237 OA
ATOM     98  O   UNL A   1      48.062  23.735  36.583  1.00  0.00    -0.237 OA
ATOM     99  O   UNL A   1      46.537  22.405  35.175  1.00  0.00    -0.744 OA
ENDBRANCH  92  96
ENDBRANCH  66  89
ENDBRANCH  40  41
ENDBRANCH  32  35
ENDBRANCH  30  31
ENDBRANCH  29  30
ENDBRANCH   1  29
TORSDOF 18
ENDMDL
