MODEL 1
REMARK VINA RESULT:     -10.1      0.000      0.000
REMARK SMILES CC[NH+](CC)C[C@H](F)C(=O)NCCCNC(=O)c1ccc(-c2c3nc(c(-c4cc(S(=O)(=O)[O-])ccc4F)c4ccc([nH]4)c(-c4cc(S(=O)(=O)[O-])ccc4F)c4nc(c(-c5cc(S(=O)(=O)[O-])ccc5F)c5ccc2[nH]5)C=C4)C=C3)cc1
REMARK SMILES IDX 13 1 12 2 11 3 9 4 10 5 7 7 8 8 6 9 3 10 2 12 1 13 4 14 5 15
REMARK SMILES IDX 14 16 15 17 16 18 17 20 18 21 19 22 80 23 20 24 79 25 21 26
REMARK SMILES IDX 22 27 23 28 73 29 24 30 78 31 72 32 74 33 25 34 77 35 71 36
REMARK SMILES IDX 70 37 26 39 58 40 38 41 57 42 39 43 42 44 56 45 75 46 40 47
REMARK SMILES IDX 41 48 55 50 76 51 43 52 27 53 28 54 36 55 29 56 35 57 37 58
REMARK SMILES IDX 34 59 30 60 31 61 32 62 33 63 59 64 60 65 68 66 61 67 67 68
REMARK SMILES IDX 69 69 66 70 62 71 63 72 64 73 65 74 44 75 45 76 53 77 46 78
REMARK SMILES IDX 52 79 54 80 51 81 47 82 48 83 49 84 50 85
REMARK H PARENT 11 6 3 11 15 19 74 38 42 49
REMARK Flexibility Score: inf
ROOT
ATOM      1  C   UNL A   1      33.169  35.528  28.372  1.00  0.00     0.042 C 
ENDROOT
BRANCH   1   2
ATOM      2  C   UNL A   1      33.531  36.437  29.535  1.00  0.00     0.117 C 
BRANCH   2   3
ATOM      3  N   UNL A   1      32.495  36.484  30.548  1.00  0.00    -0.353 N 
ATOM      4  C   UNL A   1      32.616  36.717  31.886  1.00  0.00     0.260 C 
ATOM      5  O   UNL A   1      31.580  36.733  32.558  1.00  0.00    -0.271 OA
ATOM      6  H   UNL A   1      31.579  36.325  30.226  1.00  0.00     0.163 HD
BRANCH   4   7
ATOM      7  C   UNL A   1      33.976  36.988  32.517  1.00  0.00     0.309 C 
ATOM      8  F   UNL A   1      34.009  38.228  33.107  1.00  0.00    -0.230 F 
BRANCH   7   9
ATOM      9  C   UNL A   1      34.426  35.961  33.574  1.00  0.00     0.310 C 
BRANCH   9  10
ATOM     10  N   UNL A   1      35.191  34.743  33.254  1.00  0.00    -0.333 N 
ATOM     11  H   UNL A   1      35.610  35.006  32.361  1.00  0.00     0.348 HD
BRANCH  10  12
ATOM     12  C   UNL A   1      36.355  34.466  34.100  1.00  0.00     0.258 C 
ATOM     13  C   UNL A   1      35.983  33.830  35.437  1.00  0.00     0.071 C 
ENDBRANCH  10  12
BRANCH  10  14
ATOM     14  C   UNL A   1      34.387  33.558  32.947  1.00  0.00     0.258 C 
ATOM     15  C   UNL A   1      34.434  33.018  31.523  1.00  0.00     0.071 C 
ENDBRANCH  10  14
ENDBRANCH   9  10
ENDBRANCH   7   9
ENDBRANCH   4   7
ENDBRANCH   2   3
ENDBRANCH   1   2
BRANCH   1  16
ATOM     16  C   UNL A   1      33.753  34.123  28.464  1.00  0.00     0.118 C 
BRANCH  16  17
ATOM     17  N   UNL A   1      32.997  33.123  27.723  1.00  0.00    -0.352 N 
ATOM     18  C   UNL A   1      33.365  31.845  27.354  1.00  0.00     0.251 C 
ATOM     19  H   UNL A   1      32.093  33.398  27.445  1.00  0.00     0.163 HD
ATOM     20  O   UNL A   1      32.638  31.187  26.628  1.00  0.00    -0.269 OA
BRANCH  18  21
ATOM     21  C   UNL A   1      34.667  31.306  27.809  1.00  0.00     0.039 A 
ATOM     22  C   UNL A   1      35.727  32.189  28.027  1.00  0.00     0.014 A 
ATOM     23  C   UNL A   1      34.819  29.944  28.082  1.00  0.00     0.014 A 
ATOM     24  C   UNL A   1      36.903  31.719  28.617  1.00  0.00     0.010 A 
ATOM     25  C   UNL A   1      35.950  29.500  28.757  1.00  0.00     0.010 A 
ATOM     26  C   UNL A   1      37.003  30.383  29.041  1.00  0.00    -0.014 A 
BRANCH  26  27
ATOM     27  C   UNL A   1      38.188  29.897  29.797  1.00  0.00     0.031 A 
ATOM     28  C   UNL A   1      38.447  30.388  31.197  1.00  0.00     0.074 A 
ATOM     29  C   UNL A   1      39.074  29.078  29.193  1.00  0.00     0.049 A 
ATOM     30  N   UNL A   1      39.462  30.146  31.986  1.00  0.00    -0.248 NA
ATOM     31  C   UNL A   1      37.450  31.306  31.767  1.00  0.00     0.031 C 
ATOM     32  C   UNL A   1      38.973  28.589  27.815  1.00  0.00     0.029 A 
ATOM     33  N   UNL A   1      40.239  28.518  29.656  1.00  0.00    -0.354 N 
ATOM     34  C   UNL A   1      39.237  30.898  33.135  1.00  0.00     0.074 A 
ATOM     35  C   UNL A   1      38.025  31.656  32.906  1.00  0.00     0.031 C 
ATOM     36  C   UNL A   1      40.010  27.776  27.558  1.00  0.00     0.029 A 
ATOM     37  C   UNL A   1      40.873  27.717  28.732  1.00  0.00     0.049 A 
ATOM     38  H   UNL A   1      40.588  28.674  30.563  1.00  0.00     0.167 HD
ATOM     39  C   UNL A   1      39.957  30.933  34.284  1.00  0.00     0.034 A 
ATOM     40  C   UNL A   1      42.021  27.017  28.822  1.00  0.00     0.034 A 
ATOM     41  C   UNL A   1      41.150  30.152  34.504  1.00  0.00     0.049 A 
ATOM     42  C   UNL A   1      42.792  27.051  30.115  1.00  0.00     0.074 A 
ATOM     43  C   UNL A   1      41.924  30.060  35.647  1.00  0.00     0.029 A 
ATOM     44  N   UNL A   1      41.745  29.325  33.558  1.00  0.00    -0.354 N 
ATOM     45  N   UNL A   1      42.534  27.722  31.214  1.00  0.00    -0.248 NA
ATOM     46  C   UNL A   1      44.001  26.219  30.185  1.00  0.00     0.031 C 
ATOM     47  C   UNL A   1      43.014  29.225  35.375  1.00  0.00     0.029 A 
ATOM     48  C   UNL A   1      42.885  28.737  34.085  1.00  0.00     0.049 A 
ATOM     49  H   UNL A   1      41.405  29.178  32.645  1.00  0.00     0.167 HD
ATOM     50  C   UNL A   1      43.534  27.369  32.117  1.00  0.00     0.074 A 
ATOM     51  C   UNL A   1      44.385  26.413  31.438  1.00  0.00     0.031 C 
ATOM     52  C   UNL A   1      43.730  27.796  33.390  1.00  0.00     0.034 A 
BRANCH  39  53
ATOM     53  C   UNL A   1      39.474  31.860  35.375  1.00  0.00     0.023 A 
ATOM     54  C   UNL A   1      39.887  33.203  35.437  1.00  0.00     0.031 A 
ATOM     55  C   UNL A   1      38.624  31.389  36.390  1.00  0.00     0.131 A 
ATOM     56  C   UNL A   1      39.523  34.000  36.532  1.00  0.00     0.055 A 
ATOM     57  C   UNL A   1      38.193  32.212  37.432  1.00  0.00     0.041 A 
ATOM     58  F   UNL A   1      38.211  30.111  36.397  1.00  0.00    -0.206 F 
ATOM     59  C   UNL A   1      38.658  33.522  37.518  1.00  0.00     0.022 A 
BRANCH  56  60
ATOM     60  S   UNL A   1      40.323  35.616  36.730  1.00  0.00     0.124 S 
ATOM     61  O   UNL A   1      39.973  35.950  38.108  1.00  0.00    -0.237 OA
ATOM     62  O   UNL A   1      41.727  35.305  36.485  1.00  0.00    -0.237 OA
ATOM     63  O   UNL A   1      39.679  36.444  35.713  1.00  0.00    -0.744 OA
ENDBRANCH  56  60
ENDBRANCH  39  53
BRANCH  40  64
ATOM     64  C   UNL A   1      42.512  26.217  27.663  1.00  0.00     0.023 A 
ATOM     65  C   UNL A   1      42.062  24.905  27.449  1.00  0.00     0.031 A 
ATOM     66  C   UNL A   1      43.468  26.739  26.774  1.00  0.00     0.131 A 
ATOM     67  C   UNL A   1      42.601  24.141  26.401  1.00  0.00     0.055 A 
ATOM     68  C   UNL A   1      43.965  25.994  25.703  1.00  0.00     0.041 A 
ATOM     69  F   UNL A   1      43.925  27.993  26.928  1.00  0.00    -0.206 F 
ATOM     70  C   UNL A   1      43.540  24.680  25.521  1.00  0.00     0.022 A 
BRANCH  67  71
ATOM     71  S   UNL A   1      42.110  22.401  26.254  1.00  0.00     0.124 S 
ATOM     72  O   UNL A   1      42.678  21.828  27.469  1.00  0.00    -0.237 OA
ATOM     73  O   UNL A   1      40.655  22.500  26.211  1.00  0.00    -0.237 OA
ATOM     74  O   UNL A   1      42.741  21.975  25.008  1.00  0.00    -0.744 OA
ENDBRANCH  67  71
ENDBRANCH  40  64
BRANCH  52  75
ATOM     75  C   UNL A   1      44.892  27.188  34.138  1.00  0.00     0.023 A 
ATOM     76  C   UNL A   1      44.726  26.081  34.988  1.00  0.00     0.031 A 
ATOM     77  C   UNL A   1      46.176  27.747  34.021  1.00  0.00     0.131 A 
ATOM     78  C   UNL A   1      45.813  25.606  35.736  1.00  0.00     0.055 A 
ATOM     79  C   UNL A   1      47.268  27.233  34.722  1.00  0.00     0.041 A 
ATOM     80  F   UNL A   1      46.391  28.808  33.226  1.00  0.00    -0.206 F 
ATOM     81  C   UNL A   1      47.087  26.166  35.598  1.00  0.00     0.022 A 
BRANCH  78  82
ATOM     82  S   UNL A   1      45.519  24.315  36.976  1.00  0.00     0.124 S 
ATOM     83  O   UNL A   1      46.472  24.675  38.021  1.00  0.00    -0.237 OA
ATOM     84  O   UNL A   1      44.111  24.512  37.302  1.00  0.00    -0.237 OA
ATOM     85  O   UNL A   1      45.822  23.077  36.260  1.00  0.00    -0.744 OA
ENDBRANCH  78  82
ENDBRANCH  52  75
ENDBRANCH  26  27
ENDBRANCH  18  21
ENDBRANCH  16  17
ENDBRANCH   1  16
TORSDOF 17
ENDMDL
MODEL 2
REMARK VINA RESULT:     -10.1      1.497      8.092
REMARK SMILES CC[NH+](CC)C[C@H](F)C(=O)NCCCNC(=O)c1ccc(-c2c3nc(c(-c4cc(S(=O)(=O)[O-])ccc4F)c4ccc([nH]4)c(-c4cc(S(=O)(=O)[O-])ccc4F)c4nc(c(-c5cc(S(=O)(=O)[O-])ccc5F)c5ccc2[nH]5)C=C4)C=C3)cc1
REMARK SMILES IDX 13 1 12 2 11 3 9 4 10 5 7 7 8 8 6 9 3 10 2 12 1 13 4 14 5 15
REMARK SMILES IDX 14 16 15 17 16 18 17 20 18 21 19 22 80 23 20 24 79 25 21 26
REMARK SMILES IDX 22 27 23 28 73 29 24 30 78 31 72 32 74 33 25 34 77 35 71 36
REMARK SMILES IDX 70 37 26 39 58 40 38 41 57 42 39 43 42 44 56 45 75 46 40 47
REMARK SMILES IDX 41 48 55 50 76 51 43 52 27 53 28 54 36 55 29 56 35 57 37 58
REMARK SMILES IDX 34 59 30 60 31 61 32 62 33 63 59 64 60 65 68 66 61 67 67 68
REMARK SMILES IDX 69 69 66 70 62 71 63 72 64 73 65 74 44 75 45 76 53 77 46 78
REMARK SMILES IDX 52 79 54 80 51 81 47 82 48 83 49 84 50 85
REMARK H PARENT 11 6 3 11 15 19 74 38 42 49
REMARK Flexibility Score: inf
ROOT
ATOM      1  C   UNL A   1      33.025  35.176  28.554  1.00  0.00     0.042 C 
ENDROOT
BRANCH   1   2
ATOM      2  C   UNL A   1      33.532  36.118  29.634  1.00  0.00     0.117 C 
BRANCH   2   3
ATOM      3  N   UNL A   1      32.541  36.368  30.664  1.00  0.00    -0.353 N 
ATOM      4  C   UNL A   1      32.731  36.620  31.991  1.00  0.00     0.260 C 
ATOM      5  O   UNL A   1      31.727  36.829  32.680  1.00  0.00    -0.271 OA
ATOM      6  H   UNL A   1      31.604  36.354  30.364  1.00  0.00     0.163 HD
BRANCH   4   7
ATOM      7  C   UNL A   1      34.130  36.682  32.587  1.00  0.00     0.309 C 
ATOM      8  F   UNL A   1      34.394  37.928  33.101  1.00  0.00    -0.230 F 
BRANCH   7   9
ATOM      9  C   UNL A   1      34.417  35.653  33.698  1.00  0.00     0.310 C 
BRANCH   9  10
ATOM     10  N   UNL A   1      34.869  34.275  33.437  1.00  0.00    -0.333 N 
ATOM     11  H   UNL A   1      34.011  33.752  33.617  1.00  0.00     0.348 HD
BRANCH  10  12
ATOM     12  C   UNL A   1      35.174  33.945  32.043  1.00  0.00     0.258 C 
ATOM     13  C   UNL A   1      34.711  32.547  31.644  1.00  0.00     0.071 C 
ENDBRANCH  10  12
BRANCH  10  14
ATOM     14  C   UNL A   1      35.834  33.737  34.397  1.00  0.00     0.258 C 
ATOM     15  C   UNL A   1      37.160  34.471  34.558  1.00  0.00     0.071 C 
ENDBRANCH  10  14
ENDBRANCH   9  10
ENDBRANCH   7   9
ENDBRANCH   4   7
ENDBRANCH   2   3
ENDBRANCH   1   2
BRANCH   1  16
ATOM     16  C   UNL A   1      33.796  33.865  28.451  1.00  0.00     0.118 C 
BRANCH  16  17
ATOM     17  N   UNL A   1      33.096  32.831  27.701  1.00  0.00    -0.352 N 
ATOM     18  C   UNL A   1      33.538  31.583  27.311  1.00  0.00     0.251 C 
ATOM     19  H   UNL A   1      32.174  33.053  27.435  1.00  0.00     0.163 HD
ATOM     20  O   UNL A   1      32.846  30.892  26.581  1.00  0.00    -0.269 OA
BRANCH  18  21
ATOM     21  C   UNL A   1      34.875  31.119  27.747  1.00  0.00     0.039 A 
ATOM     22  C   UNL A   1      35.903  32.054  27.891  1.00  0.00     0.014 A 
ATOM     23  C   UNL A   1      35.093  29.779  28.074  1.00  0.00     0.014 A 
ATOM     24  C   UNL A   1      37.116  31.660  28.462  1.00  0.00     0.010 A 
ATOM     25  C   UNL A   1      36.262  29.412  28.731  1.00  0.00     0.010 A 
ATOM     26  C   UNL A   1      37.285  30.350  28.942  1.00  0.00    -0.014 A 
BRANCH  26  27
ATOM     27  C   UNL A   1      38.512  29.948  29.680  1.00  0.00     0.031 A 
ATOM     28  C   UNL A   1      39.438  28.911  29.101  1.00  0.00     0.074 A 
ATOM     29  C   UNL A   1      38.748  30.455  30.907  1.00  0.00     0.049 A 
ATOM     30  N   UNL A   1      40.508  28.371  29.625  1.00  0.00    -0.248 NA
ATOM     31  C   UNL A   1      39.087  28.384  27.774  1.00  0.00     0.031 C 
ATOM     32  C   UNL A   1      37.888  31.414  31.608  1.00  0.00     0.029 A 
ATOM     33  N   UNL A   1      39.776  30.233  31.789  1.00  0.00    -0.354 N 
ATOM     34  C   UNL A   1      40.946  27.425  28.702  1.00  0.00     0.074 A 
ATOM     35  C   UNL A   1      39.982  27.420  27.622  1.00  0.00     0.031 C 
ATOM     36  C   UNL A   1      38.443  31.722  32.791  1.00  0.00     0.029 A 
ATOM     37  C   UNL A   1      39.672  30.955  32.957  1.00  0.00     0.049 A 
ATOM     38  H   UNL A   1      40.519  29.614  31.604  1.00  0.00     0.167 HD
ATOM     39  C   UNL A   1      42.061  26.654  28.738  1.00  0.00     0.034 A 
ATOM     40  C   UNL A   1      40.475  30.993  34.038  1.00  0.00     0.034 A 
ATOM     41  C   UNL A   1      43.024  26.690  29.812  1.00  0.00     0.049 A 
ATOM     42  C   UNL A   1      41.720  30.145  34.047  1.00  0.00     0.074 A 
ATOM     43  C   UNL A   1      44.218  26.000  29.925  1.00  0.00     0.029 A 
ATOM     44  N   UNL A   1      42.902  27.459  30.964  1.00  0.00    -0.354 N 
ATOM     45  N   UNL A   1      42.151  29.300  33.139  1.00  0.00    -0.248 NA
ATOM     46  C   UNL A   1      42.596  30.272  35.218  1.00  0.00     0.031 C 
ATOM     47  C   UNL A   1      44.789  26.309  31.165  1.00  0.00     0.029 A 
ATOM     48  C   UNL A   1      43.988  27.245  31.799  1.00  0.00     0.049 A 
ATOM     49  H   UNL A   1      42.153  28.068  31.158  1.00  0.00     0.167 HD
ATOM     50  C   UNL A   1      43.364  28.814  33.619  1.00  0.00     0.074 A 
ATOM     51  C   UNL A   1      43.603  29.478  34.885  1.00  0.00     0.031 C 
ATOM     52  C   UNL A   1      44.205  27.905  33.064  1.00  0.00     0.034 A 
BRANCH  39  53
ATOM     53  C   UNL A   1      42.279  25.699  27.587  1.00  0.00     0.023 A 
ATOM     54  C   UNL A   1      41.740  24.401  27.594  1.00  0.00     0.031 A 
ATOM     55  C   UNL A   1      43.069  26.075  26.487  1.00  0.00     0.131 A 
ATOM     56  C   UNL A   1      42.067  23.499  26.572  1.00  0.00     0.055 A 
ATOM     57  C   UNL A   1      43.320  25.200  25.427  1.00  0.00     0.041 A 
ATOM     58  F   UNL A   1      43.628  27.294  26.430  1.00  0.00    -0.206 F 
ATOM     59  C   UNL A   1      42.833  23.896  25.475  1.00  0.00     0.022 A 
BRANCH  56  60
ATOM     60  S   UNL A   1      41.608  21.756  26.776  1.00  0.00     0.124 S 
ATOM     61  O   UNL A   1      41.262  21.708  28.195  1.00  0.00    -0.237 OA
ATOM     62  O   UNL A   1      40.496  21.611  25.843  1.00  0.00    -0.237 OA
ATOM     63  O   UNL A   1      42.826  21.035  26.414  1.00  0.00    -0.744 OA
ENDBRANCH  56  60
ENDBRANCH  39  53
BRANCH  40  64
ATOM     64  C   UNL A   1      40.139  31.864  35.200  1.00  0.00     0.023 A 
ATOM     65  C   UNL A   1      39.211  31.450  36.169  1.00  0.00     0.031 A 
ATOM     66  C   UNL A   1      40.711  33.141  35.340  1.00  0.00     0.131 A 
ATOM     67  C   UNL A   1      38.846  32.321  37.208  1.00  0.00     0.055 A 
ATOM     68  C   UNL A   1      40.384  33.984  36.403  1.00  0.00     0.041 A 
ATOM     69  F   UNL A   1      41.612  33.582  34.447  1.00  0.00    -0.206 F 
ATOM     70  C   UNL A   1      39.435  33.580  37.338  1.00  0.00     0.022 A 
BRANCH  67  71
ATOM     71  S   UNL A   1      37.530  31.810  38.347  1.00  0.00     0.124 S 
ATOM     72  O   UNL A   1      36.477  32.769  38.033  1.00  0.00    -0.237 OA
ATOM     73  O   UNL A   1      37.288  30.433  37.931  1.00  0.00    -0.237 OA
ATOM     74  O   UNL A   1      38.142  31.963  39.664  1.00  0.00    -0.744 OA
ENDBRANCH  67  71
ENDBRANCH  40  64
BRANCH  52  75
ATOM     75  C   UNL A   1      45.483  27.615  33.814  1.00  0.00     0.023 A 
ATOM     76  C   UNL A   1      45.565  26.579  34.760  1.00  0.00     0.031 A 
ATOM     77  C   UNL A   1      46.623  28.407  33.599  1.00  0.00     0.131 A 
ATOM     78  C   UNL A   1      46.742  26.403  35.503  1.00  0.00     0.055 A 
ATOM     79  C   UNL A   1      47.812  28.190  34.297  1.00  0.00     0.041 A 
ATOM     80  F   UNL A   1      46.599  29.413  32.708  1.00  0.00    -0.206 F 
ATOM     81  C   UNL A   1      47.871  27.193  35.266  1.00  0.00     0.022 A 
BRANCH  78  82
ATOM     82  S   UNL A   1      46.744  25.198  36.858  1.00  0.00     0.124 S 
ATOM     83  O   UNL A   1      47.431  25.933  37.916  1.00  0.00    -0.237 OA
ATOM     84  O   UNL A   1      45.320  24.962  37.067  1.00  0.00    -0.237 OA
ATOM     85  O   UNL A   1      47.486  24.064  36.308  1.00  0.00    -0.744 OA
ENDBRANCH  78  82
ENDBRANCH  52  75
ENDBRANCH  26  27
ENDBRANCH  18  21
ENDBRANCH  16  17
ENDBRANCH   1  16
TORSDOF 17
ENDMDL
MODEL 3
REMARK VINA RESULT:     -10.1      2.514      3.025
REMARK SMILES CC[NH+](CC)C[C@H](F)C(=O)NCCCNC(=O)c1ccc(-c2c3nc(c(-c4cc(S(=O)(=O)[O-])ccc4F)c4ccc([nH]4)c(-c4cc(S(=O)(=O)[O-])ccc4F)c4nc(c(-c5cc(S(=O)(=O)[O-])ccc5F)c5ccc2[nH]5)C=C4)C=C3)cc1
REMARK SMILES IDX 13 1 12 2 11 3 9 4 10 5 7 7 8 8 6 9 3 10 2 12 1 13 4 14 5 15
REMARK SMILES IDX 14 16 15 17 16 18 17 20 18 21 19 22 80 23 20 24 79 25 21 26
REMARK SMILES IDX 22 27 23 28 73 29 24 30 78 31 72 32 74 33 25 34 77 35 71 36
REMARK SMILES IDX 70 37 26 39 58 40 38 41 57 42 39 43 42 44 56 45 75 46 40 47
REMARK SMILES IDX 41 48 55 50 76 51 43 52 27 53 28 54 36 55 29 56 35 57 37 58
REMARK SMILES IDX 34 59 30 60 31 61 32 62 33 63 59 64 60 65 68 66 61 67 67 68
REMARK SMILES IDX 69 69 66 70 62 71 63 72 64 73 65 74 44 75 45 76 53 77 46 78
REMARK SMILES IDX 52 79 54 80 51 81 47 82 48 83 49 84 50 85
REMARK H PARENT 11 6 3 11 15 19 74 38 42 49
REMARK Flexibility Score: inf
ROOT
ATOM      1  C   UNL A   1      33.167  34.400  28.668  1.00  0.00     0.042 C 
ENDROOT
BRANCH   1   2
ATOM      2  C   UNL A   1      33.580  35.547  29.577  1.00  0.00     0.117 C 
BRANCH   2   3
ATOM      3  N   UNL A   1      32.579  35.847  30.583  1.00  0.00    -0.353 N 
ATOM      4  C   UNL A   1      32.754  36.310  31.854  1.00  0.00     0.260 C 
ATOM      5  O   UNL A   1      31.741  36.518  32.529  1.00  0.00    -0.271 OA
ATOM      6  H   UNL A   1      31.645  35.697  30.311  1.00  0.00     0.163 HD
BRANCH   4   7
ATOM      7  C   UNL A   1      34.146  36.595  32.401  1.00  0.00     0.309 C 
ATOM      8  F   UNL A   1      34.173  37.784  33.088  1.00  0.00    -0.230 F 
BRANCH   7   9
ATOM      9  C   UNL A   1      34.722  35.511  33.332  1.00  0.00     0.310 C 
BRANCH   9  10
ATOM     10  N   UNL A   1      35.977  34.787  33.063  1.00  0.00    -0.333 N 
ATOM     11  H   UNL A   1      36.599  35.560  32.822  1.00  0.00     0.348 HD
BRANCH  10  12
ATOM     12  C   UNL A   1      36.636  34.177  34.220  1.00  0.00     0.258 C 
ATOM     13  C   UNL A   1      38.158  34.276  34.162  1.00  0.00     0.071 C 
ENDBRANCH  10  12
BRANCH  10  14
ATOM     14  C   UNL A   1      35.970  33.938  31.869  1.00  0.00     0.258 C 
ATOM     15  C   UNL A   1      35.521  32.490  32.031  1.00  0.00     0.071 C 
ENDBRANCH  10  14
ENDBRANCH   9  10
ENDBRANCH   7   9
ENDBRANCH   4   7
ENDBRANCH   2   3
ENDBRANCH   1   2
BRANCH   1  16
ATOM     16  C   UNL A   1      34.177  33.262  28.593  1.00  0.00     0.118 C 
BRANCH  16  17
ATOM     17  N   UNL A   1      33.727  32.130  27.794  1.00  0.00    -0.352 N 
ATOM     18  C   UNL A   1      34.345  30.917  27.571  1.00  0.00     0.251 C 
ATOM     19  H   UNL A   1      32.855  32.246  27.351  1.00  0.00     0.163 HD
ATOM     20  O   UNL A   1      33.868  30.127  26.771  1.00  0.00    -0.269 OA
BRANCH  18  21
ATOM     21  C   UNL A   1      35.613  30.609  28.272  1.00  0.00     0.039 A 
ATOM     22  C   UNL A   1      35.576  29.819  29.423  1.00  0.00     0.014 A 
ATOM     23  C   UNL A   1      36.836  31.046  27.757  1.00  0.00     0.014 A 
ATOM     24  C   UNL A   1      36.774  29.382  29.994  1.00  0.00     0.010 A 
ATOM     25  C   UNL A   1      38.021  30.530  28.268  1.00  0.00     0.010 A 
ATOM     26  C   UNL A   1      38.005  29.684  29.388  1.00  0.00    -0.014 A 
BRANCH  26  27
ATOM     27  C   UNL A   1      39.280  29.112  29.897  1.00  0.00     0.031 A 
ATOM     28  C   UNL A   1      39.982  29.748  31.067  1.00  0.00     0.074 A 
ATOM     29  C   UNL A   1      39.847  28.070  29.254  1.00  0.00     0.049 A 
ATOM     30  N   UNL A   1      41.136  29.449  31.604  1.00  0.00    -0.248 NA
ATOM     31  C   UNL A   1      39.312  30.901  31.687  1.00  0.00     0.031 C 
ATOM     32  C   UNL A   1      39.302  27.410  28.064  1.00  0.00     0.029 A 
ATOM     33  N   UNL A   1      41.011  27.386  29.503  1.00  0.00    -0.354 N 
ATOM     34  C   UNL A   1      41.342  30.389  32.610  1.00  0.00     0.074 A 
ATOM     35  C   UNL A   1      40.224  31.307  32.557  1.00  0.00     0.031 C 
ATOM     36  C   UNL A   1      40.110  26.398  27.711  1.00  0.00     0.029 A 
ATOM     37  C   UNL A   1      41.251  26.359  28.618  1.00  0.00     0.049 A 
ATOM     38  H   UNL A   1      41.617  27.609  30.246  1.00  0.00     0.167 HD
ATOM     39  C   UNL A   1      42.353  30.463  33.511  1.00  0.00     0.034 A 
ATOM     40  C   UNL A   1      42.277  25.488  28.544  1.00  0.00     0.034 A 
ATOM     41  C   UNL A   1      43.447  29.524  33.565  1.00  0.00     0.049 A 
ATOM     42  C   UNL A   1      43.377  25.574  29.569  1.00  0.00     0.074 A 
ATOM     43  C   UNL A   1      44.491  29.465  34.471  1.00  0.00     0.029 A 
ATOM     44  N   UNL A   1      43.640  28.476  32.673  1.00  0.00    -0.354 N 
ATOM     45  N   UNL A   1      43.526  26.433  30.551  1.00  0.00    -0.248 NA
ATOM     46  C   UNL A   1      44.437  24.561  29.487  1.00  0.00     0.031 C 
ATOM     47  C   UNL A   1      45.342  28.420  34.095  1.00  0.00     0.029 A 
ATOM     48  C   UNL A   1      44.795  27.780  32.995  1.00  0.00     0.049 A 
ATOM     49  H   UNL A   1      43.043  28.259  31.920  1.00  0.00     0.167 HD
ATOM     50  C   UNL A   1      44.683  26.046  31.221  1.00  0.00     0.074 A 
ATOM     51  C   UNL A   1      45.179  24.865  30.541  1.00  0.00     0.031 C 
ATOM     52  C   UNL A   1      45.282  26.612  32.299  1.00  0.00     0.034 A 
BRANCH  39  53
ATOM     53  C   UNL A   1      42.320  31.610  34.494  1.00  0.00     0.023 A 
ATOM     54  C   UNL A   1      41.464  31.601  35.610  1.00  0.00     0.031 A 
ATOM     55  C   UNL A   1      43.124  32.746  34.295  1.00  0.00     0.131 A 
ATOM     56  C   UNL A   1      41.366  32.734  36.430  1.00  0.00     0.055 A 
ATOM     57  C   UNL A   1      43.086  33.837  35.166  1.00  0.00     0.041 A 
ATOM     58  F   UNL A   1      43.947  32.824  33.238  1.00  0.00    -0.206 F 
ATOM     59  C   UNL A   1      42.189  33.844  36.231  1.00  0.00     0.022 A 
BRANCH  56  60
ATOM     60  S   UNL A   1      40.037  32.797  37.663  1.00  0.00     0.124 S 
ATOM     61  O   UNL A   1      39.131  31.762  37.171  1.00  0.00    -0.237 OA
ATOM     62  O   UNL A   1      40.742  32.492  38.903  1.00  0.00    -0.237 OA
ATOM     63  O   UNL A   1      39.531  34.163  37.552  1.00  0.00    -0.744 OA
ENDBRANCH  56  60
ENDBRANCH  39  53
BRANCH  40  64
ATOM     64  C   UNL A   1      42.315  24.454  27.470  1.00  0.00     0.023 A 
ATOM     65  C   UNL A   1      41.719  23.197  27.658  1.00  0.00     0.031 A 
ATOM     66  C   UNL A   1      42.982  24.693  26.256  1.00  0.00     0.131 A 
ATOM     67  C   UNL A   1      41.841  22.209  26.668  1.00  0.00     0.055 A 
ATOM     68  C   UNL A   1      43.058  23.725  25.253  1.00  0.00     0.041 A 
ATOM     69  F   UNL A   1      43.560  25.882  26.022  1.00  0.00    -0.206 F 
ATOM     70  C   UNL A   1      42.496  22.468  25.462  1.00  0.00     0.022 A 
BRANCH  67  71
ATOM     71  S   UNL A   1      41.194  20.550  27.013  1.00  0.00     0.124 S 
ATOM     72  O   UNL A   1      40.718  20.695  28.383  1.00  0.00    -0.237 OA
ATOM     73  O   UNL A   1      40.166  20.407  25.987  1.00  0.00    -0.237 OA
ATOM     74  O   UNL A   1      42.362  19.688  26.844  1.00  0.00    -0.744 OA
ENDBRANCH  67  71
ENDBRANCH  40  64
BRANCH  52  75
ATOM     75  C   UNL A   1      46.517  25.925  32.829  1.00  0.00     0.023 A 
ATOM     76  C   UNL A   1      47.776  26.102  32.230  1.00  0.00     0.031 A 
ATOM     77  C   UNL A   1      46.425  25.058  33.932  1.00  0.00     0.131 A 
ATOM     78  C   UNL A   1      48.880  25.373  32.695  1.00  0.00     0.055 A 
ATOM     79  C   UNL A   1      47.539  24.381  34.430  1.00  0.00     0.041 A 
ATOM     80  F   UNL A   1      45.246  24.850  34.541  1.00  0.00    -0.206 F 
ATOM     81  C   UNL A   1      48.772  24.524  33.801  1.00  0.00     0.022 A 
BRANCH  78  82
ATOM     82  S   UNL A   1      50.437  25.465  31.769  1.00  0.00     0.124 S 
ATOM     83  O   UNL A   1      50.768  24.054  31.592  1.00  0.00    -0.237 OA
ATOM     84  O   UNL A   1      50.039  26.183  30.563  1.00  0.00    -0.237 OA
ATOM     85  O   UNL A   1      51.326  26.203  32.665  1.00  0.00    -0.744 OA
ENDBRANCH  78  82
ENDBRANCH  52  75
ENDBRANCH  26  27
ENDBRANCH  18  21
ENDBRANCH  16  17
ENDBRANCH   1  16
TORSDOF 17
ENDMDL
