MODEL 1
REMARK VINA RESULT:     -13.2      0.000      0.000
REMARK SMILES C[C@]12CC[C@H]3[C@@H](CCC4=CC(=O)C=C[C@@]43C)[C@@H]1CC[C@H]2O[C@@H]1O[C@H](C(=O)NCCCNC(=O)c2ccc(-c3c4nc(c(-c5cc(S(=O)(=O)[O-])ccc5F)c5ccc([nH]5)c(-c5cc(S(=O)(=O)[O-])ccc5F)c5nc(c(-c6cc(S(=O)(=O)[O-])ccc6F)c6ccc3[nH]6)C=C5)C=C4)cc2)[C@@H](O)[C@H](O)[C@H]1O
REMARK SMILES IDX 29 1 28 2 27 3 25 4 26 5 24 7 22 8 23 9 101 10 99 11 97 12
REMARK SMILES IDX 21 13 20 14 1 15 2 16 3 17 17 18 4 19 6 20 18 21 19 22 5 23
REMARK SMILES IDX 7 24 15 25 8 26 9 27 14 28 16 29 10 30 13 31 11 32 12 33
REMARK SMILES IDX 102 34 100 36 98 38 30 40 31 41 32 42 33 44 34 45 35 46
REMARK SMILES IDX 96 47 36 48 95 49 37 50 38 51 39 52 89 53 40 54 94 55 88 56
REMARK SMILES IDX 90 57 41 58 93 59 87 60 86 61 42 63 74 64 54 65 73 66 55 67
REMARK SMILES IDX 58 68 72 69 91 70 56 71 57 72 71 74 92 75 59 76 43 77 44 78
REMARK SMILES IDX 52 79 45 80 51 81 53 82 50 83 46 84 47 85 48 86 49 87 75 88
REMARK SMILES IDX 76 89 84 90 77 91 83 92 85 93 82 94 78 95 79 96 80 97 81 98
REMARK SMILES IDX 60 99 61 100 69 101 62 102 68 103 70 104 67 105 63 106
REMARK SMILES IDX 64 107 65 108 66 109
REMARK H PARENT 27 6 102 35 100 37 98 39 31 43 90 62 58 73
REMARK Flexibility Score: inf
ROOT
ATOM      1  C   UNL A   1      46.749  36.752  26.235  1.00  0.00     0.042 C 
ENDROOT
BRANCH   1   2
ATOM      2  C   UNL A   1      46.145  38.711  26.718  1.00  0.00     0.117 C 
BRANCH   2   3
ATOM      3  N   UNL A   1      45.913  39.576  27.952  1.00  0.00    -0.354 N 
ATOM      4  C   UNL A   1      44.963  40.514  28.285  1.00  0.00     0.252 C 
ATOM      5  O   UNL A   1      45.009  40.949  29.446  1.00  0.00    -0.272 OA
ATOM      6  H   UNL A   1      46.584  39.435  28.658  1.00  0.00     0.163 HD
BRANCH   4   7
ATOM      7  C   UNL A   1      43.851  41.050  27.331  1.00  0.00     0.241 C 
ATOM      8  C   UNL A   1      43.334  42.345  25.337  1.00  0.00     0.282 C 
ATOM      9  O   UNL A   1      44.325  41.796  26.214  1.00  0.00    -0.334 OA
ATOM     10  C   UNL A   1      42.134  41.408  25.006  1.00  0.00     0.202 C 
ATOM     11  C   UNL A   1      41.685  40.556  26.200  1.00  0.00     0.180 C 
ATOM     12  C   UNL A   1      42.888  39.934  26.916  1.00  0.00     0.184 C 
BRANCH   8  13
ATOM     13  O   UNL A   1      43.905  42.975  24.166  1.00  0.00    -0.346 OA
BRANCH  13  14
ATOM     14  C   UNL A   1      45.288  42.966  23.745  1.00  0.00     0.127 C 
ATOM     15  C   UNL A   1      47.032  42.827  21.871  1.00  0.00     0.014 C 
ATOM     16  C   UNL A   1      45.592  43.308  22.260  1.00  0.00    -0.003 C 
ATOM     17  C   UNL A   1      44.656  42.649  21.206  1.00  0.00     0.010 C 
ATOM     18  C   UNL A   1      45.548  44.847  22.419  1.00  0.00     0.001 C 
ATOM     19  C   UNL A   1      44.740  43.249  19.772  1.00  0.00     0.006 C 
ATOM     20  C   UNL A   1      45.681  45.566  21.118  1.00  0.00    -0.003 C 
ATOM     21  C   UNL A   1      46.467  45.148  23.593  1.00  0.00     0.007 C 
ATOM     22  C   UNL A   1      46.235  43.925  24.520  1.00  0.00     0.033 C 
ATOM     23  C   UNL A   1      44.393  44.731  19.876  1.00  0.00     0.006 C 
ATOM     24  C   UNL A   1      45.779  47.527  21.171  1.00  0.00     0.009 C 
ATOM     25  C   UNL A   1      43.838  45.695  18.265  1.00  0.00     0.010 C 
ATOM     26  C   UNL A   1      45.176  48.480  19.556  1.00  0.00     0.032 C 
ATOM     27  C   UNL A   1      44.071  47.589  18.260  1.00  0.00    -0.056 C 
ATOM     28  C   UNL A   1      42.373  45.419  17.867  1.00  0.00    -0.012 C 
ATOM     29  C   UNL A   1      44.414  45.080  16.929  1.00  0.00     0.021 C 
ATOM     30  C   UNL A   1      43.150  48.315  17.598  1.00  0.00     0.052 C 
ATOM     31  C   UNL A   1      41.598  46.297  17.206  1.00  0.00     0.048 C 
ATOM     32  C   UNL A   1      41.974  47.708  16.914  1.00  0.00     0.178 C 
ATOM     33  O   UNL A   1      41.239  48.406  16.220  1.00  0.00    -0.290 OA
ENDBRANCH  13  14
ENDBRANCH   8  13
BRANCH  10  34
ATOM     34  O   UNL A   1      41.005  42.121  24.475  1.00  0.00    -0.385 OA
ATOM     35  H   UNL A   1      40.361  42.280  25.182  1.00  0.00     0.211 HD
ENDBRANCH  10  34
BRANCH  11  36
ATOM     36  O   UNL A   1      40.803  39.500  25.772  1.00  0.00    -0.387 OA
ATOM     37  H   UNL A   1      41.250  38.645  25.875  1.00  0.00     0.211 HD
ENDBRANCH  11  36
BRANCH  12  38
ATOM     38  O   UNL A   1      42.471  39.140  28.029  1.00  0.00    -0.387 OA
ATOM     39  H   UNL A   1      42.721  38.215  27.878  1.00  0.00     0.211 HD
ENDBRANCH  12  38
ENDBRANCH   4   7
ENDBRANCH   2   3
ENDBRANCH   1   2
BRANCH   1  40
ATOM     40  C   UNL A   1      46.465  35.257  25.674  1.00  0.00     0.118 C 
BRANCH  40  41
ATOM     41  N   UNL A   1      45.504  34.769  24.731  1.00  0.00    -0.352 N 
ATOM     42  C   UNL A   1      44.387  34.052  25.153  1.00  0.00     0.251 C 
ATOM     43  H   UNL A   1      45.636  34.942  23.771  1.00  0.00     0.163 HD
ATOM     44  O   UNL A   1      43.801  33.294  24.384  1.00  0.00    -0.269 OA
BRANCH  42  45
ATOM     45  C   UNL A   1      43.950  34.197  26.572  1.00  0.00     0.039 A 
ATOM     46  C   UNL A   1      44.234  33.213  27.519  1.00  0.00     0.014 A 
ATOM     47  C   UNL A   1      43.312  35.378  26.968  1.00  0.00     0.014 A 
ATOM     48  C   UNL A   1      43.864  33.416  28.856  1.00  0.00     0.010 A 
ATOM     49  C   UNL A   1      43.072  35.634  28.313  1.00  0.00     0.010 A 
ATOM     50  C   UNL A   1      43.276  34.627  29.265  1.00  0.00    -0.014 A 
BRANCH  50  51
ATOM     51  C   UNL A   1      42.746  34.805  30.645  1.00  0.00     0.031 A 
ATOM     52  C   UNL A   1      41.297  34.472  30.923  1.00  0.00     0.074 A 
ATOM     53  C   UNL A   1      43.544  35.256  31.634  1.00  0.00     0.049 A 
ATOM     54  N   UNL A   1      40.626  34.542  32.043  1.00  0.00    -0.248 NA
ATOM     55  C   UNL A   1      40.482  34.039  29.774  1.00  0.00     0.031 C 
ATOM     56  C   UNL A   1      44.943  35.658  31.470  1.00  0.00     0.029 A 
ATOM     57  N   UNL A   1      43.304  35.437  32.972  1.00  0.00    -0.354 N 
ATOM     58  C   UNL A   1      39.319  34.179  31.726  1.00  0.00     0.074 A 
ATOM     59  C   UNL A   1      39.269  33.989  30.297  1.00  0.00     0.031 C 
ATOM     60  C   UNL A   1      45.452  35.982  32.670  1.00  0.00     0.029 A 
ATOM     61  C   UNL A   1      44.408  35.855  33.683  1.00  0.00     0.049 A 
ATOM     62  H   UNL A   1      42.426  35.283  33.387  1.00  0.00     0.167 HD
ATOM     63  C   UNL A   1      38.265  33.975  32.554  1.00  0.00     0.034 A 
ATOM     64  C   UNL A   1      44.558  36.097  35.000  1.00  0.00     0.034 A 
ATOM     65  C   UNL A   1      38.349  34.140  33.982  1.00  0.00     0.049 A 
ATOM     66  C   UNL A   1      43.371  35.874  35.907  1.00  0.00     0.074 A 
ATOM     67  C   UNL A   1      37.372  33.919  34.936  1.00  0.00     0.029 A 
ATOM     68  N   UNL A   1      39.482  34.572  34.662  1.00  0.00    -0.354 N 
ATOM     69  N   UNL A   1      42.159  35.473  35.596  1.00  0.00    -0.248 NA
ATOM     70  C   UNL A   1      43.575  36.120  37.339  1.00  0.00     0.031 C 
ATOM     71  C   UNL A   1      37.891  34.291  36.181  1.00  0.00     0.029 A 
ATOM     72  C   UNL A   1      39.219  34.656  36.018  1.00  0.00     0.049 A 
ATOM     73  H   UNL A   1      40.345  34.787  34.240  1.00  0.00     0.167 HD
ATOM     74  C   UNL A   1      41.465  35.390  36.801  1.00  0.00     0.074 A 
ATOM     75  C   UNL A   1      42.403  35.761  37.842  1.00  0.00     0.031 C 
ATOM     76  C   UNL A   1      40.174  35.038  37.031  1.00  0.00     0.034 A 
BRANCH  63  77
ATOM     77  C   UNL A   1      36.947  33.574  31.928  1.00  0.00     0.023 A 
ATOM     78  C   UNL A   1      35.911  34.504  31.718  1.00  0.00     0.031 A 
ATOM     79  C   UNL A   1      36.702  32.235  31.576  1.00  0.00     0.131 A 
ATOM     80  C   UNL A   1      34.658  34.070  31.262  1.00  0.00     0.055 A 
ATOM     81  C   UNL A   1      35.482  31.826  31.033  1.00  0.00     0.041 A 
ATOM     82  F   UNL A   1      37.638  31.294  31.774  1.00  0.00    -0.206 F 
ATOM     83  C   UNL A   1      34.444  32.743  30.890  1.00  0.00     0.022 A 
BRANCH  80  84
ATOM     84  S   UNL A   1      33.266  35.233  31.318  1.00  0.00     0.124 S 
ATOM     85  O   UNL A   1      32.589  34.941  30.056  1.00  0.00    -0.237 OA
ATOM     86  O   UNL A   1      32.562  34.826  32.528  1.00  0.00    -0.237 OA
ATOM     87  O   UNL A   1      33.914  36.541  31.380  1.00  0.00    -0.744 OA
ENDBRANCH  80  84
ENDBRANCH  63  77
BRANCH  64  88
ATOM     88  C   UNL A   1      45.869  36.563  35.547  1.00  0.00     0.023 A 
ATOM     89  C   UNL A   1      46.837  35.651  35.999  1.00  0.00     0.031 A 
ATOM     90  C   UNL A   1      46.160  37.936  35.660  1.00  0.00     0.131 A 
ATOM     91  C   UNL A   1      48.026  36.119  36.584  1.00  0.00     0.055 A 
ATOM     92  C   UNL A   1      47.368  38.396  36.188  1.00  0.00     0.041 A 
ATOM     93  F   UNL A   1      45.275  38.854  35.243  1.00  0.00    -0.206 F 
ATOM     94  C   UNL A   1      48.305  37.485  36.666  1.00  0.00     0.022 A 
BRANCH  91  95
ATOM     95  S   UNL A   1      49.164  34.917  37.325  1.00  0.00     0.124 S 
ATOM     96  O   UNL A   1      49.280  33.924  36.263  1.00  0.00    -0.237 OA
ATOM     97  O   UNL A   1      50.346  35.733  37.574  1.00  0.00    -0.237 OA
ATOM     98  O   UNL A   1      48.454  34.470  38.522  1.00  0.00    -0.744 OA
ENDBRANCH  91  95
ENDBRANCH  64  88
BRANCH  76  99
ATOM     99  C   UNL A   1      39.721  35.000  38.470  1.00  0.00     0.023 A 
ATOM    100  C   UNL A   1      39.700  33.804  39.206  1.00  0.00     0.031 A 
ATOM    101  C   UNL A   1      39.308  36.182  39.111  1.00  0.00     0.131 A 
ATOM    102  C   UNL A   1      39.213  33.804  40.520  1.00  0.00     0.055 A 
ATOM    103  C   UNL A   1      38.895  36.188  40.443  1.00  0.00     0.041 A 
ATOM    104  F   UNL A   1      39.307  37.353  38.454  1.00  0.00    -0.206 F 
ATOM    105  C   UNL A   1      38.832  34.992  41.151  1.00  0.00     0.022 A 
BRANCH 102 106
ATOM    106  S   UNL A   1      38.980  32.213  41.357  1.00  0.00     0.124 S 
ATOM    107  O   UNL A   1      38.388  32.623  42.626  1.00  0.00    -0.237 OA
ATOM    108  O   UNL A   1      38.094  31.505  40.439  1.00  0.00    -0.237 OA
ATOM    109  O   UNL A   1      40.336  31.674  41.450  1.00  0.00    -0.744 OA
ENDBRANCH 102 106
ENDBRANCH  76  99
ENDBRANCH  50  51
ENDBRANCH  42  45
ENDBRANCH  40  41
ENDBRANCH   1  40
TORSDOF 18
ENDMDL
MODEL 2
REMARK VINA RESULT:     -12.7      9.926     17.725
REMARK SMILES C[C@]12CC[C@H]3[C@@H](CCC4=CC(=O)C=C[C@@]43C)[C@@H]1CC[C@H]2O[C@@H]1O[C@H](C(=O)NCCCNC(=O)c2ccc(-c3c4nc(c(-c5cc(S(=O)(=O)[O-])ccc5F)c5ccc([nH]5)c(-c5cc(S(=O)(=O)[O-])ccc5F)c5nc(c(-c6cc(S(=O)(=O)[O-])ccc6F)c6ccc3[nH]6)C=C5)C=C4)cc2)[C@@H](O)[C@H](O)[C@H]1O
REMARK SMILES IDX 29 1 28 2 27 3 25 4 26 5 24 7 22 8 23 9 101 10 99 11 97 12
REMARK SMILES IDX 21 13 20 14 1 15 2 16 3 17 17 18 4 19 6 20 18 21 19 22 5 23
REMARK SMILES IDX 7 24 15 25 8 26 9 27 14 28 16 29 10 30 13 31 11 32 12 33
REMARK SMILES IDX 102 34 100 36 98 38 30 40 31 41 32 42 33 44 34 45 35 46
REMARK SMILES IDX 96 47 36 48 95 49 37 50 38 51 39 52 89 53 40 54 94 55 88 56
REMARK SMILES IDX 90 57 41 58 93 59 87 60 86 61 42 63 74 64 54 65 73 66 55 67
REMARK SMILES IDX 58 68 72 69 91 70 56 71 57 72 71 74 92 75 59 76 43 77 44 78
REMARK SMILES IDX 52 79 45 80 51 81 53 82 50 83 46 84 47 85 48 86 49 87 75 88
REMARK SMILES IDX 76 89 84 90 77 91 83 92 85 93 82 94 78 95 79 96 80 97 81 98
REMARK SMILES IDX 60 99 61 100 69 101 62 102 68 103 70 104 67 105 63 106
REMARK SMILES IDX 64 107 65 108 66 109
REMARK H PARENT 27 6 102 35 100 37 98 39 31 43 90 62 58 73
REMARK Flexibility Score: inf
ROOT
ATOM      1  C   UNL A   1      38.357  19.615  25.372  1.00  0.00     0.042 C 
ENDROOT
BRANCH   1   2
ATOM      2  C   UNL A   1      36.715  18.455  24.745  1.00  0.00     0.117 C 
BRANCH   2   3
ATOM      3  N   UNL A   1      35.779  17.386  25.298  1.00  0.00    -0.354 N 
ATOM      4  C   UNL A   1      34.428  17.153  25.172  1.00  0.00     0.252 C 
ATOM      5  O   UNL A   1      34.007  16.100  25.673  1.00  0.00    -0.272 OA
ATOM      6  H   UNL A   1      36.236  16.723  25.864  1.00  0.00     0.163 HD
BRANCH   4   7
ATOM      7  C   UNL A   1      33.414  18.096  24.452  1.00  0.00     0.241 C 
ATOM      8  C   UNL A   1      32.604  20.372  24.167  1.00  0.00     0.282 C 
ATOM      9  O   UNL A   1      33.545  19.477  24.772  1.00  0.00    -0.334 OA
ATOM     10  C   UNL A   1      32.285  20.100  22.667  1.00  0.00     0.202 C 
ATOM     11  C   UNL A   1      32.222  18.606  22.323  1.00  0.00     0.180 C 
ATOM     12  C   UNL A   1      33.402  17.849  22.940  1.00  0.00     0.184 C 
BRANCH   8  13
ATOM     13  O   UNL A   1      32.889  21.763  24.446  1.00  0.00    -0.346 OA
BRANCH  13  14
ATOM     14  C   UNL A   1      34.123  22.328  24.945  1.00  0.00     0.127 C 
ATOM     15  C   UNL A   1      35.946  24.125  24.821  1.00  0.00     0.014 C 
ATOM     16  C   UNL A   1      34.426  23.813  24.605  1.00  0.00    -0.003 C 
ATOM     17  C   UNL A   1      34.137  24.246  23.140  1.00  0.00     0.010 C 
ATOM     18  C   UNL A   1      33.569  24.434  25.735  1.00  0.00     0.001 C 
ATOM     19  C   UNL A   1      34.113  25.783  22.891  1.00  0.00     0.006 C 
ATOM     20  C   UNL A   1      33.505  25.923  25.661  1.00  0.00    -0.003 C 
ATOM     21  C   UNL A   1      34.011  23.717  27.003  1.00  0.00     0.007 C 
ATOM     22  C   UNL A   1      34.309  22.283  26.489  1.00  0.00     0.033 C 
ATOM     23  C   UNL A   1      33.039  26.377  23.797  1.00  0.00     0.006 C 
ATOM     24  C   UNL A   1      32.566  26.864  27.106  1.00  0.00     0.009 C 
ATOM     25  C   UNL A   1      32.316  28.148  23.384  1.00  0.00     0.010 C 
ATOM     26  C   UNL A   1      31.809  28.626  26.659  1.00  0.00     0.032 C 
ATOM     27  C   UNL A   1      31.534  29.126  24.824  1.00  0.00    -0.056 C 
ATOM     28  C   UNL A   1      31.284  28.130  22.237  1.00  0.00    -0.012 C 
ATOM     29  C   UNL A   1      33.320  29.073  22.590  1.00  0.00     0.021 C 
ATOM     30  C   UNL A   1      30.482  29.913  24.526  1.00  0.00     0.052 C 
ATOM     31  C   UNL A   1      30.277  29.013  22.121  1.00  0.00     0.048 C 
ATOM     32  C   UNL A   1      29.907  30.020  23.155  1.00  0.00     0.178 C 
ATOM     33  O   UNL A   1      29.033  30.848  22.918  1.00  0.00    -0.290 OA
ENDBRANCH  13  14
ENDBRANCH   8  13
BRANCH  10  34
ATOM     34  O   UNL A   1      31.073  20.742  22.233  1.00  0.00    -0.385 OA
ATOM     35  H   UNL A   1      31.192  21.084  21.334  1.00  0.00     0.211 HD
ENDBRANCH  10  34
BRANCH  11  36
ATOM     36  O   UNL A   1      32.239  18.408  20.896  1.00  0.00    -0.387 OA
ATOM     37  H   UNL A   1      32.563  17.515  20.698  1.00  0.00     0.211 HD
ENDBRANCH  11  36
BRANCH  12  38
ATOM     38  O   UNL A   1      33.345  16.458  22.622  1.00  0.00    -0.387 OA
ATOM     39  H   UNL A   1      33.261  16.348  21.662  1.00  0.00     0.211 HD
ENDBRANCH  12  38
ENDBRANCH   4   7
ENDBRANCH   2   3
ENDBRANCH   1   2
BRANCH   1  40
ATOM     40  C   UNL A   1      39.837  19.783  26.015  1.00  0.00     0.118 C 
BRANCH  40  41
ATOM     41  N   UNL A   1      40.952  18.885  26.066  1.00  0.00    -0.352 N 
ATOM     42  C   UNL A   1      42.258  19.363  26.011  1.00  0.00     0.251 C 
ATOM     43  H   UNL A   1      40.791  17.917  26.140  1.00  0.00     0.163 HD
ATOM     44  O   UNL A   1      43.177  18.635  25.643  1.00  0.00    -0.269 OA
BRANCH  42  45
ATOM     45  C   UNL A   1      42.504  20.790  26.370  1.00  0.00     0.039 A 
ATOM     46  C   UNL A   1      42.640  21.769  25.385  1.00  0.00     0.014 A 
ATOM     47  C   UNL A   1      42.519  21.157  27.720  1.00  0.00     0.014 A 
ATOM     48  C   UNL A   1      42.804  23.109  25.763  1.00  0.00     0.010 A 
ATOM     49  C   UNL A   1      42.543  22.498  28.087  1.00  0.00     0.010 A 
ATOM     50  C   UNL A   1      42.760  23.485  27.118  1.00  0.00    -0.014 A 
BRANCH  50  51
ATOM     51  C   UNL A   1      43.076  24.877  27.548  1.00  0.00     0.031 A 
ATOM     52  C   UNL A   1      44.478  25.407  27.343  1.00  0.00     0.074 A 
ATOM     53  C   UNL A   1      42.128  25.652  28.109  1.00  0.00     0.049 A 
ATOM     54  N   UNL A   1      44.974  26.582  27.631  1.00  0.00    -0.248 NA
ATOM     55  C   UNL A   1      45.465  24.474  26.774  1.00  0.00     0.031 C 
ATOM     56  C   UNL A   1      40.757  25.228  28.403  1.00  0.00     0.029 A 
ATOM     57  N   UNL A   1      42.162  26.961  28.520  1.00  0.00    -0.354 N 
ATOM     58  C   UNL A   1      46.324  26.517  27.292  1.00  0.00     0.074 A 
ATOM     59  C   UNL A   1      46.589  25.162  26.874  1.00  0.00     0.031 C 
ATOM     60  C   UNL A   1      40.067  26.272  28.890  1.00  0.00     0.029 A 
ATOM     61  C   UNL A   1      40.954  27.428  28.987  1.00  0.00     0.049 A 
ATOM     62  H   UNL A   1      42.974  27.515  28.483  1.00  0.00     0.167 HD
ATOM     63  C   UNL A   1      47.250  27.508  27.284  1.00  0.00     0.034 A 
ATOM     64  C   UNL A   1      40.604  28.652  29.433  1.00  0.00     0.034 A 
ATOM     65  C   UNL A   1      46.951  28.861  27.675  1.00  0.00     0.049 A 
ATOM     66  C   UNL A   1      41.651  29.741  29.425  1.00  0.00     0.074 A 
ATOM     67  C   UNL A   1      47.783  29.966  27.666  1.00  0.00     0.029 A 
ATOM     68  N   UNL A   1      45.718  29.292  28.149  1.00  0.00    -0.354 N 
ATOM     69  N   UNL A   1      42.907  29.675  29.045  1.00  0.00    -0.248 NA
ATOM     70  C   UNL A   1      41.231  31.068  29.890  1.00  0.00     0.031 C 
ATOM     71  C   UNL A   1      47.076  31.045  28.206  1.00  0.00     0.029 A 
ATOM     72  C   UNL A   1      45.776  30.638  28.468  1.00  0.00     0.049 A 
ATOM     73  H   UNL A   1      44.921  28.723  28.246  1.00  0.00     0.167 HD
ATOM     74  C   UNL A   1      43.418  30.962  29.197  1.00  0.00     0.074 A 
ATOM     75  C   UNL A   1      42.325  31.783  29.681  1.00  0.00     0.031 C 
ATOM     76  C   UNL A   1      44.671  31.428  28.957  1.00  0.00     0.034 A 
BRANCH  63  77
ATOM     77  C   UNL A   1      48.657  27.150  26.858  1.00  0.00     0.023 A 
ATOM     78  C   UNL A   1      49.678  26.908  27.797  1.00  0.00     0.031 A 
ATOM     79  C   UNL A   1      48.998  27.093  25.495  1.00  0.00     0.131 A 
ATOM     80  C   UNL A   1      50.998  26.713  27.365  1.00  0.00     0.055 A 
ATOM     81  C   UNL A   1      50.296  26.804  25.070  1.00  0.00     0.041 A 
ATOM     82  F   UNL A   1      48.077  27.337  24.549  1.00  0.00    -0.206 F 
ATOM     83  C   UNL A   1      51.310  26.630  26.008  1.00  0.00     0.022 A 
BRANCH  80  84
ATOM     84  S   UNL A   1      52.326  26.734  28.603  1.00  0.00     0.124 S 
ATOM     85  O   UNL A   1      52.644  28.159  28.666  1.00  0.00    -0.237 OA
ATOM     86  O   UNL A   1      51.671  26.173  29.778  1.00  0.00    -0.237 OA
ATOM     87  O   UNL A   1      53.364  25.897  28.006  1.00  0.00    -0.744 OA
ENDBRANCH  80  84
ENDBRANCH  63  77
BRANCH  64  88
ATOM     88  C   UNL A   1      39.213  28.922  29.910  1.00  0.00     0.023 A 
ATOM     89  C   UNL A   1      38.246  29.481  29.059  1.00  0.00     0.031 A 
ATOM     90  C   UNL A   1      38.840  28.659  31.241  1.00  0.00     0.131 A 
ATOM     91  C   UNL A   1      36.971  29.801  29.557  1.00  0.00     0.055 A 
ATOM     92  C   UNL A   1      37.554  28.924  31.717  1.00  0.00     0.041 A 
ATOM     93  F   UNL A   1      39.722  28.123  32.100  1.00  0.00    -0.206 F 
ATOM     94  C   UNL A   1      36.614  29.510  30.876  1.00  0.00     0.022 A 
BRANCH  91  95
ATOM     95  S   UNL A   1      35.814  30.692  28.481  1.00  0.00     0.124 S 
ATOM     96  O   UNL A   1      35.191  29.597  27.745  1.00  0.00    -0.237 OA
ATOM     97  O   UNL A   1      34.968  31.378  29.451  1.00  0.00    -0.237 OA
ATOM     98  O   UNL A   1      36.685  31.560  27.691  1.00  0.00    -0.744 OA
ENDBRANCH  91  95
ENDBRANCH  64  88
BRANCH  76  99
ATOM     99  C   UNL A   1      44.907  32.901  29.180  1.00  0.00     0.023 A 
ATOM    100  C   UNL A   1      44.810  33.831  28.132  1.00  0.00     0.031 A 
ATOM    101  C   UNL A   1      45.233  33.378  30.462  1.00  0.00     0.131 A 
ATOM    102  C   UNL A   1      45.099  35.181  28.369  1.00  0.00     0.055 A 
ATOM    103  C   UNL A   1      45.446  34.734  30.708  1.00  0.00     0.041 A 
ATOM    104  F   UNL A   1      45.341  32.533  31.500  1.00  0.00    -0.206 F 
ATOM    105  C   UNL A   1      45.394  35.643  29.655  1.00  0.00     0.022 A 
BRANCH 102 106
ATOM    106  S   UNL A   1      45.191  36.309  26.953  1.00  0.00     0.124 S 
ATOM    107  O   UNL A   1      43.844  36.869  26.925  1.00  0.00    -0.237 OA
ATOM    108  O   UNL A   1      46.255  37.225  27.353  1.00  0.00    -0.237 OA
ATOM    109  O   UNL A   1      45.520  35.428  25.835  1.00  0.00    -0.744 OA
ENDBRANCH 102 106
ENDBRANCH  76  99
ENDBRANCH  50  51
ENDBRANCH  42  45
ENDBRANCH  40  41
ENDBRANCH   1  40
TORSDOF 18
ENDMDL
MODEL 3
REMARK VINA RESULT:     -12.6      9.999     16.753
REMARK SMILES C[C@]12CC[C@H]3[C@@H](CCC4=CC(=O)C=C[C@@]43C)[C@@H]1CC[C@H]2O[C@@H]1O[C@H](C(=O)NCCCNC(=O)c2ccc(-c3c4nc(c(-c5cc(S(=O)(=O)[O-])ccc5F)c5ccc([nH]5)c(-c5cc(S(=O)(=O)[O-])ccc5F)c5nc(c(-c6cc(S(=O)(=O)[O-])ccc6F)c6ccc3[nH]6)C=C5)C=C4)cc2)[C@@H](O)[C@H](O)[C@H]1O
REMARK SMILES IDX 29 1 28 2 27 3 25 4 26 5 24 7 22 8 23 9 101 10 99 11 97 12
REMARK SMILES IDX 21 13 20 14 1 15 2 16 3 17 17 18 4 19 6 20 18 21 19 22 5 23
REMARK SMILES IDX 7 24 15 25 8 26 9 27 14 28 16 29 10 30 13 31 11 32 12 33
REMARK SMILES IDX 102 34 100 36 98 38 30 40 31 41 32 42 33 44 34 45 35 46
REMARK SMILES IDX 96 47 36 48 95 49 37 50 38 51 39 52 89 53 40 54 94 55 88 56
REMARK SMILES IDX 90 57 41 58 93 59 87 60 86 61 42 63 74 64 54 65 73 66 55 67
REMARK SMILES IDX 58 68 72 69 91 70 56 71 57 72 71 74 92 75 59 76 43 77 44 78
REMARK SMILES IDX 52 79 45 80 51 81 53 82 50 83 46 84 47 85 48 86 49 87 75 88
REMARK SMILES IDX 76 89 84 90 77 91 83 92 85 93 82 94 78 95 79 96 80 97 81 98
REMARK SMILES IDX 60 99 61 100 69 101 62 102 68 103 70 104 67 105 63 106
REMARK SMILES IDX 64 107 65 108 66 109
REMARK H PARENT 27 6 102 35 100 37 98 39 31 43 90 62 58 73
REMARK Flexibility Score: inf
ROOT
ATOM      1  C   UNL A   1      38.224  19.573  25.102  1.00  0.00     0.042 C 
ENDROOT
BRANCH   1   2
ATOM      2  C   UNL A   1      36.497  18.484  24.587  1.00  0.00     0.117 C 
BRANCH   2   3
ATOM      3  N   UNL A   1      35.525  17.494  25.221  1.00  0.00    -0.354 N 
ATOM      4  C   UNL A   1      34.163  17.319  25.136  1.00  0.00     0.252 C 
ATOM      5  O   UNL A   1      33.705  16.317  25.706  1.00  0.00    -0.272 OA
ATOM      6  H   UNL A   1      35.964  16.844  25.816  1.00  0.00     0.163 HD
BRANCH   4   7
ATOM      7  C   UNL A   1      33.177  18.265  24.382  1.00  0.00     0.241 C 
ATOM      8  C   UNL A   1      32.415  20.550  24.039  1.00  0.00     0.282 C 
ATOM      9  O   UNL A   1      33.330  19.650  24.676  1.00  0.00    -0.334 OA
ATOM     10  C   UNL A   1      32.112  20.253  22.540  1.00  0.00     0.202 C 
ATOM     11  C   UNL A   1      32.026  18.754  22.226  1.00  0.00     0.180 C 
ATOM     12  C   UNL A   1      33.183  17.988  22.875  1.00  0.00     0.184 C 
BRANCH   8  13
ATOM     13  O   UNL A   1      32.722  21.941  24.294  1.00  0.00    -0.346 OA
BRANCH  13  14
ATOM     14  C   UNL A   1      33.964  22.494  24.787  1.00  0.00     0.127 C 
ATOM     15  C   UNL A   1      35.791  24.288  24.671  1.00  0.00     0.014 C 
ATOM     16  C   UNL A   1      34.267  23.984  24.469  1.00  0.00    -0.003 C 
ATOM     17  C   UNL A   1      33.961  24.443  23.014  1.00  0.00     0.010 C 
ATOM     18  C   UNL A   1      33.426  24.588  25.620  1.00  0.00     0.001 C 
ATOM     19  C   UNL A   1      33.938  25.983  22.792  1.00  0.00     0.006 C 
ATOM     20  C   UNL A   1      33.365  26.078  25.571  1.00  0.00    -0.003 C 
ATOM     21  C   UNL A   1      33.881  23.848  26.869  1.00  0.00     0.007 C 
ATOM     22  C   UNL A   1      34.168  22.423  26.327  1.00  0.00     0.033 C 
ATOM     23  C   UNL A   1      32.877  26.564  23.721  1.00  0.00     0.006 C 
ATOM     24  C   UNL A   1      32.447  26.997  27.044  1.00  0.00     0.009 C 
ATOM     25  C   UNL A   1      32.154  28.345  23.347  1.00  0.00     0.010 C 
ATOM     26  C   UNL A   1      31.689  28.768  26.636  1.00  0.00     0.032 C 
ATOM     27  C   UNL A   1      31.392  29.300  24.813  1.00  0.00    -0.056 C 
ATOM     28  C   UNL A   1      31.108  28.349  22.213  1.00  0.00    -0.012 C 
ATOM     29  C   UNL A   1      33.151  29.280  22.557  1.00  0.00     0.021 C 
ATOM     30  C   UNL A   1      30.340  30.095  24.542  1.00  0.00     0.052 C 
ATOM     31  C   UNL A   1      30.102  29.236  22.125  1.00  0.00     0.048 C 
ATOM     32  C   UNL A   1      29.748  30.226  23.180  1.00  0.00     0.178 C 
ATOM     33  O   UNL A   1      28.873  31.060  22.968  1.00  0.00    -0.290 OA
ENDBRANCH  13  14
ENDBRANCH   8  13
BRANCH  10  34
ATOM     34  O   UNL A   1      30.920  20.909  22.075  1.00  0.00    -0.385 OA
ATOM     35  H   UNL A   1      31.074  21.272  21.190  1.00  0.00     0.211 HD
ENDBRANCH  10  34
BRANCH  11  36
ATOM     36  O   UNL A   1      32.061  18.527  20.803  1.00  0.00    -0.387 OA
ATOM     37  H   UNL A   1      32.418  17.642  20.626  1.00  0.00     0.211 HD
ENDBRANCH  11  36
BRANCH  12  38
ATOM     38  O   UNL A   1      33.104  16.592  22.584  1.00  0.00    -0.387 OA
ATOM     39  H   UNL A   1      32.672  16.131  23.320  1.00  0.00     0.211 HD
ENDBRANCH  12  38
ENDBRANCH   4   7
ENDBRANCH   2   3
ENDBRANCH   1   2
BRANCH   1  40
ATOM     40  C   UNL A   1      39.610  19.767  25.923  1.00  0.00     0.118 C 
BRANCH  40  41
ATOM     41  N   UNL A   1      40.601  18.821  26.339  1.00  0.00    -0.352 N 
ATOM     42  C   UNL A   1      41.944  19.182  26.426  1.00  0.00     0.251 C 
ATOM     43  H   UNL A   1      40.330  17.903  26.567  1.00  0.00     0.163 HD
ATOM     44  O   UNL A   1      42.827  18.330  26.370  1.00  0.00    -0.269 OA
BRANCH  42  45
ATOM     45  C   UNL A   1      42.279  20.631  26.543  1.00  0.00     0.039 A 
ATOM     46  C   UNL A   1      42.316  21.457  25.419  1.00  0.00     0.014 A 
ATOM     47  C   UNL A   1      42.482  21.179  27.814  1.00  0.00     0.014 A 
ATOM     48  C   UNL A   1      42.571  22.827  25.579  1.00  0.00     0.010 A 
ATOM     49  C   UNL A   1      42.597  22.554  27.981  1.00  0.00     0.010 A 
ATOM     50  C   UNL A   1      42.717  23.387  26.861  1.00  0.00    -0.014 A 
BRANCH  50  51
ATOM     51  C   UNL A   1      43.130  24.807  27.045  1.00  0.00     0.031 A 
ATOM     52  C   UNL A   1      42.184  25.761  27.740  1.00  0.00     0.074 A 
ATOM     53  C   UNL A   1      44.328  25.235  26.601  1.00  0.00     0.049 A 
ATOM     54  N   UNL A   1      42.336  27.031  28.015  1.00  0.00    -0.248 NA
ATOM     55  C   UNL A   1      40.874  25.223  28.143  1.00  0.00     0.031 C 
ATOM     56  C   UNL A   1      45.298  24.415  25.871  1.00  0.00     0.029 A 
ATOM     57  N   UNL A   1      44.944  26.456  26.709  1.00  0.00    -0.354 N 
ATOM     58  C   UNL A   1      41.140  27.436  28.605  1.00  0.00     0.074 A 
ATOM     59  C   UNL A   1      40.242  26.309  28.555  1.00  0.00     0.031 C 
ATOM     60  C   UNL A   1      46.408  25.138  25.650  1.00  0.00     0.029 A 
ATOM     61  C   UNL A   1      46.216  26.485  26.180  1.00  0.00     0.049 A 
ATOM     62  H   UNL A   1      44.518  27.239  27.126  1.00  0.00     0.167 HD
ATOM     63  C   UNL A   1      40.833  28.625  29.179  1.00  0.00     0.034 A 
ATOM     64  C   UNL A   1      47.121  27.483  26.138  1.00  0.00     0.034 A 
ATOM     65  C   UNL A   1      41.760  29.726  29.245  1.00  0.00     0.049 A 
ATOM     66  C   UNL A   1      46.759  28.804  26.775  1.00  0.00     0.074 A 
ATOM     67  C   UNL A   1      41.592  30.962  29.840  1.00  0.00     0.029 A 
ATOM     68  N   UNL A   1      43.035  29.718  28.691  1.00  0.00    -0.354 N 
ATOM     69  N   UNL A   1      45.644  29.150  27.380  1.00  0.00    -0.248 NA
ATOM     70  C   UNL A   1      47.776  29.860  26.737  1.00  0.00     0.031 C 
ATOM     71  C   UNL A   1      42.733  31.727  29.579  1.00  0.00     0.029 A 
ATOM     72  C   UNL A   1      43.651  30.939  28.901  1.00  0.00     0.049 A 
ATOM     73  H   UNL A   1      43.440  28.956  28.218  1.00  0.00     0.167 HD
ATOM     74  C   UNL A   1      45.842  30.455  27.822  1.00  0.00     0.074 A 
ATOM     75  C   UNL A   1      47.189  30.823  27.432  1.00  0.00     0.031 C 
ATOM     76  C   UNL A   1      44.993  31.278  28.491  1.00  0.00     0.034 A 
BRANCH  63  77
ATOM     77  C   UNL A   1      39.444  28.788  29.755  1.00  0.00     0.023 A 
ATOM     78  C   UNL A   1      38.376  29.293  28.988  1.00  0.00     0.031 A 
ATOM     79  C   UNL A   1      39.188  28.479  31.103  1.00  0.00     0.131 A 
ATOM     80  C   UNL A   1      37.139  29.557  29.592  1.00  0.00     0.055 A 
ATOM     81  C   UNL A   1      37.926  28.655  31.675  1.00  0.00     0.041 A 
ATOM     82  F   UNL A   1      40.168  28.017  31.896  1.00  0.00    -0.206 F 
ATOM     83  C   UNL A   1      36.897  29.215  30.923  1.00  0.00     0.022 A 
BRANCH  80  84
ATOM     84  S   UNL A   1      35.904  30.505  28.659  1.00  0.00     0.124 S 
ATOM     85  O   UNL A   1      34.967  29.455  28.263  1.00  0.00    -0.237 OA
ATOM     86  O   UNL A   1      35.417  31.454  29.653  1.00  0.00    -0.237 OA
ATOM     87  O   UNL A   1      36.675  31.087  27.563  1.00  0.00    -0.744 OA
ENDBRANCH  80  84
ENDBRANCH  63  77
BRANCH  64  88
ATOM     88  C   UNL A   1      48.452  27.280  25.488  1.00  0.00     0.023 A 
ATOM     89  C   UNL A   1      49.574  26.879  26.232  1.00  0.00     0.031 A 
ATOM     90  C   UNL A   1      48.631  27.521  24.112  1.00  0.00     0.131 A 
ATOM     91  C   UNL A   1      50.830  26.776  25.610  1.00  0.00     0.055 A 
ATOM     92  C   UNL A   1      49.869  27.360  23.487  1.00  0.00     0.041 A 
ATOM     93  F   UNL A   1      47.594  27.904  23.350  1.00  0.00    -0.206 F 
ATOM     94  C   UNL A   1      50.981  26.999  24.239  1.00  0.00     0.022 A 
BRANCH  91  95
ATOM     95  S   UNL A   1      52.286  26.441  26.638  1.00  0.00     0.124 S 
ATOM     96  O   UNL A   1      53.371  26.892  25.774  1.00  0.00    -0.237 OA
ATOM     97  O   UNL A   1      52.019  27.258  27.816  1.00  0.00    -0.237 OA
ATOM     98  O   UNL A   1      52.222  24.997  26.856  1.00  0.00    -0.744 OA
ENDBRANCH  91  95
ENDBRANCH  64  88
BRANCH  76  99
ATOM     99  C   UNL A   1      45.520  32.639  28.874  1.00  0.00     0.023 A 
ATOM    100  C   UNL A   1      45.213  33.787  28.125  1.00  0.00     0.031 A 
ATOM    101  C   UNL A   1      46.340  32.786  30.008  1.00  0.00     0.131 A 
ATOM    102  C   UNL A   1      45.774  35.021  28.480  1.00  0.00     0.055 A 
ATOM    103  C   UNL A   1      46.835  34.030  30.399  1.00  0.00     0.041 A 
ATOM    104  F   UNL A   1      46.666  31.722  30.759  1.00  0.00    -0.206 F 
ATOM    105  C   UNL A   1      46.565  35.154  29.625  1.00  0.00     0.022 A 
BRANCH 102 106
ATOM    106  S   UNL A   1      45.547  36.429  27.361  1.00  0.00     0.124 S 
ATOM    107  O   UNL A   1      45.290  37.519  28.296  1.00  0.00    -0.237 OA
ATOM    108  O   UNL A   1      46.826  36.479  26.660  1.00  0.00    -0.237 OA
ATOM    109  O   UNL A   1      44.405  36.033  26.540  1.00  0.00    -0.744 OA
ENDBRANCH 102 106
ENDBRANCH  76  99
ENDBRANCH  50  51
ENDBRANCH  42  45
ENDBRANCH  40  41
ENDBRANCH   1  40
TORSDOF 18
ENDMDL
