MODEL 1
REMARK VINA RESULT:     -13.0      0.000      0.000
REMARK SMILES C[C@@H]1C[C@H](C)C[C@H]([N@@H+]2[C@@H](C(=O)NCCCNC(=O)c3ccc(-c4c5nc(c(-c6cc(S(=O)(=O)[O-])ccc6F)c6ccc([nH]6)c(-c6cc(S(=O)(=O)[O-])ccc6F)c6nc(c(-c7cc(S(=O)(=O)[O-])ccc7F)c7ccc4[nH]7)C=C6)C=C5)cc3)CC[C@@H]3CCCC[C@@H]32)C1
REMARK SMILES IDX 15 1 14 2 13 3 12 4 10 5 11 6 9 8 8 9 89 10 82 12 84 13
REMARK SMILES IDX 88 14 83 15 85 16 87 17 86 18 7 19 5 20 4 21 6 22 3 23 2 24
REMARK SMILES IDX 90 25 1 26 16 27 17 28 18 30 19 31 20 32 81 33 21 34 80 35
REMARK SMILES IDX 22 36 23 37 24 38 74 39 25 40 79 41 73 42 75 43 26 44 78 45
REMARK SMILES IDX 72 46 71 47 27 49 59 50 39 51 58 52 40 53 43 54 57 55 76 56
REMARK SMILES IDX 41 57 42 58 56 60 77 61 44 62 28 63 29 64 37 65 30 66 36 67
REMARK SMILES IDX 38 68 35 69 31 70 32 71 33 72 34 73 60 74 61 75 69 76 62 77
REMARK SMILES IDX 68 78 70 79 67 80 63 81 64 82 65 83 66 84 45 85 46 86 54 87
REMARK SMILES IDX 47 88 53 89 55 90 52 91 48 92 49 93 50 94 51 95
REMARK H PARENT 12 7 8 11 16 29 75 48 43 59
REMARK Flexibility Score: inf
ROOT
ATOM      1  C   UNL A   1      32.244  29.463  26.141  1.00  0.00     0.118 C 
ENDROOT
BRANCH   1   2
ATOM      2  C   UNL A   1      32.545  29.083  24.697  1.00  0.00     0.042 C 
BRANCH   2   3
ATOM      3  C   UNL A   1      33.864  28.334  24.531  1.00  0.00     0.118 C 
BRANCH   3   4
ATOM      4  N   UNL A   1      34.002  27.778  23.201  1.00  0.00    -0.351 N 
ATOM      5  C   UNL A   1      33.606  26.556  22.733  1.00  0.00     0.278 C 
ATOM      6  O   UNL A   1      33.816  26.323  21.540  1.00  0.00    -0.268 OA
ATOM      7  H   UNL A   1      34.442  28.362  22.542  1.00  0.00     0.163 HD
BRANCH   5   8
ATOM      8  C   UNL A   1      32.875  25.558  23.679  1.00  0.00     0.274 C 
ATOM      9  N   UNL A   1      33.709  25.195  24.887  1.00  0.00    -0.320 N 
ATOM     10  C   UNL A   1      34.860  24.356  24.432  1.00  0.00     0.188 C 
ATOM     11  H   UNL A   1      34.293  25.884  25.361  1.00  0.00     0.349 HD
ATOM     12  C   UNL A   1      32.390  24.294  22.952  1.00  0.00     0.076 C 
ATOM     13  C   UNL A   1      34.602  23.144  23.505  1.00  0.00     0.048 C 
ATOM     14  C   UNL A   1      36.052  24.078  25.362  1.00  0.00     0.065 C 
ATOM     15  C   UNL A   1      33.509  23.385  22.468  1.00  0.00     0.016 C 
ATOM     16  C   UNL A   1      34.419  21.840  24.265  1.00  0.00     0.010 C 
ATOM     17  C   UNL A   1      36.568  22.634  25.480  1.00  0.00     0.006 C 
ATOM     18  C   UNL A   1      35.661  21.474  25.062  1.00  0.00     0.001 C 
BRANCH   9  19
ATOM     19  C   UNL A   1      32.840  25.039  26.101  1.00  0.00     0.185 C 
ATOM     20  C   UNL A   1      29.655  25.474  24.975  1.00  0.00     0.008 C 
ATOM     21  C   UNL A   1      30.230  25.329  26.364  1.00  0.00    -0.008 C 
ATOM     22  C   UNL A   1      31.640  25.907  26.502  1.00  0.00     0.068 C 
ATOM     23  C   UNL A   1      30.117  23.893  26.870  1.00  0.00     0.007 C 
ATOM     24  C   UNL A   1      31.228  22.945  26.419  1.00  0.00    -0.008 C 
ATOM     25  C   UNL A   1      32.619  23.569  26.561  1.00  0.00     0.068 C 
ATOM     26  C   UNL A   1      31.024  22.306  25.045  1.00  0.00     0.008 C 
ENDBRANCH   9  19
ENDBRANCH   5   8
ENDBRANCH   3   4
ENDBRANCH   2   3
ENDBRANCH   1   2
BRANCH   1  27
ATOM     27  N   UNL A   1      32.073  30.903  26.290  1.00  0.00    -0.352 N 
ATOM     28  C   UNL A   1      32.756  31.802  27.073  1.00  0.00     0.251 C 
ATOM     29  H   UNL A   1      31.356  31.294  25.741  1.00  0.00     0.163 HD
ATOM     30  O   UNL A   1      32.287  32.923  27.239  1.00  0.00    -0.269 OA
BRANCH  28  31
ATOM     31  C   UNL A   1      34.031  31.422  27.721  1.00  0.00     0.039 A 
ATOM     32  C   UNL A   1      34.969  32.420  28.002  1.00  0.00     0.014 A 
ATOM     33  C   UNL A   1      34.323  30.089  28.023  1.00  0.00     0.014 A 
ATOM     34  C   UNL A   1      36.165  32.090  28.646  1.00  0.00     0.010 A 
ATOM     35  C   UNL A   1      35.478  29.772  28.731  1.00  0.00     0.010 A 
ATOM     36  C   UNL A   1      36.411  30.770  29.052  1.00  0.00    -0.014 A 
BRANCH  36  37
ATOM     37  C   UNL A   1      37.632  30.410  29.821  1.00  0.00     0.031 A 
ATOM     38  C   UNL A   1      38.652  29.475  29.230  1.00  0.00     0.074 A 
ATOM     39  C   UNL A   1      37.780  30.867  31.081  1.00  0.00     0.049 A 
ATOM     40  N   UNL A   1      39.722  28.962  29.781  1.00  0.00    -0.248 NA
ATOM     41  C   UNL A   1      38.420  29.036  27.845  1.00  0.00     0.031 C 
ATOM     42  C   UNL A   1      36.837  31.749  31.775  1.00  0.00     0.029 A 
ATOM     43  N   UNL A   1      38.764  30.642  32.009  1.00  0.00    -0.354 N 
ATOM     44  C   UNL A   1      40.282  28.127  28.820  1.00  0.00     0.074 A 
ATOM     45  C   UNL A   1      39.403  28.165  27.670  1.00  0.00     0.031 C 
ATOM     46  C   UNL A   1      37.296  31.999  33.011  1.00  0.00     0.029 A 
ATOM     47  C   UNL A   1      38.536  31.257  33.219  1.00  0.00     0.049 A 
ATOM     48  H   UNL A   1      39.560  30.091  31.828  1.00  0.00     0.167 HD
ATOM     49  C   UNL A   1      41.430  27.409  28.887  1.00  0.00     0.034 A 
ATOM     50  C   UNL A   1      39.231  31.212  34.373  1.00  0.00     0.034 A 
ATOM     51  C   UNL A   1      42.301  27.395  30.037  1.00  0.00     0.049 A 
ATOM     52  C   UNL A   1      40.493  30.389  34.428  1.00  0.00     0.074 A 
ATOM     53  C   UNL A   1      43.522  26.758  30.185  1.00  0.00     0.029 A 
ATOM     54  N   UNL A   1      42.042  28.037  31.242  1.00  0.00    -0.354 N 
ATOM     55  N   UNL A   1      41.039  29.651  33.490  1.00  0.00    -0.248 NA
ATOM     56  C   UNL A   1      41.237  30.401  35.695  1.00  0.00     0.031 C 
ATOM     57  C   UNL A   1      43.962  26.953  31.499  1.00  0.00     0.029 A 
ATOM     58  C   UNL A   1      43.060  27.780  32.148  1.00  0.00     0.049 A 
ATOM     59  H   UNL A   1      41.250  28.592  31.425  1.00  0.00     0.167 HD
ATOM     60  C   UNL A   1      42.206  29.133  34.046  1.00  0.00     0.074 A 
ATOM     61  C   UNL A   1      42.293  29.660  35.392  1.00  0.00     0.031 C 
ATOM     62  C   UNL A   1      43.126  28.301  33.494  1.00  0.00     0.034 A 
BRANCH  49  63
ATOM     63  C   UNL A   1      41.793  26.558  27.692  1.00  0.00     0.023 A 
ATOM     64  C   UNL A   1      41.423  25.204  27.606  1.00  0.00     0.031 A 
ATOM     65  C   UNL A   1      42.530  27.107  26.627  1.00  0.00     0.131 A 
ATOM     66  C   UNL A   1      41.849  24.429  26.516  1.00  0.00     0.055 A 
ATOM     67  C   UNL A   1      42.882  26.350  25.507  1.00  0.00     0.041 A 
ATOM     68  F   UNL A   1      42.930  28.387  26.661  1.00  0.00    -0.206 F 
ATOM     69  C   UNL A   1      42.554  24.998  25.454  1.00  0.00     0.022 A 
BRANCH  66  70
ATOM     70  S   UNL A   1      41.582  22.635  26.572  1.00  0.00     0.124 S 
ATOM     71  O   UNL A   1      42.294  22.194  25.375  1.00  0.00    -0.237 OA
ATOM     72  O   UNL A   1      42.184  22.265  27.847  1.00  0.00    -0.237 OA
ATOM     73  O   UNL A   1      40.128  22.504  26.505  1.00  0.00    -0.744 OA
ENDBRANCH  66  70
ENDBRANCH  49  63
BRANCH  50  74
ATOM     74  C   UNL A   1      38.743  31.941  35.579  1.00  0.00     0.023 A 
ATOM     75  C   UNL A   1      38.190  31.251  36.669  1.00  0.00     0.031 A 
ATOM     76  C   UNL A   1      38.781  33.346  35.639  1.00  0.00     0.131 A 
ATOM     77  C   UNL A   1      37.650  31.967  37.749  1.00  0.00     0.055 A 
ATOM     78  C   UNL A   1      38.295  34.051  36.741  1.00  0.00     0.041 A 
ATOM     79  F   UNL A   1      39.303  34.056  34.627  1.00  0.00    -0.206 F 
ATOM     80  C   UNL A   1      37.711  33.361  37.800  1.00  0.00     0.022 A 
BRANCH  77  81
ATOM     81  S   UNL A   1      36.778  31.049  39.049  1.00  0.00     0.124 S 
ATOM     82  O   UNL A   1      37.696  31.182  40.174  1.00  0.00    -0.237 OA
ATOM     83  O   UNL A   1      35.524  31.788  39.152  1.00  0.00    -0.237 OA
ATOM     84  O   UNL A   1      36.661  29.702  38.492  1.00  0.00    -0.744 OA
ENDBRANCH  77  81
ENDBRANCH  50  74
BRANCH  62  85
ATOM     85  C   UNL A   1      44.326  27.947  34.340  1.00  0.00     0.023 A 
ATOM     86  C   UNL A   1      44.325  26.832  35.196  1.00  0.00     0.031 A 
ATOM     87  C   UNL A   1      45.480  28.748  34.297  1.00  0.00     0.131 A 
ATOM     88  C   UNL A   1      45.435  26.580  36.016  1.00  0.00     0.055 A 
ATOM     89  C   UNL A   1      46.605  28.457  35.070  1.00  0.00     0.041 A 
ATOM     90  F   UNL A   1      45.535  29.828  33.501  1.00  0.00    -0.206 F 
ATOM     91  C   UNL A   1      46.582  27.375  35.946  1.00  0.00     0.022 A 
BRANCH  88  92
ATOM     92  S   UNL A   1      45.324  25.255  37.250  1.00  0.00     0.124 S 
ATOM     93  O   UNL A   1      45.600  24.069  36.447  1.00  0.00    -0.237 OA
ATOM     94  O   UNL A   1      46.361  25.631  38.207  1.00  0.00    -0.237 OA
ATOM     95  O   UNL A   1      43.954  25.364  37.749  1.00  0.00    -0.744 OA
ENDBRANCH  88  92
ENDBRANCH  62  85
ENDBRANCH  36  37
ENDBRANCH  28  31
ENDBRANCH   1  27
TORSDOF 14
ENDMDL
MODEL 2
REMARK VINA RESULT:     -12.9      5.067     10.170
REMARK SMILES C[C@@H]1C[C@H](C)C[C@H]([N@@H+]2[C@@H](C(=O)NCCCNC(=O)c3ccc(-c4c5nc(c(-c6cc(S(=O)(=O)[O-])ccc6F)c6ccc([nH]6)c(-c6cc(S(=O)(=O)[O-])ccc6F)c6nc(c(-c7cc(S(=O)(=O)[O-])ccc7F)c7ccc4[nH]7)C=C6)C=C5)cc3)CC[C@@H]3CCCC[C@@H]32)C1
REMARK SMILES IDX 15 1 14 2 13 3 12 4 10 5 11 6 9 8 8 9 89 10 82 12 84 13
REMARK SMILES IDX 88 14 83 15 85 16 87 17 86 18 7 19 5 20 4 21 6 22 3 23 2 24
REMARK SMILES IDX 90 25 1 26 16 27 17 28 18 30 19 31 20 32 81 33 21 34 80 35
REMARK SMILES IDX 22 36 23 37 24 38 74 39 25 40 79 41 73 42 75 43 26 44 78 45
REMARK SMILES IDX 72 46 71 47 27 49 59 50 39 51 58 52 40 53 43 54 57 55 76 56
REMARK SMILES IDX 41 57 42 58 56 60 77 61 44 62 28 63 29 64 37 65 30 66 36 67
REMARK SMILES IDX 38 68 35 69 31 70 32 71 33 72 34 73 60 74 61 75 69 76 62 77
REMARK SMILES IDX 68 78 70 79 67 80 63 81 64 82 65 83 66 84 45 85 46 86 54 87
REMARK SMILES IDX 47 88 53 89 55 90 52 91 48 92 49 93 50 94 51 95
REMARK H PARENT 12 7 8 11 16 29 75 48 43 59
REMARK Flexibility Score: inf
ROOT
ATOM      1  C   UNL A   1      36.522  21.935  24.836  1.00  0.00     0.118 C 
ENDROOT
BRANCH   1   2
ATOM      2  C   UNL A   1      35.214  21.943  25.616  1.00  0.00     0.042 C 
BRANCH   2   3
ATOM      3  C   UNL A   1      35.076  23.139  26.553  1.00  0.00     0.118 C 
BRANCH   3   4
ATOM      4  N   UNL A   1      33.807  23.130  27.252  1.00  0.00    -0.351 N 
ATOM      5  C   UNL A   1      32.602  23.638  26.855  1.00  0.00     0.278 C 
ATOM      6  O   UNL A   1      31.652  23.481  27.626  1.00  0.00    -0.268 OA
ATOM      7  H   UNL A   1      33.814  22.695  28.135  1.00  0.00     0.163 HD
BRANCH   5   8
ATOM      8  C   UNL A   1      32.465  24.323  25.464  1.00  0.00     0.274 C 
ATOM      9  N   UNL A   1      33.414  25.489  25.301  1.00  0.00    -0.320 N 
ATOM     10  C   UNL A   1      32.964  26.595  26.202  1.00  0.00     0.188 C 
ATOM     11  H   UNL A   1      34.363  25.463  25.672  1.00  0.00     0.349 HD
ATOM     12  C   UNL A   1      31.021  24.747  25.147  1.00  0.00     0.076 C 
ATOM     13  C   UNL A   1      31.480  27.033  26.189  1.00  0.00     0.048 C 
ATOM     14  C   UNL A   1      33.877  27.795  26.497  1.00  0.00     0.065 C 
ATOM     15  C   UNL A   1      30.499  25.877  26.020  1.00  0.00     0.016 C 
ATOM     16  C   UNL A   1      31.205  28.185  25.235  1.00  0.00     0.010 C 
ATOM     17  C   UNL A   1      33.280  29.209  26.408  1.00  0.00     0.006 C 
ATOM     18  C   UNL A   1      31.986  29.432  25.621  1.00  0.00     0.001 C 
BRANCH   9  19
ATOM     19  C   UNL A   1      33.926  25.561  23.892  1.00  0.00     0.185 C 
ATOM     20  C   UNL A   1      32.266  23.102  22.218  1.00  0.00     0.008 C 
ATOM     21  C   UNL A   1      33.404  24.012  21.819  1.00  0.00    -0.008 C 
ATOM     22  C   UNL A   1      34.320  24.385  22.987  1.00  0.00     0.068 C 
ATOM     23  C   UNL A   1      32.906  25.222  21.034  1.00  0.00     0.007 C 
ATOM     24  C   UNL A   1      32.398  26.392  21.878  1.00  0.00    -0.008 C 
ATOM     25  C   UNL A   1      33.337  26.723  23.040  1.00  0.00     0.068 C 
ATOM     26  C   UNL A   1      30.941  26.288  22.329  1.00  0.00     0.008 C 
ENDBRANCH   9  19
ENDBRANCH   5   8
ENDBRANCH   3   4
ENDBRANCH   2   3
ENDBRANCH   1   2
BRANCH   1  27
ATOM     27  N   UNL A   1      37.376  20.822  25.235  1.00  0.00    -0.352 N 
ATOM     28  C   UNL A   1      38.657  20.819  25.730  1.00  0.00     0.251 C 
ATOM     29  H   UNL A   1      36.969  19.932  25.134  1.00  0.00     0.163 HD
ATOM     30  O   UNL A   1      39.280  19.763  25.762  1.00  0.00    -0.269 OA
BRANCH  28  31
ATOM     31  C   UNL A   1      39.285  22.072  26.206  1.00  0.00     0.039 A 
ATOM     32  C   UNL A   1      40.384  21.992  27.067  1.00  0.00     0.014 A 
ATOM     33  C   UNL A   1      38.780  23.322  25.839  1.00  0.00     0.014 A 
ATOM     34  C   UNL A   1      41.015  23.161  27.501  1.00  0.00     0.010 A 
ATOM     35  C   UNL A   1      39.454  24.482  26.209  1.00  0.00     0.010 A 
ATOM     36  C   UNL A   1      40.580  24.414  27.043  1.00  0.00    -0.014 A 
BRANCH  36  37
ATOM     37  C   UNL A   1      41.293  25.665  27.414  1.00  0.00     0.031 A 
ATOM     38  C   UNL A   1      40.596  26.721  28.229  1.00  0.00     0.074 A 
ATOM     39  C   UNL A   1      42.541  25.879  26.951  1.00  0.00     0.049 A 
ATOM     40  N   UNL A   1      41.010  27.916  28.562  1.00  0.00    -0.248 NA
ATOM     41  C   UNL A   1      39.242  26.399  28.705  1.00  0.00     0.031 C 
ATOM     42  C   UNL A   1      43.304  24.944  26.119  1.00  0.00     0.029 A 
ATOM     43  N   UNL A   1      43.382  26.954  27.095  1.00  0.00    -0.354 N 
ATOM     44  C   UNL A   1      39.963  28.497  29.271  1.00  0.00     0.074 A 
ATOM     45  C   UNL A   1      38.878  27.539  29.274  1.00  0.00     0.031 C 
ATOM     46  C   UNL A   1      44.503  25.480  25.840  1.00  0.00     0.029 A 
ATOM     47  C   UNL A   1      44.576  26.816  26.425  1.00  0.00     0.049 A 
ATOM     48  H   UNL A   1      43.152  27.750  27.627  1.00  0.00     0.167 HD
ATOM     49  C   UNL A   1      39.921  29.710  29.876  1.00  0.00     0.034 A 
ATOM     50  C   UNL A   1      45.605  27.674  26.278  1.00  0.00     0.034 A 
ATOM     51  C   UNL A   1      41.018  30.647  29.874  1.00  0.00     0.049 A 
ATOM     52  C   UNL A   1      45.524  29.026  26.943  1.00  0.00     0.074 A 
ATOM     53  C   UNL A   1      41.106  31.872  30.512  1.00  0.00     0.029 A 
ATOM     54  N   UNL A   1      42.216  30.470  29.192  1.00  0.00    -0.354 N 
ATOM     55  N   UNL A   1      44.549  29.536  27.659  1.00  0.00    -0.248 NA
ATOM     56  C   UNL A   1      46.685  29.912  26.786  1.00  0.00     0.031 C 
ATOM     57  C   UNL A   1      42.322  32.466  30.157  1.00  0.00     0.029 A 
ATOM     58  C   UNL A   1      43.031  31.579  29.364  1.00  0.00     0.049 A 
ATOM     59  H   UNL A   1      42.451  29.673  28.663  1.00  0.00     0.167 HD
ATOM     60  C   UNL A   1      44.993  30.793  28.061  1.00  0.00     0.074 A 
ATOM     61  C   UNL A   1      46.328  30.953  27.524  1.00  0.00     0.031 C 
ATOM     62  C   UNL A   1      44.357  31.731  28.810  1.00  0.00     0.034 A 
BRANCH  49  63
ATOM     63  C   UNL A   1      38.634  30.103  30.564  1.00  0.00     0.023 A 
ATOM     64  C   UNL A   1      37.635  30.841  29.904  1.00  0.00     0.031 A 
ATOM     65  C   UNL A   1      38.407  29.743  31.904  1.00  0.00     0.131 A 
ATOM     66  C   UNL A   1      36.490  31.253  30.604  1.00  0.00     0.055 A 
ATOM     67  C   UNL A   1      37.229  30.088  32.571  1.00  0.00     0.041 A 
ATOM     68  F   UNL A   1      39.332  29.057  32.593  1.00  0.00    -0.206 F 
ATOM     69  C   UNL A   1      36.268  30.860  31.925  1.00  0.00     0.022 A 
BRANCH  66  70
ATOM     70  S   UNL A   1      35.359  32.422  29.801  1.00  0.00     0.124 S 
ATOM     71  O   UNL A   1      34.860  31.628  28.682  1.00  0.00    -0.237 OA
ATOM     72  O   UNL A   1      34.399  32.710  30.860  1.00  0.00    -0.237 OA
ATOM     73  O   UNL A   1      36.228  33.536  29.425  1.00  0.00    -0.744 OA
ENDBRANCH  66  70
ENDBRANCH  49  63
BRANCH  50  74
ATOM     74  C   UNL A   1      46.788  27.303  25.450  1.00  0.00     0.023 A 
ATOM     75  C   UNL A   1      46.957  27.815  24.155  1.00  0.00     0.031 A 
ATOM     76  C   UNL A   1      47.746  26.389  25.927  1.00  0.00     0.131 A 
ATOM     77  C   UNL A   1      48.028  27.374  23.361  1.00  0.00     0.055 A 
ATOM     78  C   UNL A   1      48.840  25.997  25.155  1.00  0.00     0.041 A 
ATOM     79  F   UNL A   1      47.636  25.871  27.161  1.00  0.00    -0.206 F 
ATOM     80  C   UNL A   1      48.978  26.479  23.857  1.00  0.00     0.022 A 
BRANCH  77  81
ATOM     81  S   UNL A   1      48.106  27.915  21.632  1.00  0.00     0.124 S 
ATOM     82  O   UNL A   1      48.280  26.648  20.931  1.00  0.00    -0.237 OA
ATOM     83  O   UNL A   1      46.815  28.572  21.462  1.00  0.00    -0.237 OA
ATOM     84  O   UNL A   1      49.265  28.806  21.608  1.00  0.00    -0.744 OA
ENDBRANCH  77  81
ENDBRANCH  50  74
BRANCH  62  85
ATOM     85  C   UNL A   1      45.123  32.993  29.123  1.00  0.00     0.023 A 
ATOM     86  C   UNL A   1      45.026  34.138  28.313  1.00  0.00     0.031 A 
ATOM     87  C   UNL A   1      45.973  33.044  30.242  1.00  0.00     0.131 A 
ATOM     88  C   UNL A   1      45.810  35.266  28.601  1.00  0.00     0.055 A 
ATOM     89  C   UNL A   1      46.702  34.191  30.559  1.00  0.00     0.041 A 
ATOM     90  F   UNL A   1      46.106  31.979  31.049  1.00  0.00    -0.206 F 
ATOM     91  C   UNL A   1      46.633  35.306  29.729  1.00  0.00     0.022 A 
BRANCH  88  92
ATOM     92  S   UNL A   1      45.812  36.648  27.427  1.00  0.00     0.124 S 
ATOM     93  O   UNL A   1      46.116  37.782  28.294  1.00  0.00    -0.237 OA
ATOM     94  O   UNL A   1      46.864  36.262  26.491  1.00  0.00    -0.237 OA
ATOM     95  O   UNL A   1      44.458  36.634  26.876  1.00  0.00    -0.744 OA
ENDBRANCH  88  92
ENDBRANCH  62  85
ENDBRANCH  36  37
ENDBRANCH  28  31
ENDBRANCH   1  27
TORSDOF 14
ENDMDL
MODEL 3
REMARK VINA RESULT:     -12.8      5.084      7.680
REMARK SMILES C[C@@H]1C[C@H](C)C[C@H]([N@@H+]2[C@@H](C(=O)NCCCNC(=O)c3ccc(-c4c5nc(c(-c6cc(S(=O)(=O)[O-])ccc6F)c6ccc([nH]6)c(-c6cc(S(=O)(=O)[O-])ccc6F)c6nc(c(-c7cc(S(=O)(=O)[O-])ccc7F)c7ccc4[nH]7)C=C6)C=C5)cc3)CC[C@@H]3CCCC[C@@H]32)C1
REMARK SMILES IDX 15 1 14 2 13 3 12 4 10 5 11 6 9 8 8 9 89 10 82 12 84 13
REMARK SMILES IDX 88 14 83 15 85 16 87 17 86 18 7 19 5 20 4 21 6 22 3 23 2 24
REMARK SMILES IDX 90 25 1 26 16 27 17 28 18 30 19 31 20 32 81 33 21 34 80 35
REMARK SMILES IDX 22 36 23 37 24 38 74 39 25 40 79 41 73 42 75 43 26 44 78 45
REMARK SMILES IDX 72 46 71 47 27 49 59 50 39 51 58 52 40 53 43 54 57 55 76 56
REMARK SMILES IDX 41 57 42 58 56 60 77 61 44 62 28 63 29 64 37 65 30 66 36 67
REMARK SMILES IDX 38 68 35 69 31 70 32 71 33 72 34 73 60 74 61 75 69 76 62 77
REMARK SMILES IDX 68 78 70 79 67 80 63 81 64 82 65 83 66 84 45 85 46 86 54 87
REMARK SMILES IDX 47 88 53 89 55 90 52 91 48 92 49 93 50 94 51 95
REMARK H PARENT 12 7 8 11 16 29 75 48 43 59
REMARK Flexibility Score: inf
ROOT
ATOM      1  C   UNL A   1      36.810  21.687  25.206  1.00  0.00     0.118 C 
ENDROOT
BRANCH   1   2
ATOM      2  C   UNL A   1      35.571  21.604  26.087  1.00  0.00     0.042 C 
BRANCH   2   3
ATOM      3  C   UNL A   1      35.215  22.928  26.758  1.00  0.00     0.118 C 
BRANCH   3   4
ATOM      4  N   UNL A   1      33.935  22.863  27.430  1.00  0.00    -0.351 N 
ATOM      5  C   UNL A   1      32.708  23.271  26.986  1.00  0.00     0.278 C 
ATOM      6  O   UNL A   1      31.752  23.084  27.743  1.00  0.00    -0.268 OA
ATOM      7  H   UNL A   1      33.950  22.469  28.332  1.00  0.00     0.163 HD
BRANCH   5   8
ATOM      8  C   UNL A   1      32.558  23.884  25.563  1.00  0.00     0.274 C 
ATOM      9  N   UNL A   1      33.440  25.096  25.363  1.00  0.00    -0.320 N 
ATOM     10  C   UNL A   1      32.909  26.212  26.205  1.00  0.00     0.188 C 
ATOM     11  H   UNL A   1      34.383  25.143  25.751  1.00  0.00     0.349 HD
ATOM     12  C   UNL A   1      31.099  24.208  25.203  1.00  0.00     0.076 C 
ATOM     13  C   UNL A   1      31.403  26.561  26.148  1.00  0.00     0.048 C 
ATOM     14  C   UNL A   1      33.745  27.476  26.460  1.00  0.00     0.065 C 
ATOM     15  C   UNL A   1      30.495  25.343  26.015  1.00  0.00     0.016 C 
ATOM     16  C   UNL A   1      31.081  27.651  25.137  1.00  0.00     0.010 C 
ATOM     17  C   UNL A   1      33.068  28.847  26.297  1.00  0.00     0.006 C 
ATOM     18  C   UNL A   1      31.780  28.958  25.479  1.00  0.00     0.001 C 
BRANCH   9  19
ATOM     19  C   UNL A   1      33.975  25.135  23.961  1.00  0.00     0.185 C 
ATOM     20  C   UNL A   1      32.466  22.533  22.363  1.00  0.00     0.008 C 
ATOM     21  C   UNL A   1      33.566  23.480  21.946  1.00  0.00    -0.008 C 
ATOM     22  C   UNL A   1      34.442  23.944  23.112  1.00  0.00     0.068 C 
ATOM     23  C   UNL A   1      33.026  24.632  21.103  1.00  0.00     0.007 C 
ATOM     24  C   UNL A   1      32.447  25.809  21.889  1.00  0.00    -0.008 C 
ATOM     25  C   UNL A   1      33.348  26.232  23.052  1.00  0.00     0.068 C 
ATOM     26  C   UNL A   1      30.989  25.653  22.319  1.00  0.00     0.008 C 
ENDBRANCH   9  19
ENDBRANCH   5   8
ENDBRANCH   3   4
ENDBRANCH   2   3
ENDBRANCH   1   2
BRANCH   1  27
ATOM     27  N   UNL A   1      37.812  20.704  25.599  1.00  0.00    -0.352 N 
ATOM     28  C   UNL A   1      39.109  20.876  26.015  1.00  0.00     0.251 C 
ATOM     29  H   UNL A   1      37.510  19.767  25.560  1.00  0.00     0.163 HD
ATOM     30  O   UNL A   1      39.856  19.903  26.053  1.00  0.00    -0.269 OA
BRANCH  28  31
ATOM     31  C   UNL A   1      39.607  22.216  26.399  1.00  0.00     0.039 A 
ATOM     32  C   UNL A   1      40.707  22.307  27.258  1.00  0.00     0.014 A 
ATOM     33  C   UNL A   1      38.980  23.379  25.947  1.00  0.00     0.014 A 
ATOM     34  C   UNL A   1      41.216  23.561  27.606  1.00  0.00     0.010 A 
ATOM     35  C   UNL A   1      39.533  24.625  26.232  1.00  0.00     0.010 A 
ATOM     36  C   UNL A   1      40.659  24.729  27.063  1.00  0.00    -0.014 A 
BRANCH  36  37
ATOM     37  C   UNL A   1      41.241  26.067  27.342  1.00  0.00     0.031 A 
ATOM     38  C   UNL A   1      42.614  26.417  26.834  1.00  0.00     0.074 A 
ATOM     39  C   UNL A   1      40.563  26.937  28.118  1.00  0.00     0.049 A 
ATOM     40  N   UNL A   1      43.333  27.487  27.059  1.00  0.00    -0.248 NA
ATOM     41  C   UNL A   1      43.277  25.416  25.984  1.00  0.00     0.031 C 
ATOM     42  C   UNL A   1      39.240  26.695  28.700  1.00  0.00     0.029 A 
ATOM     43  N   UNL A   1      40.896  28.191  28.566  1.00  0.00    -0.354 N 
ATOM     44  C   UNL A   1      44.538  27.282  26.396  1.00  0.00     0.074 A 
ATOM     45  C   UNL A   1      44.470  25.963  25.802  1.00  0.00     0.031 C 
ATOM     46  C   UNL A   1      38.870  27.768  29.415  1.00  0.00     0.029 A 
ATOM     47  C   UNL A   1      39.947  28.754  29.388  1.00  0.00     0.049 A 
ATOM     48  H   UNL A   1      41.735  28.645  28.323  1.00  0.00     0.167 HD
ATOM     49  C   UNL A   1      45.595  28.124  26.281  1.00  0.00     0.034 A 
ATOM     50  C   UNL A   1      39.951  29.921  30.063  1.00  0.00     0.034 A 
ATOM     51  C   UNL A   1      45.639  29.441  26.868  1.00  0.00     0.049 A 
ATOM     52  C   UNL A   1      41.147  30.830  29.935  1.00  0.00     0.074 A 
ATOM     53  C   UNL A   1      46.630  30.401  26.756  1.00  0.00     0.029 A 
ATOM     54  N   UNL A   1      44.656  29.982  27.688  1.00  0.00    -0.354 N 
ATOM     55  N   UNL A   1      42.255  30.645  29.256  1.00  0.00    -0.248 NA
ATOM     56  C   UNL A   1      41.089  32.107  30.659  1.00  0.00     0.031 C 
ATOM     57  C   UNL A   1      46.282  31.488  27.565  1.00  0.00     0.029 A 
ATOM     58  C   UNL A   1      45.035  31.245  28.118  1.00  0.00     0.049 A 
ATOM     59  H   UNL A   1      43.814  29.533  27.929  1.00  0.00     0.167 HD
ATOM     60  C   UNL A   1      43.014  31.797  29.448  1.00  0.00     0.074 A 
ATOM     61  C   UNL A   1      42.227  32.675  30.290  1.00  0.00     0.031 C 
ATOM     62  C   UNL A   1      44.247  32.105  28.970  1.00  0.00     0.034 A 
BRANCH  49  63
ATOM     63  C   UNL A   1      46.801  27.631  25.514  1.00  0.00     0.023 A 
ATOM     64  C   UNL A   1      47.050  28.027  24.188  1.00  0.00     0.031 A 
ATOM     65  C   UNL A   1      47.711  26.744  26.117  1.00  0.00     0.131 A 
ATOM     66  C   UNL A   1      48.137  27.484  23.487  1.00  0.00     0.055 A 
ATOM     67  C   UNL A   1      48.836  26.270  25.440  1.00  0.00     0.041 A 
ATOM     68  F   UNL A   1      47.516  26.314  27.373  1.00  0.00    -0.206 F 
ATOM     69  C   UNL A   1      49.047  26.628  24.112  1.00  0.00     0.022 A 
BRANCH  66  70
ATOM     70  S   UNL A   1      48.270  27.809  21.707  1.00  0.00     0.124 S 
ATOM     71  O   UNL A   1      49.353  28.788  21.667  1.00  0.00    -0.237 OA
ATOM     72  O   UNL A   1      48.579  26.491  21.167  1.00  0.00    -0.237 OA
ATOM     73  O   UNL A   1      46.953  28.335  21.356  1.00  0.00    -0.744 OA
ENDBRANCH  66  70
ENDBRANCH  49  63
BRANCH  50  74
ATOM     74  C   UNL A   1      38.803  30.291  30.941  1.00  0.00     0.023 A 
ATOM     75  C   UNL A   1      37.702  30.999  30.434  1.00  0.00     0.031 A 
ATOM     76  C   UNL A   1      38.814  29.983  32.313  1.00  0.00     0.131 A 
ATOM     77  C   UNL A   1      36.682  31.421  31.302  1.00  0.00     0.055 A 
ATOM     78  C   UNL A   1      37.769  30.354  33.161  1.00  0.00     0.041 A 
ATOM     79  F   UNL A   1      39.839  29.304  32.850  1.00  0.00    -0.206 F 
ATOM     80  C   UNL A   1      36.700  31.091  32.659  1.00  0.00     0.022 A 
BRANCH  77  81
ATOM     81  S   UNL A   1      35.373  32.492  30.645  1.00  0.00     0.124 S 
ATOM     82  O   UNL A   1      36.069  33.766  30.515  1.00  0.00    -0.237 OA
ATOM     83  O   UNL A   1      35.027  31.817  29.399  1.00  0.00    -0.237 OA
ATOM     84  O   UNL A   1      34.345  32.445  31.683  1.00  0.00    -0.744 OA
ENDBRANCH  77  81
ENDBRANCH  50  74
BRANCH  62  85
ATOM     85  C   UNL A   1      44.797  33.467  29.317  1.00  0.00     0.023 A 
ATOM     86  C   UNL A   1      44.587  34.583  28.488  1.00  0.00     0.031 A 
ATOM     87  C   UNL A   1      45.553  33.646  30.489  1.00  0.00     0.131 A 
ATOM     88  C   UNL A   1      45.175  35.815  28.813  1.00  0.00     0.055 A 
ATOM     89  C   UNL A   1      46.083  34.888  30.839  1.00  0.00     0.041 A 
ATOM     90  F   UNL A   1      45.788  32.614  31.316  1.00  0.00    -0.206 F 
ATOM     91  C   UNL A   1      45.907  35.979  29.992  1.00  0.00     0.022 A 
BRANCH  88  92
ATOM     92  S   UNL A   1      45.054  37.180  27.624  1.00  0.00     0.124 S 
ATOM     93  O   UNL A   1      43.716  36.984  27.074  1.00  0.00    -0.237 OA
ATOM     94  O   UNL A   1      45.227  38.352  28.476  1.00  0.00    -0.237 OA
ATOM     95  O   UNL A   1      46.151  36.923  26.693  1.00  0.00    -0.744 OA
ENDBRANCH  88  92
ENDBRANCH  62  85
ENDBRANCH  36  37
ENDBRANCH  28  31
ENDBRANCH   1  27
TORSDOF 14
ENDMDL
