MODEL 1
REMARK VINA RESULT:     -10.5      0.000      0.000
REMARK SMILES CCCCCCCNC(=O)Oc1cccc(-c2ccc([C@@H](C)C(=O)NCCCNC(=O)c3ccc(-c4c5nc(c(-c6cc(S(=O)(=O)[O-])ccc6F)c6ccc([nH]6)c(-c6cc(S(=O)(=O)[O-])ccc6F)c6nc(c(-c7cc(S(=O)(=O)[O-])ccc7F)c7ccc4[nH]7)C=C6)C=C5)cc3)cc2F)c1
REMARK SMILES IDX 17 1 18 2 19 3 20 4 95 5 96 6 97 7 16 8 12 9 13 10 98 11
REMARK SMILES IDX 14 12 15 13 11 14 9 15 8 16 10 18 7 19 6 20 5 21 4 22 3 23
REMARK SMILES IDX 2 24 1 25 21 26 22 27 23 28 24 29 25 30 26 32 27 33 28 34
REMARK SMILES IDX 29 35 30 36 31 38 32 39 33 40 94 41 34 42 93 43 35 44 36 45
REMARK SMILES IDX 37 46 87 47 38 48 92 49 86 50 88 51 39 52 91 53 85 54 84 55
REMARK SMILES IDX 40 57 72 58 52 59 71 60 53 61 56 62 70 63 89 64 54 65 55 66
REMARK SMILES IDX 69 68 90 69 57 70 41 71 42 72 50 73 43 74 49 75 51 76 48 77
REMARK SMILES IDX 44 78 45 79 46 80 47 81 73 82 74 83 82 84 75 85 81 86 83 87
REMARK SMILES IDX 80 88 76 89 77 90 78 91 79 92 58 93 59 94 67 95 60 96 66 97
REMARK SMILES IDX 68 98 65 99 61 100 62 101 63 102 64 103
REMARK H PARENT 8 17 25 31 29 37 88 56 56 67
REMARK Flexibility Score: inf
ROOT
ATOM      1  C   UNL A   1      33.645  30.233  27.145  1.00  0.00     0.018 A 
ATOM      2  C   UNL A   1      34.988  30.292  27.553  1.00  0.00     0.012 A 
ATOM      3  C   UNL A   1      35.562  31.473  28.034  1.00  0.00     0.005 A 
ATOM      4  C   UNL A   1      34.846  32.671  28.049  1.00  0.00    -0.033 A 
ATOM      5  C   UNL A   1      33.498  32.623  27.666  1.00  0.00     0.044 A 
ATOM      6  C   UNL A   1      32.912  31.424  27.247  1.00  0.00     0.131 A 
ATOM      7  F   UNL A   1      31.603  31.452  26.947  1.00  0.00    -0.206 F 
ENDROOT
BRANCH   1   8
ATOM      8  C   UNL A   1      33.076  28.974  26.615  1.00  0.00    -0.012 A 
ATOM      9  C   UNL A   1      32.879  27.303  24.859  1.00  0.00     0.133 A 
ATOM     10  C   UNL A   1      32.043  26.518  25.645  1.00  0.00     0.047 A 
ATOM     11  C   UNL A   1      33.389  28.516  25.325  1.00  0.00     0.056 A 
ATOM     12  C   UNL A   1      31.719  26.950  26.923  1.00  0.00     0.004 A 
ATOM     13  C   UNL A   1      32.221  28.168  27.396  1.00  0.00     0.009 A 
BRANCH   9  14
ATOM     14  O   UNL A   1      33.071  26.891  23.532  1.00  0.00    -0.410 OA
BRANCH  14  15
ATOM     15  C   UNL A   1      33.141  27.852  22.536  1.00  0.00     0.412 C 
ATOM     16  N   UNL A   1      31.916  28.140  22.002  1.00  0.00    -0.321 N 
ATOM     17  H   UNL A   1      31.899  28.767  21.242  1.00  0.00     0.167 HD
ATOM     18  O   UNL A   1      34.152  28.419  22.143  1.00  0.00    -0.224 OA
BRANCH  16  19
ATOM     19  C   UNL A   1      30.640  27.614  22.442  1.00  0.00     0.119 C 
BRANCH  19  20
ATOM     20  C   UNL A   1      29.974  28.539  23.462  1.00  0.00     0.021 C 
BRANCH  20  21
ATOM     21  C   UNL A   1      29.480  29.871  22.884  1.00  0.00     0.002 C 
BRANCH  21  22
ATOM     22  C   UNL A   1      27.990  30.156  23.094  1.00  0.00     0.000 C 
BRANCH  22  23
ATOM     23  C   UNL A   1      27.623  31.639  23.202  1.00  0.00    -0.000 C 
BRANCH  23  24
ATOM     24  C   UNL A   1      28.515  32.589  22.397  1.00  0.00    -0.003 C 
ATOM     25  C   UNL A   1      29.275  33.579  23.266  1.00  0.00     0.004 C 
ENDBRANCH  23  24
ENDBRANCH  22  23
ENDBRANCH  21  22
ENDBRANCH  20  21
ENDBRANCH  19  20
ENDBRANCH  16  19
ENDBRANCH  14  15
ENDBRANCH   9  14
ENDBRANCH   1   8
BRANCH   4  26
ATOM     26  C   UNL A   1      35.474  34.003  28.426  1.00  0.00     0.105 C 
ATOM     27  C   UNL A   1      34.497  35.167  28.582  1.00  0.00     0.023 C 
BRANCH  26  28
ATOM     28  C   UNL A   1      36.525  33.899  29.541  1.00  0.00     0.227 C 
ATOM     29  O   UNL A   1      37.722  34.062  29.271  1.00  0.00    -0.274 OA
ATOM     30  N   UNL A   1      36.232  33.652  30.847  1.00  0.00    -0.356 N 
ATOM     31  H   UNL A   1      37.017  33.664  31.440  1.00  0.00     0.163 HD
BRANCH  30  32
ATOM     32  C   UNL A   1      34.983  33.375  31.528  1.00  0.00     0.117 C 
BRANCH  32  33
ATOM     33  C   UNL A   1      35.181  33.078  33.012  1.00  0.00     0.042 C 
BRANCH  33  34
ATOM     34  C   UNL A   1      36.481  32.350  33.326  1.00  0.00     0.118 C 
BRANCH  34  35
ATOM     35  N   UNL A   1      36.397  30.928  33.027  1.00  0.00    -0.352 N 
ATOM     36  C   UNL A   1      37.155  30.143  32.192  1.00  0.00     0.251 C 
ATOM     37  H   UNL A   1      35.679  30.450  33.501  1.00  0.00     0.163 HD
ATOM     38  O   UNL A   1      36.744  29.019  31.909  1.00  0.00    -0.269 OA
BRANCH  36  39
ATOM     39  C   UNL A   1      38.433  30.632  31.625  1.00  0.00     0.039 A 
ATOM     40  C   UNL A   1      39.477  30.958  32.498  1.00  0.00     0.014 A 
ATOM     41  C   UNL A   1      38.599  30.823  30.251  1.00  0.00     0.014 A 
ATOM     42  C   UNL A   1      40.694  31.420  31.991  1.00  0.00     0.010 A 
ATOM     43  C   UNL A   1      39.841  31.196  29.741  1.00  0.00     0.010 A 
ATOM     44  C   UNL A   1      40.899  31.512  30.604  1.00  0.00    -0.014 A 
BRANCH  44  45
ATOM     45  C   UNL A   1      42.201  31.959  30.043  1.00  0.00     0.031 A 
ATOM     46  C   UNL A   1      42.433  33.415  29.741  1.00  0.00     0.074 A 
ATOM     47  C   UNL A   1      43.151  31.049  29.751  1.00  0.00     0.049 A 
ATOM     48  N   UNL A   1      43.463  33.993  29.176  1.00  0.00    -0.248 NA
ATOM     49  C   UNL A   1      41.347  34.341  30.095  1.00  0.00     0.031 C 
ATOM     50  C   UNL A   1      43.025  29.604  29.957  1.00  0.00     0.029 A 
ATOM     51  N   UNL A   1      44.403  31.198  29.209  1.00  0.00    -0.354 N 
ATOM     52  C   UNL A   1      43.144  35.345  29.097  1.00  0.00     0.074 A 
ATOM     53  C   UNL A   1      41.795  35.484  29.603  1.00  0.00     0.031 C 
ATOM     54  C   UNL A   1      44.158  29.003  29.563  1.00  0.00     0.029 A 
ATOM     55  C   UNL A   1      45.073  30.010  29.032  1.00  0.00     0.049 A 
ATOM     56  H   UNL A   1      44.785  32.072  28.968  1.00  0.00     0.167 HD
ATOM     57  C   UNL A   1      43.914  36.377  28.669  1.00  0.00     0.034 A 
ATOM     58  C   UNL A   1      46.279  29.754  28.486  1.00  0.00     0.034 A 
ATOM     59  C   UNL A   1      45.258  36.216  28.165  1.00  0.00     0.049 A 
ATOM     60  C   UNL A   1      47.108  30.910  27.986  1.00  0.00     0.074 A 
ATOM     61  C   UNL A   1      46.144  37.191  27.740  1.00  0.00     0.029 A 
ATOM     62  N   UNL A   1      45.907  34.997  28.006  1.00  0.00    -0.354 N 
ATOM     63  N   UNL A   1      46.812  32.190  27.961  1.00  0.00    -0.248 NA
ATOM     64  C   UNL A   1      48.437  30.589  27.454  1.00  0.00     0.031 C 
ATOM     65  C   UNL A   1      47.296  36.558  27.261  1.00  0.00     0.029 A 
ATOM     66  C   UNL A   1      47.168  35.193  27.462  1.00  0.00     0.049 A 
ATOM     67  H   UNL A   1      45.526  34.121  28.244  1.00  0.00     0.167 HD
ATOM     68  C   UNL A   1      47.931  32.828  27.433  1.00  0.00     0.074 A 
ATOM     69  C   UNL A   1      48.912  31.794  27.172  1.00  0.00     0.031 C 
ATOM     70  C   UNL A   1      48.130  34.149  27.191  1.00  0.00     0.034 A 
BRANCH  57  71
ATOM     71  C   UNL A   1      43.302  37.760  28.710  1.00  0.00     0.023 A 
ATOM     72  C   UNL A   1      43.513  38.626  29.798  1.00  0.00     0.031 A 
ATOM     73  C   UNL A   1      42.457  38.203  27.677  1.00  0.00     0.131 A 
ATOM     74  C   UNL A   1      42.816  39.842  29.876  1.00  0.00     0.055 A 
ATOM     75  C   UNL A   1      41.840  39.456  27.716  1.00  0.00     0.041 A 
ATOM     76  F   UNL A   1      42.198  37.418  26.620  1.00  0.00    -0.206 F 
ATOM     77  C   UNL A   1      42.001  40.275  28.829  1.00  0.00     0.022 A 
BRANCH  74  78
ATOM     78  S   UNL A   1      42.855  40.761  31.439  1.00  0.00     0.124 S 
ATOM     79  O   UNL A   1      43.976  41.673  31.217  1.00  0.00    -0.237 OA
ATOM     80  O   UNL A   1      41.533  41.373  31.479  1.00  0.00    -0.237 OA
ATOM     81  O   UNL A   1      43.096  39.725  32.441  1.00  0.00    -0.744 OA
ENDBRANCH  74  78
ENDBRANCH  57  71
BRANCH  58  82
ATOM     82  C   UNL A   1      46.765  28.351  28.368  1.00  0.00     0.023 A 
ATOM     83  C   UNL A   1      46.402  27.542  27.280  1.00  0.00     0.031 A 
ATOM     84  C   UNL A   1      47.591  27.790  29.359  1.00  0.00     0.131 A 
ATOM     85  C   UNL A   1      46.833  26.206  27.225  1.00  0.00     0.055 A 
ATOM     86  C   UNL A   1      48.061  26.477  29.273  1.00  0.00     0.041 A 
ATOM     87  F   UNL A   1      47.972  28.520  30.419  1.00  0.00    -0.206 F 
ATOM     88  C   UNL A   1      47.672  25.674  28.207  1.00  0.00     0.022 A 
BRANCH  85  89
ATOM     89  S   UNL A   1      46.221  25.148  25.885  1.00  0.00     0.124 S 
ATOM     90  O   UNL A   1      46.431  25.994  24.718  1.00  0.00    -0.237 OA
ATOM     91  O   UNL A   1      47.089  23.981  25.999  1.00  0.00    -0.237 OA
ATOM     92  O   UNL A   1      44.823  24.918  26.247  1.00  0.00    -0.744 OA
ENDBRANCH  85  89
ENDBRANCH  58  82
BRANCH  70  93
ATOM     93  C   UNL A   1      49.483  34.551  26.652  1.00  0.00     0.023 A 
ATOM     94  C   UNL A   1      50.634  34.554  27.460  1.00  0.00     0.031 A 
ATOM     95  C   UNL A   1      49.618  34.946  25.309  1.00  0.00     0.131 A 
ATOM     96  C   UNL A   1      51.856  34.999  26.935  1.00  0.00     0.055 A 
ATOM     97  C   UNL A   1      50.850  35.325  24.774  1.00  0.00     0.041 A 
ATOM     98  F   UNL A   1      48.554  34.967  24.491  1.00  0.00    -0.206 F 
ATOM     99  C   UNL A   1      51.976  35.366  25.591  1.00  0.00     0.022 A 
BRANCH  96 100
ATOM    100  S   UNL A   1      53.271  35.186  28.055  1.00  0.00     0.124 S 
ATOM    101  O   UNL A   1      54.146  34.102  27.620  1.00  0.00    -0.237 OA
ATOM    102  O   UNL A   1      53.731  36.537  27.755  1.00  0.00    -0.237 OA
ATOM    103  O   UNL A   1      52.682  35.012  29.382  1.00  0.00    -0.744 OA
ENDBRANCH  96 100
ENDBRANCH  70  93
ENDBRANCH  44  45
ENDBRANCH  36  39
ENDBRANCH  34  35
ENDBRANCH  33  34
ENDBRANCH  32  33
ENDBRANCH  30  32
ENDBRANCH  26  28
ENDBRANCH   4  26
TORSDOF 23
ENDMDL
MODEL 2
REMARK VINA RESULT:     -10.4      0.941      7.419
REMARK SMILES CCCCCCCNC(=O)Oc1cccc(-c2ccc([C@@H](C)C(=O)NCCCNC(=O)c3ccc(-c4c5nc(c(-c6cc(S(=O)(=O)[O-])ccc6F)c6ccc([nH]6)c(-c6cc(S(=O)(=O)[O-])ccc6F)c6nc(c(-c7cc(S(=O)(=O)[O-])ccc7F)c7ccc4[nH]7)C=C6)C=C5)cc3)cc2F)c1
REMARK SMILES IDX 17 1 18 2 19 3 20 4 95 5 96 6 97 7 16 8 12 9 13 10 98 11
REMARK SMILES IDX 14 12 15 13 11 14 9 15 8 16 10 18 7 19 6 20 5 21 4 22 3 23
REMARK SMILES IDX 2 24 1 25 21 26 22 27 23 28 24 29 25 30 26 32 27 33 28 34
REMARK SMILES IDX 29 35 30 36 31 38 32 39 33 40 94 41 34 42 93 43 35 44 36 45
REMARK SMILES IDX 37 46 87 47 38 48 92 49 86 50 88 51 39 52 91 53 85 54 84 55
REMARK SMILES IDX 40 57 72 58 52 59 71 60 53 61 56 62 70 63 89 64 54 65 55 66
REMARK SMILES IDX 69 68 90 69 57 70 41 71 42 72 50 73 43 74 49 75 51 76 48 77
REMARK SMILES IDX 44 78 45 79 46 80 47 81 73 82 74 83 82 84 75 85 81 86 83 87
REMARK SMILES IDX 80 88 76 89 77 90 78 91 79 92 58 93 59 94 67 95 60 96 66 97
REMARK SMILES IDX 68 98 65 99 61 100 62 101 63 102 64 103
REMARK H PARENT 8 17 25 31 29 37 88 56 56 67
REMARK Flexibility Score: inf
ROOT
ATOM      1  C   UNL A   1      33.624  29.539  26.915  1.00  0.00     0.018 A 
ATOM      2  C   UNL A   1      34.998  29.570  27.205  1.00  0.00     0.012 A 
ATOM      3  C   UNL A   1      35.626  30.726  27.680  1.00  0.00     0.005 A 
ATOM      4  C   UNL A   1      34.928  31.928  27.807  1.00  0.00    -0.033 A 
ATOM      5  C   UNL A   1      33.552  31.907  27.543  1.00  0.00     0.044 A 
ATOM      6  C   UNL A   1      32.917  30.731  27.130  1.00  0.00     0.131 A 
ATOM      7  F   UNL A   1      31.587  30.782  26.947  1.00  0.00    -0.206 F 
ENDROOT
BRANCH   1   8
ATOM      8  C   UNL A   1      32.995  28.308  26.387  1.00  0.00    -0.012 A 
ATOM      9  C   UNL A   1      32.743  26.627  24.648  1.00  0.00     0.133 A 
ATOM     10  C   UNL A   1      31.846  25.902  25.423  1.00  0.00     0.047 A 
ATOM     11  C   UNL A   1      33.312  27.815  25.111  1.00  0.00     0.056 A 
ATOM     12  C   UNL A   1      31.518  26.369  26.688  1.00  0.00     0.004 A 
ATOM     13  C   UNL A   1      32.078  27.563  27.157  1.00  0.00     0.009 A 
BRANCH   9  14
ATOM     14  O   UNL A   1      32.942  26.186  23.331  1.00  0.00    -0.410 OA
BRANCH  14  15
ATOM     15  C   UNL A   1      32.989  27.124  22.312  1.00  0.00     0.412 C 
ATOM     16  N   UNL A   1      31.747  27.569  21.954  1.00  0.00    -0.321 N 
ATOM     17  H   UNL A   1      31.700  28.188  21.189  1.00  0.00     0.167 HD
ATOM     18  O   UNL A   1      33.997  27.549  21.762  1.00  0.00    -0.224 OA
BRANCH  16  19
ATOM     19  C   UNL A   1      30.492  27.221  22.588  1.00  0.00     0.119 C 
BRANCH  19  20
ATOM     20  C   UNL A   1      29.847  28.434  23.258  1.00  0.00     0.021 C 
BRANCH  20  21
ATOM     21  C   UNL A   1      28.843  29.188  22.377  1.00  0.00     0.002 C 
BRANCH  21  22
ATOM     22  C   UNL A   1      27.977  30.214  23.114  1.00  0.00     0.000 C 
BRANCH  22  23
ATOM     23  C   UNL A   1      28.735  31.428  23.661  1.00  0.00    -0.000 C 
BRANCH  23  24
ATOM     24  C   UNL A   1      28.616  32.702  22.819  1.00  0.00    -0.003 C 
ATOM     25  C   UNL A   1      29.407  33.871  23.384  1.00  0.00     0.004 C 
ENDBRANCH  23  24
ENDBRANCH  22  23
ENDBRANCH  21  22
ENDBRANCH  20  21
ENDBRANCH  19  20
ENDBRANCH  16  19
ENDBRANCH  14  15
ENDBRANCH   9  14
ENDBRANCH   1   8
BRANCH   4  26
ATOM     26  C   UNL A   1      35.603  33.238  28.180  1.00  0.00     0.105 C 
ATOM     27  C   UNL A   1      34.660  34.419  28.406  1.00  0.00     0.023 C 
BRANCH  26  28
ATOM     28  C   UNL A   1      36.703  33.089  29.241  1.00  0.00     0.227 C 
ATOM     29  O   UNL A   1      37.867  33.407  28.965  1.00  0.00    -0.274 OA
ATOM     30  N   UNL A   1      36.488  32.637  30.507  1.00  0.00    -0.356 N 
ATOM     31  H   UNL A   1      37.291  32.646  31.075  1.00  0.00     0.163 HD
BRANCH  30  32
ATOM     32  C   UNL A   1      35.299  32.145  31.175  1.00  0.00     0.117 C 
BRANCH  32  33
ATOM     33  C   UNL A   1      35.419  32.204  32.696  1.00  0.00     0.042 C 
BRANCH  33  34
ATOM     34  C   UNL A   1      36.771  31.747  33.226  1.00  0.00     0.118 C 
BRANCH  34  35
ATOM     35  N   UNL A   1      36.956  30.310  33.083  1.00  0.00    -0.352 N 
ATOM     36  C   UNL A   1      37.852  29.594  32.327  1.00  0.00     0.251 C 
ATOM     37  H   UNL A   1      36.338  29.761  33.617  1.00  0.00     0.163 HD
ATOM     38  O   UNL A   1      37.661  28.389  32.173  1.00  0.00    -0.269 OA
BRANCH  36  39
ATOM     39  C   UNL A   1      39.020  30.249  31.691  1.00  0.00     0.039 A 
ATOM     40  C   UNL A   1      40.016  30.791  32.510  1.00  0.00     0.014 A 
ATOM     41  C   UNL A   1      39.120  30.382  30.304  1.00  0.00     0.014 A 
ATOM     42  C   UNL A   1      41.129  31.413  31.938  1.00  0.00     0.010 A 
ATOM     43  C   UNL A   1      40.271  30.919  29.733  1.00  0.00     0.010 A 
ATOM     44  C   UNL A   1      41.284  31.453  30.543  1.00  0.00    -0.014 A 
BRANCH  44  45
ATOM     45  C   UNL A   1      42.482  32.070  29.914  1.00  0.00     0.031 A 
ATOM     46  C   UNL A   1      43.707  31.237  29.645  1.00  0.00     0.074 A 
ATOM     47  C   UNL A   1      42.488  33.389  29.640  1.00  0.00     0.049 A 
ATOM     48  N   UNL A   1      44.875  31.603  29.183  1.00  0.00    -0.248 NA
ATOM     49  C   UNL A   1      43.613  29.806  29.970  1.00  0.00     0.031 C 
ATOM     50  C   UNL A   1      41.377  34.309  29.898  1.00  0.00     0.029 A 
ATOM     51  N   UNL A   1      43.462  34.191  29.098  1.00  0.00    -0.354 N 
ATOM     52  C   UNL A   1      45.657  30.453  29.172  1.00  0.00     0.074 A 
ATOM     53  C   UNL A   1      44.850  29.396  29.745  1.00  0.00     0.031 C 
ATOM     54  C   UNL A   1      41.725  35.541  29.498  1.00  0.00     0.029 A 
ATOM     55  C   UNL A   1      43.098  35.513  29.002  1.00  0.00     0.049 A 
ATOM     56  H   UNL A   1      44.338  33.850  28.807  1.00  0.00     0.167 HD
ATOM     57  C   UNL A   1      46.919  30.286  28.702  1.00  0.00     0.034 A 
ATOM     58  C   UNL A   1      43.795  36.587  28.581  1.00  0.00     0.034 A 
ATOM     59  C   UNL A   1      47.708  31.354  28.135  1.00  0.00     0.049 A 
ATOM     60  C   UNL A   1      45.208  36.389  28.092  1.00  0.00     0.074 A 
ATOM     61  C   UNL A   1      48.980  31.295  27.593  1.00  0.00     0.029 A 
ATOM     62  N   UNL A   1      47.304  32.682  28.048  1.00  0.00    -0.354 N 
ATOM     63  N   UNL A   1      45.918  35.285  28.043  1.00  0.00    -0.248 NA
ATOM     64  C   UNL A   1      45.906  37.578  27.590  1.00  0.00     0.031 C 
ATOM     65  C   UNL A   1      49.371  32.593  27.246  1.00  0.00     0.029 A 
ATOM     66  C   UNL A   1      48.313  33.454  27.490  1.00  0.00     0.049 A 
ATOM     67  H   UNL A   1      46.429  33.024  28.341  1.00  0.00     0.167 HD
ATOM     68  C   UNL A   1      47.139  35.645  27.480  1.00  0.00     0.074 A 
ATOM     69  C   UNL A   1      47.060  37.062  27.190  1.00  0.00     0.031 C 
ATOM     70  C   UNL A   1      48.226  34.871  27.222  1.00  0.00     0.034 A 
BRANCH  57  71
ATOM     71  C   UNL A   1      47.520  28.901  28.808  1.00  0.00     0.023 A 
ATOM     72  C   UNL A   1      47.429  27.976  27.752  1.00  0.00     0.031 A 
ATOM     73  C   UNL A   1      48.146  28.478  29.993  1.00  0.00     0.131 A 
ATOM     74  C   UNL A   1      47.865  26.655  27.933  1.00  0.00     0.055 A 
ATOM     75  C   UNL A   1      48.664  27.188  30.134  1.00  0.00     0.041 A 
ATOM     76  F   UNL A   1      48.248  29.304  31.046  1.00  0.00    -0.206 F 
ATOM     77  C   UNL A   1      48.506  26.262  29.108  1.00  0.00     0.022 A 
BRANCH  74  78
ATOM     78  S   UNL A   1      47.423  25.420  26.680  1.00  0.00     0.124 S 
ATOM     79  O   UNL A   1      47.467  24.183  27.457  1.00  0.00    -0.237 OA
ATOM     80  O   UNL A   1      46.100  25.860  26.255  1.00  0.00    -0.237 OA
ATOM     81  O   UNL A   1      48.479  25.554  25.678  1.00  0.00    -0.744 OA
ENDBRANCH  74  78
ENDBRANCH  57  71
BRANCH  58  82
ATOM     82  C   UNL A   1      43.178  37.943  28.620  1.00  0.00     0.023 A 
ATOM     83  C   UNL A   1      43.396  38.813  29.699  1.00  0.00     0.031 A 
ATOM     84  C   UNL A   1      42.341  38.383  27.578  1.00  0.00     0.131 A 
ATOM     85  C   UNL A   1      42.755  40.063  29.732  1.00  0.00     0.055 A 
ATOM     86  C   UNL A   1      41.749  39.648  27.589  1.00  0.00     0.041 A 
ATOM     87  F   UNL A   1      42.102  37.593  26.520  1.00  0.00    -0.206 F 
ATOM     88  C   UNL A   1      41.946  40.492  28.677  1.00  0.00     0.022 A 
BRANCH  85  89
ATOM     89  S   UNL A   1      42.938  41.097  31.211  1.00  0.00     0.124 S 
ATOM     90  O   UNL A   1      43.829  40.287  32.032  1.00  0.00    -0.237 OA
ATOM     91  O   UNL A   1      43.508  42.321  30.658  1.00  0.00    -0.237 OA
ATOM     92  O   UNL A   1      41.569  41.221  31.709  1.00  0.00    -0.744 OA
ENDBRANCH  85  89
ENDBRANCH  58  82
BRANCH  70  93
ATOM     93  C   UNL A   1      49.402  35.543  26.554  1.00  0.00     0.023 A 
ATOM     94  C   UNL A   1      50.434  36.145  27.295  1.00  0.00     0.031 A 
ATOM     95  C   UNL A   1      49.484  35.590  25.151  1.00  0.00     0.131 A 
ATOM     96  C   UNL A   1      51.472  36.817  26.633  1.00  0.00     0.055 A 
ATOM     97  C   UNL A   1      50.553  36.202  24.496  1.00  0.00     0.041 A 
ATOM     98  F   UNL A   1      48.526  35.036  24.390  1.00  0.00    -0.206 F 
ATOM     99  C   UNL A   1      51.549  36.832  25.237  1.00  0.00     0.022 A 
BRANCH  96 100
ATOM    100  S   UNL A   1      52.672  37.755  27.617  1.00  0.00     0.124 S 
ATOM    101  O   UNL A   1      53.944  37.243  27.114  1.00  0.00    -0.237 OA
ATOM    102  O   UNL A   1      52.356  39.135  27.264  1.00  0.00    -0.237 OA
ATOM    103  O   UNL A   1      52.355  37.380  28.993  1.00  0.00    -0.744 OA
ENDBRANCH  96 100
ENDBRANCH  70  93
ENDBRANCH  44  45
ENDBRANCH  36  39
ENDBRANCH  34  35
ENDBRANCH  33  34
ENDBRANCH  32  33
ENDBRANCH  30  32
ENDBRANCH  26  28
ENDBRANCH   4  26
TORSDOF 23
ENDMDL
MODEL 3
REMARK VINA RESULT:     -10.2      4.514      9.714
REMARK SMILES CCCCCCCNC(=O)Oc1cccc(-c2ccc([C@@H](C)C(=O)NCCCNC(=O)c3ccc(-c4c5nc(c(-c6cc(S(=O)(=O)[O-])ccc6F)c6ccc([nH]6)c(-c6cc(S(=O)(=O)[O-])ccc6F)c6nc(c(-c7cc(S(=O)(=O)[O-])ccc7F)c7ccc4[nH]7)C=C6)C=C5)cc3)cc2F)c1
REMARK SMILES IDX 17 1 18 2 19 3 20 4 95 5 96 6 97 7 16 8 12 9 13 10 98 11
REMARK SMILES IDX 14 12 15 13 11 14 9 15 8 16 10 18 7 19 6 20 5 21 4 22 3 23
REMARK SMILES IDX 2 24 1 25 21 26 22 27 23 28 24 29 25 30 26 32 27 33 28 34
REMARK SMILES IDX 29 35 30 36 31 38 32 39 33 40 94 41 34 42 93 43 35 44 36 45
REMARK SMILES IDX 37 46 87 47 38 48 92 49 86 50 88 51 39 52 91 53 85 54 84 55
REMARK SMILES IDX 40 57 72 58 52 59 71 60 53 61 56 62 70 63 89 64 54 65 55 66
REMARK SMILES IDX 69 68 90 69 57 70 41 71 42 72 50 73 43 74 49 75 51 76 48 77
REMARK SMILES IDX 44 78 45 79 46 80 47 81 73 82 74 83 82 84 75 85 81 86 83 87
REMARK SMILES IDX 80 88 76 89 77 90 78 91 79 92 58 93 59 94 67 95 60 96 66 97
REMARK SMILES IDX 68 98 65 99 61 100 62 101 63 102 64 103
REMARK H PARENT 8 17 25 31 29 37 88 56 56 67
REMARK Flexibility Score: inf
ROOT
ATOM      1  C   UNL A   1      37.459  30.724  28.544  1.00  0.00     0.018 A 
ATOM      2  C   UNL A   1      36.257  30.389  27.900  1.00  0.00     0.012 A 
ATOM      3  C   UNL A   1      35.274  31.345  27.627  1.00  0.00     0.005 A 
ATOM      4  C   UNL A   1      35.409  32.665  28.062  1.00  0.00    -0.033 A 
ATOM      5  C   UNL A   1      36.612  33.019  28.687  1.00  0.00     0.044 A 
ATOM      6  C   UNL A   1      37.619  32.071  28.899  1.00  0.00     0.131 A 
ATOM      7  F   UNL A   1      38.762  32.503  29.457  1.00  0.00    -0.206 F 
ENDROOT
BRANCH   1   8
ATOM      8  C   UNL A   1      38.467  29.682  28.843  1.00  0.00    -0.012 A 
ATOM      9  C   UNL A   1      40.729  28.804  28.678  1.00  0.00     0.133 A 
ATOM     10  C   UNL A   1      40.411  27.723  29.492  1.00  0.00     0.047 A 
ATOM     11  C   UNL A   1      39.779  29.773  28.349  1.00  0.00     0.056 A 
ATOM     12  C   UNL A   1      39.121  27.613  29.992  1.00  0.00     0.004 A 
ATOM     13  C   UNL A   1      38.160  28.575  29.661  1.00  0.00     0.009 A 
BRANCH   9  14
ATOM     14  O   UNL A   1      42.004  28.803  28.093  1.00  0.00    -0.410 OA
BRANCH  14  15
ATOM     15  C   UNL A   1      42.134  28.400  26.774  1.00  0.00     0.412 C 
ATOM     16  N   UNL A   1      42.945  27.307  26.640  1.00  0.00    -0.321 N 
ATOM     17  H   UNL A   1      43.135  27.006  25.721  1.00  0.00     0.167 HD
ATOM     18  O   UNL A   1      41.602  28.917  25.800  1.00  0.00    -0.224 OA
BRANCH  16  19
ATOM     19  C   UNL A   1      43.551  26.548  27.713  1.00  0.00     0.119 C 
BRANCH  19  20
ATOM     20  C   UNL A   1      43.258  25.053  27.578  1.00  0.00     0.021 C 
BRANCH  20  21
ATOM     21  C   UNL A   1      44.061  24.159  28.532  1.00  0.00     0.002 C 
BRANCH  21  22
ATOM     22  C   UNL A   1      45.183  23.352  27.873  1.00  0.00     0.000 C 
BRANCH  22  23
ATOM     23  C   UNL A   1      44.839  22.764  26.501  1.00  0.00    -0.000 C 
BRANCH  23  24
ATOM     24  C   UNL A   1      46.033  22.566  25.562  1.00  0.00    -0.003 C 
ATOM     25  C   UNL A   1      45.895  23.324  24.250  1.00  0.00     0.004 C 
ENDBRANCH  23  24
ENDBRANCH  22  23
ENDBRANCH  21  22
ENDBRANCH  20  21
ENDBRANCH  19  20
ENDBRANCH  16  19
ENDBRANCH  14  15
ENDBRANCH   9  14
ENDBRANCH   1   8
BRANCH   4  26
ATOM     26  C   UNL A   1      34.305  33.699  27.915  1.00  0.00     0.105 C 
ATOM     27  C   UNL A   1      32.880  33.153  28.000  1.00  0.00     0.023 C 
BRANCH  26  28
ATOM     28  C   UNL A   1      34.545  34.982  28.725  1.00  0.00     0.227 C 
ATOM     29  O   UNL A   1      34.744  36.051  28.134  1.00  0.00    -0.274 OA
ATOM     30  N   UNL A   1      34.536  35.040  30.085  1.00  0.00    -0.356 N 
ATOM     31  H   UNL A   1      34.661  35.947  30.445  1.00  0.00     0.163 HD
BRANCH  30  32
ATOM     32  C   UNL A   1      34.379  34.018  31.101  1.00  0.00     0.117 C 
BRANCH  32  33
ATOM     33  C   UNL A   1      35.569  33.957  32.055  1.00  0.00     0.042 C 
BRANCH  33  34
ATOM     34  C   UNL A   1      35.589  32.715  32.935  1.00  0.00     0.118 C 
BRANCH  34  35
ATOM     35  N   UNL A   1      36.100  32.999  34.269  1.00  0.00    -0.352 N 
ATOM     36  C   UNL A   1      37.281  32.636  34.871  1.00  0.00     0.251 C 
ATOM     37  H   UNL A   1      35.501  33.540  34.832  1.00  0.00     0.163 HD
ATOM     38  O   UNL A   1      37.388  32.780  36.087  1.00  0.00    -0.269 OA
BRANCH  36  39
ATOM     39  C   UNL A   1      38.403  32.069  34.087  1.00  0.00     0.039 A 
ATOM     40  C   UNL A   1      39.709  32.454  34.406  1.00  0.00     0.014 A 
ATOM     41  C   UNL A   1      38.182  31.206  33.011  1.00  0.00     0.014 A 
ATOM     42  C   UNL A   1      40.787  31.934  33.684  1.00  0.00     0.010 A 
ATOM     43  C   UNL A   1      39.259  30.618  32.352  1.00  0.00     0.010 A 
ATOM     44  C   UNL A   1      40.574  30.984  32.672  1.00  0.00    -0.014 A 
BRANCH  44  45
ATOM     45  C   UNL A   1      41.710  30.385  31.922  1.00  0.00     0.031 A 
ATOM     46  C   UNL A   1      42.291  29.066  32.358  1.00  0.00     0.074 A 
ATOM     47  C   UNL A   1      42.255  31.054  30.887  1.00  0.00     0.049 A 
ATOM     48  N   UNL A   1      43.328  28.420  31.891  1.00  0.00    -0.248 NA
ATOM     49  C   UNL A   1      41.633  28.402  33.493  1.00  0.00     0.031 C 
ATOM     50  C   UNL A   1      41.808  32.361  30.400  1.00  0.00     0.029 A 
ATOM     51  N   UNL A   1      43.309  30.737  30.066  1.00  0.00    -0.354 N 
ATOM     52  C   UNL A   1      43.454  27.281  32.680  1.00  0.00     0.074 A 
ATOM     53  C   UNL A   1      42.431  27.368  33.701  1.00  0.00     0.031 C 
ATOM     54  C   UNL A   1      42.569  32.724  29.356  1.00  0.00     0.029 A 
ATOM     55  C   UNL A   1      43.588  31.704  29.129  1.00  0.00     0.049 A 
ATOM     56  H   UNL A   1      43.817  29.898  30.142  1.00  0.00     0.167 HD
ATOM     57  C   UNL A   1      44.322  26.246  32.548  1.00  0.00     0.034 A 
ATOM     58  C   UNL A   1      44.566  31.774  28.204  1.00  0.00     0.034 A 
ATOM     59  C   UNL A   1      45.337  26.180  31.523  1.00  0.00     0.049 A 
ATOM     60  C   UNL A   1      45.542  30.629  28.093  1.00  0.00     0.074 A 
ATOM     61  C   UNL A   1      46.244  25.166  31.270  1.00  0.00     0.029 A 
ATOM     62  N   UNL A   1      45.587  27.176  30.586  1.00  0.00    -0.354 N 
ATOM     63  N   UNL A   1      45.619  29.536  28.816  1.00  0.00    -0.248 NA
ATOM     64  C   UNL A   1      46.552  30.723  27.033  1.00  0.00     0.031 C 
ATOM     65  C   UNL A   1      47.085  25.579  30.231  1.00  0.00     0.029 A 
ATOM     66  C   UNL A   1      46.652  26.814  29.775  1.00  0.00     0.049 A 
ATOM     67  H   UNL A   1      45.081  28.017  30.510  1.00  0.00     0.167 HD
ATOM     68  C   UNL A   1      46.672  28.800  28.280  1.00  0.00     0.074 A 
ATOM     69  C   UNL A   1      47.185  29.566  27.163  1.00  0.00     0.031 C 
ATOM     70  C   UNL A   1      47.165  27.597  28.674  1.00  0.00     0.034 A 
BRANCH  57  71
ATOM     71  C   UNL A   1      44.216  25.122  33.557  1.00  0.00     0.023 A 
ATOM     72  C   UNL A   1      44.547  25.315  34.910  1.00  0.00     0.031 A 
ATOM     73  C   UNL A   1      43.831  23.832  33.156  1.00  0.00     0.131 A 
ATOM     74  C   UNL A   1      44.580  24.222  35.790  1.00  0.00     0.055 A 
ATOM     75  C   UNL A   1      43.774  22.766  34.058  1.00  0.00     0.041 A 
ATOM     76  F   UNL A   1      43.522  23.575  31.875  1.00  0.00    -0.206 F 
ATOM     77  C   UNL A   1      44.169  22.953  35.379  1.00  0.00     0.022 A 
BRANCH  74  78
ATOM     78  S   UNL A   1      45.332  24.451  37.424  1.00  0.00     0.124 S 
ATOM     79  O   UNL A   1      45.815  23.103  37.718  1.00  0.00    -0.237 OA
ATOM     80  O   UNL A   1      46.357  25.453  37.163  1.00  0.00    -0.237 OA
ATOM     81  O   UNL A   1      44.217  24.898  38.256  1.00  0.00    -0.744 OA
ENDBRANCH  74  78
ENDBRANCH  57  71
BRANCH  58  82
ATOM     82  C   UNL A   1      44.682  32.972  27.325  1.00  0.00     0.023 A 
ATOM     83  C   UNL A   1      45.336  34.135  27.760  1.00  0.00     0.031 A 
ATOM     84  C   UNL A   1      44.120  32.975  26.035  1.00  0.00     0.131 A 
ATOM     85  C   UNL A   1      45.380  35.266  26.927  1.00  0.00     0.055 A 
ATOM     86  C   UNL A   1      44.213  34.083  25.191  1.00  0.00     0.041 A 
ATOM     87  F   UNL A   1      43.487  31.887  25.567  1.00  0.00    -0.206 F 
ATOM     88  C   UNL A   1      44.837  35.242  25.641  1.00  0.00     0.022 A 
BRANCH  85  89
ATOM     89  S   UNL A   1      46.098  36.799  27.580  1.00  0.00     0.124 S 
ATOM     90  O   UNL A   1      47.493  36.418  27.765  1.00  0.00    -0.237 OA
ATOM     91  O   UNL A   1      45.826  37.743  26.502  1.00  0.00    -0.237 OA
ATOM     92  O   UNL A   1      45.344  37.029  28.811  1.00  0.00    -0.744 OA
ENDBRANCH  85  89
ENDBRANCH  58  82
BRANCH  70  93
ATOM     93  C   UNL A   1      48.297  27.020  27.857  1.00  0.00     0.023 A 
ATOM     94  C   UNL A   1      49.644  27.279  28.166  1.00  0.00     0.031 A 
ATOM     95  C   UNL A   1      48.021  26.207  26.743  1.00  0.00     0.131 A 
ATOM     96  C   UNL A   1      50.661  26.778  27.340  1.00  0.00     0.055 A 
ATOM     97  C   UNL A   1      49.038  25.657  25.962  1.00  0.00     0.041 A 
ATOM     98  F   UNL A   1      46.754  25.930  26.396  1.00  0.00    -0.206 F 
ATOM     99  C   UNL A   1      50.367  25.952  26.251  1.00  0.00     0.022 A 
BRANCH  96 100
ATOM    100  S   UNL A   1      52.371  27.299  27.647  1.00  0.00     0.124 S 
ATOM    101  O   UNL A   1      52.198  28.699  28.024  1.00  0.00    -0.237 OA
ATOM    102  O   UNL A   1      52.786  26.397  28.716  1.00  0.00    -0.237 OA
ATOM    103  O   UNL A   1      53.032  27.081  26.362  1.00  0.00    -0.744 OA
ENDBRANCH  96 100
ENDBRANCH  70  93
ENDBRANCH  44  45
ENDBRANCH  36  39
ENDBRANCH  34  35
ENDBRANCH  33  34
ENDBRANCH  32  33
ENDBRANCH  30  32
ENDBRANCH  26  28
ENDBRANCH   4  26
TORSDOF 23
ENDMDL
