MODEL 1
REMARK VINA RESULT:     -14.1      0.000      0.000
REMARK SMILES COc1ccc(-c2[nH]nc3nc(-c4ccc(C(F)(F)F)cc4)cc(C(=O)NCCCNC(=O)c4ccc(-c5c6nc(c(-c7cc(S(=O)(=O)[O-])ccc7F)c7ccc([nH]7)c(-c7cc(S(=O)(=O)[O-])ccc7F)c7nc(c(-c8cc(S(=O)(=O)[O-])ccc8F)c8ccc5[nH]8)C=C7)C=C6)cc4)c23)cc1
REMARK SMILES IDX 29 1 28 2 27 3 25 4 26 5 24 7 7 8 8 9 97 10 9 11 10 13 11 14
REMARK SMILES IDX 23 15 12 16 6 17 3 18 4 19 99 20 5 21 98 22 2 23 1 24 13 25
REMARK SMILES IDX 14 26 22 27 15 28 21 29 16 30 17 31 18 32 19 33 20 34 30 35
REMARK SMILES IDX 31 36 32 37 33 39 34 40 35 41 96 42 36 43 95 44 37 45 38 46
REMARK SMILES IDX 39 47 89 48 40 49 94 50 88 51 90 52 41 53 93 54 87 55 86 56
REMARK SMILES IDX 42 58 74 59 54 60 73 61 55 62 58 63 72 64 91 65 56 66 57 67
REMARK SMILES IDX 71 69 92 70 59 71 43 72 44 73 52 74 45 75 51 76 53 77 50 78
REMARK SMILES IDX 46 79 47 80 48 81 49 82 75 83 76 84 84 85 77 86 83 87 85 88
REMARK SMILES IDX 82 89 78 90 79 91 80 92 81 93 60 94 61 95 69 96 62 97 68 98
REMARK SMILES IDX 70 99 67 100 63 101 64 102 65 103 66 104
REMARK H PARENT 27 6 8 12 31 38 90 57 58 68
REMARK Flexibility Score: inf
ROOT
ATOM      1  C   UNL A   1      33.378  29.039  27.411  1.00  0.00     0.042 C 
ENDROOT
BRANCH   1   2
ATOM      2  C   UNL A   1      32.499  28.825  26.170  1.00  0.00     0.118 C 
BRANCH   2   3
ATOM      3  N   UNL A   1      31.630  27.664  26.297  1.00  0.00    -0.352 N 
ATOM      4  C   UNL A   1      31.627  26.392  25.777  1.00  0.00     0.252 C 
ATOM      5  O   UNL A   1      30.803  25.639  26.279  1.00  0.00    -0.269 OA
ATOM      6  H   UNL A   1      30.866  27.830  26.894  1.00  0.00     0.163 HD
BRANCH   4   7
ATOM      7  C   UNL A   1      32.569  25.914  24.736  1.00  0.00     0.055 A 
ATOM      8  C   UNL A   1      31.453  26.555  22.539  1.00  0.00     0.075 A 
ATOM      9  N   UNL A   1      31.776  26.187  21.253  1.00  0.00    -0.275 N 
ATOM     10  C   UNL A   1      32.399  25.926  23.336  1.00  0.00     0.059 A 
ATOM     11  N   UNL A   1      32.861  25.409  21.135  1.00  0.00    -0.154 NA
ATOM     12  H   UNL A   1      31.245  26.474  20.475  1.00  0.00     0.190 HD
ATOM     13  C   UNL A   1      33.274  25.260  22.392  1.00  0.00     0.182 A 
ATOM     14  N   UNL A   1      34.374  24.556  22.767  1.00  0.00    -0.226 NA
ATOM     15  C   UNL A   1      33.786  25.294  25.039  1.00  0.00     0.043 A 
ATOM     16  C   UNL A   1      34.590  24.605  24.102  1.00  0.00     0.074 A 
BRANCH   8  17
ATOM     17  C   UNL A   1      30.361  27.498  22.757  1.00  0.00     0.001 A 
ATOM     18  C   UNL A   1      28.228  29.300  23.124  1.00  0.00     0.118 A 
ATOM     19  C   UNL A   1      29.442  29.733  22.584  1.00  0.00     0.047 A 
ATOM     20  C   UNL A   1      28.088  27.965  23.499  1.00  0.00     0.047 A 
ATOM     21  C   UNL A   1      30.507  28.844  22.406  1.00  0.00     0.014 A 
ATOM     22  C   UNL A   1      29.155  27.071  23.327  1.00  0.00     0.014 A 
BRANCH  18  23
ATOM     23  O   UNL A   1      27.265  30.267  23.202  1.00  0.00    -0.497 OA
ATOM     24  C   UNL A   1      27.707  31.610  23.355  1.00  0.00     0.278 C 
ENDBRANCH  18  23
ENDBRANCH   8  17
BRANCH  16  25
ATOM     25  C   UNL A   1      35.701  23.799  24.633  1.00  0.00     0.000 A 
ATOM     26  C   UNL A   1      36.102  22.602  24.031  1.00  0.00     0.011 A 
ATOM     27  C   UNL A   1      36.458  24.285  25.719  1.00  0.00     0.011 A 
ATOM     28  C   UNL A   1      37.248  21.930  24.478  1.00  0.00     0.014 A 
ATOM     29  C   UNL A   1      37.599  23.617  26.167  1.00  0.00     0.014 A 
ATOM     30  C   UNL A   1      38.012  22.435  25.543  1.00  0.00     0.056 A 
BRANCH  30  31
ATOM     31  C   UNL A   1      39.254  21.711  26.002  1.00  0.00     0.416 C 
ATOM     32  F   UNL A   1      39.461  21.826  27.343  1.00  0.00    -0.166 F 
ATOM     33  F   UNL A   1      39.205  20.374  25.745  1.00  0.00    -0.166 F 
ATOM     34  F   UNL A   1      40.397  22.159  25.410  1.00  0.00    -0.166 F 
ENDBRANCH  30  31
ENDBRANCH  16  25
ENDBRANCH   4   7
ENDBRANCH   2   3
ENDBRANCH   1   2
BRANCH   1  35
ATOM     35  C   UNL A   1      34.807  29.391  27.037  1.00  0.00     0.118 C 
BRANCH  35  36
ATOM     36  N   UNL A   1      35.066  30.827  27.165  1.00  0.00    -0.352 N 
ATOM     37  C   UNL A   1      35.920  31.484  28.037  1.00  0.00     0.251 C 
ATOM     38  H   UNL A   1      34.565  31.406  26.546  1.00  0.00     0.163 HD
ATOM     39  O   UNL A   1      35.772  32.671  28.261  1.00  0.00    -0.269 OA
BRANCH  37  40
ATOM     40  C   UNL A   1      36.996  30.708  28.682  1.00  0.00     0.039 A 
ATOM     41  C   UNL A   1      36.818  29.375  29.061  1.00  0.00     0.014 A 
ATOM     42  C   UNL A   1      38.221  31.341  28.864  1.00  0.00     0.014 A 
ATOM     43  C   UNL A   1      37.917  28.667  29.546  1.00  0.00     0.010 A 
ATOM     44  C   UNL A   1      39.333  30.597  29.145  1.00  0.00     0.010 A 
ATOM     45  C   UNL A   1      39.179  29.283  29.565  1.00  0.00    -0.014 A 
BRANCH  45  46
ATOM     46  C   UNL A   1      40.397  28.545  29.885  1.00  0.00     0.031 A 
ATOM     47  C   UNL A   1      40.615  28.375  31.343  1.00  0.00     0.074 A 
ATOM     48  C   UNL A   1      41.101  27.856  28.958  1.00  0.00     0.049 A 
ATOM     49  N   UNL A   1      41.471  28.993  32.088  1.00  0.00    -0.248 NA
ATOM     50  C   UNL A   1      39.628  27.593  32.109  1.00  0.00     0.031 C 
ATOM     51  C   UNL A   1      40.797  27.687  27.530  1.00  0.00     0.029 A 
ATOM     52  N   UNL A   1      42.190  27.056  29.118  1.00  0.00    -0.354 N 
ATOM     53  C   UNL A   1      41.326  28.446  33.358  1.00  0.00     0.074 A 
ATOM     54  C   UNL A   1      40.030  27.829  33.360  1.00  0.00     0.031 C 
ATOM     55  C   UNL A   1      41.528  26.669  27.022  1.00  0.00     0.029 A 
ATOM     56  C   UNL A   1      42.479  26.233  28.029  1.00  0.00     0.049 A 
ATOM     57  H   UNL A   1      42.733  27.059  29.939  1.00  0.00     0.167 HD
ATOM     58  C   UNL A   1      42.409  28.285  34.172  1.00  0.00     0.034 A 
ATOM     59  C   UNL A   1      43.425  25.256  27.955  1.00  0.00     0.034 A 
ATOM     60  C   UNL A   1      43.536  29.047  33.660  1.00  0.00     0.049 A 
ATOM     61  C   UNL A   1      44.417  25.559  29.017  1.00  0.00     0.074 A 
ATOM     62  C   UNL A   1      43.756  30.380  33.369  1.00  0.00     0.029 A 
ATOM     63  N   UNL A   1      44.518  28.358  32.976  1.00  0.00    -0.354 N 
ATOM     64  N   UNL A   1      45.163  26.630  29.006  1.00  0.00    -0.248 NA
ATOM     65  C   UNL A   1      44.220  24.959  30.328  1.00  0.00     0.031 C 
ATOM     66  C   UNL A   1      44.512  30.374  32.158  1.00  0.00     0.029 A 
ATOM     67  C   UNL A   1      44.807  29.050  31.827  1.00  0.00     0.049 A 
ATOM     68  H   UNL A   1      44.939  27.516  33.264  1.00  0.00     0.167 HD
ATOM     69  C   UNL A   1      45.146  27.092  30.315  1.00  0.00     0.074 A 
ATOM     70  C   UNL A   1      44.644  25.965  31.102  1.00  0.00     0.031 C 
ATOM     71  C   UNL A   1      45.254  28.426  30.592  1.00  0.00     0.034 A 
BRANCH  58  72
ATOM     72  C   UNL A   1      42.609  27.127  35.139  1.00  0.00     0.023 A 
ATOM     73  C   UNL A   1      43.466  26.097  34.705  1.00  0.00     0.031 A 
ATOM     74  C   UNL A   1      41.824  26.818  36.273  1.00  0.00     0.131 A 
ATOM     75  C   UNL A   1      43.385  24.805  35.248  1.00  0.00     0.055 A 
ATOM     76  C   UNL A   1      41.793  25.545  36.853  1.00  0.00     0.041 A 
ATOM     77  F   UNL A   1      40.998  27.690  36.854  1.00  0.00    -0.206 F 
ATOM     78  C   UNL A   1      42.540  24.515  36.312  1.00  0.00     0.022 A 
BRANCH  75  79
ATOM     79  S   UNL A   1      44.250  23.471  34.386  1.00  0.00     0.124 S 
ATOM     80  O   UNL A   1      44.493  22.535  35.480  1.00  0.00    -0.237 OA
ATOM     81  O   UNL A   1      43.259  23.066  33.395  1.00  0.00    -0.237 OA
ATOM     82  O   UNL A   1      45.438  24.130  33.850  1.00  0.00    -0.744 OA
ENDBRANCH  75  79
ENDBRANCH  58  72
BRANCH  59  83
ATOM     83  C   UNL A   1      43.332  23.938  27.261  1.00  0.00     0.023 A 
ATOM     84  C   UNL A   1      44.128  23.577  26.150  1.00  0.00     0.031 A 
ATOM     85  C   UNL A   1      42.597  22.897  27.873  1.00  0.00     0.131 A 
ATOM     86  C   UNL A   1      44.164  22.231  25.701  1.00  0.00     0.055 A 
ATOM     87  C   UNL A   1      42.641  21.572  27.429  1.00  0.00     0.041 A 
ATOM     88  F   UNL A   1      41.875  23.117  28.983  1.00  0.00    -0.206 F 
ATOM     89  C   UNL A   1      43.432  21.231  26.345  1.00  0.00     0.022 A 
BRANCH  86  90
ATOM     90  S   UNL A   1      45.233  21.731  24.306  1.00  0.00     0.124 S 
ATOM     91  O   UNL A   1      45.283  22.942  23.498  1.00  0.00    -0.237 OA
ATOM     92  O   UNL A   1      46.469  21.346  24.980  1.00  0.00    -0.237 OA
ATOM     93  O   UNL A   1      44.501  20.619  23.697  1.00  0.00    -0.744 OA
ENDBRANCH  86  90
ENDBRANCH  59  83
BRANCH  71  94
ATOM     94  C   UNL A   1      45.706  29.356  29.479  1.00  0.00     0.023 A 
ATOM     95  C   UNL A   1      44.847  30.063  28.603  1.00  0.00     0.031 A 
ATOM     96  C   UNL A   1      47.084  29.614  29.386  1.00  0.00     0.131 A 
ATOM     97  C   UNL A   1      45.387  30.976  27.672  1.00  0.00     0.055 A 
ATOM     98  C   UNL A   1      47.610  30.534  28.481  1.00  0.00     0.041 A 
ATOM     99  F   UNL A   1      47.949  28.995  30.207  1.00  0.00    -0.206 F 
ATOM    100  C   UNL A   1      46.763  31.215  27.616  1.00  0.00     0.022 A 
BRANCH  97 101
ATOM    101  S   UNL A   1      44.311  31.862  26.495  1.00  0.00     0.124 S 
ATOM    102  O   UNL A   1      45.210  32.208  25.401  1.00  0.00    -0.237 OA
ATOM    103  O   UNL A   1      43.287  30.865  26.190  1.00  0.00    -0.237 OA
ATOM    104  O   UNL A   1      43.827  33.007  27.269  1.00  0.00    -0.744 OA
ENDBRANCH  97 101
ENDBRANCH  71  94
ENDBRANCH  45  46
ENDBRANCH  37  40
ENDBRANCH  35  36
ENDBRANCH   1  35
TORSDOF 17
ENDMDL
MODEL 2
REMARK VINA RESULT:     -13.9      3.995      8.080
REMARK SMILES COc1ccc(-c2[nH]nc3nc(-c4ccc(C(F)(F)F)cc4)cc(C(=O)NCCCNC(=O)c4ccc(-c5c6nc(c(-c7cc(S(=O)(=O)[O-])ccc7F)c7ccc([nH]7)c(-c7cc(S(=O)(=O)[O-])ccc7F)c7nc(c(-c8cc(S(=O)(=O)[O-])ccc8F)c8ccc5[nH]8)C=C7)C=C6)cc4)c23)cc1
REMARK SMILES IDX 29 1 28 2 27 3 25 4 26 5 24 7 7 8 8 9 97 10 9 11 10 13 11 14
REMARK SMILES IDX 23 15 12 16 6 17 3 18 4 19 99 20 5 21 98 22 2 23 1 24 13 25
REMARK SMILES IDX 14 26 22 27 15 28 21 29 16 30 17 31 18 32 19 33 20 34 30 35
REMARK SMILES IDX 31 36 32 37 33 39 34 40 35 41 96 42 36 43 95 44 37 45 38 46
REMARK SMILES IDX 39 47 89 48 40 49 94 50 88 51 90 52 41 53 93 54 87 55 86 56
REMARK SMILES IDX 42 58 74 59 54 60 73 61 55 62 58 63 72 64 91 65 56 66 57 67
REMARK SMILES IDX 71 69 92 70 59 71 43 72 44 73 52 74 45 75 51 76 53 77 50 78
REMARK SMILES IDX 46 79 47 80 48 81 49 82 75 83 76 84 84 85 77 86 83 87 85 88
REMARK SMILES IDX 82 89 78 90 79 91 80 92 81 93 60 94 61 95 69 96 62 97 68 98
REMARK SMILES IDX 70 99 67 100 63 101 64 102 65 103 66 104
REMARK H PARENT 27 6 8 12 31 38 90 57 58 68
REMARK Flexibility Score: inf
ROOT
ATOM      1  C   UNL A   1      36.967  20.825  24.734  1.00  0.00     0.042 C 
ENDROOT
BRANCH   1   2
ATOM      2  C   UNL A   1      35.873  21.833  25.109  1.00  0.00     0.118 C 
BRANCH   2   3
ATOM      3  N   UNL A   1      35.263  22.453  23.941  1.00  0.00    -0.352 N 
ATOM      4  C   UNL A   1      34.273  23.386  23.743  1.00  0.00     0.252 C 
ATOM      5  O   UNL A   1      34.173  23.783  22.590  1.00  0.00    -0.269 OA
ATOM      6  H   UNL A   1      35.649  22.127  23.098  1.00  0.00     0.163 HD
BRANCH   4   7
ATOM      7  C   UNL A   1      33.417  23.937  24.822  1.00  0.00     0.055 A 
ATOM      8  C   UNL A   1      31.772  22.062  25.335  1.00  0.00     0.075 A 
ATOM      9  N   UNL A   1      30.632  22.085  26.105  1.00  0.00    -0.275 N 
ATOM     10  C   UNL A   1      32.279  23.351  25.415  1.00  0.00     0.059 A 
ATOM     11  N   UNL A   1      30.369  23.253  26.706  1.00  0.00    -0.154 NA
ATOM     12  H   UNL A   1      30.049  21.297  26.205  1.00  0.00     0.190 HD
ATOM     13  C   UNL A   1      31.377  24.033  26.321  1.00  0.00     0.182 A 
ATOM     14  N   UNL A   1      31.549  25.325  26.709  1.00  0.00    -0.226 NA
ATOM     15  C   UNL A   1      33.607  25.210  25.368  1.00  0.00     0.043 A 
ATOM     16  C   UNL A   1      32.680  25.870  26.207  1.00  0.00     0.074 A 
BRANCH   8  17
ATOM     17  C   UNL A   1      32.205  20.803  24.740  1.00  0.00     0.001 A 
ATOM     18  C   UNL A   1      33.098  18.394  23.585  1.00  0.00     0.118 A 
ATOM     19  C   UNL A   1      32.459  19.363  22.807  1.00  0.00     0.047 A 
ATOM     20  C   UNL A   1      33.273  18.623  24.948  1.00  0.00     0.047 A 
ATOM     21  C   UNL A   1      32.008  20.558  23.377  1.00  0.00     0.014 A 
ATOM     22  C   UNL A   1      32.817  19.817  25.524  1.00  0.00     0.014 A 
BRANCH  18  23
ATOM     23  O   UNL A   1      33.521  17.296  22.888  1.00  0.00    -0.497 OA
ATOM     24  C   UNL A   1      34.191  16.280  23.624  1.00  0.00     0.278 C 
ENDBRANCH  18  23
ENDBRANCH   8  17
BRANCH  16  25
ATOM     25  C   UNL A   1      32.920  27.296  26.484  1.00  0.00     0.000 A 
ATOM     26  C   UNL A   1      31.916  28.132  26.983  1.00  0.00     0.011 A 
ATOM     27  C   UNL A   1      34.219  27.825  26.343  1.00  0.00     0.011 A 
ATOM     28  C   UNL A   1      32.211  29.447  27.366  1.00  0.00     0.014 A 
ATOM     29  C   UNL A   1      34.515  29.136  26.721  1.00  0.00     0.014 A 
ATOM     30  C   UNL A   1      33.514  29.959  27.246  1.00  0.00     0.056 A 
BRANCH  30  31
ATOM     31  C   UNL A   1      33.822  31.372  27.679  1.00  0.00     0.416 C 
ATOM     32  F   UNL A   1      33.930  31.493  29.031  1.00  0.00    -0.166 F 
ATOM     33  F   UNL A   1      34.998  31.831  27.168  1.00  0.00    -0.166 F 
ATOM     34  F   UNL A   1      32.876  32.277  27.301  1.00  0.00    -0.166 F 
ENDBRANCH  30  31
ENDBRANCH  16  25
ENDBRANCH   4   7
ENDBRANCH   2   3
ENDBRANCH   1   2
BRANCH   1  35
ATOM     35  C   UNL A   1      38.283  21.134  25.427  1.00  0.00     0.118 C 
BRANCH  35  36
ATOM     36  N   UNL A   1      39.112  19.936  25.583  1.00  0.00    -0.352 N 
ATOM     37  C   UNL A   1      40.459  19.844  25.890  1.00  0.00     0.251 C 
ATOM     38  H   UNL A   1      38.648  19.078  25.450  1.00  0.00     0.163 HD
ATOM     39  O   UNL A   1      41.076  18.824  25.645  1.00  0.00    -0.269 OA
BRANCH  37  40
ATOM     40  C   UNL A   1      41.119  21.010  26.510  1.00  0.00     0.039 A 
ATOM     41  C   UNL A   1      41.865  21.920  25.758  1.00  0.00     0.014 A 
ATOM     42  C   UNL A   1      40.935  21.198  27.875  1.00  0.00     0.014 A 
ATOM     43  C   UNL A   1      42.350  23.066  26.387  1.00  0.00     0.010 A 
ATOM     44  C   UNL A   1      41.234  22.407  28.439  1.00  0.00     0.010 A 
ATOM     45  C   UNL A   1      42.010  23.312  27.727  1.00  0.00    -0.014 A 
BRANCH  45  46
ATOM     46  C   UNL A   1      42.328  24.573  28.389  1.00  0.00     0.031 A 
ATOM     47  C   UNL A   1      41.271  25.603  28.232  1.00  0.00     0.074 A 
ATOM     48  C   UNL A   1      43.343  24.700  29.274  1.00  0.00     0.049 A 
ATOM     49  N   UNL A   1      41.297  26.648  27.474  1.00  0.00    -0.248 NA
ATOM     50  C   UNL A   1      39.944  25.333  28.814  1.00  0.00     0.031 C 
ATOM     51  C   UNL A   1      44.263  23.659  29.754  1.00  0.00     0.029 A 
ATOM     52  N   UNL A   1      43.702  25.772  30.030  1.00  0.00    -0.354 N 
ATOM     53  C   UNL A   1      40.106  27.321  27.722  1.00  0.00     0.074 A 
ATOM     54  C   UNL A   1      39.233  26.344  28.310  1.00  0.00     0.031 C 
ATOM     55  C   UNL A   1      44.901  24.086  30.867  1.00  0.00     0.029 A 
ATOM     56  C   UNL A   1      44.578  25.485  31.078  1.00  0.00     0.049 A 
ATOM     57  H   UNL A   1      43.370  26.681  29.851  1.00  0.00     0.167 HD
ATOM     58  C   UNL A   1      40.064  28.684  27.710  1.00  0.00     0.034 A 
ATOM     59  C   UNL A   1      45.005  26.331  32.057  1.00  0.00     0.034 A 
ATOM     60  C   UNL A   1      41.268  29.215  27.093  1.00  0.00     0.049 A 
ATOM     61  C   UNL A   1      44.801  27.705  31.537  1.00  0.00     0.074 A 
ATOM     62  C   UNL A   1      41.876  29.066  25.861  1.00  0.00     0.029 A 
ATOM     63  N   UNL A   1      42.253  29.707  27.928  1.00  0.00    -0.354 N 
ATOM     64  N   UNL A   1      45.444  28.175  30.503  1.00  0.00    -0.248 NA
ATOM     65  C   UNL A   1      43.537  28.366  31.827  1.00  0.00     0.031 C 
ATOM     66  C   UNL A   1      43.273  28.990  26.145  1.00  0.00     0.029 A 
ATOM     67  C   UNL A   1      43.459  29.202  27.512  1.00  0.00     0.049 A 
ATOM     68  H   UNL A   1      42.113  30.315  28.689  1.00  0.00     0.167 HD
ATOM     69  C   UNL A   1      44.486  28.852  29.761  1.00  0.00     0.074 A 
ATOM     70  C   UNL A   1      43.361  29.029  30.679  1.00  0.00     0.031 C 
ATOM     71  C   UNL A   1      44.579  28.937  28.400  1.00  0.00     0.034 A 
BRANCH  58  72
ATOM     72  C   UNL A   1      39.199  29.539  28.625  1.00  0.00     0.023 A 
ATOM     73  C   UNL A   1      39.555  29.544  29.988  1.00  0.00     0.031 A 
ATOM     74  C   UNL A   1      37.927  30.082  28.335  1.00  0.00     0.131 A 
ATOM     75  C   UNL A   1      38.625  29.883  30.983  1.00  0.00     0.055 A 
ATOM     76  C   UNL A   1      37.024  30.479  29.327  1.00  0.00     0.041 A 
ATOM     77  F   UNL A   1      37.448  30.207  27.095  1.00  0.00    -0.206 F 
ATOM     78  C   UNL A   1      37.351  30.336  30.663  1.00  0.00     0.022 A 
BRANCH  75  79
ATOM     79  S   UNL A   1      39.050  29.507  32.700  1.00  0.00     0.124 S 
ATOM     80  O   UNL A   1      38.019  30.251  33.418  1.00  0.00    -0.237 OA
ATOM     81  O   UNL A   1      38.934  28.054  32.724  1.00  0.00    -0.237 OA
ATOM     82  O   UNL A   1      40.407  30.030  32.833  1.00  0.00    -0.744 OA
ENDBRANCH  75  79
ENDBRANCH  58  72
BRANCH  59  83
ATOM     83  C   UNL A   1      45.253  26.019  33.496  1.00  0.00     0.023 A 
ATOM     84  C   UNL A   1      44.268  26.129  34.505  1.00  0.00     0.031 A 
ATOM     85  C   UNL A   1      46.445  25.347  33.852  1.00  0.00     0.131 A 
ATOM     86  C   UNL A   1      44.498  25.581  35.794  1.00  0.00     0.055 A 
ATOM     87  C   UNL A   1      46.663  24.806  35.122  1.00  0.00     0.041 A 
ATOM     88  F   UNL A   1      47.407  25.117  32.946  1.00  0.00    -0.206 F 
ATOM     89  C   UNL A   1      45.686  24.914  36.097  1.00  0.00     0.022 A 
BRANCH  86  90
ATOM     90  S   UNL A   1      43.216  25.658  37.093  1.00  0.00     0.124 S 
ATOM     91  O   UNL A   1      42.150  24.838  36.532  1.00  0.00    -0.237 OA
ATOM     92  O   UNL A   1      43.913  25.117  38.254  1.00  0.00    -0.237 OA
ATOM     93  O   UNL A   1      42.905  27.086  37.182  1.00  0.00    -0.744 OA
ENDBRANCH  86  90
ENDBRANCH  59  83
BRANCH  71  94
ATOM     94  C   UNL A   1      45.896  28.555  27.746  1.00  0.00     0.023 A 
ATOM     95  C   UNL A   1      47.045  29.380  27.672  1.00  0.00     0.031 A 
ATOM     96  C   UNL A   1      46.012  27.237  27.272  1.00  0.00     0.131 A 
ATOM     97  C   UNL A   1      48.243  28.873  27.126  1.00  0.00     0.055 A 
ATOM     98  C   UNL A   1      47.205  26.733  26.756  1.00  0.00     0.041 A 
ATOM     99  F   UNL A   1      44.967  26.396  27.338  1.00  0.00    -0.206 F 
ATOM    100  C   UNL A   1      48.324  27.552  26.675  1.00  0.00     0.022 A 
BRANCH  97 101
ATOM    101  S   UNL A   1      49.723  29.929  26.970  1.00  0.00     0.124 S 
ATOM    102  O   UNL A   1      50.408  29.750  28.244  1.00  0.00    -0.237 OA
ATOM    103  O   UNL A   1      50.392  29.366  25.800  1.00  0.00    -0.237 OA
ATOM    104  O   UNL A   1      49.166  31.267  26.762  1.00  0.00    -0.744 OA
ENDBRANCH  97 101
ENDBRANCH  71  94
ENDBRANCH  45  46
ENDBRANCH  37  40
ENDBRANCH  35  36
ENDBRANCH   1  35
TORSDOF 17
ENDMDL
MODEL 3
REMARK VINA RESULT:     -13.5      4.197      9.714
REMARK SMILES COc1ccc(-c2[nH]nc3nc(-c4ccc(C(F)(F)F)cc4)cc(C(=O)NCCCNC(=O)c4ccc(-c5c6nc(c(-c7cc(S(=O)(=O)[O-])ccc7F)c7ccc([nH]7)c(-c7cc(S(=O)(=O)[O-])ccc7F)c7nc(c(-c8cc(S(=O)(=O)[O-])ccc8F)c8ccc5[nH]8)C=C7)C=C6)cc4)c23)cc1
REMARK SMILES IDX 29 1 28 2 27 3 25 4 26 5 24 7 7 8 8 9 97 10 9 11 10 13 11 14
REMARK SMILES IDX 23 15 12 16 6 17 3 18 4 19 99 20 5 21 98 22 2 23 1 24 13 25
REMARK SMILES IDX 14 26 22 27 15 28 21 29 16 30 17 31 18 32 19 33 20 34 30 35
REMARK SMILES IDX 31 36 32 37 33 39 34 40 35 41 96 42 36 43 95 44 37 45 38 46
REMARK SMILES IDX 39 47 89 48 40 49 94 50 88 51 90 52 41 53 93 54 87 55 86 56
REMARK SMILES IDX 42 58 74 59 54 60 73 61 55 62 58 63 72 64 91 65 56 66 57 67
REMARK SMILES IDX 71 69 92 70 59 71 43 72 44 73 52 74 45 75 51 76 53 77 50 78
REMARK SMILES IDX 46 79 47 80 48 81 49 82 75 83 76 84 84 85 77 86 83 87 85 88
REMARK SMILES IDX 82 89 78 90 79 91 80 92 81 93 60 94 61 95 69 96 62 97 68 98
REMARK SMILES IDX 70 99 67 100 63 101 64 102 65 103 66 104
REMARK H PARENT 27 6 8 12 31 38 90 57 58 68
REMARK Flexibility Score: inf
ROOT
ATOM      1  C   UNL A   1      37.542  23.707  25.396  1.00  0.00     0.042 C 
ENDROOT
BRANCH   1   2
ATOM      2  C   UNL A   1      36.430  22.653  25.315  1.00  0.00     0.118 C 
BRANCH   2   3
ATOM      3  N   UNL A   1      35.607  22.802  24.123  1.00  0.00    -0.352 N 
ATOM      4  C   UNL A   1      34.393  23.385  23.847  1.00  0.00     0.252 C 
ATOM      5  O   UNL A   1      34.122  23.455  22.656  1.00  0.00    -0.269 OA
ATOM      6  H   UNL A   1      36.016  22.388  23.330  1.00  0.00     0.163 HD
BRANCH   4   7
ATOM      7  C   UNL A   1      33.486  23.950  24.876  1.00  0.00     0.055 A 
ATOM      8  C   UNL A   1      31.788  22.101  25.298  1.00  0.00     0.075 A 
ATOM      9  N   UNL A   1      30.607  22.142  26.002  1.00  0.00    -0.275 N 
ATOM     10  C   UNL A   1      32.308  23.382  25.405  1.00  0.00     0.059 A 
ATOM     11  N   UNL A   1      30.328  23.315  26.587  1.00  0.00    -0.154 NA
ATOM     12  H   UNL A   1      30.008  21.363  26.071  1.00  0.00     0.190 HD
ATOM     13  C   UNL A   1      31.368  24.079  26.258  1.00  0.00     0.182 A 
ATOM     14  N   UNL A   1      31.536  25.368  26.654  1.00  0.00    -0.226 NA
ATOM     15  C   UNL A   1      33.665  25.222  25.431  1.00  0.00     0.043 A 
ATOM     16  C   UNL A   1      32.702  25.896  26.216  1.00  0.00     0.074 A 
BRANCH   8  17
ATOM     17  C   UNL A   1      32.235  20.834  24.729  1.00  0.00     0.001 A 
ATOM     18  C   UNL A   1      33.155  18.411  23.626  1.00  0.00     0.118 A 
ATOM     19  C   UNL A   1      32.521  19.364  22.823  1.00  0.00     0.047 A 
ATOM     20  C   UNL A   1      33.311  18.664  24.987  1.00  0.00     0.047 A 
ATOM     21  C   UNL A   1      32.056  20.566  23.368  1.00  0.00     0.014 A 
ATOM     22  C   UNL A   1      32.842  19.865  25.538  1.00  0.00     0.014 A 
BRANCH  18  23
ATOM     23  O   UNL A   1      33.592  17.305  22.952  1.00  0.00    -0.497 OA
ATOM     24  C   UNL A   1      34.087  16.224  23.734  1.00  0.00     0.278 C 
ENDBRANCH  18  23
ENDBRANCH   8  17
BRANCH  16  25
ATOM     25  C   UNL A   1      32.947  27.319  26.505  1.00  0.00     0.000 A 
ATOM     26  C   UNL A   1      31.959  28.144  27.053  1.00  0.00     0.011 A 
ATOM     27  C   UNL A   1      34.238  27.855  26.324  1.00  0.00     0.011 A 
ATOM     28  C   UNL A   1      32.264  29.455  27.443  1.00  0.00     0.014 A 
ATOM     29  C   UNL A   1      34.544  29.161  26.711  1.00  0.00     0.014 A 
ATOM     30  C   UNL A   1      33.560  29.973  27.284  1.00  0.00     0.056 A 
BRANCH  30  31
ATOM     31  C   UNL A   1      33.878  31.381  27.725  1.00  0.00     0.416 C 
ATOM     32  F   UNL A   1      34.045  31.481  29.073  1.00  0.00    -0.166 F 
ATOM     33  F   UNL A   1      35.028  31.855  27.170  1.00  0.00    -0.166 F 
ATOM     34  F   UNL A   1      32.912  32.286  27.403  1.00  0.00    -0.166 F 
ENDBRANCH  30  31
ENDBRANCH  16  25
ENDBRANCH   4   7
ENDBRANCH   2   3
ENDBRANCH   1   2
BRANCH   1  35
ATOM     35  C   UNL A   1      38.133  23.800  26.792  1.00  0.00     0.118 C 
BRANCH  35  36
ATOM     36  N   UNL A   1      39.355  23.002  26.921  1.00  0.00    -0.352 N 
ATOM     37  C   UNL A   1      40.673  23.428  26.957  1.00  0.00     0.251 C 
ATOM     38  H   UNL A   1      39.222  22.029  26.992  1.00  0.00     0.163 HD
ATOM     39  O   UNL A   1      41.576  22.648  26.719  1.00  0.00    -0.269 OA
BRANCH  37  40
ATOM     40  C   UNL A   1      40.945  24.841  27.283  1.00  0.00     0.039 A 
ATOM     41  C   UNL A   1      40.423  25.888  26.518  1.00  0.00     0.014 A 
ATOM     42  C   UNL A   1      41.711  25.101  28.414  1.00  0.00     0.014 A 
ATOM     43  C   UNL A   1      40.613  27.196  26.960  1.00  0.00     0.010 A 
ATOM     44  C   UNL A   1      41.724  26.360  28.949  1.00  0.00     0.010 A 
ATOM     45  C   UNL A   1      41.249  27.421  28.192  1.00  0.00    -0.014 A 
BRANCH  45  46
ATOM     46  C   UNL A   1      41.317  28.747  28.797  1.00  0.00     0.031 A 
ATOM     47  C   UNL A   1      42.458  29.560  28.305  1.00  0.00     0.074 A 
ATOM     48  C   UNL A   1      40.302  29.278  29.517  1.00  0.00     0.049 A 
ATOM     49  N   UNL A   1      43.552  29.840  28.931  1.00  0.00    -0.248 NA
ATOM     50  C   UNL A   1      42.488  29.925  26.878  1.00  0.00     0.031 C 
ATOM     51  C   UNL A   1      38.987  28.686  29.800  1.00  0.00     0.029 A 
ATOM     52  N   UNL A   1      40.183  30.519  30.060  1.00  0.00    -0.354 N 
ATOM     53  C   UNL A   1      44.270  30.671  28.078  1.00  0.00     0.074 A 
ATOM     54  C   UNL A   1      43.712  30.449  26.774  1.00  0.00     0.031 C 
ATOM     55  C   UNL A   1      38.140  29.641  30.246  1.00  0.00     0.029 A 
ATOM     56  C   UNL A   1      38.890  30.866  30.453  1.00  0.00     0.049 A 
ATOM     57  H   UNL A   1      40.950  31.125  30.168  1.00  0.00     0.167 HD
ATOM     58  C   UNL A   1      45.035  31.684  28.577  1.00  0.00     0.034 A 
ATOM     59  C   UNL A   1      38.458  32.075  30.911  1.00  0.00     0.034 A 
ATOM     60  C   UNL A   1      45.225  31.508  30.007  1.00  0.00     0.049 A 
ATOM     61  C   UNL A   1      39.664  32.788  31.401  1.00  0.00     0.074 A 
ATOM     62  C   UNL A   1      45.752  30.508  30.802  1.00  0.00     0.029 A 
ATOM     63  N   UNL A   1      44.456  32.281  30.856  1.00  0.00    -0.354 N 
ATOM     64  N   UNL A   1      40.368  32.373  32.418  1.00  0.00    -0.248 NA
ATOM     65  C   UNL A   1      40.377  33.646  30.467  1.00  0.00     0.031 C 
ATOM     66  C   UNL A   1      44.886  30.441  31.934  1.00  0.00     0.029 A 
ATOM     67  C   UNL A   1      43.942  31.465  31.831  1.00  0.00     0.049 A 
ATOM     68  H   UNL A   1      44.305  33.250  30.775  1.00  0.00     0.167 HD
ATOM     69  C   UNL A   1      41.690  32.527  32.026  1.00  0.00     0.074 A 
ATOM     70  C   UNL A   1      41.634  33.416  30.865  1.00  0.00     0.031 C 
ATOM     71  C   UNL A   1      42.666  31.689  32.491  1.00  0.00     0.034 A 
BRANCH  58  72
ATOM     72  C   UNL A   1      45.230  33.039  27.912  1.00  0.00     0.023 A 
ATOM     73  C   UNL A   1      44.369  34.070  28.340  1.00  0.00     0.031 A 
ATOM     74  C   UNL A   1      45.952  33.313  26.729  1.00  0.00     0.131 A 
ATOM     75  C   UNL A   1      44.116  35.189  27.532  1.00  0.00     0.055 A 
ATOM     76  C   UNL A   1      45.744  34.461  25.958  1.00  0.00     0.041 A 
ATOM     77  F   UNL A   1      46.852  32.475  26.208  1.00  0.00    -0.206 F 
ATOM     78  C   UNL A   1      44.786  35.386  26.332  1.00  0.00     0.022 A 
BRANCH  75  79
ATOM     79  S   UNL A   1      42.734  36.263  27.987  1.00  0.00     0.124 S 
ATOM     80  O   UNL A   1      41.593  35.449  27.578  1.00  0.00    -0.237 OA
ATOM     81  O   UNL A   1      42.937  36.417  29.423  1.00  0.00    -0.237 OA
ATOM     82  O   UNL A   1      42.964  37.465  27.190  1.00  0.00    -0.744 OA
ENDBRANCH  75  79
ENDBRANCH  58  72
BRANCH  59  83
ATOM     83  C   UNL A   1      37.153  32.746  30.639  1.00  0.00     0.023 A 
ATOM     84  C   UNL A   1      36.191  33.026  31.636  1.00  0.00     0.031 A 
ATOM     85  C   UNL A   1      36.951  33.359  29.381  1.00  0.00     0.131 A 
ATOM     86  C   UNL A   1      35.095  33.882  31.355  1.00  0.00     0.055 A 
ATOM     87  C   UNL A   1      35.871  34.205  29.112  1.00  0.00     0.041 A 
ATOM     88  F   UNL A   1      37.848  33.224  28.393  1.00  0.00    -0.206 F 
ATOM     89  C   UNL A   1      34.942  34.477  30.101  1.00  0.00     0.022 A 
BRANCH  86  90
ATOM     90  S   UNL A   1      33.874  34.307  32.647  1.00  0.00     0.124 S 
ATOM     91  O   UNL A   1      34.674  35.068  33.598  1.00  0.00    -0.237 OA
ATOM     92  O   UNL A   1      32.869  35.052  31.896  1.00  0.00    -0.237 OA
ATOM     93  O   UNL A   1      33.424  33.001  33.134  1.00  0.00    -0.744 OA
ENDBRANCH  86  90
ENDBRANCH  59  83
BRANCH  71  94
ATOM     94  C   UNL A   1      42.339  30.794  33.673  1.00  0.00     0.023 A 
ATOM     95  C   UNL A   1      42.369  29.378  33.664  1.00  0.00     0.031 A 
ATOM     96  C   UNL A   1      42.090  31.429  34.902  1.00  0.00     0.131 A 
ATOM     97  C   UNL A   1      42.142  28.660  34.857  1.00  0.00     0.055 A 
ATOM     98  C   UNL A   1      41.889  30.716  36.083  1.00  0.00     0.041 A 
ATOM     99  F   UNL A   1      42.073  32.770  34.983  1.00  0.00    -0.206 F 
ATOM    100  C   UNL A   1      41.909  29.327  36.063  1.00  0.00     0.022 A 
BRANCH  97 101
ATOM    101  S   UNL A   1      42.123  26.836  34.865  1.00  0.00     0.124 S 
ATOM    102  O   UNL A   1      42.979  26.479  33.740  1.00  0.00    -0.237 OA
ATOM    103  O   UNL A   1      42.646  26.519  36.191  1.00  0.00    -0.237 OA
ATOM    104  O   UNL A   1      40.708  26.509  34.679  1.00  0.00    -0.744 OA
ENDBRANCH  97 101
ENDBRANCH  71  94
ENDBRANCH  45  46
ENDBRANCH  37  40
ENDBRANCH  35  36
ENDBRANCH   1  35
TORSDOF 17
ENDMDL
