MODEL 1
REMARK VINA RESULT:     -12.1      0.000      0.000
REMARK SMILES CCOc1ccc(-c2c(C)sc3ncnc(N4CCC[C@H]4C(=O)NCCCNC(=O)c4ccc(-c5c6nc(c(-c7cc(S(=O)(=O)[O-])ccc7F)c7ccc([nH]7)c(-c7cc(S(=O)(=O)[O-])ccc7F)c7nc(c(-c8cc(S(=O)(=O)[O-])ccc8F)c8ccc5[nH]8)C=C7)C=C6)cc4)c23)cc1
REMARK SMILES IDX 25 1 24 2 22 3 23 4 21 6 17 7 18 8 19 9 20 10 16 11 8 12
REMARK SMILES IDX 9 13 94 14 10 15 11 16 12 17 13 18 15 19 14 20 7 21 4 22
REMARK SMILES IDX 5 23 96 24 6 25 95 26 3 27 2 28 1 29 26 30 27 31 28 32 29 33
REMARK SMILES IDX 30 35 31 36 32 37 93 38 33 39 92 40 34 41 35 42 36 43 86 44
REMARK SMILES IDX 37 45 91 46 85 47 87 48 38 49 90 50 84 51 83 52 39 54 71 55
REMARK SMILES IDX 51 56 70 57 52 58 55 59 69 60 88 61 53 62 54 63 68 65 89 66
REMARK SMILES IDX 56 67 40 68 41 69 49 70 42 71 48 72 50 73 47 74 43 75 44 76
REMARK SMILES IDX 45 77 46 78 72 79 73 80 81 81 74 82 80 83 82 84 79 85 75 86
REMARK SMILES IDX 76 87 77 88 78 89 57 90 58 91 66 92 59 93 65 94 67 95 64 96
REMARK SMILES IDX 60 97 61 98 62 99 63 100
REMARK H PARENT 24 5 28 34 87 53 55 64
REMARK Flexibility Score: inf
ROOT
ATOM      1  C   UNL A   1      48.057  38.541  26.414  1.00  0.00     0.117 C 
ENDROOT
BRANCH   1   2
ATOM      2  N   UNL A   1      47.479  39.128  25.213  1.00  0.00    -0.354 N 
ATOM      3  C   UNL A   1      46.822  40.293  24.929  1.00  0.00     0.242 C 
ATOM      4  O   UNL A   1      46.402  40.336  23.760  1.00  0.00    -0.273 OA
ATOM      5  H   UNL A   1      47.585  38.552  24.422  1.00  0.00     0.163 HD
BRANCH   3   6
ATOM      6  C   UNL A   1      46.432  41.436  25.921  1.00  0.00     0.173 C 
ATOM      7  N   UNL A   1      46.202  42.785  25.345  1.00  0.00    -0.344 N 
ATOM      8  C   UNL A   1      44.941  43.371  25.836  1.00  0.00     0.119 C 
ATOM      9  C   UNL A   1      44.505  42.472  26.975  1.00  0.00     0.024 C 
ATOM     10  C   UNL A   1      45.032  41.124  26.524  1.00  0.00     0.037 C 
BRANCH   7  11
ATOM     11  C   UNL A   1      47.241  43.694  25.454  1.00  0.00     0.142 A 
ATOM     12  C   UNL A   1      46.949  44.832  23.097  1.00  0.00     0.009 A 
ATOM     13  C   UNL A   1      47.792  45.651  22.350  1.00  0.00     0.012 A 
ATOM     14  C   UNL A   1      47.528  44.609  24.425  1.00  0.00     0.062 A 
ATOM     15  C   UNL A   1      47.844  45.997  20.901  1.00  0.00     0.057 C 
ATOM     16  S   UNL A   1      49.025  46.367  23.321  1.00  0.00    -0.120 S 
ATOM     17  C   UNL A   1      48.616  45.428  24.664  1.00  0.00     0.129 A 
ATOM     18  N   UNL A   1      49.352  45.498  25.788  1.00  0.00    -0.225 NA
ATOM     19  N   UNL A   1      47.961  43.730  26.599  1.00  0.00    -0.219 NA
ATOM     20  C   UNL A   1      48.947  44.627  26.710  1.00  0.00     0.225 A 
BRANCH  12  21
ATOM     21  C   UNL A   1      45.825  44.034  22.554  1.00  0.00    -0.016 A 
ATOM     22  C   UNL A   1      43.724  43.002  20.921  1.00  0.00     0.119 A 
ATOM     23  C   UNL A   1      44.969  42.378  20.965  1.00  0.00     0.047 A 
ATOM     24  C   UNL A   1      43.506  44.067  21.767  1.00  0.00     0.047 A 
ATOM     25  C   UNL A   1      46.016  42.895  21.769  1.00  0.00     0.012 A 
ATOM     26  C   UNL A   1      44.537  44.551  22.588  1.00  0.00     0.012 A 
BRANCH  22  27
ATOM     27  O   UNL A   1      42.709  42.466  20.183  1.00  0.00    -0.494 OA
BRANCH  27  28
ATOM     28  C   UNL A   1      42.314  43.206  19.012  1.00  0.00     0.226 C 
ATOM     29  C   UNL A   1      41.133  44.153  19.203  1.00  0.00     0.049 C 
ENDBRANCH  27  28
ENDBRANCH  22  27
ENDBRANCH  12  21
ENDBRANCH   7  11
ENDBRANCH   3   6
ENDBRANCH   1   2
BRANCH   1  30
ATOM     30  C   UNL A   1      47.320  37.278  26.953  1.00  0.00     0.042 C 
BRANCH  30  31
ATOM     31  C   UNL A   1      45.772  37.242  27.030  1.00  0.00     0.118 C 
BRANCH  31  32
ATOM     32  N   UNL A   1      45.122  36.266  26.133  1.00  0.00    -0.352 N 
ATOM     33  C   UNL A   1      44.199  35.263  26.427  1.00  0.00     0.251 C 
ATOM     34  H   UNL A   1      45.380  36.332  25.186  1.00  0.00     0.163 HD
ATOM     35  O   UNL A   1      43.924  34.395  25.600  1.00  0.00    -0.269 OA
BRANCH  33  36
ATOM     36  C   UNL A   1      43.548  35.235  27.746  1.00  0.00     0.039 A 
ATOM     37  C   UNL A   1      42.422  35.999  28.034  1.00  0.00     0.014 A 
ATOM     38  C   UNL A   1      44.031  34.329  28.672  1.00  0.00     0.014 A 
ATOM     39  C   UNL A   1      41.661  35.664  29.153  1.00  0.00     0.010 A 
ATOM     40  C   UNL A   1      43.232  33.910  29.706  1.00  0.00     0.010 A 
ATOM     41  C   UNL A   1      42.018  34.547  29.930  1.00  0.00    -0.014 A 
BRANCH  41  42
ATOM     42  C   UNL A   1      41.003  33.872  30.744  1.00  0.00     0.031 A 
ATOM     43  C   UNL A   1      41.323  33.811  32.205  1.00  0.00     0.074 A 
ATOM     44  C   UNL A   1      39.737  33.619  30.353  1.00  0.00     0.049 A 
ATOM     45  N   UNL A   1      41.563  32.766  32.924  1.00  0.00    -0.248 NA
ATOM     46  C   UNL A   1      41.535  35.078  32.926  1.00  0.00     0.031 C 
ATOM     47  C   UNL A   1      39.091  33.944  29.078  1.00  0.00     0.029 A 
ATOM     48  N   UNL A   1      38.706  33.136  31.100  1.00  0.00    -0.354 N 
ATOM     49  C   UNL A   1      41.737  33.213  34.232  1.00  0.00     0.074 A 
ATOM     50  C   UNL A   1      41.903  34.640  34.132  1.00  0.00     0.031 C 
ATOM     51  C   UNL A   1      37.750  33.889  29.227  1.00  0.00     0.029 A 
ATOM     52  C   UNL A   1      37.453  33.342  30.539  1.00  0.00     0.049 A 
ATOM     53  H   UNL A   1      38.837  32.682  31.963  1.00  0.00     0.167 HD
ATOM     54  C   UNL A   1      41.524  32.391  35.301  1.00  0.00     0.034 A 
ATOM     55  C   UNL A   1      36.249  33.104  31.115  1.00  0.00     0.034 A 
ATOM     56  C   UNL A   1      41.439  31.010  34.873  1.00  0.00     0.049 A 
ATOM     57  C   UNL A   1      36.475  32.097  32.181  1.00  0.00     0.074 A 
ATOM     58  C   UNL A   1      42.278  30.158  34.180  1.00  0.00     0.029 A 
ATOM     59  N   UNL A   1      40.190  30.430  34.795  1.00  0.00    -0.354 N 
ATOM     60  N   UNL A   1      36.910  30.888  31.941  1.00  0.00    -0.248 NA
ATOM     61  C   UNL A   1      36.677  32.560  33.545  1.00  0.00     0.031 C 
ATOM     62  C   UNL A   1      41.415  29.451  33.288  1.00  0.00     0.029 A 
ATOM     63  C   UNL A   1      40.101  29.844  33.556  1.00  0.00     0.049 A 
ATOM     64  H   UNL A   1      39.497  30.433  35.493  1.00  0.00     0.167 HD
ATOM     65  C   UNL A   1      37.815  30.621  32.957  1.00  0.00     0.074 A 
ATOM     66  C   UNL A   1      37.538  31.632  33.976  1.00  0.00     0.031 C 
ATOM     67  C   UNL A   1      38.887  29.795  32.760  1.00  0.00     0.034 A 
BRANCH  54  68
ATOM     68  C   UNL A   1      41.045  32.821  36.676  1.00  0.00     0.023 A 
ATOM     69  C   UNL A   1      39.765  32.380  37.075  1.00  0.00     0.031 A 
ATOM     70  C   UNL A   1      41.612  33.834  37.478  1.00  0.00     0.131 A 
ATOM     71  C   UNL A   1      39.065  33.016  38.115  1.00  0.00     0.055 A 
ATOM     72  C   UNL A   1      40.941  34.415  38.561  1.00  0.00     0.041 A 
ATOM     73  F   UNL A   1      42.803  34.384  37.221  1.00  0.00    -0.206 F 
ATOM     74  C   UNL A   1      39.644  34.036  38.861  1.00  0.00     0.022 A 
BRANCH  71  75
ATOM     75  S   UNL A   1      37.310  32.621  38.335  1.00  0.00     0.124 S 
ATOM     76  O   UNL A   1      36.696  33.424  37.281  1.00  0.00    -0.237 OA
ATOM     77  O   UNL A   1      37.300  31.176  38.134  1.00  0.00    -0.237 OA
ATOM     78  O   UNL A   1      37.032  33.064  39.698  1.00  0.00    -0.744 OA
ENDBRANCH  71  75
ENDBRANCH  54  68
BRANCH  55  79
ATOM     79  C   UNL A   1      35.020  33.923  30.960  1.00  0.00     0.023 A 
ATOM     80  C   UNL A   1      34.618  34.882  31.909  1.00  0.00     0.031 A 
ATOM     81  C   UNL A   1      34.320  33.912  29.730  1.00  0.00     0.131 A 
ATOM     82  C   UNL A   1      33.557  35.769  31.615  1.00  0.00     0.055 A 
ATOM     83  C   UNL A   1      33.267  34.785  29.448  1.00  0.00     0.041 A 
ATOM     84  F   UNL A   1      34.692  33.100  28.726  1.00  0.00    -0.206 F 
ATOM     85  C   UNL A   1      32.885  35.726  30.390  1.00  0.00     0.022 A 
BRANCH  82  86
ATOM     86  S   UNL A   1      33.102  37.074  32.800  1.00  0.00     0.124 S 
ATOM     87  O   UNL A   1      31.700  36.775  33.066  1.00  0.00    -0.237 OA
ATOM     88  O   UNL A   1      34.035  36.841  33.896  1.00  0.00    -0.237 OA
ATOM     89  O   UNL A   1      33.335  38.310  32.053  1.00  0.00    -0.744 OA
ENDBRANCH  82  86
ENDBRANCH  55  79
BRANCH  67  90
ATOM     90  C   UNL A   1      38.932  28.934  31.511  1.00  0.00     0.023 A 
ATOM     91  C   UNL A   1      39.469  29.340  30.268  1.00  0.00     0.031 A 
ATOM     92  C   UNL A   1      38.538  27.589  31.638  1.00  0.00     0.131 A 
ATOM     93  C   UNL A   1      39.590  28.412  29.212  1.00  0.00     0.055 A 
ATOM     94  C   UNL A   1      38.677  26.670  30.599  1.00  0.00     0.041 A 
ATOM     95  F   UNL A   1      38.047  27.131  32.801  1.00  0.00    -0.206 F 
ATOM     96  C   UNL A   1      39.199  27.081  29.378  1.00  0.00     0.022 A 
BRANCH  93  97
ATOM     97  S   UNL A   1      40.249  28.925  27.591  1.00  0.00     0.124 S 
ATOM     98  O   UNL A   1      39.136  29.640  26.978  1.00  0.00    -0.237 OA
ATOM     99  O   UNL A   1      41.406  29.735  27.963  1.00  0.00    -0.237 OA
ATOM    100  O   UNL A   1      40.583  27.653  26.945  1.00  0.00    -0.744 OA
ENDBRANCH  93  97
ENDBRANCH  67  90
ENDBRANCH  41  42
ENDBRANCH  33  36
ENDBRANCH  31  32
ENDBRANCH  30  31
ENDBRANCH   1  30
TORSDOF 17
ENDMDL
MODEL 2
REMARK VINA RESULT:     -11.8      7.218     13.499
REMARK SMILES CCOc1ccc(-c2c(C)sc3ncnc(N4CCC[C@H]4C(=O)NCCCNC(=O)c4ccc(-c5c6nc(c(-c7cc(S(=O)(=O)[O-])ccc7F)c7ccc([nH]7)c(-c7cc(S(=O)(=O)[O-])ccc7F)c7nc(c(-c8cc(S(=O)(=O)[O-])ccc8F)c8ccc5[nH]8)C=C7)C=C6)cc4)c23)cc1
REMARK SMILES IDX 25 1 24 2 22 3 23 4 21 6 17 7 18 8 19 9 20 10 16 11 8 12
REMARK SMILES IDX 9 13 94 14 10 15 11 16 12 17 13 18 15 19 14 20 7 21 4 22
REMARK SMILES IDX 5 23 96 24 6 25 95 26 3 27 2 28 1 29 26 30 27 31 28 32 29 33
REMARK SMILES IDX 30 35 31 36 32 37 93 38 33 39 92 40 34 41 35 42 36 43 86 44
REMARK SMILES IDX 37 45 91 46 85 47 87 48 38 49 90 50 84 51 83 52 39 54 71 55
REMARK SMILES IDX 51 56 70 57 52 58 55 59 69 60 88 61 53 62 54 63 68 65 89 66
REMARK SMILES IDX 56 67 40 68 41 69 49 70 42 71 48 72 50 73 47 74 43 75 44 76
REMARK SMILES IDX 45 77 46 78 72 79 73 80 81 81 74 82 80 83 82 84 79 85 75 86
REMARK SMILES IDX 76 87 77 88 78 89 57 90 58 91 66 92 59 93 65 94 67 95 64 96
REMARK SMILES IDX 60 97 61 98 62 99 63 100
REMARK H PARENT 24 5 28 34 87 53 55 64
REMARK Flexibility Score: inf
ROOT
ATOM      1  C   UNL A   1      39.365  30.715  33.211  1.00  0.00     0.117 C 
ENDROOT
BRANCH   1   2
ATOM      2  N   UNL A   1      40.818  30.611  33.243  1.00  0.00    -0.354 N 
ATOM      3  C   UNL A   1      41.848  31.323  32.693  1.00  0.00     0.242 C 
ATOM      4  O   UNL A   1      42.958  30.804  32.904  1.00  0.00    -0.273 OA
ATOM      5  H   UNL A   1      41.130  29.853  33.786  1.00  0.00     0.163 HD
BRANCH   3   6
ATOM      6  C   UNL A   1      41.754  32.562  31.745  1.00  0.00     0.173 C 
ATOM      7  N   UNL A   1      40.830  33.653  32.146  1.00  0.00    -0.344 N 
ATOM      8  C   UNL A   1      41.487  34.971  32.065  1.00  0.00     0.119 C 
ATOM      9  C   UNL A   1      42.783  34.721  31.321  1.00  0.00     0.024 C 
ATOM     10  C   UNL A   1      43.120  33.308  31.753  1.00  0.00     0.037 C 
BRANCH   7  11
ATOM     11  C   UNL A   1      39.594  33.682  31.524  1.00  0.00     0.142 A 
ATOM     12  C   UNL A   1      38.154  34.272  33.648  1.00  0.00     0.009 A 
ATOM     13  C   UNL A   1      36.785  34.198  33.893  1.00  0.00     0.012 A 
ATOM     14  C   UNL A   1      38.419  33.984  32.236  1.00  0.00     0.062 A 
ATOM     15  C   UNL A   1      35.982  34.149  35.148  1.00  0.00     0.057 C 
ATOM     16  S   UNL A   1      35.871  34.121  32.432  1.00  0.00    -0.120 S 
ATOM     17  C   UNL A   1      37.258  33.939  31.486  1.00  0.00     0.129 A 
ATOM     18  N   UNL A   1      37.151  33.729  30.162  1.00  0.00    -0.225 NA
ATOM     19  N   UNL A   1      39.527  33.462  30.190  1.00  0.00    -0.219 NA
ATOM     20  C   UNL A   1      38.334  33.515  29.588  1.00  0.00     0.225 A 
BRANCH  12  21
ATOM     21  C   UNL A   1      39.211  34.299  34.686  1.00  0.00    -0.016 A 
ATOM     22  C   UNL A   1      40.649  34.552  37.139  1.00  0.00     0.119 A 
ATOM     23  C   UNL A   1      40.288  33.300  36.647  1.00  0.00     0.047 A 
ATOM     24  C   UNL A   1      40.383  35.654  36.355  1.00  0.00     0.047 A 
ATOM     25  C   UNL A   1      39.566  33.173  35.434  1.00  0.00     0.012 A 
ATOM     26  C   UNL A   1      39.700  35.517  35.136  1.00  0.00     0.012 A 
BRANCH  22  27
ATOM     27  O   UNL A   1      41.388  34.659  38.281  1.00  0.00    -0.494 OA
BRANCH  27  28
ATOM     28  C   UNL A   1      42.231  35.822  38.389  1.00  0.00     0.226 C 
ATOM     29  C   UNL A   1      43.662  35.554  38.846  1.00  0.00     0.049 C 
ENDBRANCH  27  28
ENDBRANCH  22  27
ENDBRANCH  12  21
ENDBRANCH   7  11
ENDBRANCH   3   6
ENDBRANCH   1   2
BRANCH   1  30
ATOM     30  C   UNL A   1      38.703  30.284  31.868  1.00  0.00     0.042 C 
BRANCH  30  31
ATOM     31  C   UNL A   1      37.319  29.584  31.862  1.00  0.00     0.118 C 
BRANCH  31  32
ATOM     32  N   UNL A   1      36.388  30.045  30.813  1.00  0.00    -0.352 N 
ATOM     33  C   UNL A   1      36.518  30.006  29.426  1.00  0.00     0.251 C 
ATOM     34  H   UNL A   1      35.549  30.441  31.143  1.00  0.00     0.163 HD
ATOM     35  O   UNL A   1      35.747  30.632  28.701  1.00  0.00    -0.269 OA
BRANCH  33  36
ATOM     36  C   UNL A   1      37.597  29.213  28.817  1.00  0.00     0.039 A 
ATOM     37  C   UNL A   1      38.377  29.699  27.772  1.00  0.00     0.014 A 
ATOM     38  C   UNL A   1      37.890  27.991  29.394  1.00  0.00     0.014 A 
ATOM     39  C   UNL A   1      39.582  29.058  27.489  1.00  0.00     0.010 A 
ATOM     40  C   UNL A   1      39.124  27.421  29.210  1.00  0.00     0.010 A 
ATOM     41  C   UNL A   1      40.000  27.976  28.285  1.00  0.00    -0.014 A 
BRANCH  41  42
ATOM     42  C   UNL A   1      41.424  27.639  28.366  1.00  0.00     0.031 A 
ATOM     43  C   UNL A   1      41.819  26.431  27.577  1.00  0.00     0.074 A 
ATOM     44  C   UNL A   1      42.395  28.472  28.795  1.00  0.00     0.049 A 
ATOM     45  N   UNL A   1      42.262  25.302  28.018  1.00  0.00    -0.248 NA
ATOM     46  C   UNL A   1      41.563  26.431  26.126  1.00  0.00     0.031 C 
ATOM     47  C   UNL A   1      42.273  29.856  29.261  1.00  0.00     0.029 A 
ATOM     48  N   UNL A   1      43.742  28.283  28.758  1.00  0.00    -0.354 N 
ATOM     49  C   UNL A   1      42.553  24.523  26.900  1.00  0.00     0.074 A 
ATOM     50  C   UNL A   1      41.923  25.190  25.791  1.00  0.00     0.031 C 
ATOM     51  C   UNL A   1      43.484  30.453  29.217  1.00  0.00     0.029 A 
ATOM     52  C   UNL A   1      44.484  29.447  28.909  1.00  0.00     0.049 A 
ATOM     53  H   UNL A   1      44.156  27.398  28.633  1.00  0.00     0.167 HD
ATOM     54  C   UNL A   1      43.462  23.505  26.957  1.00  0.00     0.034 A 
ATOM     55  C   UNL A   1      45.825  29.587  28.769  1.00  0.00     0.034 A 
ATOM     56  C   UNL A   1      43.778  23.179  28.332  1.00  0.00     0.049 A 
ATOM     57  C   UNL A   1      46.422  28.245  28.981  1.00  0.00     0.074 A 
ATOM     58  C   UNL A   1      43.033  22.791  29.430  1.00  0.00     0.029 A 
ATOM     59  N   UNL A   1      44.974  23.629  28.849  1.00  0.00    -0.354 N 
ATOM     60  N   UNL A   1      46.328  27.591  30.108  1.00  0.00    -0.248 NA
ATOM     61  C   UNL A   1      46.709  27.420  27.817  1.00  0.00     0.031 C 
ATOM     62  C   UNL A   1      43.585  23.531  30.520  1.00  0.00     0.029 A 
ATOM     63  C   UNL A   1      44.685  24.248  30.041  1.00  0.00     0.049 A 
ATOM     64  H   UNL A   1      45.865  23.525  28.443  1.00  0.00     0.167 HD
ATOM     65  C   UNL A   1      46.099  26.273  29.744  1.00  0.00     0.074 A 
ATOM     66  C   UNL A   1      46.466  26.209  28.331  1.00  0.00     0.031 C 
ATOM     67  C   UNL A   1      45.370  25.429  30.536  1.00  0.00     0.034 A 
BRANCH  54  68
ATOM     68  C   UNL A   1      44.337  23.026  25.813  1.00  0.00     0.023 A 
ATOM     69  C   UNL A   1      44.339  21.640  25.546  1.00  0.00     0.031 A 
ATOM     70  C   UNL A   1      45.355  23.765  25.174  1.00  0.00     0.131 A 
ATOM     71  C   UNL A   1      45.374  21.040  24.807  1.00  0.00     0.055 A 
ATOM     72  C   UNL A   1      46.343  23.174  24.378  1.00  0.00     0.041 A 
ATOM     73  F   UNL A   1      45.514  25.082  25.345  1.00  0.00    -0.206 F 
ATOM     74  C   UNL A   1      46.381  21.799  24.221  1.00  0.00     0.022 A 
BRANCH  71  75
ATOM     75  S   UNL A   1      45.488  19.231  24.801  1.00  0.00     0.124 S 
ATOM     76  O   UNL A   1      44.416  18.869  25.724  1.00  0.00    -0.237 OA
ATOM     77  O   UNL A   1      45.260  18.921  23.394  1.00  0.00    -0.237 OA
ATOM     78  O   UNL A   1      46.842  18.976  25.286  1.00  0.00    -0.744 OA
ENDBRANCH  71  75
ENDBRANCH  54  68
BRANCH  55  79
ATOM     79  C   UNL A   1      46.533  30.755  28.186  1.00  0.00     0.023 A 
ATOM     80  C   UNL A   1      45.939  31.613  27.242  1.00  0.00     0.031 A 
ATOM     81  C   UNL A   1      47.773  31.167  28.730  1.00  0.00     0.131 A 
ATOM     82  C   UNL A   1      46.583  32.818  26.874  1.00  0.00     0.055 A 
ATOM     83  C   UNL A   1      48.409  32.353  28.357  1.00  0.00     0.041 A 
ATOM     84  F   UNL A   1      48.372  30.465  29.707  1.00  0.00    -0.206 F 
ATOM     85  C   UNL A   1      47.810  33.190  27.431  1.00  0.00     0.022 A 
BRANCH  82  86
ATOM     86  S   UNL A   1      45.769  33.977  25.730  1.00  0.00     0.124 S 
ATOM     87  O   UNL A   1      45.007  34.824  26.640  1.00  0.00    -0.237 OA
ATOM     88  O   UNL A   1      46.902  34.600  25.057  1.00  0.00    -0.237 OA
ATOM     89  O   UNL A   1      44.959  33.104  24.880  1.00  0.00    -0.744 OA
ENDBRANCH  82  86
ENDBRANCH  55  79
BRANCH  67  90
ATOM     90  C   UNL A   1      45.050  25.850  31.959  1.00  0.00     0.023 A 
ATOM     91  C   UNL A   1      43.826  26.418  32.379  1.00  0.00     0.031 A 
ATOM     92  C   UNL A   1      45.987  25.521  32.956  1.00  0.00     0.131 A 
ATOM     93  C   UNL A   1      43.582  26.641  33.750  1.00  0.00     0.055 A 
ATOM     94  C   UNL A   1      45.734  25.723  34.313  1.00  0.00     0.041 A 
ATOM     95  F   UNL A   1      47.158  24.950  32.628  1.00  0.00    -0.206 F 
ATOM     96  C   UNL A   1      44.531  26.290  34.714  1.00  0.00     0.022 A 
BRANCH  93  97
ATOM     97  S   UNL A   1      42.023  27.404  34.308  1.00  0.00     0.124 S 
ATOM     98  O   UNL A   1      41.347  26.325  35.018  1.00  0.00    -0.237 OA
ATOM     99  O   UNL A   1      42.492  28.517  35.129  1.00  0.00    -0.237 OA
ATOM    100  O   UNL A   1      41.377  27.805  33.056  1.00  0.00    -0.744 OA
ENDBRANCH  93  97
ENDBRANCH  67  90
ENDBRANCH  41  42
ENDBRANCH  33  36
ENDBRANCH  31  32
ENDBRANCH  30  31
ENDBRANCH   1  30
TORSDOF 17
ENDMDL
MODEL 3
REMARK VINA RESULT:     -11.8      2.990      4.995
REMARK SMILES CCOc1ccc(-c2c(C)sc3ncnc(N4CCC[C@H]4C(=O)NCCCNC(=O)c4ccc(-c5c6nc(c(-c7cc(S(=O)(=O)[O-])ccc7F)c7ccc([nH]7)c(-c7cc(S(=O)(=O)[O-])ccc7F)c7nc(c(-c8cc(S(=O)(=O)[O-])ccc8F)c8ccc5[nH]8)C=C7)C=C6)cc4)c23)cc1
REMARK SMILES IDX 25 1 24 2 22 3 23 4 21 6 17 7 18 8 19 9 20 10 16 11 8 12
REMARK SMILES IDX 9 13 94 14 10 15 11 16 12 17 13 18 15 19 14 20 7 21 4 22
REMARK SMILES IDX 5 23 96 24 6 25 95 26 3 27 2 28 1 29 26 30 27 31 28 32 29 33
REMARK SMILES IDX 30 35 31 36 32 37 93 38 33 39 92 40 34 41 35 42 36 43 86 44
REMARK SMILES IDX 37 45 91 46 85 47 87 48 38 49 90 50 84 51 83 52 39 54 71 55
REMARK SMILES IDX 51 56 70 57 52 58 55 59 69 60 88 61 53 62 54 63 68 65 89 66
REMARK SMILES IDX 56 67 40 68 41 69 49 70 42 71 48 72 50 73 47 74 43 75 44 76
REMARK SMILES IDX 45 77 46 78 72 79 73 80 81 81 74 82 80 83 82 84 79 85 75 86
REMARK SMILES IDX 76 87 77 88 78 89 57 90 58 91 66 92 59 93 65 94 67 95 64 96
REMARK SMILES IDX 60 97 61 98 62 99 63 100
REMARK H PARENT 24 5 28 34 87 53 55 64
REMARK Flexibility Score: inf
ROOT
ATOM      1  C   UNL A   1      48.284  37.124  27.425  1.00  0.00     0.117 C 
ENDROOT
BRANCH   1   2
ATOM      2  N   UNL A   1      48.021  36.781  28.816  1.00  0.00    -0.354 N 
ATOM      3  C   UNL A   1      47.921  37.489  29.982  1.00  0.00     0.242 C 
ATOM      4  O   UNL A   1      47.785  36.758  30.978  1.00  0.00    -0.273 OA
ATOM      5  H   UNL A   1      47.885  35.815  28.947  1.00  0.00     0.163 HD
BRANCH   3   6
ATOM      6  C   UNL A   1      48.112  39.027  30.184  1.00  0.00     0.173 C 
ATOM      7  N   UNL A   1      46.889  39.869  30.179  1.00  0.00    -0.344 N 
ATOM      8  C   UNL A   1      46.867  40.792  31.329  1.00  0.00     0.119 C 
ATOM      9  C   UNL A   1      48.259  40.718  31.921  1.00  0.00     0.024 C 
ATOM     10  C   UNL A   1      48.647  39.283  31.623  1.00  0.00     0.037 C 
BRANCH   7  11
ATOM     11  C   UNL A   1      46.602  40.542  29.004  1.00  0.00     0.142 A 
ATOM     12  C   UNL A   1      44.012  40.071  28.963  1.00  0.00     0.009 A 
ATOM     13  C   UNL A   1      43.062  40.183  27.950  1.00  0.00     0.012 A 
ATOM     14  C   UNL A   1      45.289  40.623  28.504  1.00  0.00     0.062 A 
ATOM     15  C   UNL A   1      41.709  39.586  27.760  1.00  0.00     0.057 C 
ATOM     16  S   UNL A   1      43.606  41.196  26.664  1.00  0.00    -0.120 S 
ATOM     17  C   UNL A   1      45.166  41.297  27.304  1.00  0.00     0.129 A 
ATOM     18  N   UNL A   1      46.133  41.943  26.628  1.00  0.00    -0.225 NA
ATOM     19  N   UNL A   1      47.605  41.176  28.351  1.00  0.00    -0.219 NA
ATOM     20  C   UNL A   1      47.318  41.845  27.229  1.00  0.00     0.225 A 
BRANCH  12  21
ATOM     21  C   UNL A   1      43.874  39.236  30.180  1.00  0.00    -0.016 A 
ATOM     22  C   UNL A   1      44.376  37.754  32.567  1.00  0.00     0.119 A 
ATOM     23  C   UNL A   1      43.825  39.033  32.620  1.00  0.00     0.047 A 
ATOM     24  C   UNL A   1      44.573  37.189  31.326  1.00  0.00     0.047 A 
ATOM     25  C   UNL A   1      43.584  39.774  31.436  1.00  0.00     0.012 A 
ATOM     26  C   UNL A   1      44.297  37.915  30.157  1.00  0.00     0.012 A 
BRANCH  22  27
ATOM     27  O   UNL A   1      44.557  37.032  33.710  1.00  0.00    -0.494 OA
BRANCH  27  28
ATOM     28  C   UNL A   1      45.705  36.162  33.740  1.00  0.00     0.226 C 
ATOM     29  C   UNL A   1      45.399  34.670  33.650  1.00  0.00     0.049 C 
ENDBRANCH  27  28
ENDBRANCH  22  27
ENDBRANCH  12  21
ENDBRANCH   7  11
ENDBRANCH   3   6
ENDBRANCH   1   2
BRANCH   1  30
ATOM     30  C   UNL A   1      47.132  37.887  26.704  1.00  0.00     0.042 C 
BRANCH  30  31
ATOM     31  C   UNL A   1      45.658  37.439  26.883  1.00  0.00     0.118 C 
BRANCH  31  32
ATOM     32  N   UNL A   1      45.264  36.252  26.099  1.00  0.00    -0.352 N 
ATOM     33  C   UNL A   1      44.493  35.153  26.474  1.00  0.00     0.251 C 
ATOM     34  H   UNL A   1      45.596  36.234  25.173  1.00  0.00     0.163 HD
ATOM     35  O   UNL A   1      44.443  34.147  25.769  1.00  0.00    -0.269 OA
BRANCH  33  36
ATOM     36  C   UNL A   1      43.734  35.190  27.733  1.00  0.00     0.039 A 
ATOM     37  C   UNL A   1      42.520  35.859  27.849  1.00  0.00     0.014 A 
ATOM     38  C   UNL A   1      44.216  34.435  28.787  1.00  0.00     0.014 A 
ATOM     39  C   UNL A   1      41.699  35.561  28.935  1.00  0.00     0.010 A 
ATOM     40  C   UNL A   1      43.372  34.041  29.795  1.00  0.00     0.010 A 
ATOM     41  C   UNL A   1      42.089  34.570  29.853  1.00  0.00    -0.014 A 
BRANCH  41  42
ATOM     42  C   UNL A   1      41.073  33.879  30.654  1.00  0.00     0.031 A 
ATOM     43  C   UNL A   1      41.363  33.846  32.122  1.00  0.00     0.074 A 
ATOM     44  C   UNL A   1      39.823  33.587  30.238  1.00  0.00     0.049 A 
ATOM     45  N   UNL A   1      41.613  32.816  32.860  1.00  0.00    -0.248 NA
ATOM     46  C   UNL A   1      41.525  35.127  32.831  1.00  0.00     0.031 C 
ATOM     47  C   UNL A   1      39.199  33.879  28.945  1.00  0.00     0.029 A 
ATOM     48  N   UNL A   1      38.789  33.088  30.969  1.00  0.00    -0.354 N 
ATOM     49  C   UNL A   1      41.746  33.285  34.166  1.00  0.00     0.074 A 
ATOM     50  C   UNL A   1      41.877  34.714  34.050  1.00  0.00     0.031 C 
ATOM     51  C   UNL A   1      37.856  33.791  29.065  1.00  0.00     0.029 A 
ATOM     52  C   UNL A   1      37.544  33.254  30.378  1.00  0.00     0.049 A 
ATOM     53  H   UNL A   1      38.913  32.648  31.841  1.00  0.00     0.167 HD
ATOM     54  C   UNL A   1      41.531  32.472  35.241  1.00  0.00     0.034 A 
ATOM     55  C   UNL A   1      36.334  32.991  30.930  1.00  0.00     0.034 A 
ATOM     56  C   UNL A   1      41.491  31.083  34.830  1.00  0.00     0.049 A 
ATOM     57  C   UNL A   1      36.562  32.004  32.015  1.00  0.00     0.074 A 
ATOM     58  C   UNL A   1      42.367  30.244  34.167  1.00  0.00     0.029 A 
ATOM     59  N   UNL A   1      40.260  30.469  34.732  1.00  0.00    -0.354 N 
ATOM     60  N   UNL A   1      37.034  30.804  31.801  1.00  0.00    -0.248 NA
ATOM     61  C   UNL A   1      36.721  32.490  33.377  1.00  0.00     0.031 C 
ATOM     62  C   UNL A   1      41.544  29.504  33.266  1.00  0.00     0.029 A 
ATOM     63  C   UNL A   1      40.214  29.866  33.499  1.00  0.00     0.049 A 
ATOM     64  H   UNL A   1      39.551  30.463  35.415  1.00  0.00     0.167 HD
ATOM     65  C   UNL A   1      37.923  30.575  32.840  1.00  0.00     0.074 A 
ATOM     66  C   UNL A   1      37.597  31.591  33.838  1.00  0.00     0.031 C 
ATOM     67  C   UNL A   1      39.020  29.774  32.678  1.00  0.00     0.034 A 
BRANCH  54  68
ATOM     68  C   UNL A   1      41.010  32.907  36.599  1.00  0.00     0.023 A 
ATOM     69  C   UNL A   1      39.754  32.400  36.995  1.00  0.00     0.031 A 
ATOM     70  C   UNL A   1      41.507  33.971  37.381  1.00  0.00     0.131 A 
ATOM     71  C   UNL A   1      39.004  33.020  38.011  1.00  0.00     0.055 A 
ATOM     72  C   UNL A   1      40.788  34.538  38.441  1.00  0.00     0.041 A 
ATOM     73  F   UNL A   1      42.666  34.585  37.123  1.00  0.00    -0.206 F 
ATOM     74  C   UNL A   1      39.513  34.090  38.737  1.00  0.00     0.022 A 
BRANCH  71  75
ATOM     75  S   UNL A   1      37.273  32.527  38.221  1.00  0.00     0.124 S 
ATOM     76  O   UNL A   1      36.617  33.312  37.179  1.00  0.00    -0.237 OA
ATOM     77  O   UNL A   1      37.341  31.087  37.997  1.00  0.00    -0.237 OA
ATOM     78  O   UNL A   1      36.970  32.933  39.591  1.00  0.00    -0.744 OA
ENDBRANCH  71  75
ENDBRANCH  54  68
BRANCH  55  79
ATOM     79  C   UNL A   1      35.088  33.776  30.737  1.00  0.00     0.023 A 
ATOM     80  C   UNL A   1      34.700  34.815  31.603  1.00  0.00     0.031 A 
ATOM     81  C   UNL A   1      34.351  33.638  29.536  1.00  0.00     0.131 A 
ATOM     82  C   UNL A   1      33.616  35.657  31.260  1.00  0.00     0.055 A 
ATOM     83  C   UNL A   1      33.276  34.466  29.206  1.00  0.00     0.041 A 
ATOM     84  F   UNL A   1      34.705  32.739  28.603  1.00  0.00    -0.206 F 
ATOM     85  C   UNL A   1      32.909  35.488  30.066  1.00  0.00     0.022 A 
BRANCH  82  86
ATOM     86  S   UNL A   1      33.176  37.063  32.329  1.00  0.00     0.124 S 
ATOM     87  O   UNL A   1      34.344  37.168  33.196  1.00  0.00    -0.237 OA
ATOM     88  O   UNL A   1      32.983  38.141  31.366  1.00  0.00    -0.237 OA
ATOM     89  O   UNL A   1      31.954  36.615  32.997  1.00  0.00    -0.744 OA
ENDBRANCH  82  86
ENDBRANCH  55  79
BRANCH  67  90
ATOM     90  C   UNL A   1      39.115  28.899  31.442  1.00  0.00     0.023 A 
ATOM     91  C   UNL A   1      39.787  29.253  30.249  1.00  0.00     0.031 A 
ATOM     92  C   UNL A   1      38.618  27.586  31.539  1.00  0.00     0.131 A 
ATOM     93  C   UNL A   1      39.936  28.308  29.213  1.00  0.00     0.055 A 
ATOM     94  C   UNL A   1      38.784  26.648  30.521  1.00  0.00     0.041 A 
ATOM     95  F   UNL A   1      37.996  27.175  32.657  1.00  0.00    -0.206 F 
ATOM     96  C   UNL A   1      39.440  27.008  29.350  1.00  0.00     0.022 A 
BRANCH  93  97
ATOM     97  S   UNL A   1      40.770  28.755  27.655  1.00  0.00     0.124 S 
ATOM     98  O   UNL A   1      41.312  27.488  27.179  1.00  0.00    -0.237 OA
ATOM     99  O   UNL A   1      39.680  29.323  26.865  1.00  0.00    -0.237 OA
ATOM    100  O   UNL A   1      41.780  29.727  28.080  1.00  0.00    -0.744 OA
ENDBRANCH  93  97
ENDBRANCH  67  90
ENDBRANCH  41  42
ENDBRANCH  33  36
ENDBRANCH  31  32
ENDBRANCH  30  31
ENDBRANCH   1  30
TORSDOF 17
ENDMDL
