MODEL 1
REMARK VINA RESULT:      -9.8      0.000      0.000
REMARK SMILES C=Cc1cccc(-c2ccc([C@@H](C)C(=O)NCCCNC(=O)c3ccc(-c4c5nc(c(-c6cc(S(=O)(=O)[O-])ccc6F)c6ccc([nH]6)c(-c6cc(S(=O)(=O)[O-])ccc6F)c6nc(c(-c7cc(S(=O)(=O)[O-])ccc7F)c7ccc4[nH]7)C=C6)C=C5)cc3)cc2)c1
REMARK SMILES IDX 18 1 17 2 16 3 14 4 15 5 12 7 13 8 11 9 8 10 9 11 87 12
REMARK SMILES IDX 10 13 86 14 7 15 3 16 4 17 88 18 5 19 6 20 2 21 1 22 19 23
REMARK SMILES IDX 20 24 21 25 22 27 23 28 24 29 85 30 25 31 84 32 26 33 27 34
REMARK SMILES IDX 28 35 78 36 29 37 83 38 77 39 79 40 30 41 82 42 76 43 75 44
REMARK SMILES IDX 31 46 63 47 43 48 62 49 44 50 47 51 61 52 80 53 45 54 46 55
REMARK SMILES IDX 60 57 81 58 48 59 32 60 33 61 41 62 34 63 40 64 42 65 39 66
REMARK SMILES IDX 35 67 36 68 37 69 38 70 64 71 65 72 73 73 66 74 72 75 74 76
REMARK SMILES IDX 71 77 67 78 68 79 69 80 70 81 49 82 50 83 58 84 51 85 57 86
REMARK SMILES IDX 59 87 56 88 52 89 53 90 54 91 55 92
REMARK H PARENT 16 6 20 26 79 45 47 56
REMARK Flexibility Score: inf
ROOT
ATOM      1  C   UNL A   1      34.478  34.878  28.581  1.00  0.00     0.042 C 
ENDROOT
BRANCH   1   2
ATOM      2  C   UNL A   1      33.568  34.679  29.789  1.00  0.00     0.117 C 
BRANCH   2   3
ATOM      3  N   UNL A   1      34.073  35.339  30.977  1.00  0.00    -0.356 N 
ATOM      4  C   UNL A   1      34.975  34.954  31.919  1.00  0.00     0.227 C 
ATOM      5  O   UNL A   1      35.158  35.743  32.855  1.00  0.00    -0.274 OA
ATOM      6  H   UNL A   1      33.691  36.233  31.130  1.00  0.00     0.163 HD
BRANCH   4   7
ATOM      7  C   UNL A   1      35.768  33.639  31.867  1.00  0.00     0.105 C 
ATOM      8  C   UNL A   1      35.578  32.739  33.088  1.00  0.00     0.023 C 
BRANCH   7   9
ATOM      9  C   UNL A   1      37.201  33.809  31.388  1.00  0.00    -0.036 A 
ATOM     10  C   UNL A   1      39.954  33.973  30.624  1.00  0.00    -0.018 A 
ATOM     11  C   UNL A   1      38.969  33.500  29.744  1.00  0.00     0.009 A 
ATOM     12  C   UNL A   1      39.519  34.400  31.888  1.00  0.00     0.009 A 
ATOM     13  C   UNL A   1      37.617  33.457  30.104  1.00  0.00     0.005 A 
ATOM     14  C   UNL A   1      38.173  34.302  32.271  1.00  0.00     0.005 A 
BRANCH  10  15
ATOM     15  C   UNL A   1      41.381  34.006  30.228  1.00  0.00    -0.018 A 
ATOM     16  C   UNL A   1      43.650  33.059  30.292  1.00  0.00    -0.026 A 
ATOM     17  C   UNL A   1      44.094  34.066  29.431  1.00  0.00     0.008 A 
ATOM     18  C   UNL A   1      42.300  33.039  30.682  1.00  0.00     0.016 A 
ATOM     19  C   UNL A   1      43.207  35.029  28.961  1.00  0.00     0.001 A 
ATOM     20  C   UNL A   1      41.870  35.003  29.362  1.00  0.00     0.009 A 
BRANCH  16  21
ATOM     21  C   UNL A   1      44.626  32.085  30.795  1.00  0.00     0.000 C 
ATOM     22  C   UNL A   1      45.352  32.253  31.907  1.00  0.00     0.009 C 
ENDBRANCH  16  21
ENDBRANCH  10  15
ENDBRANCH   7   9
ENDBRANCH   4   7
ENDBRANCH   2   3
ENDBRANCH   1   2
BRANCH   1  23
ATOM     23  C   UNL A   1      35.131  33.594  28.085  1.00  0.00     0.118 C 
BRANCH  23  24
ATOM     24  N   UNL A   1      34.164  32.516  27.923  1.00  0.00    -0.352 N 
ATOM     25  C   UNL A   1      34.338  31.154  27.946  1.00  0.00     0.251 C 
ATOM     26  H   UNL A   1      33.237  32.812  27.772  1.00  0.00     0.163 HD
ATOM     27  O   UNL A   1      33.426  30.434  27.548  1.00  0.00    -0.269 OA
BRANCH  25  28
ATOM     28  C   UNL A   1      35.606  30.555  28.427  1.00  0.00     0.039 A 
ATOM     29  C   UNL A   1      36.754  30.676  27.638  1.00  0.00     0.014 A 
ATOM     30  C   UNL A   1      35.662  29.835  29.622  1.00  0.00     0.014 A 
ATOM     31  C   UNL A   1      37.964  30.128  28.076  1.00  0.00     0.010 A 
ATOM     32  C   UNL A   1      36.884  29.368  30.100  1.00  0.00     0.010 A 
ATOM     33  C   UNL A   1      38.047  29.496  29.327  1.00  0.00    -0.014 A 
BRANCH  33  34
ATOM     34  C   UNL A   1      39.324  28.923  29.832  1.00  0.00     0.031 A 
ATOM     35  C   UNL A   1      39.985  29.530  31.043  1.00  0.00     0.074 A 
ATOM     36  C   UNL A   1      39.919  27.910  29.170  1.00  0.00     0.049 A 
ATOM     37  N   UNL A   1      41.158  29.275  31.562  1.00  0.00    -0.248 NA
ATOM     38  C   UNL A   1      39.237  30.588  31.741  1.00  0.00     0.031 C 
ATOM     39  C   UNL A   1      39.390  27.258  27.971  1.00  0.00     0.029 A 
ATOM     40  N   UNL A   1      41.107  27.260  29.402  1.00  0.00    -0.354 N 
ATOM     41  C   UNL A   1      41.293  30.148  32.638  1.00  0.00     0.074 A 
ATOM     42  C   UNL A   1      40.112  30.983  32.652  1.00  0.00     0.031 C 
ATOM     43  C   UNL A   1      40.242  26.296  27.581  1.00  0.00     0.029 A 
ATOM     44  C   UNL A   1      41.402  26.295  28.465  1.00  0.00     0.049 A 
ATOM     45  H   UNL A   1      41.692  27.466  30.166  1.00  0.00     0.167 HD
ATOM     46  C   UNL A   1      42.296  30.225  33.548  1.00  0.00     0.034 A 
ATOM     47  C   UNL A   1      42.495  25.518  28.322  1.00  0.00     0.034 A 
ATOM     48  C   UNL A   1      43.461  29.376  33.528  1.00  0.00     0.049 A 
ATOM     49  C   UNL A   1      43.616  25.648  29.326  1.00  0.00     0.074 A 
ATOM     50  C   UNL A   1      44.526  29.352  34.411  1.00  0.00     0.029 A 
ATOM     51  N   UNL A   1      43.715  28.397  32.575  1.00  0.00    -0.354 N 
ATOM     52  N   UNL A   1      43.714  26.461  30.354  1.00  0.00    -0.248 NA
ATOM     53  C   UNL A   1      44.764  24.747  29.162  1.00  0.00     0.031 C 
ATOM     54  C   UNL A   1      45.450  28.404  33.961  1.00  0.00     0.029 A 
ATOM     55  C   UNL A   1      44.926  27.778  32.841  1.00  0.00     0.049 A 
ATOM     56  H   UNL A   1      43.121  28.177  31.821  1.00  0.00     0.167 HD
ATOM     57  C   UNL A   1      44.917  26.138  30.979  1.00  0.00     0.074 A 
ATOM     58  C   UNL A   1      45.500  25.051  30.221  1.00  0.00     0.031 C 
ATOM     59  C   UNL A   1      45.487  26.687  32.081  1.00  0.00     0.034 A 
BRANCH  46  60
ATOM     60  C   UNL A   1      42.177  31.273  34.629  1.00  0.00     0.023 A 
ATOM     61  C   UNL A   1      42.642  32.586  34.433  1.00  0.00     0.031 A 
ATOM     62  C   UNL A   1      41.604  30.958  35.873  1.00  0.00     0.131 A 
ATOM     63  C   UNL A   1      42.589  33.513  35.484  1.00  0.00     0.055 A 
ATOM     64  C   UNL A   1      41.478  31.910  36.888  1.00  0.00     0.041 A 
ATOM     65  F   UNL A   1      41.161  29.716  36.128  1.00  0.00    -0.206 F 
ATOM     66  C   UNL A   1      41.985  33.192  36.701  1.00  0.00     0.022 A 
BRANCH  63  67
ATOM     67  S   UNL A   1      43.440  35.101  35.280  1.00  0.00     0.124 S 
ATOM     68  O   UNL A   1      43.779  35.072  33.859  1.00  0.00    -0.237 OA
ATOM     69  O   UNL A   1      42.417  36.061  35.674  1.00  0.00    -0.237 OA
ATOM     70  O   UNL A   1      44.581  34.997  36.188  1.00  0.00    -0.744 OA
ENDBRANCH  63  67
ENDBRANCH  46  60
BRANCH  47  71
ATOM     71  C   UNL A   1      42.609  24.567  27.177  1.00  0.00     0.023 A 
ATOM     72  C   UNL A   1      42.028  23.290  27.234  1.00  0.00     0.031 A 
ATOM     73  C   UNL A   1      43.360  24.895  26.033  1.00  0.00     0.131 A 
ATOM     74  C   UNL A   1      42.262  22.365  26.204  1.00  0.00     0.055 A 
ATOM     75  C   UNL A   1      43.535  23.996  24.980  1.00  0.00     0.041 A 
ATOM     76  F   UNL A   1      43.937  26.102  25.922  1.00  0.00    -0.206 F 
ATOM     77  C   UNL A   1      42.999  22.714  25.071  1.00  0.00     0.022 A 
BRANCH  74  78
ATOM     78  S   UNL A   1      41.694  20.657  26.426  1.00  0.00     0.124 S 
ATOM     79  O   UNL A   1      40.266  20.783  26.156  1.00  0.00    -0.237 OA
ATOM     80  O   UNL A   1      42.477  19.945  25.422  1.00  0.00    -0.237 OA
ATOM     81  O   UNL A   1      42.043  20.361  27.814  1.00  0.00    -0.744 OA
ENDBRANCH  74  78
ENDBRANCH  47  71
BRANCH  59  82
ATOM     82  C   UNL A   1      46.772  26.069  32.575  1.00  0.00     0.023 A 
ATOM     83  C   UNL A   1      46.784  25.018  33.508  1.00  0.00     0.031 A 
ATOM     84  C   UNL A   1      48.006  26.542  32.094  1.00  0.00     0.131 A 
ATOM     85  C   UNL A   1      48.008  24.508  33.968  1.00  0.00     0.055 A 
ATOM     86  C   UNL A   1      49.218  25.989  32.509  1.00  0.00     0.041 A 
ATOM     87  F   UNL A   1      48.054  27.546  31.203  1.00  0.00    -0.206 F 
ATOM     88  C   UNL A   1      49.224  24.974  33.460  1.00  0.00     0.022 A 
BRANCH  85  89
ATOM     89  S   UNL A   1      47.994  23.282  35.304  1.00  0.00     0.124 S 
ATOM     90  O   UNL A   1      46.567  23.024  35.466  1.00  0.00    -0.237 OA
ATOM     91  O   UNL A   1      48.779  22.190  34.736  1.00  0.00    -0.237 OA
ATOM     92  O   UNL A   1      48.627  23.984  36.420  1.00  0.00    -0.744 OA
ENDBRANCH  85  89
ENDBRANCH  59  82
ENDBRANCH  33  34
ENDBRANCH  25  28
ENDBRANCH  23  24
ENDBRANCH   1  23
TORSDOF 16
ENDMDL
MODEL 2
REMARK VINA RESULT:      -9.7      3.707      6.565
REMARK SMILES C=Cc1cccc(-c2ccc([C@@H](C)C(=O)NCCCNC(=O)c3ccc(-c4c5nc(c(-c6cc(S(=O)(=O)[O-])ccc6F)c6ccc([nH]6)c(-c6cc(S(=O)(=O)[O-])ccc6F)c6nc(c(-c7cc(S(=O)(=O)[O-])ccc7F)c7ccc4[nH]7)C=C6)C=C5)cc3)cc2)c1
REMARK SMILES IDX 18 1 17 2 16 3 14 4 15 5 12 7 13 8 11 9 8 10 9 11 87 12
REMARK SMILES IDX 10 13 86 14 7 15 3 16 4 17 88 18 5 19 6 20 2 21 1 22 19 23
REMARK SMILES IDX 20 24 21 25 22 27 23 28 24 29 85 30 25 31 84 32 26 33 27 34
REMARK SMILES IDX 28 35 78 36 29 37 83 38 77 39 79 40 30 41 82 42 76 43 75 44
REMARK SMILES IDX 31 46 63 47 43 48 62 49 44 50 47 51 61 52 80 53 45 54 46 55
REMARK SMILES IDX 60 57 81 58 48 59 32 60 33 61 41 62 34 63 40 64 42 65 39 66
REMARK SMILES IDX 35 67 36 68 37 69 38 70 64 71 65 72 73 73 66 74 72 75 74 76
REMARK SMILES IDX 71 77 67 78 68 79 69 80 70 81 49 82 50 83 58 84 51 85 57 86
REMARK SMILES IDX 59 87 56 88 52 89 53 90 54 91 55 92
REMARK H PARENT 16 6 20 26 79 45 47 56
REMARK Flexibility Score: inf
ROOT
ATOM      1  C   UNL A   1      32.799  28.999  24.765  1.00  0.00     0.042 C 
ENDROOT
BRANCH   1   2
ATOM      2  C   UNL A   1      31.324  29.381  24.830  1.00  0.00     0.117 C 
BRANCH   2   3
ATOM      3  N   UNL A   1      30.771  29.676  23.523  1.00  0.00    -0.356 N 
ATOM      4  C   UNL A   1      30.132  28.898  22.608  1.00  0.00     0.227 C 
ATOM      5  O   UNL A   1      29.818  29.451  21.545  1.00  0.00    -0.274 OA
ATOM      6  H   UNL A   1      30.878  30.615  23.246  1.00  0.00     0.163 HD
BRANCH   4   7
ATOM      7  C   UNL A   1      29.773  27.421  22.832  1.00  0.00     0.105 C 
ATOM      8  C   UNL A   1      28.586  27.197  23.768  1.00  0.00     0.023 C 
BRANCH   7   9
ATOM      9  C   UNL A   1      30.980  26.528  23.069  1.00  0.00    -0.036 A 
ATOM     10  C   UNL A   1      33.368  25.023  23.538  1.00  0.00    -0.018 A 
ATOM     11  C   UNL A   1      32.311  25.037  24.459  1.00  0.00     0.009 A 
ATOM     12  C   UNL A   1      33.184  25.752  22.353  1.00  0.00     0.009 A 
ATOM     13  C   UNL A   1      31.126  25.741  24.212  1.00  0.00     0.005 A 
ATOM     14  C   UNL A   1      32.021  26.506  22.130  1.00  0.00     0.005 A 
BRANCH  10  15
ATOM     15  C   UNL A   1      34.617  24.277  23.819  1.00  0.00    -0.018 A 
ATOM     16  C   UNL A   1      36.504  23.730  25.298  1.00  0.00    -0.026 A 
ATOM     17  C   UNL A   1      36.979  22.818  24.352  1.00  0.00     0.008 A 
ATOM     18  C   UNL A   1      35.330  24.450  25.022  1.00  0.00     0.016 A 
ATOM     19  C   UNL A   1      36.292  22.622  23.158  1.00  0.00     0.001 A 
ATOM     20  C   UNL A   1      35.131  23.349  22.894  1.00  0.00     0.009 A 
BRANCH  16  21
ATOM     21  C   UNL A   1      37.280  23.935  26.527  1.00  0.00     0.000 C 
ATOM     22  C   UNL A   1      38.590  24.204  26.553  1.00  0.00     0.009 C 
ENDBRANCH  16  21
ENDBRANCH  10  15
ENDBRANCH   7   9
ENDBRANCH   4   7
ENDBRANCH   2   3
ENDBRANCH   1   2
BRANCH   1  23
ATOM     23  C   UNL A   1      33.580  29.347  26.026  1.00  0.00     0.118 C 
BRANCH  23  24
ATOM     24  N   UNL A   1      33.384  30.734  26.426  1.00  0.00    -0.352 N 
ATOM     25  C   UNL A   1      34.008  31.476  27.399  1.00  0.00     0.251 C 
ATOM     26  H   UNL A   1      32.693  31.217  25.916  1.00  0.00     0.163 HD
ATOM     27  O   UNL A   1      33.519  32.555  27.725  1.00  0.00    -0.269 OA
BRANCH  25  28
ATOM     28  C   UNL A   1      35.241  30.986  28.060  1.00  0.00     0.039 A 
ATOM     29  C   UNL A   1      35.202  29.770  28.749  1.00  0.00     0.014 A 
ATOM     30  C   UNL A   1      36.419  31.735  28.046  1.00  0.00     0.014 A 
ATOM     31  C   UNL A   1      36.355  29.282  29.372  1.00  0.00     0.010 A 
ATOM     32  C   UNL A   1      37.589  31.207  28.588  1.00  0.00     0.010 A 
ATOM     33  C   UNL A   1      37.569  29.982  29.269  1.00  0.00    -0.014 A 
BRANCH  33  34
ATOM     34  C   UNL A   1      38.818  29.478  29.900  1.00  0.00     0.031 A 
ATOM     35  C   UNL A   1      39.262  30.040  31.227  1.00  0.00     0.074 A 
ATOM     36  C   UNL A   1      39.582  28.572  29.258  1.00  0.00     0.049 A 
ATOM     37  N   UNL A   1      40.377  29.842  31.879  1.00  0.00    -0.248 NA
ATOM     38  C   UNL A   1      38.337  30.974  31.888  1.00  0.00     0.031 C 
ATOM     39  C   UNL A   1      39.272  27.975  27.957  1.00  0.00     0.029 A 
ATOM     40  N   UNL A   1      40.786  28.006  29.602  1.00  0.00    -0.354 N 
ATOM     41  C   UNL A   1      40.294  30.635  33.020  1.00  0.00     0.074 A 
ATOM     42  C   UNL A   1      39.049  31.367  32.933  1.00  0.00     0.031 C 
ATOM     43  C   UNL A   1      40.251  27.120  27.621  1.00  0.00     0.029 A 
ATOM     44  C   UNL A   1      41.285  27.145  28.650  1.00  0.00     0.049 A 
ATOM     45  H   UNL A   1      41.248  28.198  30.449  1.00  0.00     0.167 HD
ATOM     46  C   UNL A   1      41.162  30.723  34.059  1.00  0.00     0.034 A 
ATOM     47  C   UNL A   1      42.454  26.474  28.602  1.00  0.00     0.034 A 
ATOM     48  C   UNL A   1      42.393  29.976  34.137  1.00  0.00     0.049 A 
ATOM     49  C   UNL A   1      43.421  26.616  29.753  1.00  0.00     0.074 A 
ATOM     50  C   UNL A   1      43.334  29.970  35.152  1.00  0.00     0.029 A 
ATOM     51  N   UNL A   1      42.854  29.099  33.164  1.00  0.00    -0.354 N 
ATOM     52  N   UNL A   1      43.314  27.350  30.837  1.00  0.00    -0.248 NA
ATOM     53  C   UNL A   1      44.659  25.828  29.684  1.00  0.00     0.031 C 
ATOM     54  C   UNL A   1      44.391  29.140  34.766  1.00  0.00     0.029 A 
ATOM     55  C   UNL A   1      44.073  28.563  33.547  1.00  0.00     0.049 A 
ATOM     56  H   UNL A   1      42.384  28.891  32.324  1.00  0.00     0.167 HD
ATOM     57  C   UNL A   1      44.451  27.079  31.594  1.00  0.00     0.074 A 
ATOM     58  C   UNL A   1      45.223  26.107  30.849  1.00  0.00     0.031 C 
ATOM     59  C   UNL A   1      44.824  27.585  32.797  1.00  0.00     0.034 A 
BRANCH  46  60
ATOM     60  C   UNL A   1      40.811  31.670  35.183  1.00  0.00     0.023 A 
ATOM     61  C   UNL A   1      39.747  31.403  36.062  1.00  0.00     0.031 A 
ATOM     62  C   UNL A   1      41.540  32.856  35.373  1.00  0.00     0.131 A 
ATOM     63  C   UNL A   1      39.398  32.340  37.045  1.00  0.00     0.055 A 
ATOM     64  C   UNL A   1      41.241  33.746  36.408  1.00  0.00     0.041 A 
ATOM     65  F   UNL A   1      42.554  33.177  34.553  1.00  0.00    -0.206 F 
ATOM     66  C   UNL A   1      40.155  33.497  37.242  1.00  0.00     0.022 A 
BRANCH  63  67
ATOM     67  S   UNL A   1      37.862  32.087  37.975  1.00  0.00     0.124 S 
ATOM     68  O   UNL A   1      37.527  30.711  37.619  1.00  0.00    -0.237 OA
ATOM     69  O   UNL A   1      38.286  32.306  39.352  1.00  0.00    -0.237 OA
ATOM     70  O   UNL A   1      36.962  33.102  37.430  1.00  0.00    -0.744 OA
ENDBRANCH  63  67
ENDBRANCH  46  60
BRANCH  47  71
ATOM     71  C   UNL A   1      42.799  25.627  27.421  1.00  0.00     0.023 A 
ATOM     72  C   UNL A   1      42.320  24.313  27.306  1.00  0.00     0.031 A 
ATOM     73  C   UNL A   1      43.670  26.099  26.421  1.00  0.00     0.131 A 
ATOM     74  C   UNL A   1      42.767  23.493  26.257  1.00  0.00     0.055 A 
ATOM     75  C   UNL A   1      44.059  25.301  25.343  1.00  0.00     0.041 A 
ATOM     76  F   UNL A   1      44.157  27.348  26.478  1.00  0.00    -0.206 F 
ATOM     77  C   UNL A   1      43.620  23.983  25.267  1.00  0.00     0.022 A 
BRANCH  74  78
ATOM     78  S   UNL A   1      42.313  21.736  26.276  1.00  0.00     0.124 S 
ATOM     79  O   UNL A   1      42.580  21.377  27.664  1.00  0.00    -0.237 OA
ATOM     80  O   UNL A   1      40.909  21.783  25.883  1.00  0.00    -0.237 OA
ATOM     81  O   UNL A   1      43.216  21.143  25.291  1.00  0.00    -0.744 OA
ENDBRANCH  74  78
ENDBRANCH  47  71
BRANCH  59  82
ATOM     82  C   UNL A   1      46.088  27.037  33.415  1.00  0.00     0.023 A 
ATOM     83  C   UNL A   1      46.081  25.901  34.242  1.00  0.00     0.031 A 
ATOM     84  C   UNL A   1      47.320  27.666  33.162  1.00  0.00     0.131 A 
ATOM     85  C   UNL A   1      47.278  25.459  34.828  1.00  0.00     0.055 A 
ATOM     86  C   UNL A   1      48.515  27.185  33.699  1.00  0.00     0.041 A 
ATOM     87  F   UNL A   1      47.384  28.757  32.381  1.00  0.00    -0.206 F 
ATOM     88  C   UNL A   1      48.496  26.082  34.546  1.00  0.00     0.022 A 
BRANCH  85  89
ATOM     89  S   UNL A   1      47.209  24.105  36.033  1.00  0.00     0.124 S 
ATOM     90  O   UNL A   1      48.469  24.270  36.749  1.00  0.00    -0.237 OA
ATOM     91  O   UNL A   1      46.000  24.420  36.789  1.00  0.00    -0.237 OA
ATOM     92  O   UNL A   1      47.122  22.908  35.199  1.00  0.00    -0.744 OA
ENDBRANCH  85  89
ENDBRANCH  59  82
ENDBRANCH  33  34
ENDBRANCH  25  28
ENDBRANCH  23  24
ENDBRANCH   1  23
TORSDOF 16
ENDMDL
MODEL 3
REMARK VINA RESULT:      -9.7      1.485      2.052
REMARK SMILES C=Cc1cccc(-c2ccc([C@@H](C)C(=O)NCCCNC(=O)c3ccc(-c4c5nc(c(-c6cc(S(=O)(=O)[O-])ccc6F)c6ccc([nH]6)c(-c6cc(S(=O)(=O)[O-])ccc6F)c6nc(c(-c7cc(S(=O)(=O)[O-])ccc7F)c7ccc4[nH]7)C=C6)C=C5)cc3)cc2)c1
REMARK SMILES IDX 18 1 17 2 16 3 14 4 15 5 12 7 13 8 11 9 8 10 9 11 87 12
REMARK SMILES IDX 10 13 86 14 7 15 3 16 4 17 88 18 5 19 6 20 2 21 1 22 19 23
REMARK SMILES IDX 20 24 21 25 22 27 23 28 24 29 85 30 25 31 84 32 26 33 27 34
REMARK SMILES IDX 28 35 78 36 29 37 83 38 77 39 79 40 30 41 82 42 76 43 75 44
REMARK SMILES IDX 31 46 63 47 43 48 62 49 44 50 47 51 61 52 80 53 45 54 46 55
REMARK SMILES IDX 60 57 81 58 48 59 32 60 33 61 41 62 34 63 40 64 42 65 39 66
REMARK SMILES IDX 35 67 36 68 37 69 38 70 64 71 65 72 73 73 66 74 72 75 74 76
REMARK SMILES IDX 71 77 67 78 68 79 69 80 70 81 49 82 50 83 58 84 51 85 57 86
REMARK SMILES IDX 59 87 56 88 52 89 53 90 54 91 55 92
REMARK H PARENT 16 6 20 26 79 45 47 56
REMARK Flexibility Score: inf
ROOT
ATOM      1  C   UNL A   1      33.392  34.157  28.785  1.00  0.00     0.042 C 
ENDROOT
BRANCH   1   2
ATOM      2  C   UNL A   1      34.104  35.309  29.488  1.00  0.00     0.117 C 
BRANCH   2   3
ATOM      3  N   UNL A   1      34.070  35.181  30.932  1.00  0.00    -0.356 N 
ATOM      4  C   UNL A   1      34.640  34.281  31.779  1.00  0.00     0.227 C 
ATOM      5  O   UNL A   1      34.376  34.421  32.981  1.00  0.00    -0.274 OA
ATOM      6  H   UNL A   1      33.536  35.873  31.383  1.00  0.00     0.163 HD
BRANCH   4   7
ATOM      7  C   UNL A   1      35.582  33.153  31.333  1.00  0.00     0.105 C 
ATOM      8  C   UNL A   1      35.622  31.954  32.282  1.00  0.00     0.023 C 
BRANCH   7   9
ATOM      9  C   UNL A   1      36.930  33.644  30.832  1.00  0.00    -0.036 A 
ATOM     10  C   UNL A   1      39.558  34.411  30.000  1.00  0.00    -0.018 A 
ATOM     11  C   UNL A   1      38.621  33.885  29.098  1.00  0.00     0.009 A 
ATOM     12  C   UNL A   1      39.133  34.581  31.326  1.00  0.00     0.009 A 
ATOM     13  C   UNL A   1      37.323  33.547  29.496  1.00  0.00     0.005 A 
ATOM     14  C   UNL A   1      37.851  34.188  31.740  1.00  0.00     0.005 A 
BRANCH  10  15
ATOM     15  C   UNL A   1      40.931  34.757  29.560  1.00  0.00    -0.018 A 
ATOM     16  C   UNL A   1      42.466  35.908  28.022  1.00  0.00    -0.026 A 
ATOM     17  C   UNL A   1      43.556  35.437  28.759  1.00  0.00     0.008 A 
ATOM     18  C   UNL A   1      41.166  35.563  28.429  1.00  0.00     0.016 A 
ATOM     19  C   UNL A   1      43.352  34.645  29.885  1.00  0.00     0.001 A 
ATOM     20  C   UNL A   1      42.056  34.304  30.274  1.00  0.00     0.009 A 
BRANCH  16  21
ATOM     21  C   UNL A   1      42.726  36.708  26.820  1.00  0.00     0.000 C 
ATOM     22  C   UNL A   1      42.692  38.045  26.783  1.00  0.00     0.009 C 
ENDBRANCH  16  21
ENDBRANCH  10  15
ENDBRANCH   7   9
ENDBRANCH   4   7
ENDBRANCH   2   3
ENDBRANCH   1   2
BRANCH   1  23
ATOM     23  C   UNL A   1      34.338  33.139  28.163  1.00  0.00     0.118 C 
BRANCH  23  24
ATOM     24  N   UNL A   1      33.628  31.974  27.650  1.00  0.00    -0.352 N 
ATOM     25  C   UNL A   1      34.064  30.689  27.435  1.00  0.00     0.251 C 
ATOM     26  H   UNL A   1      32.683  32.134  27.422  1.00  0.00     0.163 HD
ATOM     27  O   UNL A   1      33.363  29.929  26.772  1.00  0.00    -0.269 OA
BRANCH  25  28
ATOM     28  C   UNL A   1      35.364  30.224  27.975  1.00  0.00     0.039 A 
ATOM     29  C   UNL A   1      35.411  29.706  29.274  1.00  0.00     0.014 A 
ATOM     30  C   UNL A   1      36.541  30.336  27.233  1.00  0.00     0.014 A 
ATOM     31  C   UNL A   1      36.623  29.252  29.801  1.00  0.00     0.010 A 
ATOM     32  C   UNL A   1      37.730  29.801  27.724  1.00  0.00     0.010 A 
ATOM     33  C   UNL A   1      37.789  29.265  29.019  1.00  0.00    -0.014 A 
BRANCH  33  34
ATOM     34  C   UNL A   1      39.089  28.767  29.542  1.00  0.00     0.031 A 
ATOM     35  C   UNL A   1      39.755  29.486  30.688  1.00  0.00     0.074 A 
ATOM     36  C   UNL A   1      39.698  27.719  28.953  1.00  0.00     0.049 A 
ATOM     37  N   UNL A   1      40.943  29.303  31.203  1.00  0.00    -0.248 NA
ATOM     38  C   UNL A   1      38.992  30.577  31.314  1.00  0.00     0.031 C 
ATOM     39  C   UNL A   1      39.166  26.959  27.820  1.00  0.00     0.029 A 
ATOM     40  N   UNL A   1      40.907  27.119  29.213  1.00  0.00    -0.354 N 
ATOM     41  C   UNL A   1      41.074  30.262  32.203  1.00  0.00     0.074 A 
ATOM     42  C   UNL A   1      39.872  31.066  32.173  1.00  0.00     0.031 C 
ATOM     43  C   UNL A   1      40.036  25.990  27.492  1.00  0.00     0.029 A 
ATOM     44  C   UNL A   1      41.211  26.090  28.351  1.00  0.00     0.049 A 
ATOM     45  H   UNL A   1      41.500  27.400  29.946  1.00  0.00     0.167 HD
ATOM     46  C   UNL A   1      42.090  30.437  33.084  1.00  0.00     0.034 A 
ATOM     47  C   UNL A   1      42.322  25.331  28.249  1.00  0.00     0.034 A 
ATOM     48  C   UNL A   1      43.277  29.618  33.109  1.00  0.00     0.049 A 
ATOM     49  C   UNL A   1      43.455  25.569  29.217  1.00  0.00     0.074 A 
ATOM     50  C   UNL A   1      44.357  29.692  33.971  1.00  0.00     0.029 A 
ATOM     51  N   UNL A   1      43.539  28.572  32.233  1.00  0.00    -0.354 N 
ATOM     52  N   UNL A   1      43.551  26.463  30.174  1.00  0.00    -0.248 NA
ATOM     53  C   UNL A   1      44.624  24.686  29.104  1.00  0.00     0.031 C 
ATOM     54  C   UNL A   1      45.298  28.734  33.579  1.00  0.00     0.029 A 
ATOM     55  C   UNL A   1      44.771  28.006  32.524  1.00  0.00     0.049 A 
ATOM     56  H   UNL A   1      42.939  28.277  31.511  1.00  0.00     0.167 HD
ATOM     57  C   UNL A   1      44.772  26.222  30.800  1.00  0.00     0.074 A 
ATOM     58  C   UNL A   1      45.370  25.092  30.120  1.00  0.00     0.031 C 
ATOM     59  C   UNL A   1      45.347  26.872  31.843  1.00  0.00     0.034 A 
BRANCH  46  60
ATOM     60  C   UNL A   1      41.964  31.566  34.079  1.00  0.00     0.023 A 
ATOM     61  C   UNL A   1      41.088  31.482  35.177  1.00  0.00     0.031 A 
ATOM     62  C   UNL A   1      42.717  32.743  33.928  1.00  0.00     0.131 A 
ATOM     63  C   UNL A   1      40.935  32.578  36.037  1.00  0.00     0.055 A 
ATOM     64  C   UNL A   1      42.622  33.799  34.837  1.00  0.00     0.041 A 
ATOM     65  F   UNL A   1      43.554  32.891  32.889  1.00  0.00    -0.206 F 
ATOM     66  C   UNL A   1      41.717  33.726  35.892  1.00  0.00     0.022 A 
BRANCH  63  67
ATOM     67  S   UNL A   1      39.607  32.532  37.270  1.00  0.00     0.124 S 
ATOM     68  O   UNL A   1      38.883  33.764  36.968  1.00  0.00    -0.237 OA
ATOM     69  O   UNL A   1      38.917  31.289  36.946  1.00  0.00    -0.237 OA
ATOM     70  O   UNL A   1      40.323  32.535  38.545  1.00  0.00    -0.744 OA
ENDBRANCH  63  67
ENDBRANCH  46  60
BRANCH  47  71
ATOM     71  C   UNL A   1      42.440  24.293  27.182  1.00  0.00     0.023 A 
ATOM     72  C   UNL A   1      41.852  23.027  27.333  1.00  0.00     0.031 A 
ATOM     73  C   UNL A   1      43.202  24.529  26.023  1.00  0.00     0.131 A 
ATOM     74  C   UNL A   1      42.091  22.025  26.379  1.00  0.00     0.055 A 
ATOM     75  C   UNL A   1      43.381  23.550  25.043  1.00  0.00     0.041 A 
ATOM     76  F   UNL A   1      43.786  25.721  25.824  1.00  0.00    -0.206 F 
ATOM     77  C   UNL A   1      42.838  22.282  25.228  1.00  0.00     0.022 A 
BRANCH  74  78
ATOM     78  S   UNL A   1      41.512  20.341  26.727  1.00  0.00     0.124 S 
ATOM     79  O   UNL A   1      40.120  20.577  27.095  1.00  0.00    -0.237 OA
ATOM     80  O   UNL A   1      41.734  19.675  25.448  1.00  0.00    -0.237 OA
ATOM     81  O   UNL A   1      42.381  19.903  27.817  1.00  0.00    -0.744 OA
ENDBRANCH  74  78
ENDBRANCH  47  71
BRANCH  59  82
ATOM     82  C   UNL A   1      46.657  26.328  32.360  1.00  0.00     0.023 A 
ATOM     83  C   UNL A   1      46.711  25.325  33.343  1.00  0.00     0.031 A 
ATOM     84  C   UNL A   1      47.870  26.822  31.849  1.00  0.00     0.131 A 
ATOM     85  C   UNL A   1      47.956  24.885  33.821  1.00  0.00     0.055 A 
ATOM     86  C   UNL A   1      49.104  26.337  32.284  1.00  0.00     0.041 A 
ATOM     87  F   UNL A   1      47.876  27.782  30.909  1.00  0.00    -0.206 F 
ATOM     88  C   UNL A   1      49.151  25.371  33.284  1.00  0.00     0.022 A 
BRANCH  85  89
ATOM     89  S   UNL A   1      47.992  23.726  35.216  1.00  0.00     0.124 S 
ATOM     90  O   UNL A   1      46.735  24.026  35.893  1.00  0.00    -0.237 OA
ATOM     91  O   UNL A   1      48.063  22.431  34.546  1.00  0.00    -0.237 OA
ATOM     92  O   UNL A   1      49.198  24.111  35.948  1.00  0.00    -0.744 OA
ENDBRANCH  85  89
ENDBRANCH  59  82
ENDBRANCH  33  34
ENDBRANCH  25  28
ENDBRANCH  23  24
ENDBRANCH   1  23
TORSDOF 16
ENDMDL
