MODEL 1
REMARK VINA RESULT:     -12.2      0.000      0.000
REMARK SMILES COc1cc(CC(=O)N[C@@H](CC(=O)NCCCNC(=O)c2ccc(-c3c4nc(c(-c5cc(S(=O)(=O)[O-])ccc5F)c5ccc([nH]5)c(-c5cc(S(=O)(=O)[O-])ccc5F)c5nc(c(-c6cc(S(=O)(=O)[O-])ccc6F)c6ccc3[nH]6)C=C5)C=C4)cc2)c2cccs2)ccc1C
REMARK SMILES IDX 15 1 14 2 12 3 13 4 11 6 10 7 9 8 7 9 8 10 6 12 5 13 3 14
REMARK SMILES IDX 4 15 91 16 90 17 92 18 89 19 2 20 1 21 84 22 85 23 88 24
REMARK SMILES IDX 86 25 87 26 16 27 17 28 18 29 19 30 20 32 21 33 22 34 83 35
REMARK SMILES IDX 23 36 82 37 24 38 25 39 26 40 76 41 27 42 81 43 75 44 77 45
REMARK SMILES IDX 28 46 80 47 74 48 73 49 29 51 61 52 41 53 60 54 42 55 45 56
REMARK SMILES IDX 59 57 78 58 43 59 44 60 58 62 79 63 46 64 30 65 31 66 39 67
REMARK SMILES IDX 32 68 38 69 40 70 37 71 33 72 34 73 35 74 36 75 62 76 63 77
REMARK SMILES IDX 71 78 64 79 70 80 72 81 69 82 65 83 66 84 67 85 68 86 47 87
REMARK SMILES IDX 48 88 56 89 49 90 55 91 57 92 54 93 50 94 51 95 52 96 53 97
REMARK H PARENT 14 5 9 11 18 31 77 50 45 61
REMARK Flexibility Score: inf
ROOT
ATOM      1  C   UNL A   1      32.928  30.665  26.671  1.00  0.00     0.117 C 
ENDROOT
BRANCH   1   2
ATOM      2  N   UNL A   1      32.345  29.704  27.596  1.00  0.00    -0.356 N 
ATOM      3  C   UNL A   1      31.927  28.426  27.383  1.00  0.00     0.222 C 
ATOM      4  O   UNL A   1      31.518  27.767  28.341  1.00  0.00    -0.275 OA
ATOM      5  H   UNL A   1      32.237  30.028  28.519  1.00  0.00     0.163 HD
BRANCH   3   6
ATOM      6  C   UNL A   1      31.976  27.815  25.996  1.00  0.00     0.130 C 
BRANCH   6   7
ATOM      7  C   UNL A   1      33.302  27.148  25.605  1.00  0.00     0.131 C 
BRANCH   7   8
ATOM      8  N   UNL A   1      33.726  27.434  24.240  1.00  0.00    -0.348 N 
ATOM      9  C   UNL A   1      33.320  26.944  23.040  1.00  0.00     0.224 C 
ATOM     10  O   UNL A   1      33.898  27.363  22.033  1.00  0.00    -0.275 OA
ATOM     11  H   UNL A   1      34.440  28.108  24.175  1.00  0.00     0.164 HD
BRANCH   9  12
ATOM     12  C   UNL A   1      32.116  26.037  22.893  1.00  0.00     0.135 C 
BRANCH  12  13
ATOM     13  C   UNL A   1      30.753  26.660  23.039  1.00  0.00    -0.035 A 
ATOM     14  C   UNL A   1      29.275  28.562  22.620  1.00  0.00     0.122 A 
ATOM     15  C   UNL A   1      30.518  27.936  22.501  1.00  0.00     0.051 A 
ATOM     16  C   UNL A   1      28.235  27.900  23.294  1.00  0.00    -0.009 A 
ATOM     17  C   UNL A   1      28.456  26.605  23.794  1.00  0.00     0.007 A 
ATOM     18  C   UNL A   1      26.871  28.511  23.461  1.00  0.00     0.048 C 
ATOM     19  C   UNL A   1      29.702  25.987  23.665  1.00  0.00     0.005 A 
BRANCH  14  20
ATOM     20  O   UNL A   1      28.993  29.812  22.132  1.00  0.00    -0.496 OA
ATOM     21  C   UNL A   1      29.037  30.894  23.053  1.00  0.00     0.278 C 
ENDBRANCH  14  20
ENDBRANCH  12  13
ENDBRANCH   9  12
ENDBRANCH   7   8
BRANCH   7  22
ATOM     22  C   UNL A   1      33.291  25.646  25.804  1.00  0.00     0.027 A 
ATOM     23  C   UNL A   1      32.265  24.813  26.220  1.00  0.00     0.017 A 
ATOM     24  S   UNL A   1      34.735  24.749  25.535  1.00  0.00    -0.147 S 
ATOM     25  C   UNL A   1      32.667  23.451  26.320  1.00  0.00     0.012 A 
ATOM     26  C   UNL A   1      33.992  23.280  25.990  1.00  0.00     0.065 A 
ENDBRANCH   7  22
ENDBRANCH   6   7
ENDBRANCH   3   6
ENDBRANCH   1   2
BRANCH   1  27
ATOM     27  C   UNL A   1      33.943  31.575  27.354  1.00  0.00     0.042 C 
BRANCH  27  28
ATOM     28  C   UNL A   1      34.581  30.969  28.600  1.00  0.00     0.118 C 
BRANCH  28  29
ATOM     29  N   UNL A   1      35.753  31.750  29.012  1.00  0.00    -0.352 N 
ATOM     30  C   UNL A   1      37.075  31.381  29.168  1.00  0.00     0.251 C 
ATOM     31  H   UNL A   1      35.566  32.697  29.211  1.00  0.00     0.163 HD
ATOM     32  O   UNL A   1      37.951  32.156  29.492  1.00  0.00    -0.269 OA
BRANCH  30  33
ATOM     33  C   UNL A   1      37.418  30.000  28.781  1.00  0.00     0.039 A 
ATOM     34  C   UNL A   1      37.686  29.125  29.837  1.00  0.00     0.014 A 
ATOM     35  C   UNL A   1      37.841  29.738  27.480  1.00  0.00     0.014 A 
ATOM     36  C   UNL A   1      38.615  28.113  29.643  1.00  0.00     0.010 A 
ATOM     37  C   UNL A   1      38.801  28.755  27.300  1.00  0.00     0.010 A 
ATOM     38  C   UNL A   1      39.259  28.019  28.404  1.00  0.00    -0.014 A 
BRANCH  38  39
ATOM     39  C   UNL A   1      40.562  27.370  28.286  1.00  0.00     0.031 A 
ATOM     40  C   UNL A   1      40.684  25.915  28.096  1.00  0.00     0.074 A 
ATOM     41  C   UNL A   1      41.702  28.085  28.440  1.00  0.00     0.049 A 
ATOM     42  N   UNL A   1      41.630  25.211  28.622  1.00  0.00    -0.248 NA
ATOM     43  C   UNL A   1      39.728  25.132  27.323  1.00  0.00     0.031 C 
ATOM     44  C   UNL A   1      43.070  27.619  28.230  1.00  0.00     0.029 A 
ATOM     45  N   UNL A   1      41.851  29.315  29.077  1.00  0.00    -0.354 N 
ATOM     46  C   UNL A   1      41.574  23.965  28.056  1.00  0.00     0.074 A 
ATOM     47  C   UNL A   1      40.334  23.939  27.311  1.00  0.00     0.031 C 
ATOM     48  C   UNL A   1      43.904  28.388  28.946  1.00  0.00     0.029 A 
ATOM     49  C   UNL A   1      43.102  29.319  29.718  1.00  0.00     0.049 A 
ATOM     50  H   UNL A   1      41.197  30.051  29.078  1.00  0.00     0.167 HD
ATOM     51  C   UNL A   1      42.632  23.114  28.154  1.00  0.00     0.034 A 
ATOM     52  C   UNL A   1      43.212  29.560  31.055  1.00  0.00     0.034 A 
ATOM     53  C   UNL A   1      43.768  23.681  28.870  1.00  0.00     0.049 A 
ATOM     54  C   UNL A   1      43.785  28.399  31.849  1.00  0.00     0.074 A 
ATOM     55  C   UNL A   1      44.988  24.214  28.487  1.00  0.00     0.029 A 
ATOM     56  N   UNL A   1      43.630  23.981  30.213  1.00  0.00    -0.354 N 
ATOM     57  N   UNL A   1      44.195  27.273  31.330  1.00  0.00    -0.248 NA
ATOM     58  C   UNL A   1      43.836  28.380  33.312  1.00  0.00     0.031 C 
ATOM     59  C   UNL A   1      45.585  24.828  29.627  1.00  0.00     0.029 A 
ATOM     60  C   UNL A   1      44.734  24.654  30.701  1.00  0.00     0.049 A 
ATOM     61  H   UNL A   1      42.843  23.746  30.755  1.00  0.00     0.167 HD
ATOM     62  C   UNL A   1      44.444  26.371  32.336  1.00  0.00     0.074 A 
ATOM     63  C   UNL A   1      44.224  27.119  33.561  1.00  0.00     0.031 C 
ATOM     64  C   UNL A   1      44.743  25.060  32.098  1.00  0.00     0.034 A 
BRANCH  51  65
ATOM     65  C   UNL A   1      42.693  21.843  27.359  1.00  0.00     0.023 A 
ATOM     66  C   UNL A   1      43.732  21.645  26.432  1.00  0.00     0.031 A 
ATOM     67  C   UNL A   1      41.743  20.809  27.460  1.00  0.00     0.131 A 
ATOM     68  C   UNL A   1      43.747  20.520  25.591  1.00  0.00     0.055 A 
ATOM     69  C   UNL A   1      41.725  19.716  26.587  1.00  0.00     0.041 A 
ATOM     70  F   UNL A   1      40.802  20.823  28.419  1.00  0.00    -0.206 F 
ATOM     71  C   UNL A   1      42.725  19.574  25.633  1.00  0.00     0.022 A 
BRANCH  68  72
ATOM     72  S   UNL A   1      45.130  20.314  24.437  1.00  0.00     0.124 S 
ATOM     73  O   UNL A   1      44.986  18.921  24.025  1.00  0.00    -0.237 OA
ATOM     74  O   UNL A   1      44.835  21.319  23.422  1.00  0.00    -0.237 OA
ATOM     75  O   UNL A   1      46.303  20.594  25.263  1.00  0.00    -0.744 OA
ENDBRANCH  68  72
ENDBRANCH  51  65
BRANCH  52  76
ATOM     76  C   UNL A   1      42.207  30.544  31.551  1.00  0.00     0.023 A 
ATOM     77  C   UNL A   1      40.954  30.044  31.973  1.00  0.00     0.031 A 
ATOM     78  C   UNL A   1      42.559  31.841  31.940  1.00  0.00     0.131 A 
ATOM     79  C   UNL A   1      40.161  30.779  32.865  1.00  0.00     0.055 A 
ATOM     80  C   UNL A   1      41.738  32.593  32.789  1.00  0.00     0.041 A 
ATOM     81  F   UNL A   1      43.750  32.359  31.605  1.00  0.00    -0.206 F 
ATOM     82  C   UNL A   1      40.556  32.047  33.290  1.00  0.00     0.022 A 
BRANCH  79  83
ATOM     83  S   UNL A   1      38.719  29.993  33.647  1.00  0.00     0.124 S 
ATOM     84  O   UNL A   1      39.016  30.140  35.066  1.00  0.00    -0.237 OA
ATOM     85  O   UNL A   1      37.598  30.782  33.144  1.00  0.00    -0.237 OA
ATOM     86  O   UNL A   1      38.761  28.625  33.133  1.00  0.00    -0.744 OA
ENDBRANCH  79  83
ENDBRANCH  52  76
BRANCH  64  87
ATOM     87  C   UNL A   1      45.021  24.041  33.180  1.00  0.00     0.023 A 
ATOM     88  C   UNL A   1      46.267  23.949  33.820  1.00  0.00     0.031 A 
ATOM     89  C   UNL A   1      44.060  23.073  33.556  1.00  0.00     0.131 A 
ATOM     90  C   UNL A   1      46.491  22.996  34.832  1.00  0.00     0.055 A 
ATOM     91  C   UNL A   1      44.312  22.076  34.502  1.00  0.00     0.041 A 
ATOM     92  F   UNL A   1      42.820  23.070  33.047  1.00  0.00    -0.206 F 
ATOM     93  C   UNL A   1      45.530  22.042  35.160  1.00  0.00     0.022 A 
BRANCH  90  94
ATOM     94  S   UNL A   1      48.042  23.069  35.766  1.00  0.00     0.124 S 
ATOM     95  O   UNL A   1      47.623  23.661  37.032  1.00  0.00    -0.237 OA
ATOM     96  O   UNL A   1      48.422  21.660  35.819  1.00  0.00    -0.237 OA
ATOM     97  O   UNL A   1      48.903  23.912  34.940  1.00  0.00    -0.744 OA
ENDBRANCH  90  94
ENDBRANCH  64  87
ENDBRANCH  38  39
ENDBRANCH  30  33
ENDBRANCH  28  29
ENDBRANCH  27  28
ENDBRANCH   1  27
TORSDOF 19
ENDMDL
MODEL 2
REMARK VINA RESULT:     -12.1      4.298     10.322
REMARK SMILES COc1cc(CC(=O)N[C@@H](CC(=O)NCCCNC(=O)c2ccc(-c3c4nc(c(-c5cc(S(=O)(=O)[O-])ccc5F)c5ccc([nH]5)c(-c5cc(S(=O)(=O)[O-])ccc5F)c5nc(c(-c6cc(S(=O)(=O)[O-])ccc6F)c6ccc3[nH]6)C=C5)C=C4)cc2)c2cccs2)ccc1C
REMARK SMILES IDX 15 1 14 2 12 3 13 4 11 6 10 7 9 8 7 9 8 10 6 12 5 13 3 14
REMARK SMILES IDX 4 15 91 16 90 17 92 18 89 19 2 20 1 21 84 22 85 23 88 24
REMARK SMILES IDX 86 25 87 26 16 27 17 28 18 29 19 30 20 32 21 33 22 34 83 35
REMARK SMILES IDX 23 36 82 37 24 38 25 39 26 40 76 41 27 42 81 43 75 44 77 45
REMARK SMILES IDX 28 46 80 47 74 48 73 49 29 51 61 52 41 53 60 54 42 55 45 56
REMARK SMILES IDX 59 57 78 58 43 59 44 60 58 62 79 63 46 64 30 65 31 66 39 67
REMARK SMILES IDX 32 68 38 69 40 70 37 71 33 72 34 73 35 74 36 75 62 76 63 77
REMARK SMILES IDX 71 78 64 79 70 80 72 81 69 82 65 83 66 84 67 85 68 86 47 87
REMARK SMILES IDX 48 88 56 89 49 90 55 91 57 92 54 93 50 94 51 95 52 96 53 97
REMARK H PARENT 14 5 9 11 18 31 77 50 45 61
REMARK Flexibility Score: inf
ROOT
ATOM      1  C   UNL A   1      37.683  22.322  25.722  1.00  0.00     0.117 C 
ENDROOT
BRANCH   1   2
ATOM      2  N   UNL A   1      37.431  22.691  24.336  1.00  0.00    -0.356 N 
ATOM      3  C   UNL A   1      36.272  22.666  23.621  1.00  0.00     0.222 C 
ATOM      4  O   UNL A   1      36.280  23.089  22.464  1.00  0.00    -0.275 OA
ATOM      5  H   UNL A   1      38.219  23.008  23.840  1.00  0.00     0.163 HD
BRANCH   3   6
ATOM      6  C   UNL A   1      34.990  22.142  24.239  1.00  0.00     0.130 C 
BRANCH   6   7
ATOM      7  C   UNL A   1      33.985  23.207  24.696  1.00  0.00     0.131 C 
BRANCH   7   8
ATOM      8  N   UNL A   1      32.721  22.658  25.173  1.00  0.00    -0.348 N 
ATOM      9  C   UNL A   1      31.764  23.160  25.995  1.00  0.00     0.224 C 
ATOM     10  O   UNL A   1      30.797  22.435  26.247  1.00  0.00    -0.275 OA
ATOM     11  H   UNL A   1      32.525  21.754  24.837  1.00  0.00     0.164 HD
BRANCH   9  12
ATOM     12  C   UNL A   1      31.773  24.595  26.479  1.00  0.00     0.135 C 
BRANCH  12  13
ATOM     13  C   UNL A   1      31.168  25.638  25.577  1.00  0.00    -0.035 A 
ATOM     14  C   UNL A   1      31.125  27.960  24.812  1.00  0.00     0.122 A 
ATOM     15  C   UNL A   1      31.661  26.953  25.619  1.00  0.00     0.051 A 
ATOM     16  C   UNL A   1      30.072  27.650  23.937  1.00  0.00    -0.009 A 
ATOM     17  C   UNL A   1      29.609  26.325  23.861  1.00  0.00     0.007 A 
ATOM     18  C   UNL A   1      29.447  28.681  23.037  1.00  0.00     0.048 C 
ATOM     19  C   UNL A   1      30.154  25.325  24.671  1.00  0.00     0.005 A 
BRANCH  14  20
ATOM     20  O   UNL A   1      31.553  29.263  24.824  1.00  0.00    -0.496 OA
ATOM     21  C   UNL A   1      32.940  29.490  25.038  1.00  0.00     0.278 C 
ENDBRANCH  14  20
ENDBRANCH  12  13
ENDBRANCH   9  12
ENDBRANCH   7   8
BRANCH   7  22
ATOM     22  C   UNL A   1      33.690  24.242  23.629  1.00  0.00     0.027 A 
ATOM     23  C   UNL A   1      34.089  25.565  23.542  1.00  0.00     0.017 A 
ATOM     24  S   UNL A   1      32.682  23.820  22.300  1.00  0.00    -0.147 S 
ATOM     25  C   UNL A   1      33.566  26.225  22.394  1.00  0.00     0.012 A 
ATOM     26  C   UNL A   1      32.771  25.393  21.641  1.00  0.00     0.065 A 
ENDBRANCH   7  22
ENDBRANCH   6   7
ENDBRANCH   3   6
ENDBRANCH   1   2
BRANCH   1  27
ATOM     27  C   UNL A   1      39.151  21.990  25.968  1.00  0.00     0.042 C 
BRANCH  27  28
ATOM     28  C   UNL A   1      39.774  22.753  27.134  1.00  0.00     0.118 C 
BRANCH  28  29
ATOM     29  N   UNL A   1      41.123  23.213  26.787  1.00  0.00    -0.352 N 
ATOM     30  C   UNL A   1      41.615  24.487  26.573  1.00  0.00     0.251 C 
ATOM     31  H   UNL A   1      41.790  22.494  26.690  1.00  0.00     0.163 HD
ATOM     32  O   UNL A   1      42.779  24.718  26.318  1.00  0.00    -0.269 OA
BRANCH  30  33
ATOM     33  C   UNL A   1      40.676  25.599  26.810  1.00  0.00     0.039 A 
ATOM     34  C   UNL A   1      41.034  26.824  26.240  1.00  0.00     0.014 A 
ATOM     35  C   UNL A   1      39.758  25.510  27.854  1.00  0.00     0.014 A 
ATOM     36  C   UNL A   1      40.676  27.992  26.897  1.00  0.00     0.010 A 
ATOM     37  C   UNL A   1      39.439  26.676  28.532  1.00  0.00     0.010 A 
ATOM     38  C   UNL A   1      39.985  27.898  28.111  1.00  0.00    -0.014 A 
BRANCH  38  39
ATOM     39  C   UNL A   1      40.038  28.983  29.087  1.00  0.00     0.031 A 
ATOM     40  C   UNL A   1      38.976  30.000  29.166  1.00  0.00     0.074 A 
ATOM     41  C   UNL A   1      41.120  29.134  29.889  1.00  0.00     0.049 A 
ATOM     42  N   UNL A   1      39.205  31.241  29.442  1.00  0.00    -0.248 NA
ATOM     43  C   UNL A   1      37.573  29.705  28.909  1.00  0.00     0.031 C 
ATOM     44  C   UNL A   1      41.273  30.079  30.992  1.00  0.00     0.029 A 
ATOM     45  N   UNL A   1      42.401  28.628  29.687  1.00  0.00    -0.354 N 
ATOM     46  C   UNL A   1      37.994  31.840  29.664  1.00  0.00     0.074 A 
ATOM     47  C   UNL A   1      37.005  30.867  29.249  1.00  0.00     0.031 C 
ATOM     48  C   UNL A   1      42.582  30.294  31.197  1.00  0.00     0.029 A 
ATOM     49  C   UNL A   1      43.319  29.573  30.177  1.00  0.00     0.049 A 
ATOM     50  H   UNL A   1      42.625  27.761  29.275  1.00  0.00     0.167 HD
ATOM     51  C   UNL A   1      37.924  33.043  30.296  1.00  0.00     0.034 A 
ATOM     52  C   UNL A   1      44.303  30.082  29.383  1.00  0.00     0.034 A 
ATOM     53  C   UNL A   1      39.225  33.560  30.703  1.00  0.00     0.049 A 
ATOM     54  C   UNL A   1      44.208  31.581  29.162  1.00  0.00     0.074 A 
ATOM     55  C   UNL A   1      39.905  33.632  31.908  1.00  0.00     0.029 A 
ATOM     56  N   UNL A   1      40.144  33.901  29.729  1.00  0.00    -0.354 N 
ATOM     57  N   UNL A   1      43.310  32.358  29.706  1.00  0.00    -0.248 NA
ATOM     58  C   UNL A   1      45.059  32.304  28.216  1.00  0.00     0.031 C 
ATOM     59  C   UNL A   1      41.246  34.035  31.640  1.00  0.00     0.029 A 
ATOM     60  C   UNL A   1      41.373  34.220  30.276  1.00  0.00     0.049 A 
ATOM     61  H   UNL A   1      39.949  33.915  28.764  1.00  0.00     0.167 HD
ATOM     62  C   UNL A   1      43.374  33.603  29.128  1.00  0.00     0.074 A 
ATOM     63  C   UNL A   1      44.500  33.525  28.215  1.00  0.00     0.031 C 
ATOM     64  C   UNL A   1      42.461  34.586  29.384  1.00  0.00     0.034 A 
BRANCH  51  65
ATOM     65  C   UNL A   1      36.614  33.614  30.754  1.00  0.00     0.023 A 
ATOM     66  C   UNL A   1      35.736  34.192  29.821  1.00  0.00     0.031 A 
ATOM     67  C   UNL A   1      36.196  33.633  32.098  1.00  0.00     0.131 A 
ATOM     68  C   UNL A   1      34.560  34.838  30.237  1.00  0.00     0.055 A 
ATOM     69  C   UNL A   1      35.054  34.324  32.521  1.00  0.00     0.041 A 
ATOM     70  F   UNL A   1      36.881  32.973  33.048  1.00  0.00    -0.206 F 
ATOM     71  C   UNL A   1      34.235  34.945  31.587  1.00  0.00     0.022 A 
BRANCH  68  72
ATOM     72  S   UNL A   1      33.459  35.539  28.978  1.00  0.00     0.124 S 
ATOM     73  O   UNL A   1      32.689  36.512  29.746  1.00  0.00    -0.237 OA
ATOM     74  O   UNL A   1      34.406  36.085  28.012  1.00  0.00    -0.237 OA
ATOM     75  O   UNL A   1      32.698  34.381  28.512  1.00  0.00    -0.744 OA
ENDBRANCH  68  72
ENDBRANCH  51  65
BRANCH  52  76
ATOM     76  C   UNL A   1      44.830  29.088  28.404  1.00  0.00     0.023 A 
ATOM     77  C   UNL A   1      45.669  28.064  28.898  1.00  0.00     0.031 A 
ATOM     78  C   UNL A   1      44.268  28.918  27.134  1.00  0.00     0.131 A 
ATOM     79  C   UNL A   1      45.814  26.862  28.190  1.00  0.00     0.055 A 
ATOM     80  C   UNL A   1      44.459  27.737  26.406  1.00  0.00     0.041 A 
ATOM     81  F   UNL A   1      43.433  29.836  26.625  1.00  0.00    -0.206 F 
ATOM     82  C   UNL A   1      45.197  26.687  26.952  1.00  0.00     0.022 A 
BRANCH  79  83
ATOM     83  S   UNL A   1      46.626  25.441  28.983  1.00  0.00     0.124 S 
ATOM     84  O   UNL A   1      45.895  24.312  28.424  1.00  0.00    -0.237 OA
ATOM     85  O   UNL A   1      48.017  25.575  28.558  1.00  0.00    -0.237 OA
ATOM     86  O   UNL A   1      46.415  25.686  30.410  1.00  0.00    -0.744 OA
ENDBRANCH  79  83
ENDBRANCH  52  76
BRANCH  64  87
ATOM     87  C   UNL A   1      42.501  35.965  28.765  1.00  0.00     0.023 A 
ATOM     88  C   UNL A   1      42.926  37.095  29.482  1.00  0.00     0.031 A 
ATOM     89  C   UNL A   1      42.039  36.205  27.450  1.00  0.00     0.131 A 
ATOM     90  C   UNL A   1      42.961  38.365  28.874  1.00  0.00     0.055 A 
ATOM     91  C   UNL A   1      41.999  37.479  26.877  1.00  0.00     0.041 A 
ATOM     92  F   UNL A   1      41.638  35.209  26.647  1.00  0.00    -0.206 F 
ATOM     93  C   UNL A   1      42.477  38.569  27.584  1.00  0.00     0.022 A 
BRANCH  90  94
ATOM     94  S   UNL A   1      43.722  39.740  29.778  1.00  0.00     0.124 S 
ATOM     95  O   UNL A   1      42.570  40.393  30.390  1.00  0.00    -0.237 OA
ATOM     96  O   UNL A   1      44.613  39.033  30.695  1.00  0.00    -0.237 OA
ATOM     97  O   UNL A   1      44.393  40.510  28.733  1.00  0.00    -0.744 OA
ENDBRANCH  90  94
ENDBRANCH  64  87
ENDBRANCH  38  39
ENDBRANCH  30  33
ENDBRANCH  28  29
ENDBRANCH  27  28
ENDBRANCH   1  27
TORSDOF 19
ENDMDL
MODEL 3
REMARK VINA RESULT:     -12.1      4.508     10.447
REMARK SMILES COc1cc(CC(=O)N[C@@H](CC(=O)NCCCNC(=O)c2ccc(-c3c4nc(c(-c5cc(S(=O)(=O)[O-])ccc5F)c5ccc([nH]5)c(-c5cc(S(=O)(=O)[O-])ccc5F)c5nc(c(-c6cc(S(=O)(=O)[O-])ccc6F)c6ccc3[nH]6)C=C5)C=C4)cc2)c2cccs2)ccc1C
REMARK SMILES IDX 15 1 14 2 12 3 13 4 11 6 10 7 9 8 7 9 8 10 6 12 5 13 3 14
REMARK SMILES IDX 4 15 91 16 90 17 92 18 89 19 2 20 1 21 84 22 85 23 88 24
REMARK SMILES IDX 86 25 87 26 16 27 17 28 18 29 19 30 20 32 21 33 22 34 83 35
REMARK SMILES IDX 23 36 82 37 24 38 25 39 26 40 76 41 27 42 81 43 75 44 77 45
REMARK SMILES IDX 28 46 80 47 74 48 73 49 29 51 61 52 41 53 60 54 42 55 45 56
REMARK SMILES IDX 59 57 78 58 43 59 44 60 58 62 79 63 46 64 30 65 31 66 39 67
REMARK SMILES IDX 32 68 38 69 40 70 37 71 33 72 34 73 35 74 36 75 62 76 63 77
REMARK SMILES IDX 71 78 64 79 70 80 72 81 69 82 65 83 66 84 67 85 68 86 47 87
REMARK SMILES IDX 48 88 56 89 49 90 55 91 57 92 54 93 50 94 51 95 52 96 53 97
REMARK H PARENT 14 5 9 11 18 31 77 50 45 61
REMARK Flexibility Score: inf
ROOT
ATOM      1  C   UNL A   1      37.258  21.292  25.293  1.00  0.00     0.117 C 
ENDROOT
BRANCH   1   2
ATOM      2  N   UNL A   1      36.314  21.409  26.395  1.00  0.00    -0.356 N 
ATOM      3  C   UNL A   1      34.970  21.626  26.376  1.00  0.00     0.222 C 
ATOM      4  O   UNL A   1      34.354  21.626  27.444  1.00  0.00    -0.275 OA
ATOM      5  H   UNL A   1      36.708  21.315  27.292  1.00  0.00     0.163 HD
BRANCH   3   6
ATOM      6  C   UNL A   1      34.238  21.851  25.068  1.00  0.00     0.130 C 
BRANCH   6   7
ATOM      7  C   UNL A   1      32.791  21.342  25.015  1.00  0.00     0.131 C 
BRANCH   7   8
ATOM      8  N   UNL A   1      31.980  21.755  26.154  1.00  0.00    -0.348 N 
ATOM      9  C   UNL A   1      31.123  22.793  26.331  1.00  0.00     0.224 C 
ATOM     10  O   UNL A   1      30.591  22.906  27.440  1.00  0.00    -0.275 OA
ATOM     11  H   UNL A   1      32.070  21.172  26.942  1.00  0.00     0.164 HD
BRANCH   9  12
ATOM     12  C   UNL A   1      30.697  23.704  25.198  1.00  0.00     0.135 C 
BRANCH  12  13
ATOM     13  C   UNL A   1      31.568  24.896  24.899  1.00  0.00    -0.035 A 
ATOM     14  C   UNL A   1      31.990  26.876  23.528  1.00  0.00     0.122 A 
ATOM     15  C   UNL A   1      31.210  25.764  23.853  1.00  0.00     0.051 A 
ATOM     16  C   UNL A   1      33.158  27.134  24.264  1.00  0.00    -0.009 A 
ATOM     17  C   UNL A   1      33.493  26.292  25.339  1.00  0.00     0.007 A 
ATOM     18  C   UNL A   1      34.046  28.312  23.971  1.00  0.00     0.048 C 
ATOM     19  C   UNL A   1      32.703  25.184  25.657  1.00  0.00     0.005 A 
BRANCH  14  20
ATOM     20  O   UNL A   1      31.701  27.745  22.508  1.00  0.00    -0.496 OA
ATOM     21  C   UNL A   1      30.382  28.274  22.459  1.00  0.00     0.278 C 
ENDBRANCH  14  20
ENDBRANCH  12  13
ENDBRANCH   9  12
ENDBRANCH   7   8
BRANCH   7  22
ATOM     22  C   UNL A   1      32.697  19.836  24.875  1.00  0.00     0.027 A 
ATOM     23  C   UNL A   1      32.801  18.847  25.840  1.00  0.00     0.017 A 
ATOM     24  S   UNL A   1      32.464  19.147  23.316  1.00  0.00    -0.147 S 
ATOM     25  C   UNL A   1      32.694  17.535  25.297  1.00  0.00     0.012 A 
ATOM     26  C   UNL A   1      32.524  17.555  23.932  1.00  0.00     0.065 A 
ENDBRANCH   7  22
ENDBRANCH   6   7
ENDBRANCH   3   6
ENDBRANCH   1   2
BRANCH   1  27
ATOM     27  C   UNL A   1      38.690  21.580  25.732  1.00  0.00     0.042 C 
BRANCH  27  28
ATOM     28  C   UNL A   1      38.987  23.060  25.950  1.00  0.00     0.118 C 
BRANCH  28  29
ATOM     29  N   UNL A   1      40.397  23.256  26.305  1.00  0.00    -0.352 N 
ATOM     30  C   UNL A   1      41.080  24.392  26.698  1.00  0.00     0.251 C 
ATOM     31  H   UNL A   1      40.951  22.442  26.254  1.00  0.00     0.163 HD
ATOM     32  O   UNL A   1      42.258  24.395  26.990  1.00  0.00    -0.269 OA
BRANCH  30  33
ATOM     33  C   UNL A   1      40.270  25.609  26.887  1.00  0.00     0.039 A 
ATOM     34  C   UNL A   1      40.804  26.782  26.348  1.00  0.00     0.014 A 
ATOM     35  C   UNL A   1      39.288  25.632  27.876  1.00  0.00     0.014 A 
ATOM     36  C   UNL A   1      40.552  27.985  26.992  1.00  0.00     0.010 A 
ATOM     37  C   UNL A   1      39.072  26.827  28.543  1.00  0.00     0.010 A 
ATOM     38  C   UNL A   1      39.786  27.974  28.163  1.00  0.00    -0.014 A 
BRANCH  38  39
ATOM     39  C   UNL A   1      39.912  29.045  29.148  1.00  0.00     0.031 A 
ATOM     40  C   UNL A   1      38.883  30.089  29.287  1.00  0.00     0.074 A 
ATOM     41  C   UNL A   1      41.031  29.156  29.903  1.00  0.00     0.049 A 
ATOM     42  N   UNL A   1      39.158  31.319  29.567  1.00  0.00    -0.248 NA
ATOM     43  C   UNL A   1      37.462  29.835  29.089  1.00  0.00     0.031 C 
ATOM     44  C   UNL A   1      41.260  30.083  31.008  1.00  0.00     0.029 A 
ATOM     45  N   UNL A   1      42.288  28.618  29.637  1.00  0.00    -0.354 N 
ATOM     46  C   UNL A   1      37.975  31.948  29.849  1.00  0.00     0.074 A 
ATOM     47  C   UNL A   1      36.942  31.008  29.468  1.00  0.00     0.031 C 
ATOM     48  C   UNL A   1      42.582  30.260  31.158  1.00  0.00     0.029 A 
ATOM     49  C   UNL A   1      43.253  29.532  30.097  1.00  0.00     0.049 A 
ATOM     50  H   UNL A   1      42.470  27.752  29.206  1.00  0.00     0.167 HD
ATOM     51  C   UNL A   1      37.966  33.145  30.497  1.00  0.00     0.034 A 
ATOM     52  C   UNL A   1      44.214  30.024  29.266  1.00  0.00     0.034 A 
ATOM     53  C   UNL A   1      39.297  33.621  30.852  1.00  0.00     0.049 A 
ATOM     54  C   UNL A   1      44.150  31.529  29.067  1.00  0.00     0.074 A 
ATOM     55  C   UNL A   1      40.032  33.660  32.026  1.00  0.00     0.029 A 
ATOM     56  N   UNL A   1      40.182  33.950  29.842  1.00  0.00    -0.354 N 
ATOM     57  N   UNL A   1      43.300  32.322  29.659  1.00  0.00    -0.248 NA
ATOM     58  C   UNL A   1      44.979  32.240  28.091  1.00  0.00     0.031 C 
ATOM     59  C   UNL A   1      41.371  34.029  31.703  1.00  0.00     0.029 A 
ATOM     60  C   UNL A   1      41.441  34.228  30.337  1.00  0.00     0.049 A 
ATOM     61  H   UNL A   1      39.944  33.981  28.887  1.00  0.00     0.167 HD
ATOM     62  C   UNL A   1      43.372  33.572  29.093  1.00  0.00     0.074 A 
ATOM     63  C   UNL A   1      44.454  33.476  28.130  1.00  0.00     0.031 C 
ATOM     64  C   UNL A   1      42.499  34.576  29.402  1.00  0.00     0.034 A 
BRANCH  51  65
ATOM     65  C   UNL A   1      36.694  33.745  31.021  1.00  0.00     0.023 A 
ATOM     66  C   UNL A   1      35.748  34.275  30.125  1.00  0.00     0.031 A 
ATOM     67  C   UNL A   1      36.377  33.838  32.389  1.00  0.00     0.131 A 
ATOM     68  C   UNL A   1      34.607  34.948  30.593  1.00  0.00     0.055 A 
ATOM     69  C   UNL A   1      35.270  34.555  32.858  1.00  0.00     0.041 A 
ATOM     70  F   UNL A   1      37.131  33.228  33.319  1.00  0.00    -0.206 F 
ATOM     71  C   UNL A   1      34.384  35.129  31.956  1.00  0.00     0.022 A 
BRANCH  68  72
ATOM     72  S   UNL A   1      33.416  35.584  29.384  1.00  0.00     0.124 S 
ATOM     73  O   UNL A   1      34.275  35.942  28.259  1.00  0.00    -0.237 OA
ATOM     74  O   UNL A   1      32.538  34.437  29.184  1.00  0.00    -0.237 OA
ATOM     75  O   UNL A   1      32.805  36.717  30.076  1.00  0.00    -0.744 OA
ENDBRANCH  68  72
ENDBRANCH  51  65
BRANCH  52  76
ATOM     76  C   UNL A   1      44.670  29.029  28.252  1.00  0.00     0.023 A 
ATOM     77  C   UNL A   1      45.482  27.964  28.701  1.00  0.00     0.031 A 
ATOM     78  C   UNL A   1      44.061  28.906  26.998  1.00  0.00     0.131 A 
ATOM     79  C   UNL A   1      45.557  26.771  27.967  1.00  0.00     0.055 A 
ATOM     80  C   UNL A   1      44.181  27.732  26.244  1.00  0.00     0.041 A 
ATOM     81  F   UNL A   1      43.248  29.865  26.533  1.00  0.00    -0.206 F 
ATOM     82  C   UNL A   1      44.893  26.643  26.747  1.00  0.00     0.022 A 
BRANCH  79  83
ATOM     83  S   UNL A   1      46.336  25.304  28.708  1.00  0.00     0.124 S 
ATOM     84  O   UNL A   1      47.650  25.297  28.079  1.00  0.00    -0.237 OA
ATOM     85  O   UNL A   1      46.313  25.604  30.137  1.00  0.00    -0.237 OA
ATOM     86  O   UNL A   1      45.443  24.214  28.316  1.00  0.00    -0.744 OA
ENDBRANCH  79  83
ENDBRANCH  52  76
BRANCH  64  87
ATOM     87  C   UNL A   1      42.549  35.961  28.798  1.00  0.00     0.023 A 
ATOM     88  C   UNL A   1      43.022  37.073  29.513  1.00  0.00     0.031 A 
ATOM     89  C   UNL A   1      42.050  36.227  27.501  1.00  0.00     0.131 A 
ATOM     90  C   UNL A   1      43.066  38.349  28.919  1.00  0.00     0.055 A 
ATOM     91  C   UNL A   1      42.020  37.508  26.944  1.00  0.00     0.041 A 
ATOM     92  F   UNL A   1      41.602  35.250  26.700  1.00  0.00    -0.206 F 
ATOM     93  C   UNL A   1      42.545  38.580  27.648  1.00  0.00     0.022 A 
BRANCH  90  94
ATOM     94  S   UNL A   1      43.885  39.696  29.813  1.00  0.00     0.124 S 
ATOM     95  O   UNL A   1      42.830  40.697  29.916  1.00  0.00    -0.237 OA
ATOM     96  O   UNL A   1      44.259  39.036  31.062  1.00  0.00    -0.237 OA
ATOM     97  O   UNL A   1      45.003  40.057  28.944  1.00  0.00    -0.744 OA
ENDBRANCH  90  94
ENDBRANCH  64  87
ENDBRANCH  38  39
ENDBRANCH  30  33
ENDBRANCH  28  29
ENDBRANCH  27  28
ENDBRANCH   1  27
TORSDOF 19
ENDMDL
