MODEL 1
REMARK VINA RESULT:     -11.2      0.000      0.000
REMARK SMILES C=CCN(CC(=O)NCCCNC(=O)c1ccc(-c2c3nc(c(-c4cc(S(=O)(=O)[O-])ccc4F)c4ccc([nH]4)c(-c4cc(S(=O)(=O)[O-])ccc4F)c4nc(c(-c5cc(S(=O)(=O)[O-])ccc5F)c5ccc2[nH]5)C=C4)C=C3)cc1)C(=O)c1cc(-c2csc(C)n2)c[nH]1
REMARK SMILES IDX 9 1 8 2 6 3 7 4 5 6 4 7 3 8 2 9 1 10 78 11 79 12 80 13 81 14
REMARK SMILES IDX 90 15 82 16 89 17 83 19 84 20 88 21 85 22 86 23 87 24 10 25
REMARK SMILES IDX 11 26 12 27 13 28 14 30 15 31 16 32 77 33 17 34 76 35 18 36
REMARK SMILES IDX 19 37 20 38 70 39 21 40 75 41 69 42 71 43 22 44 74 45 68 46
REMARK SMILES IDX 67 47 23 49 55 50 35 51 54 52 36 53 39 54 53 55 72 56 37 57
REMARK SMILES IDX 38 58 52 60 73 61 40 62 24 63 25 64 33 65 26 66 32 67 34 68
REMARK SMILES IDX 31 69 27 70 28 71 29 72 30 73 56 74 57 75 65 76 58 77 64 78
REMARK SMILES IDX 66 79 63 80 59 81 60 82 61 83 62 84 41 85 42 86 50 87 43 88
REMARK SMILES IDX 49 89 51 90 48 91 44 92 45 93 46 94 47 95
REMARK H PARENT 8 5 90 18 12 29 71 48 39 59
REMARK Flexibility Score: inf
ROOT
ATOM      1  C   UNL A   1      35.206  22.863  25.835  1.00  0.00     0.117 C 
ENDROOT
BRANCH   1   2
ATOM      2  N   UNL A   1      35.131  24.303  25.687  1.00  0.00    -0.354 N 
ATOM      3  C   UNL A   1      34.090  25.105  25.336  1.00  0.00     0.239 C 
ATOM      4  O   UNL A   1      34.209  26.307  25.601  1.00  0.00    -0.273 OA
ATOM      5  H   UNL A   1      35.972  24.778  25.873  1.00  0.00     0.163 HD
BRANCH   3   6
ATOM      6  C   UNL A   1      32.758  24.555  24.810  1.00  0.00     0.220 C 
BRANCH   6   7
ATOM      7  N   UNL A   1      32.580  24.386  23.362  1.00  0.00    -0.324 N 
BRANCH   7   8
ATOM      8  C   UNL A   1      31.694  23.320  22.909  1.00  0.00     0.147 C 
BRANCH   8   9
ATOM      9  C   UNL A   1      32.473  22.041  22.786  1.00  0.00    -0.014 C 
ATOM     10  C   UNL A   1      31.963  20.894  22.318  1.00  0.00     0.006 C 
ENDBRANCH   8   9
ENDBRANCH   7   8
BRANCH   7  11
ATOM     11  C   UNL A   1      32.910  25.370  22.420  1.00  0.00     0.271 C 
ATOM     12  O   UNL A   1      33.616  25.117  21.445  1.00  0.00    -0.267 OA
BRANCH  11  13
ATOM     13  C   UNL A   1      32.335  26.687  22.562  1.00  0.00     0.105 A 
ATOM     14  C   UNL A   1      31.037  27.147  22.401  1.00  0.00     0.043 A 
ATOM     15  N   UNL A   1      33.069  27.751  23.042  1.00  0.00    -0.357 N 
ATOM     16  C   UNL A   1      31.030  28.539  22.669  1.00  0.00     0.019 A 
ATOM     17  C   UNL A   1      32.308  28.887  23.046  1.00  0.00     0.093 A 
ATOM     18  H   UNL A   1      34.006  27.700  23.340  1.00  0.00     0.166 HD
BRANCH  16  19
ATOM     19  C   UNL A   1      29.869  29.426  22.563  1.00  0.00     0.083 A 
ATOM     20  C   UNL A   1      28.901  29.628  23.523  1.00  0.00     0.095 A 
ATOM     21  N   UNL A   1      29.698  30.144  21.391  1.00  0.00    -0.241 NA
ATOM     22  S   UNL A   1      27.730  30.739  22.946  1.00  0.00    -0.127 S 
ATOM     23  C   UNL A   1      28.595  30.857  21.465  1.00  0.00     0.090 A 
ATOM     24  C   UNL A   1      28.081  31.724  20.372  1.00  0.00     0.079 C 
ENDBRANCH  16  19
ENDBRANCH  11  13
ENDBRANCH   7  11
ENDBRANCH   6   7
ENDBRANCH   3   6
ENDBRANCH   1   2
BRANCH   1  25
ATOM     25  C   UNL A   1      35.626  22.126  24.568  1.00  0.00     0.042 C 
BRANCH  25  26
ATOM     26  C   UNL A   1      37.134  22.075  24.333  1.00  0.00     0.118 C 
BRANCH  26  27
ATOM     27  N   UNL A   1      37.801  21.100  25.181  1.00  0.00    -0.352 N 
ATOM     28  C   UNL A   1      38.917  21.210  25.972  1.00  0.00     0.251 C 
ATOM     29  H   UNL A   1      37.381  20.209  25.189  1.00  0.00     0.163 HD
ATOM     30  O   UNL A   1      39.429  20.184  26.411  1.00  0.00    -0.269 OA
BRANCH  28  31
ATOM     31  C   UNL A   1      39.517  22.527  26.293  1.00  0.00     0.039 A 
ATOM     32  C   UNL A   1      38.695  23.661  26.260  1.00  0.00     0.014 A 
ATOM     33  C   UNL A   1      40.886  22.671  26.528  1.00  0.00     0.014 A 
ATOM     34  C   UNL A   1      39.233  24.927  26.518  1.00  0.00     0.010 A 
ATOM     35  C   UNL A   1      41.415  23.930  26.825  1.00  0.00     0.010 A 
ATOM     36  C   UNL A   1      40.594  25.068  26.821  1.00  0.00    -0.014 A 
BRANCH  36  37
ATOM     37  C   UNL A   1      41.191  26.396  27.109  1.00  0.00     0.031 A 
ATOM     38  C   UNL A   1      42.555  26.737  26.578  1.00  0.00     0.074 A 
ATOM     39  C   UNL A   1      40.550  27.264  27.914  1.00  0.00     0.049 A 
ATOM     40  N   UNL A   1      43.343  27.730  26.900  1.00  0.00    -0.248 NA
ATOM     41  C   UNL A   1      43.113  25.820  25.574  1.00  0.00     0.031 C 
ATOM     42  C   UNL A   1      39.234  27.052  28.517  1.00  0.00     0.029 A 
ATOM     43  N   UNL A   1      40.939  28.493  28.381  1.00  0.00    -0.354 N 
ATOM     44  C   UNL A   1      44.519  27.523  26.189  1.00  0.00     0.074 A 
ATOM     45  C   UNL A   1      44.327  26.324  25.398  1.00  0.00     0.031 C 
ATOM     46  C   UNL A   1      38.928  28.113  29.284  1.00  0.00     0.029 A 
ATOM     47  C   UNL A   1      40.037  29.060  29.248  1.00  0.00     0.049 A 
ATOM     48  H   UNL A   1      41.784  28.927  28.120  1.00  0.00     0.167 HD
ATOM     49  C   UNL A   1      45.663  28.250  26.213  1.00  0.00     0.034 A 
ATOM     50  C   UNL A   1      40.112  30.198  29.962  1.00  0.00     0.034 A 
ATOM     51  C   UNL A   1      45.840  29.466  26.964  1.00  0.00     0.049 A 
ATOM     52  C   UNL A   1      41.345  31.047  29.886  1.00  0.00     0.074 A 
ATOM     53  C   UNL A   1      46.958  30.280  27.048  1.00  0.00     0.029 A 
ATOM     54  N   UNL A   1      44.862  30.056  27.751  1.00  0.00    -0.354 N 
ATOM     55  N   UNL A   1      42.474  30.804  29.266  1.00  0.00    -0.248 NA
ATOM     56  C   UNL A   1      41.313  32.323  30.613  1.00  0.00     0.031 C 
ATOM     57  C   UNL A   1      46.658  31.357  27.895  1.00  0.00     0.029 A 
ATOM     58  C   UNL A   1      45.345  31.225  28.317  1.00  0.00     0.049 A 
ATOM     59  H   UNL A   1      43.956  29.695  27.889  1.00  0.00     0.167 HD
ATOM     60  C   UNL A   1      43.298  31.886  29.548  1.00  0.00     0.074 A 
ATOM     61  C   UNL A   1      42.531  32.793  30.380  1.00  0.00     0.031 C 
ATOM     62  C   UNL A   1      44.576  32.106  29.156  1.00  0.00     0.034 A 
BRANCH  49  63
ATOM     63  C   UNL A   1      46.830  27.694  25.450  1.00  0.00     0.023 A 
ATOM     64  C   UNL A   1      47.062  28.026  24.106  1.00  0.00     0.031 A 
ATOM     65  C   UNL A   1      47.692  26.773  26.071  1.00  0.00     0.131 A 
ATOM     66  C   UNL A   1      48.107  27.400  23.409  1.00  0.00     0.055 A 
ATOM     67  C   UNL A   1      48.757  26.189  25.385  1.00  0.00     0.041 A 
ATOM     68  F   UNL A   1      47.492  26.407  27.347  1.00  0.00    -0.206 F 
ATOM     69  C   UNL A   1      48.963  26.494  24.043  1.00  0.00     0.022 A 
BRANCH  66  70
ATOM     70  S   UNL A   1      48.269  27.703  21.628  1.00  0.00     0.124 S 
ATOM     71  O   UNL A   1      46.938  28.199  21.287  1.00  0.00    -0.237 OA
ATOM     72  O   UNL A   1      49.351  28.680  21.572  1.00  0.00    -0.237 OA
ATOM     73  O   UNL A   1      48.592  26.385  21.084  1.00  0.00    -0.744 OA
ENDBRANCH  66  70
ENDBRANCH  49  63
BRANCH  50  74
ATOM     74  C   UNL A   1      39.005  30.562  30.877  1.00  0.00     0.023 A 
ATOM     75  C   UNL A   1      38.031  31.497  30.500  1.00  0.00     0.031 A 
ATOM     76  C   UNL A   1      38.909  29.958  32.139  1.00  0.00     0.131 A 
ATOM     77  C   UNL A   1      36.995  31.810  31.391  1.00  0.00     0.055 A 
ATOM     78  C   UNL A   1      37.876  30.271  33.021  1.00  0.00     0.041 A 
ATOM     79  F   UNL A   1      39.818  29.049  32.525  1.00  0.00    -0.206 F 
ATOM     80  C   UNL A   1      36.911  31.204  32.648  1.00  0.00     0.022 A 
BRANCH  77  81
ATOM     81  S   UNL A   1      35.739  33.012  30.875  1.00  0.00     0.124 S 
ATOM     82  O   UNL A   1      34.502  32.327  31.230  1.00  0.00    -0.237 OA
ATOM     83  O   UNL A   1      36.083  34.178  31.684  1.00  0.00    -0.237 OA
ATOM     84  O   UNL A   1      35.981  33.164  29.442  1.00  0.00    -0.744 OA
ENDBRANCH  77  81
ENDBRANCH  50  74
BRANCH  62  85
ATOM     85  C   UNL A   1      45.211  33.382  29.622  1.00  0.00     0.023 A 
ATOM     86  C   UNL A   1      45.141  34.549  28.844  1.00  0.00     0.031 A 
ATOM     87  C   UNL A   1      45.900  33.424  30.843  1.00  0.00     0.131 A 
ATOM     88  C   UNL A   1      45.773  35.718  29.294  1.00  0.00     0.055 A 
ATOM     89  C   UNL A   1      46.516  34.593  31.291  1.00  0.00     0.041 A 
ATOM     90  F   UNL A   1      45.996  32.326  31.610  1.00  0.00    -0.206 F 
ATOM     91  C   UNL A   1      46.457  35.747  30.514  1.00  0.00     0.022 A 
BRANCH  88  92
ATOM     92  S   UNL A   1      45.711  37.202  28.253  1.00  0.00     0.124 S 
ATOM     93  O   UNL A   1      45.871  38.271  29.233  1.00  0.00    -0.237 OA
ATOM     94  O   UNL A   1      46.835  36.995  27.344  1.00  0.00    -0.237 OA
ATOM     95  O   UNL A   1      44.391  37.129  27.628  1.00  0.00    -0.744 OA
ENDBRANCH  88  92
ENDBRANCH  62  85
ENDBRANCH  36  37
ENDBRANCH  28  31
ENDBRANCH  26  27
ENDBRANCH  25  26
ENDBRANCH   1  25
TORSDOF 19
ENDMDL
MODEL 2
REMARK VINA RESULT:     -11.2      3.196      8.996
REMARK SMILES C=CCN(CC(=O)NCCCNC(=O)c1ccc(-c2c3nc(c(-c4cc(S(=O)(=O)[O-])ccc4F)c4ccc([nH]4)c(-c4cc(S(=O)(=O)[O-])ccc4F)c4nc(c(-c5cc(S(=O)(=O)[O-])ccc5F)c5ccc2[nH]5)C=C4)C=C3)cc1)C(=O)c1cc(-c2csc(C)n2)c[nH]1
REMARK SMILES IDX 9 1 8 2 6 3 7 4 5 6 4 7 3 8 2 9 1 10 78 11 79 12 80 13 81 14
REMARK SMILES IDX 90 15 82 16 89 17 83 19 84 20 88 21 85 22 86 23 87 24 10 25
REMARK SMILES IDX 11 26 12 27 13 28 14 30 15 31 16 32 77 33 17 34 76 35 18 36
REMARK SMILES IDX 19 37 20 38 70 39 21 40 75 41 69 42 71 43 22 44 74 45 68 46
REMARK SMILES IDX 67 47 23 49 55 50 35 51 54 52 36 53 39 54 53 55 72 56 37 57
REMARK SMILES IDX 38 58 52 60 73 61 40 62 24 63 25 64 33 65 26 66 32 67 34 68
REMARK SMILES IDX 31 69 27 70 28 71 29 72 30 73 56 74 57 75 65 76 58 77 64 78
REMARK SMILES IDX 66 79 63 80 59 81 60 82 61 83 62 84 41 85 42 86 50 87 43 88
REMARK SMILES IDX 49 89 51 90 48 91 44 92 45 93 46 94 47 95
REMARK H PARENT 8 5 90 18 12 29 71 48 39 59
REMARK Flexibility Score: inf
ROOT
ATOM      1  C   UNL A   1      36.785  21.107  25.189  1.00  0.00     0.117 C 
ENDROOT
BRANCH   1   2
ATOM      2  N   UNL A   1      36.656  21.885  23.973  1.00  0.00    -0.354 N 
ATOM      3  C   UNL A   1      36.207  23.154  23.776  1.00  0.00     0.239 C 
ATOM      4  O   UNL A   1      36.506  23.681  22.698  1.00  0.00    -0.273 OA
ATOM      5  H   UNL A   1      36.942  21.418  23.155  1.00  0.00     0.163 HD
BRANCH   3   6
ATOM      6  C   UNL A   1      35.529  23.976  24.880  1.00  0.00     0.220 C 
BRANCH   6   7
ATOM      7  N   UNL A   1      34.144  24.424  24.683  1.00  0.00    -0.324 N 
BRANCH   7   8
ATOM      8  C   UNL A   1      33.928  25.833  24.372  1.00  0.00     0.147 C 
BRANCH   8   9
ATOM      9  C   UNL A   1      33.793  26.611  25.650  1.00  0.00    -0.014 C 
ATOM     10  C   UNL A   1      33.902  27.944  25.731  1.00  0.00     0.006 C 
ENDBRANCH   8   9
ENDBRANCH   7   8
BRANCH   7  11
ATOM     11  C   UNL A   1      33.076  23.554  24.429  1.00  0.00     0.271 C 
ATOM     12  O   UNL A   1      32.125  23.890  23.724  1.00  0.00    -0.267 OA
BRANCH  11  13
ATOM     13  C   UNL A   1      33.141  22.206  24.943  1.00  0.00     0.105 A 
ATOM     14  C   UNL A   1      33.274  20.983  24.303  1.00  0.00     0.043 A 
ATOM     15  N   UNL A   1      33.202  21.948  26.296  1.00  0.00    -0.357 N 
ATOM     16  C   UNL A   1      33.286  19.970  25.296  1.00  0.00     0.019 A 
ATOM     17  C   UNL A   1      33.221  20.599  26.519  1.00  0.00     0.093 A 
ATOM     18  H   UNL A   1      33.227  22.636  26.999  1.00  0.00     0.166 HD
BRANCH  16  19
ATOM     19  C   UNL A   1      33.357  18.529  25.047  1.00  0.00     0.083 A 
ATOM     20  C   UNL A   1      34.207  17.889  24.170  1.00  0.00     0.095 A 
ATOM     21  N   UNL A   1      32.494  17.699  25.745  1.00  0.00    -0.241 NA
ATOM     22  S   UNL A   1      33.917  16.200  24.204  1.00  0.00    -0.127 S 
ATOM     23  C   UNL A   1      32.680  16.452  25.372  1.00  0.00     0.090 A 
ATOM     24  C   UNL A   1      31.903  15.296  25.891  1.00  0.00     0.079 C 
ENDBRANCH  16  19
ENDBRANCH  11  13
ENDBRANCH   7  11
ENDBRANCH   6   7
ENDBRANCH   3   6
ENDBRANCH   1   2
BRANCH   1  25
ATOM     25  C   UNL A   1      37.939  20.111  25.174  1.00  0.00     0.042 C 
BRANCH  25  26
ATOM     26  C   UNL A   1      39.064  20.426  26.157  1.00  0.00     0.118 C 
BRANCH  26  27
ATOM     27  N   UNL A   1      40.204  19.536  26.009  1.00  0.00    -0.352 N 
ATOM     28  C   UNL A   1      41.551  19.796  25.996  1.00  0.00     0.251 C 
ATOM     29  H   UNL A   1      39.970  18.586  25.898  1.00  0.00     0.163 HD
ATOM     30  O   UNL A   1      42.316  18.912  25.617  1.00  0.00    -0.269 OA
BRANCH  28  31
ATOM     31  C   UNL A   1      42.095  21.110  26.412  1.00  0.00     0.039 A 
ATOM     32  C   UNL A   1      42.280  22.096  25.435  1.00  0.00     0.014 A 
ATOM     33  C   UNL A   1      42.512  21.349  27.724  1.00  0.00     0.014 A 
ATOM     34  C   UNL A   1      42.828  23.336  25.782  1.00  0.00     0.010 A 
ATOM     35  C   UNL A   1      43.022  22.600  28.078  1.00  0.00     0.010 A 
ATOM     36  C   UNL A   1      43.186  23.604  27.111  1.00  0.00    -0.014 A 
BRANCH  36  37
ATOM     37  C   UNL A   1      43.759  24.913  27.511  1.00  0.00     0.031 A 
ATOM     38  C   UNL A   1      42.877  25.962  28.126  1.00  0.00     0.074 A 
ATOM     39  C   UNL A   1      45.050  25.193  27.250  1.00  0.00     0.049 A 
ATOM     40  N   UNL A   1      43.119  27.231  28.329  1.00  0.00    -0.248 NA
ATOM     41  C   UNL A   1      41.534  25.528  28.538  1.00  0.00     0.031 C 
ATOM     42  C   UNL A   1      46.011  24.277  26.635  1.00  0.00     0.029 A 
ATOM     43  N   UNL A   1      45.764  26.347  27.448  1.00  0.00    -0.354 N 
ATOM     44  C   UNL A   1      41.939  27.765  28.831  1.00  0.00     0.074 A 
ATOM     45  C   UNL A   1      40.991  26.673  28.927  1.00  0.00     0.031 C 
ATOM     46  C   UNL A   1      47.190  24.908  26.498  1.00  0.00     0.029 A 
ATOM     47  C   UNL A   1      47.055  26.277  26.985  1.00  0.00     0.049 A 
ATOM     48  H   UNL A   1      45.388  27.147  27.880  1.00  0.00     0.167 HD
ATOM     49  C   UNL A   1      41.661  29.051  29.158  1.00  0.00     0.034 A 
ATOM     50  C   UNL A   1      48.012  27.221  26.928  1.00  0.00     0.034 A 
ATOM     51  C   UNL A   1      42.615  30.129  29.105  1.00  0.00     0.049 A 
ATOM     52  C   UNL A   1      47.717  28.613  27.400  1.00  0.00     0.074 A 
ATOM     53  C   UNL A   1      42.433  31.466  29.422  1.00  0.00     0.029 A 
ATOM     54  N   UNL A   1      43.941  29.991  28.724  1.00  0.00    -0.354 N 
ATOM     55  N   UNL A   1      46.578  29.119  27.806  1.00  0.00    -0.248 NA
ATOM     56  C   UNL A   1      48.839  29.561  27.401  1.00  0.00     0.031 C 
ATOM     57  C   UNL A   1      43.649  32.136  29.223  1.00  0.00     0.029 A 
ATOM     58  C   UNL A   1      44.592  31.211  28.806  1.00  0.00     0.049 A 
ATOM     59  H   UNL A   1      44.359  29.146  28.436  1.00  0.00     0.167 HD
ATOM     60  C   UNL A   1      46.840  30.454  28.087  1.00  0.00     0.074 A 
ATOM     61  C   UNL A   1      48.248  30.671  27.822  1.00  0.00     0.031 C 
ATOM     62  C   UNL A   1      45.988  31.413  28.522  1.00  0.00     0.034 A 
BRANCH  49  63
ATOM     63  C   UNL A   1      40.240  29.359  29.532  1.00  0.00     0.023 A 
ATOM     64  C   UNL A   1      39.831  29.454  30.872  1.00  0.00     0.031 A 
ATOM     65  C   UNL A   1      39.272  29.507  28.523  1.00  0.00     0.131 A 
ATOM     66  C   UNL A   1      38.472  29.642  31.168  1.00  0.00     0.055 A 
ATOM     67  C   UNL A   1      37.930  29.740  28.825  1.00  0.00     0.041 A 
ATOM     68  F   UNL A   1      39.613  29.398  27.230  1.00  0.00    -0.206 F 
ATOM     69  C   UNL A   1      37.522  29.798  30.155  1.00  0.00     0.022 A 
BRANCH  66  70
ATOM     70  S   UNL A   1      37.944  29.572  32.902  1.00  0.00     0.124 S 
ATOM     71  O   UNL A   1      39.186  29.876  33.606  1.00  0.00    -0.237 OA
ATOM     72  O   UNL A   1      36.908  30.598  32.956  1.00  0.00    -0.237 OA
ATOM     73  O   UNL A   1      37.468  28.198  33.060  1.00  0.00    -0.744 OA
ENDBRANCH  66  70
ENDBRANCH  49  63
BRANCH  50  74
ATOM     74  C   UNL A   1      49.326  26.896  26.326  1.00  0.00     0.023 A 
ATOM     75  C   UNL A   1      49.634  27.272  25.011  1.00  0.00     0.031 A 
ATOM     76  C   UNL A   1      50.295  26.214  27.078  1.00  0.00     0.131 A 
ATOM     77  C   UNL A   1      50.891  26.953  24.479  1.00  0.00     0.055 A 
ATOM     78  C   UNL A   1      51.545  25.901  26.546  1.00  0.00     0.041 A 
ATOM     79  F   UNL A   1      50.037  25.853  28.345  1.00  0.00    -0.206 F 
ATOM     80  C   UNL A   1      51.848  26.270  25.237  1.00  0.00     0.022 A 
BRANCH  77  81
ATOM     81  S   UNL A   1      51.271  27.462  22.781  1.00  0.00     0.124 S 
ATOM     82  O   UNL A   1      52.661  27.044  22.645  1.00  0.00    -0.237 OA
ATOM     83  O   UNL A   1      50.293  26.700  22.009  1.00  0.00    -0.237 OA
ATOM     84  O   UNL A   1      51.051  28.906  22.801  1.00  0.00    -0.744 OA
ENDBRANCH  77  81
ENDBRANCH  50  74
BRANCH  62  85
ATOM     85  C   UNL A   1      46.570  32.778  28.742  1.00  0.00     0.023 A 
ATOM     86  C   UNL A   1      46.633  33.713  27.696  1.00  0.00     0.031 A 
ATOM     87  C   UNL A   1      47.075  33.138  30.000  1.00  0.00     0.131 A 
ATOM     88  C   UNL A   1      47.211  34.970  27.926  1.00  0.00     0.055 A 
ATOM     89  C   UNL A   1      47.638  34.394  30.226  1.00  0.00     0.041 A 
ATOM     90  F   UNL A   1      47.041  32.267  31.023  1.00  0.00    -0.206 F 
ATOM     91  C   UNL A   1      47.711  35.316  29.185  1.00  0.00     0.022 A 
BRANCH  88  92
ATOM     92  S   UNL A   1      47.326  36.146  26.549  1.00  0.00     0.124 S 
ATOM     93  O   UNL A   1      46.038  36.828  26.622  1.00  0.00    -0.237 OA
ATOM     94  O   UNL A   1      48.493  36.944  26.914  1.00  0.00    -0.237 OA
ATOM     95  O   UNL A   1      47.507  35.288  25.379  1.00  0.00    -0.744 OA
ENDBRANCH  88  92
ENDBRANCH  62  85
ENDBRANCH  36  37
ENDBRANCH  28  31
ENDBRANCH  26  27
ENDBRANCH  25  26
ENDBRANCH   1  25
TORSDOF 19
ENDMDL
MODEL 3
REMARK VINA RESULT:     -11.1      3.254      3.934
REMARK SMILES C=CCN(CC(=O)NCCCNC(=O)c1ccc(-c2c3nc(c(-c4cc(S(=O)(=O)[O-])ccc4F)c4ccc([nH]4)c(-c4cc(S(=O)(=O)[O-])ccc4F)c4nc(c(-c5cc(S(=O)(=O)[O-])ccc5F)c5ccc2[nH]5)C=C4)C=C3)cc1)C(=O)c1cc(-c2csc(C)n2)c[nH]1
REMARK SMILES IDX 9 1 8 2 6 3 7 4 5 6 4 7 3 8 2 9 1 10 78 11 79 12 80 13 81 14
REMARK SMILES IDX 90 15 82 16 89 17 83 19 84 20 88 21 85 22 86 23 87 24 10 25
REMARK SMILES IDX 11 26 12 27 13 28 14 30 15 31 16 32 77 33 17 34 76 35 18 36
REMARK SMILES IDX 19 37 20 38 70 39 21 40 75 41 69 42 71 43 22 44 74 45 68 46
REMARK SMILES IDX 67 47 23 49 55 50 35 51 54 52 36 53 39 54 53 55 72 56 37 57
REMARK SMILES IDX 38 58 52 60 73 61 40 62 24 63 25 64 33 65 26 66 32 67 34 68
REMARK SMILES IDX 31 69 27 70 28 71 29 72 30 73 56 74 57 75 65 76 58 77 64 78
REMARK SMILES IDX 66 79 63 80 59 81 60 82 61 83 62 84 41 85 42 86 50 87 43 88
REMARK SMILES IDX 49 89 51 90 48 91 44 92 45 93 46 94 47 95
REMARK H PARENT 8 5 90 18 12 29 71 48 39 59
REMARK Flexibility Score: inf
ROOT
ATOM      1  C   UNL A   1      34.985  22.197  24.312  1.00  0.00     0.117 C 
ENDROOT
BRANCH   1   2
ATOM      2  N   UNL A   1      34.210  22.270  25.534  1.00  0.00    -0.354 N 
ATOM      3  C   UNL A   1      33.316  23.201  25.961  1.00  0.00     0.239 C 
ATOM      4  O   UNL A   1      32.564  22.859  26.881  1.00  0.00    -0.273 OA
ATOM      5  H   UNL A   1      34.353  21.521  26.156  1.00  0.00     0.163 HD
BRANCH   3   6
ATOM      6  C   UNL A   1      33.103  24.540  25.243  1.00  0.00     0.220 C 
BRANCH   6   7
ATOM      7  N   UNL A   1      31.745  25.091  25.154  1.00  0.00    -0.324 N 
BRANCH   7   8
ATOM      8  C   UNL A   1      31.217  25.782  26.325  1.00  0.00     0.147 C 
BRANCH   8   9
ATOM      9  C   UNL A   1      32.150  26.895  26.711  1.00  0.00    -0.014 C 
ATOM     10  C   UNL A   1      31.766  28.007  27.351  1.00  0.00     0.006 C 
ENDBRANCH   8   9
ENDBRANCH   7   8
BRANCH   7  11
ATOM     11  C   UNL A   1      31.073  25.306  23.943  1.00  0.00     0.271 C 
ATOM     12  O   UNL A   1      30.534  24.384  23.332  1.00  0.00    -0.267 OA
BRANCH  11  13
ATOM     13  C   UNL A   1      30.944  26.659  23.452  1.00  0.00     0.105 A 
ATOM     14  C   UNL A   1      29.882  27.549  23.476  1.00  0.00     0.043 A 
ATOM     15  N   UNL A   1      32.021  27.351  22.942  1.00  0.00    -0.357 N 
ATOM     16  C   UNL A   1      30.304  28.751  22.852  1.00  0.00     0.019 A 
ATOM     17  C   UNL A   1      31.629  28.589  22.515  1.00  0.00     0.093 A 
ATOM     18  H   UNL A   1      32.941  27.003  22.891  1.00  0.00     0.166 HD
BRANCH  16  19
ATOM     19  C   UNL A   1      29.472  29.933  22.620  1.00  0.00     0.083 A 
ATOM     20  C   UNL A   1      28.904  30.738  23.584  1.00  0.00     0.095 A 
ATOM     21  N   UNL A   1      29.208  30.303  21.311  1.00  0.00    -0.241 NA
ATOM     22  S   UNL A   1      28.001  31.991  22.840  1.00  0.00    -0.127 S 
ATOM     23  C   UNL A   1      28.427  31.361  21.298  1.00  0.00     0.090 A 
ATOM     24  C   UNL A   1      27.915  32.011  20.063  1.00  0.00     0.079 C 
ENDBRANCH  16  19
ENDBRANCH  11  13
ENDBRANCH   7  11
ENDBRANCH   6   7
ENDBRANCH   3   6
ENDBRANCH   1   2
BRANCH   1  25
ATOM     25  C   UNL A   1      36.361  22.848  24.404  1.00  0.00     0.042 C 
BRANCH  25  26
ATOM     26  C   UNL A   1      36.886  23.026  25.827  1.00  0.00     0.118 C 
BRANCH  26  27
ATOM     27  N   UNL A   1      38.007  22.149  26.124  1.00  0.00    -0.352 N 
ATOM     28  C   UNL A   1      39.307  22.434  26.456  1.00  0.00     0.251 C 
ATOM     29  H   UNL A   1      37.797  21.188  26.079  1.00  0.00     0.163 HD
ATOM     30  O   UNL A   1      40.133  21.524  26.429  1.00  0.00    -0.269 OA
BRANCH  28  31
ATOM     31  C   UNL A   1      39.733  23.803  26.831  1.00  0.00     0.039 A 
ATOM     32  C   UNL A   1      39.791  24.136  28.191  1.00  0.00     0.014 A 
ATOM     33  C   UNL A   1      39.981  24.783  25.868  1.00  0.00     0.014 A 
ATOM     34  C   UNL A   1      40.149  25.430  28.583  1.00  0.00     0.010 A 
ATOM     35  C   UNL A   1      40.379  26.064  26.260  1.00  0.00     0.010 A 
ATOM     36  C   UNL A   1      40.465  26.399  27.620  1.00  0.00    -0.014 A 
BRANCH  36  37
ATOM     37  C   UNL A   1      40.859  27.776  28.006  1.00  0.00     0.031 A 
ATOM     38  C   UNL A   1      42.312  28.158  28.047  1.00  0.00     0.074 A 
ATOM     39  C   UNL A   1      39.924  28.662  28.400  1.00  0.00     0.049 A 
ATOM     40  N   UNL A   1      42.876  29.215  28.571  1.00  0.00    -0.248 NA
ATOM     41  C   UNL A   1      43.255  27.205  27.443  1.00  0.00     0.031 C 
ATOM     42  C   UNL A   1      38.482  28.417  28.433  1.00  0.00     0.029 A 
ATOM     43  N   UNL A   1      40.059  29.941  28.874  1.00  0.00    -0.354 N 
ATOM     44  C   UNL A   1      44.244  29.027  28.421  1.00  0.00     0.074 A 
ATOM     45  C   UNL A   1      44.422  27.765  27.731  1.00  0.00     0.031 C 
ATOM     46  C   UNL A   1      37.864  29.510  28.912  1.00  0.00     0.029 A 
ATOM     47  C   UNL A   1      38.868  30.515  29.246  1.00  0.00     0.049 A 
ATOM     48  H   UNL A   1      40.925  30.404  28.941  1.00  0.00     0.167 HD
ATOM     49  C   UNL A   1      45.260  29.819  28.843  1.00  0.00     0.034 A 
ATOM     50  C   UNL A   1      38.616  31.704  29.823  1.00  0.00     0.034 A 
ATOM     51  C   UNL A   1      45.085  31.094  29.489  1.00  0.00     0.049 A 
ATOM     52  C   UNL A   1      39.752  32.616  30.179  1.00  0.00     0.074 A 
ATOM     53  C   UNL A   1      46.051  31.975  29.948  1.00  0.00     0.029 A 
ATOM     54  N   UNL A   1      43.857  31.681  29.756  1.00  0.00    -0.354 N 
ATOM     55  N   UNL A   1      41.041  32.395  30.096  1.00  0.00    -0.248 NA
ATOM     56  C   UNL A   1      39.394  33.936  30.714  1.00  0.00     0.031 C 
ATOM     57  C   UNL A   1      45.405  33.090  30.499  1.00  0.00     0.029 A 
ATOM     58  C   UNL A   1      44.038  32.913  30.362  1.00  0.00     0.049 A 
ATOM     59  H   UNL A   1      42.983  31.278  29.544  1.00  0.00     0.167 HD
ATOM     60  C   UNL A   1      41.651  33.541  30.590  1.00  0.00     0.074 A 
ATOM     61  C   UNL A   1      40.590  34.458  30.955  1.00  0.00     0.031 C 
ATOM     62  C   UNL A   1      42.972  33.806  30.733  1.00  0.00     0.034 A 
BRANCH  49  63
ATOM     63  C   UNL A   1      46.651  29.278  28.673  1.00  0.00     0.023 A 
ATOM     64  C   UNL A   1      47.244  28.444  29.634  1.00  0.00     0.031 A 
ATOM     65  C   UNL A   1      47.410  29.653  27.550  1.00  0.00     0.131 A 
ATOM     66  C   UNL A   1      48.581  28.049  29.476  1.00  0.00     0.055 A 
ATOM     67  C   UNL A   1      48.725  29.219  27.378  1.00  0.00     0.041 A 
ATOM     68  F   UNL A   1      46.893  30.471  26.620  1.00  0.00    -0.206 F 
ATOM     69  C   UNL A   1      49.321  28.421  28.350  1.00  0.00     0.022 A 
BRANCH  66  70
ATOM     70  S   UNL A   1      49.380  27.131  30.821  1.00  0.00     0.124 S 
ATOM     71  O   UNL A   1      50.559  27.951  31.084  1.00  0.00    -0.237 OA
ATOM     72  O   UNL A   1      48.353  27.133  31.857  1.00  0.00    -0.237 OA
ATOM     73  O   UNL A   1      49.659  25.825  30.225  1.00  0.00    -0.744 OA
ENDBRANCH  66  70
ENDBRANCH  49  63
BRANCH  50  74
ATOM     74  C   UNL A   1      37.224  32.068  30.173  1.00  0.00     0.023 A 
ATOM     75  C   UNL A   1      36.373  32.669  29.234  1.00  0.00     0.031 A 
ATOM     76  C   UNL A   1      36.728  31.799  31.458  1.00  0.00     0.131 A 
ATOM     77  C   UNL A   1      35.060  32.991  29.602  1.00  0.00     0.055 A 
ATOM     78  C   UNL A   1      35.420  32.119  31.818  1.00  0.00     0.041 A 
ATOM     79  F   UNL A   1      37.513  31.211  32.376  1.00  0.00    -0.206 F 
ATOM     80  C   UNL A   1      34.577  32.721  30.886  1.00  0.00     0.022 A 
BRANCH  77  81
ATOM     81  S   UNL A   1      33.975  33.756  28.365  1.00  0.00     0.124 S 
ATOM     82  O   UNL A   1      34.938  34.355  27.449  1.00  0.00    -0.237 OA
ATOM     83  O   UNL A   1      33.235  32.605  27.856  1.00  0.00    -0.237 OA
ATOM     84  O   UNL A   1      33.182  34.702  29.147  1.00  0.00    -0.744 OA
ENDBRANCH  77  81
ENDBRANCH  50  74
BRANCH  62  85
ATOM     85  C   UNL A   1      43.330  35.147  31.302  1.00  0.00     0.023 A 
ATOM     86  C   UNL A   1      43.286  35.379  32.686  1.00  0.00     0.031 A 
ATOM     87  C   UNL A   1      43.703  36.198  30.451  1.00  0.00     0.131 A 
ATOM     88  C   UNL A   1      43.596  36.654  33.183  1.00  0.00     0.055 A 
ATOM     89  C   UNL A   1      44.022  37.461  30.953  1.00  0.00     0.041 A 
ATOM     90  F   UNL A   1      43.747  36.017  29.121  1.00  0.00    -0.206 F 
ATOM     91  C   UNL A   1      43.967  37.694  32.324  1.00  0.00     0.022 A 
BRANCH  88  92
ATOM     92  S   UNL A   1      43.488  36.947  34.970  1.00  0.00     0.124 S 
ATOM     93  O   UNL A   1      44.328  38.127  35.138  1.00  0.00    -0.237 OA
ATOM     94  O   UNL A   1      42.056  37.148  35.169  1.00  0.00    -0.237 OA
ATOM     95  O   UNL A   1      44.025  35.718  35.552  1.00  0.00    -0.744 OA
ENDBRANCH  88  92
ENDBRANCH  62  85
ENDBRANCH  36  37
ENDBRANCH  28  31
ENDBRANCH  26  27
ENDBRANCH  25  26
ENDBRANCH   1  25
TORSDOF 19
ENDMDL
