MODEL 1
REMARK VINA RESULT:     -11.9      0.000      0.000
REMARK SMILES CC1(C)CCCC[C@@]1(C(=O)NCCCNC(=O)c1ccc(-c2c3nc(c(-c4cc(S(=O)(=O)[O-])ccc4F)c4ccc([nH]4)c(-c4cc(S(=O)(=O)[O-])ccc4F)c4nc(c(-c5cc(S(=O)(=O)[O-])ccc5F)c5ccc2[nH]5)C=C4)C=C3)cc1)[NH+]1CC[NH2+]CC1
REMARK SMILES IDX 14 1 13 2 12 3 11 4 9 5 10 6 8 8 1 9 2 10 3 11 4 12 5 13
REMARK SMILES IDX 7 14 6 15 81 16 82 17 86 18 83 20 85 21 84 22 15 25 16 26
REMARK SMILES IDX 17 28 18 29 19 30 80 31 20 32 79 33 21 34 22 35 23 36 73 37
REMARK SMILES IDX 24 38 78 39 72 40 74 41 25 42 77 43 71 44 70 45 26 47 58 48
REMARK SMILES IDX 38 49 57 50 39 51 42 52 56 53 75 54 40 55 41 56 55 58 76 59
REMARK SMILES IDX 43 60 27 61 28 62 36 63 29 64 35 65 37 66 34 67 30 68 31 69
REMARK SMILES IDX 32 70 33 71 59 72 60 73 68 74 61 75 67 76 69 77 66 78 62 79
REMARK SMILES IDX 63 80 64 81 65 82 44 83 45 84 53 85 46 86 52 87 54 88 51 89
REMARK SMILES IDX 47 90 48 91 49 92 50 93
REMARK H PARENT 11 7 81 19 84 23 84 24 15 27 74 46 42 57
REMARK Flexibility Score: inf
ROOT
ATOM      1  C   UNL A   1      33.227  29.890  26.231  1.00  0.00     0.118 C 
ENDROOT
BRANCH   1   2
ATOM      2  C   UNL A   1      32.017  29.111  26.724  1.00  0.00     0.042 C 
BRANCH   2   3
ATOM      3  C   UNL A   1      32.354  27.716  27.231  1.00  0.00     0.118 C 
BRANCH   3   4
ATOM      4  N   UNL A   1      31.406  26.708  26.783  1.00  0.00    -0.351 N 
ATOM      5  C   UNL A   1      31.334  25.743  25.829  1.00  0.00     0.281 C 
ATOM      6  O   UNL A   1      30.226  25.184  25.838  1.00  0.00    -0.268 OA
ATOM      7  H   UNL A   1      30.584  26.731  27.324  1.00  0.00     0.163 HD
BRANCH   5   8
ATOM      8  C   UNL A   1      32.450  25.384  24.712  1.00  0.00     0.182 C 
ATOM      9  C   UNL A   1      32.989  23.362  22.992  1.00  0.00     0.018 C 
ATOM     10  C   UNL A   1      32.024  23.932  24.076  1.00  0.00     0.029 C 
ATOM     11  C   UNL A   1      30.638  23.931  23.381  1.00  0.00     0.018 C 
ATOM     12  C   UNL A   1      32.004  22.884  25.233  1.00  0.00     0.013 C 
ATOM     13  C   UNL A   1      33.351  22.756  25.945  1.00  0.00     0.001 C 
ATOM     14  C   UNL A   1      33.858  25.178  25.338  1.00  0.00     0.080 C 
ATOM     15  C   UNL A   1      33.890  24.097  26.425  1.00  0.00     0.007 C 
BRANCH   8  16
ATOM     16  N   UNL A   1      32.422  26.506  23.682  1.00  0.00    -0.313 N 
ATOM     17  C   UNL A   1      33.592  27.406  23.651  1.00  0.00     0.325 C 
ATOM     18  C   UNL A   1      31.199  27.347  23.747  1.00  0.00     0.325 C 
ATOM     19  H   UNL A   1      32.436  25.965  22.818  1.00  0.00     0.349 HD
ATOM     20  C   UNL A   1      33.496  28.509  22.569  1.00  0.00     0.322 C 
ATOM     21  C   UNL A   1      31.130  28.495  22.711  1.00  0.00     0.322 C 
ATOM     22  N   UNL A   1      32.314  29.363  22.734  1.00  0.00    -0.337 N 
ATOM     23  H   UNL A   1      32.264  30.040  21.972  1.00  0.00     0.346 HD
ATOM     24  H   UNL A   1      32.364  29.875  23.615  1.00  0.00     0.346 HD
ENDBRANCH   8  16
ENDBRANCH   5   8
ENDBRANCH   3   4
ENDBRANCH   2   3
ENDBRANCH   1   2
BRANCH   1  25
ATOM     25  N   UNL A   1      33.185  31.278  26.662  1.00  0.00    -0.352 N 
ATOM     26  C   UNL A   1      33.931  31.928  27.617  1.00  0.00     0.251 C 
ATOM     27  H   UNL A   1      32.521  31.838  26.199  1.00  0.00     0.163 HD
ATOM     28  O   UNL A   1      33.541  33.015  28.034  1.00  0.00    -0.269 OA
BRANCH  26  29
ATOM     29  C   UNL A   1      35.181  31.329  28.142  1.00  0.00     0.039 A 
ATOM     30  C   UNL A   1      35.157  30.015  28.618  1.00  0.00     0.014 A 
ATOM     31  C   UNL A   1      36.359  32.074  28.231  1.00  0.00     0.014 A 
ATOM     32  C   UNL A   1      36.315  29.445  29.155  1.00  0.00     0.010 A 
ATOM     33  C   UNL A   1      37.536  31.474  28.670  1.00  0.00     0.010 A 
ATOM     34  C   UNL A   1      37.519  30.166  29.175  1.00  0.00    -0.014 A 
BRANCH  34  35
ATOM     35  C   UNL A   1      38.746  29.616  29.807  1.00  0.00     0.031 A 
ATOM     36  C   UNL A   1      39.162  30.113  31.170  1.00  0.00     0.074 A 
ATOM     37  C   UNL A   1      39.507  28.721  29.149  1.00  0.00     0.049 A 
ATOM     38  N   UNL A   1      40.240  29.843  31.860  1.00  0.00    -0.248 NA
ATOM     39  C   UNL A   1      38.262  31.077  31.821  1.00  0.00     0.031 C 
ATOM     40  C   UNL A   1      39.231  28.198  27.809  1.00  0.00     0.029 A 
ATOM     41  N   UNL A   1      40.673  28.098  29.513  1.00  0.00    -0.354 N 
ATOM     42  C   UNL A   1      40.161  30.628  33.008  1.00  0.00     0.074 A 
ATOM     43  C   UNL A   1      38.966  31.433  32.882  1.00  0.00     0.031 C 
ATOM     44  C   UNL A   1      40.186  27.314  27.477  1.00  0.00     0.029 A 
ATOM     45  C   UNL A   1      41.162  27.236  28.560  1.00  0.00     0.049 A 
ATOM     46  H   UNL A   1      41.119  28.253  30.377  1.00  0.00     0.167 HD
ATOM     47  C   UNL A   1      40.990  30.654  34.081  1.00  0.00     0.034 A 
ATOM     48  C   UNL A   1      42.273  26.472  28.560  1.00  0.00     0.034 A 
ATOM     49  C   UNL A   1      42.156  29.814  34.204  1.00  0.00     0.049 A 
ATOM     50  C   UNL A   1      43.167  26.493  29.776  1.00  0.00     0.074 A 
ATOM     51  C   UNL A   1      43.042  29.714  35.262  1.00  0.00     0.029 A 
ATOM     52  N   UNL A   1      42.594  28.920  33.235  1.00  0.00    -0.354 N 
ATOM     53  N   UNL A   1      43.058  27.211  30.869  1.00  0.00    -0.248 NA
ATOM     54  C   UNL A   1      44.320  25.584  29.763  1.00  0.00     0.031 C 
ATOM     55  C   UNL A   1      44.042  28.800  34.913  1.00  0.00     0.029 A 
ATOM     56  C   UNL A   1      43.743  28.276  33.665  1.00  0.00     0.049 A 
ATOM     57  H   UNL A   1      42.152  28.767  32.368  1.00  0.00     0.167 HD
ATOM     58  C   UNL A   1      44.108  26.812  31.691  1.00  0.00     0.074 A 
ATOM     59  C   UNL A   1      44.831  25.784  30.969  1.00  0.00     0.031 C 
ATOM     60  C   UNL A   1      44.445  27.250  32.931  1.00  0.00     0.034 A 
BRANCH  47  61
ATOM     61  C   UNL A   1      40.667  31.634  35.185  1.00  0.00     0.023 A 
ATOM     62  C   UNL A   1      39.673  31.366  36.145  1.00  0.00     0.031 A 
ATOM     63  C   UNL A   1      41.323  32.876  35.253  1.00  0.00     0.131 A 
ATOM     64  C   UNL A   1      39.300  32.357  37.066  1.00  0.00     0.055 A 
ATOM     65  C   UNL A   1      41.011  33.823  36.232  1.00  0.00     0.041 A 
ATOM     66  F   UNL A   1      42.268  33.200  34.356  1.00  0.00    -0.206 F 
ATOM     67  C   UNL A   1      39.981  33.574  37.133  1.00  0.00     0.022 A 
BRANCH  64  68
ATOM     68  S   UNL A   1      37.808  32.092  38.062  1.00  0.00     0.124 S 
ATOM     69  O   UNL A   1      37.467  30.713  37.720  1.00  0.00    -0.237 OA
ATOM     70  O   UNL A   1      38.291  32.313  39.421  1.00  0.00    -0.237 OA
ATOM     71  O   UNL A   1      36.876  33.100  37.560  1.00  0.00    -0.744 OA
ENDBRANCH  64  68
ENDBRANCH  47  61
BRANCH  48  72
ATOM     72  C   UNL A   1      42.601  25.615  27.386  1.00  0.00     0.023 A 
ATOM     73  C   UNL A   1      42.157  24.284  27.318  1.00  0.00     0.031 A 
ATOM     74  C   UNL A   1      43.390  26.101  26.331  1.00  0.00     0.131 A 
ATOM     75  C   UNL A   1      42.546  23.471  26.242  1.00  0.00     0.055 A 
ATOM     76  C   UNL A   1      43.735  25.303  25.238  1.00  0.00     0.041 A 
ATOM     77  F   UNL A   1      43.831  27.370  26.342  1.00  0.00    -0.206 F 
ATOM     78  C   UNL A   1      43.323  23.975  25.197  1.00  0.00     0.022 A 
BRANCH  75  79
ATOM     79  S   UNL A   1      42.087  21.716  26.270  1.00  0.00     0.124 S 
ATOM     80  O   UNL A   1      42.426  21.341  27.637  1.00  0.00    -0.237 OA
ATOM     81  O   UNL A   1      40.663  21.773  25.954  1.00  0.00    -0.237 OA
ATOM     82  O   UNL A   1      42.930  21.127  25.232  1.00  0.00    -0.744 OA
ENDBRANCH  75  79
ENDBRANCH  48  72
BRANCH  60  83
ATOM     83  C   UNL A   1      45.609  26.566  33.605  1.00  0.00     0.023 A 
ATOM     84  C   UNL A   1      45.438  25.421  34.401  1.00  0.00     0.031 A 
ATOM     85  C   UNL A   1      46.908  27.082  33.454  1.00  0.00     0.131 A 
ATOM     86  C   UNL A   1      46.541  24.863  35.065  1.00  0.00     0.055 A 
ATOM     87  C   UNL A   1      48.010  26.488  34.070  1.00  0.00     0.041 A 
ATOM     88  F   UNL A   1      47.127  28.175  32.705  1.00  0.00    -0.206 F 
ATOM     89  C   UNL A   1      47.827  25.380  34.893  1.00  0.00     0.022 A 
BRANCH  86  90
ATOM     90  S   UNL A   1      46.256  23.509  36.238  1.00  0.00     0.124 S 
ATOM     91  O   UNL A   1      45.022  22.920  35.730  1.00  0.00    -0.237 OA
ATOM     92  O   UNL A   1      47.461  22.702  36.079  1.00  0.00    -0.237 OA
ATOM     93  O   UNL A   1      46.134  24.191  37.526  1.00  0.00    -0.744 OA
ENDBRANCH  86  90
ENDBRANCH  60  83
ENDBRANCH  34  35
ENDBRANCH  26  29
ENDBRANCH   1  25
TORSDOF 14
ENDMDL
MODEL 2
REMARK VINA RESULT:     -11.8      2.738      8.484
REMARK SMILES CC1(C)CCCC[C@@]1(C(=O)NCCCNC(=O)c1ccc(-c2c3nc(c(-c4cc(S(=O)(=O)[O-])ccc4F)c4ccc([nH]4)c(-c4cc(S(=O)(=O)[O-])ccc4F)c4nc(c(-c5cc(S(=O)(=O)[O-])ccc5F)c5ccc2[nH]5)C=C4)C=C3)cc1)[NH+]1CC[NH2+]CC1
REMARK SMILES IDX 14 1 13 2 12 3 11 4 9 5 10 6 8 8 1 9 2 10 3 11 4 12 5 13
REMARK SMILES IDX 7 14 6 15 81 16 82 17 86 18 83 20 85 21 84 22 15 25 16 26
REMARK SMILES IDX 17 28 18 29 19 30 80 31 20 32 79 33 21 34 22 35 23 36 73 37
REMARK SMILES IDX 24 38 78 39 72 40 74 41 25 42 77 43 71 44 70 45 26 47 58 48
REMARK SMILES IDX 38 49 57 50 39 51 42 52 56 53 75 54 40 55 41 56 55 58 76 59
REMARK SMILES IDX 43 60 27 61 28 62 36 63 29 64 35 65 37 66 34 67 30 68 31 69
REMARK SMILES IDX 32 70 33 71 59 72 60 73 68 74 61 75 67 76 69 77 66 78 62 79
REMARK SMILES IDX 63 80 64 81 65 82 44 83 45 84 53 85 46 86 52 87 54 88 51 89
REMARK SMILES IDX 47 90 48 91 49 92 50 93
REMARK H PARENT 11 7 81 19 84 23 84 24 15 27 74 46 42 57
REMARK Flexibility Score: inf
ROOT
ATOM      1  C   UNL A   1      32.800  32.426  27.245  1.00  0.00     0.118 C 
ENDROOT
BRANCH   1   2
ATOM      2  C   UNL A   1      31.589  31.871  26.511  1.00  0.00     0.042 C 
BRANCH   2   3
ATOM      3  C   UNL A   1      31.665  30.372  26.257  1.00  0.00     0.118 C 
BRANCH   3   4
ATOM      4  N   UNL A   1      32.531  30.032  25.139  1.00  0.00    -0.351 N 
ATOM      5  C   UNL A   1      32.602  29.082  24.169  1.00  0.00     0.281 C 
ATOM      6  O   UNL A   1      33.624  29.219  23.479  1.00  0.00    -0.268 OA
ATOM      7  H   UNL A   1      33.278  30.669  25.064  1.00  0.00     0.163 HD
BRANCH   5   8
ATOM      8  C   UNL A   1      31.596  27.833  23.945  1.00  0.00     0.182 C 
ATOM      9  C   UNL A   1      30.915  25.550  25.235  1.00  0.00     0.018 C 
ATOM     10  C   UNL A   1      31.771  26.854  25.250  1.00  0.00     0.029 C 
ATOM     11  C   UNL A   1      31.403  27.527  26.598  1.00  0.00     0.018 C 
ATOM     12  C   UNL A   1      33.262  26.393  25.313  1.00  0.00     0.013 C 
ATOM     13  C   UNL A   1      33.710  25.653  24.052  1.00  0.00     0.001 C 
ATOM     14  C   UNL A   1      31.993  26.975  22.712  1.00  0.00     0.080 C 
ATOM     15  C   UNL A   1      33.429  26.440  22.779  1.00  0.00     0.007 C 
BRANCH   8  16
ATOM     16  N   UNL A   1      30.191  28.412  23.831  1.00  0.00    -0.313 N 
ATOM     17  C   UNL A   1      29.121  27.480  23.422  1.00  0.00     0.325 C 
ATOM     18  C   UNL A   1      30.108  29.615  22.963  1.00  0.00     0.325 C 
ATOM     19  H   UNL A   1      30.014  28.663  24.805  1.00  0.00     0.349 HD
ATOM     20  C   UNL A   1      27.722  28.138  23.345  1.00  0.00     0.322 C 
ATOM     21  C   UNL A   1      28.697  30.236  22.828  1.00  0.00     0.322 C 
ATOM     22  N   UNL A   1      27.678  29.265  22.407  1.00  0.00    -0.337 N 
ATOM     23  H   UNL A   1      26.755  29.700  22.427  1.00  0.00     0.346 HD
ATOM     24  H   UNL A   1      27.861  28.946  21.456  1.00  0.00     0.346 HD
ENDBRANCH   8  16
ENDBRANCH   5   8
ENDBRANCH   3   4
ENDBRANCH   2   3
ENDBRANCH   1   2
BRANCH   1  25
ATOM     25  N   UNL A   1      32.632  33.834  27.569  1.00  0.00    -0.352 N 
ATOM     26  C   UNL A   1      33.164  34.571  28.601  1.00  0.00     0.251 C 
ATOM     27  H   UNL A   1      32.049  34.337  26.955  1.00  0.00     0.163 HD
ATOM     28  O   UNL A   1      32.667  35.662  28.867  1.00  0.00    -0.269 OA
BRANCH  26  29
ATOM     29  C   UNL A   1      34.311  34.060  29.387  1.00  0.00     0.039 A 
ATOM     30  C   UNL A   1      35.610  34.363  28.968  1.00  0.00     0.014 A 
ATOM     31  C   UNL A   1      34.119  33.228  30.493  1.00  0.00     0.014 A 
ATOM     32  C   UNL A   1      36.707  33.857  29.671  1.00  0.00     0.010 A 
ATOM     33  C   UNL A   1      35.208  32.810  31.253  1.00  0.00     0.010 A 
ATOM     34  C   UNL A   1      36.515  33.085  30.828  1.00  0.00    -0.014 A 
BRANCH  34  35
ATOM     35  C   UNL A   1      37.658  32.471  31.553  1.00  0.00     0.031 A 
ATOM     36  C   UNL A   1      38.425  31.345  30.905  1.00  0.00     0.074 A 
ATOM     37  C   UNL A   1      37.973  32.880  32.797  1.00  0.00     0.049 A 
ATOM     38  N   UNL A   1      39.388  30.605  31.393  1.00  0.00    -0.248 NA
ATOM     39  C   UNL A   1      38.022  30.975  29.540  1.00  0.00     0.031 C 
ATOM     40  C   UNL A   1      37.278  33.931  33.544  1.00  0.00     0.029 A 
ATOM     41  N   UNL A   1      38.955  32.458  33.656  1.00  0.00    -0.354 N 
ATOM     42  C   UNL A   1      39.680  29.665  30.408  1.00  0.00     0.074 A 
ATOM     43  C   UNL A   1      38.744  29.887  29.328  1.00  0.00     0.031 C 
ATOM     44  C   UNL A   1      37.873  34.087  34.738  1.00  0.00     0.029 A 
ATOM     45  C   UNL A   1      38.965  33.126  34.858  1.00  0.00     0.049 A 
ATOM     46  H   UNL A   1      39.594  31.743  33.433  1.00  0.00     0.167 HD
ATOM     47  C   UNL A   1      40.657  28.724  30.390  1.00  0.00     0.034 A 
ATOM     48  C   UNL A   1      39.762  32.976  35.935  1.00  0.00     0.034 A 
ATOM     49  C   UNL A   1      41.606  28.545  31.461  1.00  0.00     0.049 A 
ATOM     50  C   UNL A   1      40.861  31.944  35.884  1.00  0.00     0.074 A 
ATOM     51  C   UNL A   1      42.669  27.663  31.537  1.00  0.00     0.029 A 
ATOM     52  N   UNL A   1      41.610  29.273  32.645  1.00  0.00    -0.354 N 
ATOM     53  N   UNL A   1      41.149  31.089  34.930  1.00  0.00    -0.248 NA
ATOM     54  C   UNL A   1      41.754  31.873  37.047  1.00  0.00     0.031 C 
ATOM     55  C   UNL A   1      43.283  27.820  32.783  1.00  0.00     0.029 A 
ATOM     56  C   UNL A   1      42.648  28.849  33.460  1.00  0.00     0.049 A 
ATOM     57  H   UNL A   1      40.969  29.984  32.872  1.00  0.00     0.167 HD
ATOM     58  C   UNL A   1      42.282  30.405  35.364  1.00  0.00     0.074 A 
ATOM     59  C   UNL A   1      42.627  30.955  36.659  1.00  0.00     0.031 C 
ATOM     60  C   UNL A   1      42.978  29.415  34.747  1.00  0.00     0.034 A 
BRANCH  47  61
ATOM     61  C   UNL A   1      40.725  27.816  29.184  1.00  0.00     0.023 A 
ATOM     62  C   UNL A   1      41.674  28.010  28.164  1.00  0.00     0.031 A 
ATOM     63  C   UNL A   1      39.798  26.771  29.024  1.00  0.00     0.131 A 
ATOM     64  C   UNL A   1      41.616  27.239  26.993  1.00  0.00     0.055 A 
ATOM     65  C   UNL A   1      39.804  25.946  27.897  1.00  0.00     0.041 A 
ATOM     66  F   UNL A   1      38.855  26.545  29.953  1.00  0.00    -0.206 F 
ATOM     67  C   UNL A   1      40.704  26.190  26.865  1.00  0.00     0.022 A 
BRANCH  64  68
ATOM     68  S   UNL A   1      42.640  27.734  25.581  1.00  0.00     0.124 S 
ATOM     69  O   UNL A   1      41.895  28.879  25.064  1.00  0.00    -0.237 OA
ATOM     70  O   UNL A   1      43.921  28.036  26.210  1.00  0.00    -0.237 OA
ATOM     71  O   UNL A   1      42.631  26.552  24.719  1.00  0.00    -0.744 OA
ENDBRANCH  64  68
ENDBRANCH  47  61
BRANCH  48  72
ATOM     72  C   UNL A   1      39.565  33.824  37.144  1.00  0.00     0.023 A 
ATOM     73  C   UNL A   1      38.894  33.327  38.273  1.00  0.00     0.031 A 
ATOM     74  C   UNL A   1      40.014  35.155  37.178  1.00  0.00     0.131 A 
ATOM     75  C   UNL A   1      38.648  34.170  39.369  1.00  0.00     0.055 A 
ATOM     76  C   UNL A   1      39.811  35.975  38.289  1.00  0.00     0.041 A 
ATOM     77  F   UNL A   1      40.672  35.676  36.128  1.00  0.00    -0.206 F 
ATOM     78  C   UNL A   1      39.111  35.487  39.388  1.00  0.00     0.022 A 
BRANCH  75  79
ATOM     79  S   UNL A   1      37.640  33.539  40.739  1.00  0.00     0.124 S 
ATOM     80  O   UNL A   1      37.316  34.765  41.459  1.00  0.00    -0.237 OA
ATOM     81  O   UNL A   1      36.535  32.900  40.031  1.00  0.00    -0.237 OA
ATOM     82  O   UNL A   1      38.544  32.626  41.434  1.00  0.00    -0.744 OA
ENDBRANCH  75  79
ENDBRANCH  48  72
BRANCH  60  83
ATOM     83  C   UNL A   1      44.219  28.915  35.445  1.00  0.00     0.023 A 
ATOM     84  C   UNL A   1      44.169  27.891  36.404  1.00  0.00     0.031 A 
ATOM     85  C   UNL A   1      45.469  29.487  35.147  1.00  0.00     0.131 A 
ATOM     86  C   UNL A   1      45.340  27.509  37.077  1.00  0.00     0.055 A 
ATOM     87  C   UNL A   1      46.639  29.063  35.777  1.00  0.00     0.041 A 
ATOM     88  F   UNL A   1      45.572  30.470  34.238  1.00  0.00    -0.206 F 
ATOM     89  C   UNL A   1      46.576  28.078  36.759  1.00  0.00     0.022 A 
BRANCH  86  90
ATOM     90  S   UNL A   1      45.211  26.326  38.445  1.00  0.00     0.124 S 
ATOM     91  O   UNL A   1      43.859  26.572  38.935  1.00  0.00    -0.237 OA
ATOM     92  O   UNL A   1      45.421  25.048  37.773  1.00  0.00    -0.237 OA
ATOM     93  O   UNL A   1      46.283  26.732  39.353  1.00  0.00    -0.744 OA
ENDBRANCH  86  90
ENDBRANCH  60  83
ENDBRANCH  34  35
ENDBRANCH  26  29
ENDBRANCH   1  25
TORSDOF 14
ENDMDL
MODEL 3
REMARK VINA RESULT:     -11.8      1.497      1.852
REMARK SMILES CC1(C)CCCC[C@@]1(C(=O)NCCCNC(=O)c1ccc(-c2c3nc(c(-c4cc(S(=O)(=O)[O-])ccc4F)c4ccc([nH]4)c(-c4cc(S(=O)(=O)[O-])ccc4F)c4nc(c(-c5cc(S(=O)(=O)[O-])ccc5F)c5ccc2[nH]5)C=C4)C=C3)cc1)[NH+]1CC[NH2+]CC1
REMARK SMILES IDX 14 1 13 2 12 3 11 4 9 5 10 6 8 8 1 9 2 10 3 11 4 12 5 13
REMARK SMILES IDX 7 14 6 15 81 16 82 17 86 18 83 20 85 21 84 22 15 25 16 26
REMARK SMILES IDX 17 28 18 29 19 30 80 31 20 32 79 33 21 34 22 35 23 36 73 37
REMARK SMILES IDX 24 38 78 39 72 40 74 41 25 42 77 43 71 44 70 45 26 47 58 48
REMARK SMILES IDX 38 49 57 50 39 51 42 52 56 53 75 54 40 55 41 56 55 58 76 59
REMARK SMILES IDX 43 60 27 61 28 62 36 63 29 64 35 65 37 66 34 67 30 68 31 69
REMARK SMILES IDX 32 70 33 71 59 72 60 73 68 74 61 75 67 76 69 77 66 78 62 79
REMARK SMILES IDX 63 80 64 81 65 82 44 83 45 84 53 85 46 86 52 87 54 88 51 89
REMARK SMILES IDX 47 90 48 91 49 92 50 93
REMARK H PARENT 11 7 81 19 84 23 84 24 15 27 74 46 42 57
REMARK Flexibility Score: inf
ROOT
ATOM      1  C   UNL A   1      32.849  29.934  25.944  1.00  0.00     0.118 C 
ENDROOT
BRANCH   1   2
ATOM      2  C   UNL A   1      31.755  29.085  26.571  1.00  0.00     0.042 C 
BRANCH   2   3
ATOM      3  C   UNL A   1      32.234  27.716  27.033  1.00  0.00     0.118 C 
BRANCH   3   4
ATOM      4  N   UNL A   1      31.346  26.639  26.624  1.00  0.00    -0.351 N 
ATOM      5  C   UNL A   1      31.308  25.666  25.676  1.00  0.00     0.281 C 
ATOM      6  O   UNL A   1      30.245  25.028  25.729  1.00  0.00    -0.268 OA
ATOM      7  H   UNL A   1      30.545  26.605  27.196  1.00  0.00     0.163 HD
BRANCH   5   8
ATOM      8  C   UNL A   1      32.404  25.384  24.518  1.00  0.00     0.182 C 
ATOM      9  C   UNL A   1      33.023  23.397  22.783  1.00  0.00     0.018 C 
ATOM     10  C   UNL A   1      32.062  23.901  23.902  1.00  0.00     0.029 C 
ATOM     11  C   UNL A   1      30.654  23.795  23.262  1.00  0.00     0.018 C 
ATOM     12  C   UNL A   1      32.162  22.860  25.062  1.00  0.00     0.013 C 
ATOM     13  C   UNL A   1      33.541  22.836  25.722  1.00  0.00     0.001 C 
ATOM     14  C   UNL A   1      33.846  25.285  25.089  1.00  0.00     0.080 C 
ATOM     15  C   UNL A   1      33.999  24.215  26.178  1.00  0.00     0.007 C 
BRANCH   8  16
ATOM     16  N   UNL A   1      32.254  26.495  23.487  1.00  0.00    -0.313 N 
ATOM     17  C   UNL A   1      33.329  27.507  23.442  1.00  0.00     0.325 C 
ATOM     18  C   UNL A   1      30.954  27.210  23.562  1.00  0.00     0.325 C 
ATOM     19  H   UNL A   1      32.314  25.956  22.623  1.00  0.00     0.349 HD
ATOM     20  C   UNL A   1      33.113  28.592  22.360  1.00  0.00     0.322 C 
ATOM     21  C   UNL A   1      30.761  28.343  22.525  1.00  0.00     0.322 C 
ATOM     22  N   UNL A   1      31.854  29.325  22.536  1.00  0.00    -0.337 N 
ATOM     23  H   UNL A   1      31.729  29.991  21.774  1.00  0.00     0.346 HD
ATOM     24  H   UNL A   1      31.861  29.842  23.415  1.00  0.00     0.346 HD
ENDBRANCH   8  16
ENDBRANCH   5   8
ENDBRANCH   3   4
ENDBRANCH   2   3
ENDBRANCH   1   2
BRANCH   1  25
ATOM     25  N   UNL A   1      32.718  31.336  26.310  1.00  0.00    -0.352 N 
ATOM     26  C   UNL A   1      33.358  32.055  27.291  1.00  0.00     0.251 C 
ATOM     27  H   UNL A   1      32.071  31.848  25.773  1.00  0.00     0.163 HD
ATOM     28  O   UNL A   1      32.894  33.140  27.629  1.00  0.00    -0.269 OA
BRANCH  26  29
ATOM     29  C   UNL A   1      34.585  31.532  27.937  1.00  0.00     0.039 A 
ATOM     30  C   UNL A   1      34.607  30.206  28.380  1.00  0.00     0.014 A 
ATOM     31  C   UNL A   1      35.688  32.357  28.172  1.00  0.00     0.014 A 
ATOM     32  C   UNL A   1      35.739  29.705  29.029  1.00  0.00     0.010 A 
ATOM     33  C   UNL A   1      36.852  31.830  28.725  1.00  0.00     0.010 A 
ATOM     34  C   UNL A   1      36.877  30.510  29.197  1.00  0.00    -0.014 A 
BRANCH  34  35
ATOM     35  C   UNL A   1      38.066  30.030  29.949  1.00  0.00     0.031 A 
ATOM     36  C   UNL A   1      38.288  30.508  31.363  1.00  0.00     0.074 A 
ATOM     37  C   UNL A   1      38.964  29.220  29.356  1.00  0.00     0.049 A 
ATOM     38  N   UNL A   1      39.301  30.295  32.163  1.00  0.00    -0.248 NA
ATOM     39  C   UNL A   1      37.249  31.378  31.934  1.00  0.00     0.031 C 
ATOM     40  C   UNL A   1      38.879  28.726  27.980  1.00  0.00     0.029 A 
ATOM     41  N   UNL A   1      40.127  28.673  29.833  1.00  0.00    -0.354 N 
ATOM     42  C   UNL A   1      39.034  31.030  33.315  1.00  0.00     0.074 A 
ATOM     43  C   UNL A   1      37.801  31.747  33.078  1.00  0.00     0.031 C 
ATOM     44  C   UNL A   1      39.932  27.929  27.734  1.00  0.00     0.029 A 
ATOM     45  C   UNL A   1      40.785  27.884  28.918  1.00  0.00     0.049 A 
ATOM     46  H   UNL A   1      40.461  28.830  30.746  1.00  0.00     0.167 HD
ATOM     47  C   UNL A   1      39.735  31.079  34.476  1.00  0.00     0.034 A 
ATOM     48  C   UNL A   1      41.945  27.207  29.023  1.00  0.00     0.034 A 
ATOM     49  C   UNL A   1      40.942  30.325  34.707  1.00  0.00     0.049 A 
ATOM     50  C   UNL A   1      42.695  27.251  30.332  1.00  0.00     0.074 A 
ATOM     51  C   UNL A   1      41.711  30.253  35.855  1.00  0.00     0.029 A 
ATOM     52  N   UNL A   1      41.554  29.502  33.769  1.00  0.00    -0.354 N 
ATOM     53  N   UNL A   1      42.409  27.919  31.425  1.00  0.00    -0.248 NA
ATOM     54  C   UNL A   1      43.910  26.432  30.425  1.00  0.00     0.031 C 
ATOM     55  C   UNL A   1      42.812  29.430  35.597  1.00  0.00     0.029 A 
ATOM     56  C   UNL A   1      42.695  28.931  34.309  1.00  0.00     0.049 A 
ATOM     57  H   UNL A   1      41.224  29.348  32.855  1.00  0.00     0.167 HD
ATOM     58  C   UNL A   1      43.390  27.570  32.350  1.00  0.00     0.074 A 
ATOM     59  C   UNL A   1      44.267  26.625  31.686  1.00  0.00     0.031 C 
ATOM     60  C   UNL A   1      43.552  27.987  33.631  1.00  0.00     0.034 A 
BRANCH  47  61
ATOM     61  C   UNL A   1      39.215  31.992  35.562  1.00  0.00     0.023 A 
ATOM     62  C   UNL A   1      39.619  33.336  35.655  1.00  0.00     0.031 A 
ATOM     63  C   UNL A   1      38.343  31.502  36.551  1.00  0.00     0.131 A 
ATOM     64  C   UNL A   1      39.231  34.113  36.757  1.00  0.00     0.055 A 
ATOM     65  C   UNL A   1      37.885  32.309  37.596  1.00  0.00     0.041 A 
ATOM     66  F   UNL A   1      37.934  30.224  36.530  1.00  0.00    -0.206 F 
ATOM     67  C   UNL A   1      38.344  33.617  37.714  1.00  0.00     0.022 A 
BRANCH  64  68
ATOM     68  S   UNL A   1      40.029  35.723  37.004  1.00  0.00     0.124 S 
ATOM     69  O   UNL A   1      41.435  35.340  37.111  1.00  0.00    -0.237 OA
ATOM     70  O   UNL A   1      39.655  36.450  35.797  1.00  0.00    -0.237 OA
ATOM     71  O   UNL A   1      39.430  36.217  38.243  1.00  0.00    -0.744 OA
ENDBRANCH  64  68
ENDBRANCH  47  61
BRANCH  48  72
ATOM     72  C   UNL A   1      42.467  26.419  27.870  1.00  0.00     0.023 A 
ATOM     73  C   UNL A   1      42.043  25.100  27.647  1.00  0.00     0.031 A 
ATOM     74  C   UNL A   1      43.423  26.962  26.995  1.00  0.00     0.131 A 
ATOM     75  C   UNL A   1      42.610  24.349  26.604  1.00  0.00     0.055 A 
ATOM     76  C   UNL A   1      43.947  26.228  25.929  1.00  0.00     0.041 A 
ATOM     77  F   UNL A   1      43.854  28.224  27.157  1.00  0.00    -0.206 F 
ATOM     78  C   UNL A   1      43.550  24.908  25.737  1.00  0.00     0.022 A 
BRANCH  75  79
ATOM     79  S   UNL A   1      42.154  22.600  26.447  1.00  0.00     0.124 S 
ATOM     80  O   UNL A   1      42.770  22.245  25.174  1.00  0.00    -0.237 OA
ATOM     81  O   UNL A   1      42.765  22.021  27.639  1.00  0.00    -0.237 OA
ATOM     82  O   UNL A   1      40.693  22.628  26.449  1.00  0.00    -0.744 OA
ENDBRANCH  75  79
ENDBRANCH  48  72
BRANCH  60  83
ATOM     83  C   UNL A   1      44.684  27.368  34.414  1.00  0.00     0.023 A 
ATOM     84  C   UNL A   1      44.523  26.172  35.132  1.00  0.00     0.031 A 
ATOM     85  C   UNL A   1      45.941  27.999  34.447  1.00  0.00     0.131 A 
ATOM     86  C   UNL A   1      45.585  25.674  35.903  1.00  0.00     0.055 A 
ATOM     87  C   UNL A   1      47.011  27.468  35.167  1.00  0.00     0.041 A 
ATOM     88  F   UNL A   1      46.148  29.145  33.778  1.00  0.00    -0.206 F 
ATOM     89  C   UNL A   1      46.831  26.305  35.913  1.00  0.00     0.022 A 
BRANCH  86  90
ATOM     90  S   UNL A   1      45.286  24.240  36.972  1.00  0.00     0.124 S 
ATOM     91  O   UNL A   1      46.642  23.817  37.302  1.00  0.00    -0.237 OA
ATOM     92  O   UNL A   1      44.517  24.823  38.067  1.00  0.00    -0.237 OA
ATOM     93  O   UNL A   1      44.541  23.320  36.114  1.00  0.00    -0.744 OA
ENDBRANCH  86  90
ENDBRANCH  60  83
ENDBRANCH  34  35
ENDBRANCH  26  29
ENDBRANCH   1  25
TORSDOF 14
ENDMDL
