MODEL 1
REMARK VINA RESULT:     -12.6      0.000      0.000
REMARK SMILES CCC[C@H]1CCc2c(sc(NC(=O)[C@H]3[C@@H](C(=O)NCCCNC(=O)c4ccc(-c5c6nc(c(-c7cc(S(=O)(=O)[O-])ccc7F)c7ccc([nH]7)c(-c7cc(S(=O)(=O)[O-])ccc7F)c7nc(c(-c8cc(S(=O)(=O)[O-])ccc8F)c8ccc5[nH]8)C=C7)C=C6)cc4)[C@H]4CC[C@@H]3O4)c2C(N)=O)C1
REMARK SMILES IDX 19 1 18 2 16 3 17 4 15 6 14 7 91 8 88 9 90 10 92 11 89 12
REMARK SMILES IDX 12 13 11 14 13 16 10 17 4 18 5 19 97 20 6 21 8 22 7 23 9 24
REMARK SMILES IDX 93 25 3 26 2 27 1 28 94 29 95 30 96 31 20 34 21 35 22 36
REMARK SMILES IDX 23 37 24 39 25 40 26 41 87 42 27 43 86 44 28 45 29 46 30 47
REMARK SMILES IDX 80 48 31 49 85 50 79 51 81 52 32 53 84 54 78 55 77 56 33 58
REMARK SMILES IDX 65 59 45 60 64 61 46 62 49 63 63 64 82 65 47 66 48 67 62 69
REMARK SMILES IDX 83 70 50 71 34 72 35 73 43 74 36 75 42 76 44 77 41 78 37 79
REMARK SMILES IDX 38 80 39 81 40 82 66 83 67 84 75 85 68 86 74 87 76 88 73 89
REMARK SMILES IDX 69 90 70 91 71 92 72 93 51 94 52 95 60 96 53 97 59 98 61 99
REMARK SMILES IDX 58 100 54 101 55 102 56 103 57 104
REMARK H PARENT 18 5 11 15 95 32 95 33 22 38 81 57 49 68
REMARK Flexibility Score: inf
ROOT
ATOM      1  C   UNL A   1      32.597  26.971  25.816  1.00  0.00     0.117 C 
ENDROOT
BRANCH   1   2
ATOM      2  N   UNL A   1      32.476  25.637  26.376  1.00  0.00    -0.356 N 
ATOM      3  C   UNL A   1      33.123  24.497  26.003  1.00  0.00     0.226 C 
ATOM      4  O   UNL A   1      32.932  23.475  26.657  1.00  0.00    -0.275 OA
ATOM      5  H   UNL A   1      31.843  25.544  27.124  1.00  0.00     0.163 HD
BRANCH   3   6
ATOM      6  C   UNL A   1      34.066  24.562  24.818  1.00  0.00     0.122 C 
ATOM      7  C   UNL A   1      33.832  23.566  23.677  1.00  0.00     0.123 C 
ATOM      8  C   UNL A   1      35.035  22.635  23.829  1.00  0.00     0.132 C 
ATOM      9  C   UNL A   1      35.528  24.246  25.199  1.00  0.00     0.132 C 
ATOM     10  C   UNL A   1      35.161  21.918  25.178  1.00  0.00     0.035 C 
ATOM     11  O   UNL A   1      36.060  23.661  23.976  1.00  0.00    -0.373 OA
ATOM     12  C   UNL A   1      35.644  23.032  26.108  1.00  0.00     0.035 C 
BRANCH   7  13
ATOM     13  C   UNL A   1      32.500  22.894  23.496  1.00  0.00     0.231 C 
ATOM     14  N   UNL A   1      31.368  23.600  23.210  1.00  0.00    -0.317 N 
ATOM     15  H   UNL A   1      30.560  23.037  23.195  1.00  0.00     0.170 HD
ATOM     16  O   UNL A   1      32.405  21.663  23.558  1.00  0.00    -0.274 OA
BRANCH  14  17
ATOM     17  C   UNL A   1      31.102  24.925  22.935  1.00  0.00     0.108 A 
ATOM     18  C   UNL A   1      28.978  29.320  22.861  1.00  0.00    -0.006 C 
ATOM     19  C   UNL A   1      30.475  29.692  22.716  1.00  0.00     0.009 C 
ATOM     20  C   UNL A   1      28.835  28.055  23.735  1.00  0.00     0.050 C 
ATOM     21  C   UNL A   1      31.296  28.589  22.039  1.00  0.00     0.038 C 
ATOM     22  C   UNL A   1      29.808  26.997  23.298  1.00  0.00     0.011 A 
ATOM     23  C   UNL A   1      30.934  27.217  22.536  1.00  0.00    -0.019 A 
ATOM     24  S   UNL A   1      29.637  25.368  23.724  1.00  0.00    -0.122 S 
ATOM     25  C   UNL A   1      31.623  25.984  22.206  1.00  0.00     0.077 A 
BRANCH  18  26
ATOM     26  C   UNL A   1      28.211  30.568  23.349  1.00  0.00     0.004 C 
BRANCH  26  27
ATOM     27  C   UNL A   1      28.051  31.748  22.389  1.00  0.00    -0.003 C 
ATOM     28  C   UNL A   1      28.777  33.006  22.848  1.00  0.00     0.004 C 
ENDBRANCH  26  27
ENDBRANCH  18  26
BRANCH  25  29
ATOM     29  C   UNL A   1      32.677  25.974  21.206  1.00  0.00     0.251 C 
ATOM     30  N   UNL A   1      32.279  25.658  19.942  1.00  0.00    -0.365 N 
ATOM     31  O   UNL A   1      33.837  26.303  21.437  1.00  0.00    -0.269 OA
ATOM     32  H   UNL A   1      31.345  25.396  19.771  1.00  0.00     0.159 HD
ATOM     33  H   UNL A   1      32.924  25.693  19.199  1.00  0.00     0.159 HD
ENDBRANCH  25  29
ENDBRANCH  14  17
ENDBRANCH   7  13
ENDBRANCH   3   6
ENDBRANCH   1   2
BRANCH   1  34
ATOM     34  C   UNL A   1      33.241  27.962  26.771  1.00  0.00     0.042 C 
BRANCH  34  35
ATOM     35  C   UNL A   1      34.003  29.096  26.102  1.00  0.00     0.118 C 
BRANCH  35  36
ATOM     36  N   UNL A   1      33.726  30.401  26.682  1.00  0.00    -0.352 N 
ATOM     37  C   UNL A   1      34.398  31.089  27.662  1.00  0.00     0.251 C 
ATOM     38  H   UNL A   1      32.937  30.861  26.315  1.00  0.00     0.163 HD
ATOM     39  O   UNL A   1      33.910  32.123  28.109  1.00  0.00    -0.269 OA
BRANCH  37  40
ATOM     40  C   UNL A   1      35.678  30.574  28.199  1.00  0.00     0.039 A 
ATOM     41  C   UNL A   1      35.650  29.705  29.293  1.00  0.00     0.014 A 
ATOM     42  C   UNL A   1      36.903  30.951  27.642  1.00  0.00     0.014 A 
ATOM     43  C   UNL A   1      36.843  29.175  29.790  1.00  0.00     0.010 A 
ATOM     44  C   UNL A   1      38.080  30.347  28.075  1.00  0.00     0.010 A 
ATOM     45  C   UNL A   1      38.066  29.469  29.167  1.00  0.00    -0.014 A 
BRANCH  45  46
ATOM     46  C   UNL A   1      39.348  28.918  29.680  1.00  0.00     0.031 A 
ATOM     47  C   UNL A   1      40.022  29.572  30.860  1.00  0.00     0.074 A 
ATOM     48  C   UNL A   1      39.931  27.873  29.061  1.00  0.00     0.049 A 
ATOM     49  N   UNL A   1      41.176  29.301  31.413  1.00  0.00    -0.248 NA
ATOM     50  C   UNL A   1      39.316  30.708  31.472  1.00  0.00     0.031 C 
ATOM     51  C   UNL A   1      39.401  27.184  27.881  1.00  0.00     0.029 A 
ATOM     52  N   UNL A   1      41.101  27.209  29.332  1.00  0.00    -0.354 N 
ATOM     53  C   UNL A   1      41.344  30.246  32.420  1.00  0.00     0.074 A 
ATOM     54  C   UNL A   1      40.208  31.139  32.350  1.00  0.00     0.031 C 
ATOM     55  C   UNL A   1      40.227  26.179  27.551  1.00  0.00     0.029 A 
ATOM     56  C   UNL A   1      41.364  26.173  28.466  1.00  0.00     0.049 A 
ATOM     57  H   UNL A   1      41.696  27.452  30.077  1.00  0.00     0.167 HD
ATOM     58  C   UNL A   1      42.337  30.344  33.340  1.00  0.00     0.034 A 
ATOM     59  C   UNL A   1      42.405  25.319  28.415  1.00  0.00     0.034 A 
ATOM     60  C   UNL A   1      43.451  29.429  33.411  1.00  0.00     0.049 A 
ATOM     61  C   UNL A   1      43.490  25.435  29.456  1.00  0.00     0.074 A 
ATOM     62  C   UNL A   1      44.494  29.406  34.320  1.00  0.00     0.029 A 
ATOM     63  N   UNL A   1      43.664  28.368  32.538  1.00  0.00    -0.354 N 
ATOM     64  N   UNL A   1      43.616  26.309  30.428  1.00  0.00    -0.248 NA
ATOM     65  C   UNL A   1      44.560  24.431  29.407  1.00  0.00     0.031 C 
ATOM     66  C   UNL A   1      45.365  28.369  33.964  1.00  0.00     0.029 A 
ATOM     67  C   UNL A   1      44.827  27.696  32.880  1.00  0.00     0.049 A 
ATOM     68  H   UNL A   1      43.075  28.130  31.787  1.00  0.00     0.167 HD
ATOM     69  C   UNL A   1      44.758  25.933  31.131  1.00  0.00     0.074 A 
ATOM     70  C   UNL A   1      45.272  24.747  30.478  1.00  0.00     0.031 C 
ATOM     71  C   UNL A   1      45.328  26.512  32.220  1.00  0.00     0.034 A 
BRANCH  58  72
ATOM     72  C   UNL A   1      42.263  31.493  34.320  1.00  0.00     0.023 A 
ATOM     73  C   UNL A   1      41.400  31.461  35.430  1.00  0.00     0.031 A 
ATOM     74  C   UNL A   1      43.028  32.654  34.117  1.00  0.00     0.131 A 
ATOM     75  C   UNL A   1      41.255  32.599  36.238  1.00  0.00     0.055 A 
ATOM     76  C   UNL A   1      42.947  33.751  34.980  1.00  0.00     0.041 A 
ATOM     77  F   UNL A   1      43.854  32.756  33.064  1.00  0.00    -0.206 F 
ATOM     78  C   UNL A   1      42.043  33.734  36.038  1.00  0.00     0.022 A 
BRANCH  75  79
ATOM     79  S   UNL A   1      39.908  32.630  37.453  1.00  0.00     0.124 S 
ATOM     80  O   UNL A   1      40.634  32.412  38.702  1.00  0.00    -0.237 OA
ATOM     81  O   UNL A   1      39.343  33.961  37.265  1.00  0.00    -0.237 OA
ATOM     82  O   UNL A   1      39.049  31.522  37.038  1.00  0.00    -0.744 OA
ENDBRANCH  75  79
ENDBRANCH  58  72
BRANCH  59  83
ATOM     83  C   UNL A   1      42.475  24.270  27.356  1.00  0.00     0.023 A 
ATOM     84  C   UNL A   1      41.659  23.130  27.413  1.00  0.00     0.031 A 
ATOM     85  C   UNL A   1      43.394  24.371  26.297  1.00  0.00     0.131 A 
ATOM     86  C   UNL A   1      41.813  22.109  26.462  1.00  0.00     0.055 A 
ATOM     87  C   UNL A   1      43.507  23.378  25.322  1.00  0.00     0.041 A 
ATOM     88  F   UNL A   1      44.192  25.445  26.189  1.00  0.00    -0.206 F 
ATOM     89  C   UNL A   1      42.723  22.231  25.410  1.00  0.00     0.022 A 
BRANCH  86  90
ATOM     90  S   UNL A   1      40.867  20.576  26.672  1.00  0.00     0.124 S 
ATOM     91  O   UNL A   1      39.578  20.940  26.095  1.00  0.00    -0.237 OA
ATOM     92  O   UNL A   1      41.665  19.622  25.909  1.00  0.00    -0.237 OA
ATOM     93  O   UNL A   1      40.869  20.371  28.118  1.00  0.00    -0.744 OA
ENDBRANCH  86  90
ENDBRANCH  59  83
BRANCH  71  94
ATOM     94  C   UNL A   1      46.536  25.822  32.806  1.00  0.00     0.023 A 
ATOM     95  C   UNL A   1      47.836  26.054  32.322  1.00  0.00     0.031 A 
ATOM     96  C   UNL A   1      46.376  24.889  33.847  1.00  0.00     0.131 A 
ATOM     97  C   UNL A   1      48.912  25.308  32.826  1.00  0.00     0.055 A 
ATOM     98  C   UNL A   1      47.460  24.201  34.391  1.00  0.00     0.041 A 
ATOM     99  F   UNL A   1      45.158  24.627  34.348  1.00  0.00    -0.206 F 
ATOM    100  C   UNL A   1      48.735  24.395  33.868  1.00  0.00     0.022 A 
BRANCH  97 101
ATOM    101  S   UNL A   1      50.528  25.459  32.016  1.00  0.00     0.124 S 
ATOM    102  O   UNL A   1      50.649  24.174  31.336  1.00  0.00    -0.237 OA
ATOM    103  O   UNL A   1      50.337  26.621  31.154  1.00  0.00    -0.237 OA
ATOM    104  O   UNL A   1      51.453  25.659  33.130  1.00  0.00    -0.744 OA
ENDBRANCH  97 101
ENDBRANCH  71  94
ENDBRANCH  45  46
ENDBRANCH  37  40
ENDBRANCH  35  36
ENDBRANCH  34  35
ENDBRANCH   1  34
TORSDOF 18
ENDMDL
MODEL 2
REMARK VINA RESULT:     -12.4      2.295      2.807
REMARK SMILES CCC[C@H]1CCc2c(sc(NC(=O)[C@H]3[C@@H](C(=O)NCCCNC(=O)c4ccc(-c5c6nc(c(-c7cc(S(=O)(=O)[O-])ccc7F)c7ccc([nH]7)c(-c7cc(S(=O)(=O)[O-])ccc7F)c7nc(c(-c8cc(S(=O)(=O)[O-])ccc8F)c8ccc5[nH]8)C=C7)C=C6)cc4)[C@H]4CC[C@@H]3O4)c2C(N)=O)C1
REMARK SMILES IDX 19 1 18 2 16 3 17 4 15 6 14 7 91 8 88 9 90 10 92 11 89 12
REMARK SMILES IDX 12 13 11 14 13 16 10 17 4 18 5 19 97 20 6 21 8 22 7 23 9 24
REMARK SMILES IDX 93 25 3 26 2 27 1 28 94 29 95 30 96 31 20 34 21 35 22 36
REMARK SMILES IDX 23 37 24 39 25 40 26 41 87 42 27 43 86 44 28 45 29 46 30 47
REMARK SMILES IDX 80 48 31 49 85 50 79 51 81 52 32 53 84 54 78 55 77 56 33 58
REMARK SMILES IDX 65 59 45 60 64 61 46 62 49 63 63 64 82 65 47 66 48 67 62 69
REMARK SMILES IDX 83 70 50 71 34 72 35 73 43 74 36 75 42 76 44 77 41 78 37 79
REMARK SMILES IDX 38 80 39 81 40 82 66 83 67 84 75 85 68 86 74 87 76 88 73 89
REMARK SMILES IDX 69 90 70 91 71 92 72 93 51 94 52 95 60 96 53 97 59 98 61 99
REMARK SMILES IDX 58 100 54 101 55 102 56 103 57 104
REMARK H PARENT 18 5 11 15 95 32 95 33 22 38 81 57 49 68
REMARK Flexibility Score: inf
ROOT
ATOM      1  C   UNL A   1      33.623  27.011  26.122  1.00  0.00     0.117 C 
ENDROOT
BRANCH   1   2
ATOM      2  N   UNL A   1      32.920  25.764  26.365  1.00  0.00    -0.356 N 
ATOM      3  C   UNL A   1      33.092  24.559  25.753  1.00  0.00     0.226 C 
ATOM      4  O   UNL A   1      32.440  23.599  26.157  1.00  0.00    -0.275 OA
ATOM      5  H   UNL A   1      32.228  25.794  27.065  1.00  0.00     0.163 HD
BRANCH   3   6
ATOM      6  C   UNL A   1      34.101  24.463  24.626  1.00  0.00     0.122 C 
ATOM      7  C   UNL A   1      33.892  23.357  23.586  1.00  0.00     0.123 C 
ATOM      8  C   UNL A   1      35.047  22.409  23.908  1.00  0.00     0.132 C 
ATOM      9  C   UNL A   1      35.525  24.143  25.125  1.00  0.00     0.132 C 
ATOM     10  C   UNL A   1      35.070  21.840  25.331  1.00  0.00     0.035 C 
ATOM     11  O   UNL A   1      36.102  23.410  24.005  1.00  0.00    -0.373 OA
ATOM     12  C   UNL A   1      35.544  23.031  26.163  1.00  0.00     0.035 C 
BRANCH   7  13
ATOM     13  C   UNL A   1      32.546  22.714  23.399  1.00  0.00     0.231 C 
ATOM     14  N   UNL A   1      31.424  23.447  23.148  1.00  0.00    -0.317 N 
ATOM     15  H   UNL A   1      30.606  22.899  23.125  1.00  0.00     0.170 HD
ATOM     16  O   UNL A   1      32.432  21.483  23.423  1.00  0.00    -0.274 OA
BRANCH  14  17
ATOM     17  C   UNL A   1      31.178  24.784  22.918  1.00  0.00     0.108 A 
ATOM     18  C   UNL A   1      29.105  29.204  22.970  1.00  0.00    -0.006 C 
ATOM     19  C   UNL A   1      30.608  29.563  22.865  1.00  0.00     0.009 C 
ATOM     20  C   UNL A   1      28.932  27.909  23.794  1.00  0.00     0.050 C 
ATOM     21  C   UNL A   1      31.428  28.476  22.162  1.00  0.00     0.038 C 
ATOM     22  C   UNL A   1      29.901  26.857  23.335  1.00  0.00     0.011 A 
ATOM     23  C   UNL A   1      31.042  27.091  22.602  1.00  0.00    -0.019 A 
ATOM     24  S   UNL A   1      29.703  25.216  23.697  1.00  0.00    -0.122 S 
ATOM     25  C   UNL A   1      31.724  25.864  22.238  1.00  0.00     0.077 A 
BRANCH  18  26
ATOM     26  C   UNL A   1      28.342  30.442  23.491  1.00  0.00     0.004 C 
BRANCH  26  27
ATOM     27  C   UNL A   1      27.956  31.533  22.492  1.00  0.00    -0.003 C 
ATOM     28  C   UNL A   1      28.770  32.812  22.645  1.00  0.00     0.004 C 
ENDBRANCH  26  27
ENDBRANCH  18  26
BRANCH  25  29
ATOM     29  C   UNL A   1      32.795  25.878  21.257  1.00  0.00     0.251 C 
ATOM     30  N   UNL A   1      32.422  25.580  19.981  1.00  0.00    -0.365 N 
ATOM     31  O   UNL A   1      33.948  26.211  21.513  1.00  0.00    -0.269 OA
ATOM     32  H   UNL A   1      31.493  25.314  19.789  1.00  0.00     0.159 HD
ATOM     33  H   UNL A   1      33.079  25.632  19.250  1.00  0.00     0.159 HD
ENDBRANCH  25  29
ENDBRANCH  14  17
ENDBRANCH   7  13
ENDBRANCH   3   6
ENDBRANCH   1   2
BRANCH   1  34
ATOM     34  C   UNL A   1      32.700  28.144  25.709  1.00  0.00     0.042 C 
BRANCH  34  35
ATOM     35  C   UNL A   1      33.405  29.402  25.225  1.00  0.00     0.118 C 
BRANCH  35  36
ATOM     36  N   UNL A   1      32.842  30.628  25.771  1.00  0.00    -0.352 N 
ATOM     37  C   UNL A   1      33.201  31.340  26.890  1.00  0.00     0.251 C 
ATOM     38  H   UNL A   1      32.089  31.004  25.262  1.00  0.00     0.163 HD
ATOM     39  O   UNL A   1      32.498  32.278  27.254  1.00  0.00    -0.269 OA
BRANCH  37  40
ATOM     40  C   UNL A   1      34.404  30.962  27.666  1.00  0.00     0.039 A 
ATOM     41  C   UNL A   1      34.425  29.725  28.316  1.00  0.00     0.014 A 
ATOM     42  C   UNL A   1      35.501  31.821  27.771  1.00  0.00     0.014 A 
ATOM     43  C   UNL A   1      35.565  29.330  29.021  1.00  0.00     0.010 A 
ATOM     44  C   UNL A   1      36.669  31.386  28.390  1.00  0.00     0.010 A 
ATOM     45  C   UNL A   1      36.708  30.146  29.041  1.00  0.00    -0.014 A 
BRANCH  45  46
ATOM     46  C   UNL A   1      37.930  29.747  29.786  1.00  0.00     0.031 A 
ATOM     47  C   UNL A   1      38.178  30.303  31.165  1.00  0.00     0.074 A 
ATOM     48  C   UNL A   1      38.838  28.935  29.210  1.00  0.00     0.049 A 
ATOM     49  N   UNL A   1      39.212  30.148  31.950  1.00  0.00    -0.248 NA
ATOM     50  C   UNL A   1      37.135  31.185  31.713  1.00  0.00     0.031 C 
ATOM     51  C   UNL A   1      38.735  28.368  27.863  1.00  0.00     0.029 A 
ATOM     52  N   UNL A   1      40.031  28.447  29.682  1.00  0.00    -0.354 N 
ATOM     53  C   UNL A   1      38.955  30.929  33.073  1.00  0.00     0.074 A 
ATOM     54  C   UNL A   1      37.703  31.612  32.830  1.00  0.00     0.031 C 
ATOM     55  C   UNL A   1      39.803  27.589  27.630  1.00  0.00     0.029 A 
ATOM     56  C   UNL A   1      40.687  27.629  28.791  1.00  0.00     0.049 A 
ATOM     57  H   UNL A   1      40.384  28.662  30.574  1.00  0.00     0.167 HD
ATOM     58  C   UNL A   1      39.680  31.043  34.215  1.00  0.00     0.034 A 
ATOM     59  C   UNL A   1      41.867  26.988  28.898  1.00  0.00     0.034 A 
ATOM     60  C   UNL A   1      40.915  30.335  34.451  1.00  0.00     0.049 A 
ATOM     61  C   UNL A   1      42.648  27.115  30.182  1.00  0.00     0.074 A 
ATOM     62  C   UNL A   1      41.714  30.343  35.581  1.00  0.00     0.029 A 
ATOM     63  N   UNL A   1      41.529  29.486  33.538  1.00  0.00    -0.354 N 
ATOM     64  N   UNL A   1      42.373  27.826  31.252  1.00  0.00    -0.248 NA
ATOM     65  C   UNL A   1      43.887  26.333  30.281  1.00  0.00     0.031 C 
ATOM     66  C   UNL A   1      42.837  29.545  35.331  1.00  0.00     0.029 A 
ATOM     67  C   UNL A   1      42.702  28.977  34.075  1.00  0.00     0.049 A 
ATOM     68  H   UNL A   1      41.182  29.277  32.641  1.00  0.00     0.167 HD
ATOM     69  C   UNL A   1      43.385  27.542  32.166  1.00  0.00     0.074 A 
ATOM     70  C   UNL A   1      44.264  26.586  31.524  1.00  0.00     0.031 C 
ATOM     71  C   UNL A   1      43.569  28.023  33.423  1.00  0.00     0.034 A 
BRANCH  58  72
ATOM     72  C   UNL A   1      39.156  31.985  35.276  1.00  0.00     0.023 A 
ATOM     73  C   UNL A   1      39.595  33.318  35.362  1.00  0.00     0.031 A 
ATOM     74  C   UNL A   1      38.241  31.532  36.242  1.00  0.00     0.131 A 
ATOM     75  C   UNL A   1      39.193  34.121  36.440  1.00  0.00     0.055 A 
ATOM     76  C   UNL A   1      37.773  32.366  37.262  1.00  0.00     0.041 A 
ATOM     77  F   UNL A   1      37.800  30.265  36.228  1.00  0.00    -0.206 F 
ATOM     78  C   UNL A   1      38.263  33.664  37.375  1.00  0.00     0.022 A 
BRANCH  75  79
ATOM     79  S   UNL A   1      40.028  35.712  36.691  1.00  0.00     0.124 S 
ATOM     80  O   UNL A   1      41.426  35.299  36.779  1.00  0.00    -0.237 OA
ATOM     81  O   UNL A   1      39.655  36.457  35.494  1.00  0.00    -0.237 OA
ATOM     82  O   UNL A   1      39.452  36.208  37.940  1.00  0.00    -0.744 OA
ENDBRANCH  75  79
ENDBRANCH  58  72
BRANCH  59  83
ATOM     83  C   UNL A   1      42.384  26.155  27.773  1.00  0.00     0.023 A 
ATOM     84  C   UNL A   1      41.942  24.836  27.586  1.00  0.00     0.031 A 
ATOM     85  C   UNL A   1      43.362  26.653  26.894  1.00  0.00     0.131 A 
ATOM     86  C   UNL A   1      42.515  24.040  26.583  1.00  0.00     0.055 A 
ATOM     87  C   UNL A   1      43.891  25.874  25.864  1.00  0.00     0.041 A 
ATOM     88  F   UNL A   1      43.813  27.911  27.022  1.00  0.00    -0.206 F 
ATOM     89  C   UNL A   1      43.479  24.554  25.713  1.00  0.00     0.022 A 
BRANCH  86  90
ATOM     90  S   UNL A   1      42.047  22.290  26.489  1.00  0.00     0.124 S 
ATOM     91  O   UNL A   1      40.591  22.371  26.499  1.00  0.00    -0.237 OA
ATOM     92  O   UNL A   1      42.659  21.881  25.229  1.00  0.00    -0.237 OA
ATOM     93  O   UNL A   1      42.649  21.712  27.688  1.00  0.00    -0.744 OA
ENDBRANCH  86  90
ENDBRANCH  59  83
BRANCH  71  94
ATOM     94  C   UNL A   1      44.735  27.464  34.204  1.00  0.00     0.023 A 
ATOM     95  C   UNL A   1      44.609  26.321  35.014  1.00  0.00     0.031 A 
ATOM     96  C   UNL A   1      45.984  28.109  34.161  1.00  0.00     0.131 A 
ATOM     97  C   UNL A   1      45.691  25.904  35.805  1.00  0.00     0.055 A 
ATOM     98  C   UNL A   1      47.075  27.649  34.897  1.00  0.00     0.041 A 
ATOM     99  F   UNL A   1      46.161  29.205  33.404  1.00  0.00    -0.206 F 
ATOM    100  C   UNL A   1      46.928  26.551  35.739  1.00  0.00     0.022 A 
BRANCH  97 101
ATOM    101  S   UNL A   1      45.423  24.579  37.014  1.00  0.00     0.124 S 
ATOM    102  O   UNL A   1      44.115  24.926  37.561  1.00  0.00    -0.237 OA
ATOM    103  O   UNL A   1      45.467  23.383  36.179  1.00  0.00    -0.237 OA
ATOM    104  O   UNL A   1      46.542  24.729  37.942  1.00  0.00    -0.744 OA
ENDBRANCH  97 101
ENDBRANCH  71  94
ENDBRANCH  45  46
ENDBRANCH  37  40
ENDBRANCH  35  36
ENDBRANCH  34  35
ENDBRANCH   1  34
TORSDOF 18
ENDMDL
MODEL 3
REMARK VINA RESULT:     -12.2      1.794      2.027
REMARK SMILES CCC[C@H]1CCc2c(sc(NC(=O)[C@H]3[C@@H](C(=O)NCCCNC(=O)c4ccc(-c5c6nc(c(-c7cc(S(=O)(=O)[O-])ccc7F)c7ccc([nH]7)c(-c7cc(S(=O)(=O)[O-])ccc7F)c7nc(c(-c8cc(S(=O)(=O)[O-])ccc8F)c8ccc5[nH]8)C=C7)C=C6)cc4)[C@H]4CC[C@@H]3O4)c2C(N)=O)C1
REMARK SMILES IDX 19 1 18 2 16 3 17 4 15 6 14 7 91 8 88 9 90 10 92 11 89 12
REMARK SMILES IDX 12 13 11 14 13 16 10 17 4 18 5 19 97 20 6 21 8 22 7 23 9 24
REMARK SMILES IDX 93 25 3 26 2 27 1 28 94 29 95 30 96 31 20 34 21 35 22 36
REMARK SMILES IDX 23 37 24 39 25 40 26 41 87 42 27 43 86 44 28 45 29 46 30 47
REMARK SMILES IDX 80 48 31 49 85 50 79 51 81 52 32 53 84 54 78 55 77 56 33 58
REMARK SMILES IDX 65 59 45 60 64 61 46 62 49 63 63 64 82 65 47 66 48 67 62 69
REMARK SMILES IDX 83 70 50 71 34 72 35 73 43 74 36 75 42 76 44 77 41 78 37 79
REMARK SMILES IDX 38 80 39 81 40 82 66 83 67 84 75 85 68 86 74 87 76 88 73 89
REMARK SMILES IDX 69 90 70 91 71 92 72 93 51 94 52 95 60 96 53 97 59 98 61 99
REMARK SMILES IDX 58 100 54 101 55 102 56 103 57 104
REMARK H PARENT 18 5 11 15 95 32 95 33 22 38 81 57 49 68
REMARK Flexibility Score: inf
ROOT
ATOM      1  C   UNL A   1      31.844  26.916  26.062  1.00  0.00     0.117 C 
ENDROOT
BRANCH   1   2
ATOM      2  N   UNL A   1      31.735  25.575  26.606  1.00  0.00    -0.356 N 
ATOM      3  C   UNL A   1      32.487  24.475  26.313  1.00  0.00     0.226 C 
ATOM      4  O   UNL A   1      32.279  23.440  26.942  1.00  0.00    -0.275 OA
ATOM      5  H   UNL A   1      31.025  25.441  27.274  1.00  0.00     0.163 HD
BRANCH   3   6
ATOM      6  C   UNL A   1      33.558  24.601  25.249  1.00  0.00     0.122 C 
ATOM      7  C   UNL A   1      33.457  23.670  24.035  1.00  0.00     0.123 C 
ATOM      8  C   UNL A   1      34.637  22.727  24.272  1.00  0.00     0.132 C 
ATOM      9  C   UNL A   1      34.967  24.258  25.775  1.00  0.00     0.132 C 
ATOM     10  C   UNL A   1      34.610  21.937  25.585  1.00  0.00     0.035 C 
ATOM     11  O   UNL A   1      35.637  23.739  24.590  1.00  0.00    -0.373 OA
ATOM     12  C   UNL A   1      34.983  22.996  26.623  1.00  0.00     0.035 C 
BRANCH   7  13
ATOM     13  C   UNL A   1      32.155  23.014  23.668  1.00  0.00     0.231 C 
ATOM     14  N   UNL A   1      31.079  23.735  23.238  1.00  0.00    -0.317 N 
ATOM     15  H   UNL A   1      30.275  23.182  23.108  1.00  0.00     0.170 HD
ATOM     16  O   UNL A   1      32.041  21.784  23.704  1.00  0.00    -0.274 OA
BRANCH  14  17
ATOM     17  C   UNL A   1      30.867  25.066  22.943  1.00  0.00     0.108 A 
ATOM     18  C   UNL A   1      28.857  29.509  22.704  1.00  0.00    -0.006 C 
ATOM     19  C   UNL A   1      30.369  29.845  22.676  1.00  0.00     0.009 C 
ATOM     20  C   UNL A   1      28.617  28.248  23.564  1.00  0.00     0.050 C 
ATOM     21  C   UNL A   1      31.214  28.722  22.065  1.00  0.00     0.038 C 
ATOM     22  C   UNL A   1      29.597  27.168  23.204  1.00  0.00     0.011 A 
ATOM     23  C   UNL A   1      30.783  27.360  22.532  1.00  0.00    -0.019 A 
ATOM     24  S   UNL A   1      29.355  25.544  23.616  1.00  0.00    -0.122 S 
ATOM     25  C   UNL A   1      31.467  26.111  22.256  1.00  0.00     0.077 A 
BRANCH  18  26
ATOM     26  C   UNL A   1      28.083  30.774  23.131  1.00  0.00     0.004 C 
BRANCH  26  27
ATOM     27  C   UNL A   1      28.541  32.128  22.584  1.00  0.00    -0.003 C 
ATOM     28  C   UNL A   1      28.018  32.425  21.185  1.00  0.00     0.004 C 
ENDBRANCH  26  27
ENDBRANCH  18  26
BRANCH  25  29
ATOM     29  C   UNL A   1      32.595  26.075  21.341  1.00  0.00     0.251 C 
ATOM     30  N   UNL A   1      32.297  25.714  20.062  1.00  0.00    -0.365 N 
ATOM     31  O   UNL A   1      33.732  26.419  21.650  1.00  0.00    -0.269 OA
ATOM     32  H   UNL A   1      31.380  25.441  19.829  1.00  0.00     0.159 HD
ATOM     33  H   UNL A   1      32.997  25.729  19.370  1.00  0.00     0.159 HD
ENDBRANCH  25  29
ENDBRANCH  14  17
ENDBRANCH   7  13
ENDBRANCH   3   6
ENDBRANCH   1   2
BRANCH   1  34
ATOM     34  C   UNL A   1      32.178  27.960  27.114  1.00  0.00     0.042 C 
BRANCH  34  35
ATOM     35  C   UNL A   1      33.549  28.602  26.968  1.00  0.00     0.118 C 
BRANCH  35  36
ATOM     36  N   UNL A   1      33.526  30.051  27.094  1.00  0.00    -0.352 N 
ATOM     37  C   UNL A   1      34.430  30.898  27.691  1.00  0.00     0.251 C 
ATOM     38  H   UNL A   1      32.745  30.493  26.692  1.00  0.00     0.163 HD
ATOM     39  O   UNL A   1      34.147  32.086  27.812  1.00  0.00    -0.269 OA
BRANCH  37  40
ATOM     40  C   UNL A   1      35.715  30.378  28.211  1.00  0.00     0.039 A 
ATOM     41  C   UNL A   1      35.741  29.792  29.480  1.00  0.00     0.014 A 
ATOM     42  C   UNL A   1      36.893  30.477  27.466  1.00  0.00     0.014 A 
ATOM     43  C   UNL A   1      36.935  29.260  29.974  1.00  0.00     0.010 A 
ATOM     44  C   UNL A   1      38.056  29.859  27.917  1.00  0.00     0.010 A 
ATOM     45  C   UNL A   1      38.096  29.263  29.185  1.00  0.00    -0.014 A 
BRANCH  45  46
ATOM     46  C   UNL A   1      39.377  28.703  29.691  1.00  0.00     0.031 A 
ATOM     47  C   UNL A   1      40.021  29.305  30.914  1.00  0.00     0.074 A 
ATOM     48  C   UNL A   1      39.985  27.700  29.029  1.00  0.00     0.049 A 
ATOM     49  N   UNL A   1      41.170  29.021  31.472  1.00  0.00    -0.248 NA
ATOM     50  C   UNL A   1      39.289  30.398  31.571  1.00  0.00     0.031 C 
ATOM     51  C   UNL A   1      39.484  27.065  27.807  1.00  0.00     0.029 A 
ATOM     52  N   UNL A   1      41.160  27.039  29.286  1.00  0.00    -0.354 N 
ATOM     53  C   UNL A   1      41.307  29.915  32.530  1.00  0.00     0.074 A 
ATOM     54  C   UNL A   1      40.160  30.795  32.486  1.00  0.00     0.031 C 
ATOM     55  C   UNL A   1      40.331  26.090  27.439  1.00  0.00     0.029 A 
ATOM     56  C   UNL A   1      41.452  26.053  28.372  1.00  0.00     0.049 A 
ATOM     57  H   UNL A   1      41.739  27.251  30.052  1.00  0.00     0.167 HD
ATOM     58  C   UNL A   1      42.284  29.979  33.470  1.00  0.00     0.034 A 
ATOM     59  C   UNL A   1      42.506  25.217  28.296  1.00  0.00     0.034 A 
ATOM     60  C   UNL A   1      43.410  29.076  33.514  1.00  0.00     0.049 A 
ATOM     61  C   UNL A   1      43.572  25.293  29.361  1.00  0.00     0.074 A 
ATOM     62  C   UNL A   1      44.437  29.021  34.439  1.00  0.00     0.029 A 
ATOM     63  N   UNL A   1      43.652  28.065  32.591  1.00  0.00    -0.354 N 
ATOM     64  N   UNL A   1      43.668  26.118  30.378  1.00  0.00    -0.248 NA
ATOM     65  C   UNL A   1      44.657  24.307  29.279  1.00  0.00     0.031 C 
ATOM     66  C   UNL A   1      45.329  28.016  34.045  1.00  0.00     0.029 A 
ATOM     67  C   UNL A   1      44.819  27.392  32.918  1.00  0.00     0.049 A 
ATOM     68  H   UNL A   1      43.079  27.858  31.819  1.00  0.00     0.167 HD
ATOM     69  C   UNL A   1      44.804  25.721  31.080  1.00  0.00     0.074 A 
ATOM     70  C   UNL A   1      45.346  24.577  30.376  1.00  0.00     0.031 C 
ATOM     71  C   UNL A   1      45.347  26.251  32.207  1.00  0.00     0.034 A 
BRANCH  58  72
ATOM     72  C   UNL A   1      42.176  31.074  34.506  1.00  0.00     0.023 A 
ATOM     73  C   UNL A   1      42.716  32.354  34.286  1.00  0.00     0.031 A 
ATOM     74  C   UNL A   1      41.569  30.824  35.749  1.00  0.00     0.131 A 
ATOM     75  C   UNL A   1      42.720  33.302  35.322  1.00  0.00     0.055 A 
ATOM     76  C   UNL A   1      41.495  31.803  36.744  1.00  0.00     0.041 A 
ATOM     77  F   UNL A   1      41.054  29.617  36.030  1.00  0.00    -0.206 F 
ATOM     78  C   UNL A   1      42.088  33.046  36.539  1.00  0.00     0.022 A 
BRANCH  75  79
ATOM     79  S   UNL A   1      43.704  34.811  35.107  1.00  0.00     0.124 S 
ATOM     80  O   UNL A   1      44.229  35.013  36.456  1.00  0.00    -0.237 OA
ATOM     81  O   UNL A   1      44.675  34.415  34.095  1.00  0.00    -0.237 OA
ATOM     82  O   UNL A   1      42.719  35.803  34.675  1.00  0.00    -0.744 OA
ENDBRANCH  75  79
ENDBRANCH  58  72
BRANCH  59  83
ATOM     83  C   UNL A   1      42.609  24.225  27.186  1.00  0.00     0.023 A 
ATOM     84  C   UNL A   1      41.983  22.971  27.276  1.00  0.00     0.031 A 
ATOM     85  C   UNL A   1      43.374  24.498  26.039  1.00  0.00     0.131 A 
ATOM     86  C   UNL A   1      42.177  22.017  26.265  1.00  0.00     0.055 A 
ATOM     87  C   UNL A   1      43.520  23.566  25.010  1.00  0.00     0.041 A 
ATOM     88  F   UNL A   1      43.986  25.685  25.897  1.00  0.00    -0.206 F 
ATOM     89  C   UNL A   1      42.932  22.310  25.128  1.00  0.00     0.022 A 
BRANCH  86  90
ATOM     90  S   UNL A   1      41.500  20.352  26.502  1.00  0.00     0.124 S 
ATOM     91  O   UNL A   1      40.066  20.615  26.533  1.00  0.00    -0.237 OA
ATOM     92  O   UNL A   1      41.999  19.652  25.323  1.00  0.00    -0.237 OA
ATOM     93  O   UNL A   1      42.084  19.924  27.771  1.00  0.00    -0.744 OA
ENDBRANCH  86  90
ENDBRANCH  59  83
BRANCH  71  94
ATOM     94  C   UNL A   1      46.556  25.548  32.778  1.00  0.00     0.023 A 
ATOM     95  C   UNL A   1      46.439  24.520  33.731  1.00  0.00     0.031 A 
ATOM     96  C   UNL A   1      47.848  25.938  32.384  1.00  0.00     0.131 A 
ATOM     97  C   UNL A   1      47.592  23.972  34.312  1.00  0.00     0.055 A 
ATOM     98  C   UNL A   1      48.991  25.342  32.916  1.00  0.00     0.041 A 
ATOM     99  F   UNL A   1      48.020  26.915  31.478  1.00  0.00    -0.206 F 
ATOM    100  C   UNL A   1      48.868  24.365  33.899  1.00  0.00     0.022 A 
BRANCH  97 101
ATOM    101  S   UNL A   1      47.402  22.825  35.705  1.00  0.00     0.124 S 
ATOM    102  O   UNL A   1      48.275  23.422  36.711  1.00  0.00    -0.237 OA
ATOM    103  O   UNL A   1      45.971  22.901  35.977  1.00  0.00    -0.237 OA
ATOM    104  O   UNL A   1      47.864  21.549  35.163  1.00  0.00    -0.744 OA
ENDBRANCH  97 101
ENDBRANCH  71  94
ENDBRANCH  45  46
ENDBRANCH  37  40
ENDBRANCH  35  36
ENDBRANCH  34  35
ENDBRANCH   1  34
TORSDOF 18
ENDMDL
