MODEL 1
REMARK VINA RESULT:     -11.0      0.000      0.000
REMARK SMILES C[C@H]([C@@H](C)O)[N@H+]1CC[C@@](C)(C(=O)NCCCNC(=O)c2ccc(-c3c4nc(c(-c5cc(S(=O)(=O)[O-])ccc5F)c5ccc([nH]5)c(-c5cc(S(=O)(=O)[O-])ccc5F)c5nc(c(-c6cc(S(=O)(=O)[O-])ccc6F)c6ccc3[nH]6)C=C5)C=C4)cc2)C1
REMARK SMILES IDX 15 1 14 2 13 3 11 4 12 5 9 7 6 8 7 9 83 10 8 12 10 13 2 14
REMARK SMILES IDX 1 15 3 16 4 17 5 18 16 20 17 21 18 22 19 24 20 25 21 26
REMARK SMILES IDX 82 27 22 28 81 29 23 30 24 31 25 32 75 33 26 34 80 35 74 36
REMARK SMILES IDX 76 37 27 38 79 39 73 40 72 41 28 43 60 44 40 45 59 46 41 47
REMARK SMILES IDX 44 48 58 49 77 50 42 51 43 52 57 54 78 55 45 56 29 57 30 58
REMARK SMILES IDX 38 59 31 60 37 61 39 62 36 63 32 64 33 65 34 66 35 67 61 68
REMARK SMILES IDX 62 69 70 70 63 71 69 72 71 73 68 74 64 75 65 76 66 77 67 78
REMARK SMILES IDX 46 79 47 80 55 81 48 82 54 83 56 84 53 85 49 86 50 87 51 88
REMARK SMILES IDX 52 89
REMARK H PARENT 13 6 6 11 5 19 17 23 76 42 44 53
REMARK Flexibility Score: inf
ROOT
ATOM      1  C   UNL A   1      31.908  31.522  26.568  1.00  0.00     0.042 C 
ENDROOT
BRANCH   1   2
ATOM      2  C   UNL A   1      32.151  30.030  26.360  1.00  0.00     0.117 C 
BRANCH   2   3
ATOM      3  N   UNL A   1      32.950  29.796  25.171  1.00  0.00    -0.355 N 
ATOM      4  C   UNL A   1      32.974  28.767  24.282  1.00  0.00     0.231 C 
ATOM      5  O   UNL A   1      33.833  28.849  23.400  1.00  0.00    -0.274 OA
ATOM      6  H   UNL A   1      33.592  30.515  24.971  1.00  0.00     0.163 HD
BRANCH   4   7
ATOM      7  C   UNL A   1      31.941  27.622  24.329  1.00  0.00     0.100 C 
ATOM      8  N   UNL A   1      29.939  27.897  22.980  1.00  0.00    -0.330 N 
ATOM      9  C   UNL A   1      31.021  27.470  22.113  1.00  0.00     0.263 C 
ATOM     10  C   UNL A   1      30.508  28.224  24.296  1.00  0.00     0.279 C 
ATOM     11  H   UNL A   1      29.300  27.105  23.055  1.00  0.00     0.348 HD
ATOM     12  C   UNL A   1      31.945  26.743  23.069  1.00  0.00     0.084 C 
ATOM     13  C   UNL A   1      32.172  26.806  25.614  1.00  0.00     0.028 C 
BRANCH   8  14
ATOM     14  C   UNL A   1      28.999  28.902  22.458  1.00  0.00     0.209 C 
ATOM     15  C   UNL A   1      29.810  30.075  21.884  1.00  0.00     0.078 C 
BRANCH  14  16
ATOM     16  C   UNL A   1      27.802  29.381  23.351  1.00  0.00     0.169 C 
ATOM     17  C   UNL A   1      27.515  30.882  23.413  1.00  0.00     0.045 C 
BRANCH  16  18
ATOM     18  O   UNL A   1      26.601  28.730  22.892  1.00  0.00    -0.387 OA
ATOM     19  H   UNL A   1      26.080  28.439  23.657  1.00  0.00     0.211 HD
ENDBRANCH  16  18
ENDBRANCH  14  16
ENDBRANCH   8  14
ENDBRANCH   4   7
ENDBRANCH   2   3
ENDBRANCH   1   2
BRANCH   1  20
ATOM     20  C   UNL A   1      33.066  32.230  27.265  1.00  0.00     0.118 C 
BRANCH  20  21
ATOM     21  N   UNL A   1      32.760  33.623  27.562  1.00  0.00    -0.352 N 
ATOM     22  C   UNL A   1      33.242  34.426  28.567  1.00  0.00     0.251 C 
ATOM     23  H   UNL A   1      32.113  34.050  26.955  1.00  0.00     0.163 HD
ATOM     24  O   UNL A   1      32.692  35.499  28.805  1.00  0.00    -0.269 OA
BRANCH  22  25
ATOM     25  C   UNL A   1      34.402  33.982  29.367  1.00  0.00     0.039 A 
ATOM     26  C   UNL A   1      34.199  33.130  30.454  1.00  0.00     0.014 A 
ATOM     27  C   UNL A   1      35.693  34.403  29.035  1.00  0.00     0.014 A 
ATOM     28  C   UNL A   1      35.299  32.638  31.161  1.00  0.00     0.010 A 
ATOM     29  C   UNL A   1      36.789  33.850  29.687  1.00  0.00     0.010 A 
ATOM     30  C   UNL A   1      36.605  32.959  30.756  1.00  0.00    -0.014 A 
BRANCH  30  31
ATOM     31  C   UNL A   1      37.800  32.387  31.430  1.00  0.00     0.031 A 
ATOM     32  C   UNL A   1      38.558  31.265  30.776  1.00  0.00     0.074 A 
ATOM     33  C   UNL A   1      38.146  32.815  32.661  1.00  0.00     0.049 A 
ATOM     34  N   UNL A   1      39.525  30.527  31.257  1.00  0.00    -0.248 NA
ATOM     35  C   UNL A   1      38.146  30.902  29.412  1.00  0.00     0.031 C 
ATOM     36  C   UNL A   1      37.474  33.881  33.407  1.00  0.00     0.029 A 
ATOM     37  N   UNL A   1      39.138  32.393  33.511  1.00  0.00    -0.354 N 
ATOM     38  C   UNL A   1      39.826  29.603  30.262  1.00  0.00     0.074 A 
ATOM     39  C   UNL A   1      38.894  29.836  29.179  1.00  0.00     0.031 C 
ATOM     40  C   UNL A   1      38.082  34.039  34.593  1.00  0.00     0.029 A 
ATOM     41  C   UNL A   1      39.148  33.051  34.720  1.00  0.00     0.049 A 
ATOM     42  H   UNL A   1      39.781  31.686  33.278  1.00  0.00     0.167 HD
ATOM     43  C   UNL A   1      40.801  28.661  30.247  1.00  0.00     0.034 A 
ATOM     44  C   UNL A   1      39.913  32.863  35.815  1.00  0.00     0.034 A 
ATOM     45  C   UNL A   1      41.728  28.452  31.332  1.00  0.00     0.049 A 
ATOM     46  C   UNL A   1      40.961  31.778  35.793  1.00  0.00     0.074 A 
ATOM     47  C   UNL A   1      42.784  27.560  31.404  1.00  0.00     0.029 A 
ATOM     48  N   UNL A   1      41.708  29.139  32.539  1.00  0.00    -0.354 N 
ATOM     49  N   UNL A   1      41.255  30.933  34.831  1.00  0.00    -0.248 NA
ATOM     50  C   UNL A   1      41.784  31.624  37.000  1.00  0.00     0.031 C 
ATOM     51  C   UNL A   1      43.355  27.656  32.677  1.00  0.00     0.029 A 
ATOM     52  C   UNL A   1      42.711  28.668  33.372  1.00  0.00     0.049 A 
ATOM     53  H   UNL A   1      41.073  29.855  32.770  1.00  0.00     0.167 HD
ATOM     54  C   UNL A   1      42.323  30.175  35.306  1.00  0.00     0.074 A 
ATOM     55  C   UNL A   1      42.624  30.667  36.633  1.00  0.00     0.031 C 
ATOM     56  C   UNL A   1      42.999  29.169  34.695  1.00  0.00     0.034 A 
BRANCH  43  57
ATOM     57  C   UNL A   1      40.893  27.773  29.028  1.00  0.00     0.023 A 
ATOM     58  C   UNL A   1      41.829  28.015  28.007  1.00  0.00     0.031 A 
ATOM     59  C   UNL A   1      40.018  26.684  28.871  1.00  0.00     0.131 A 
ATOM     60  C   UNL A   1      41.816  27.232  26.843  1.00  0.00     0.055 A 
ATOM     61  C   UNL A   1      40.068  25.854  27.749  1.00  0.00     0.041 A 
ATOM     62  F   UNL A   1      39.088  26.414  29.800  1.00  0.00    -0.206 F 
ATOM     63  C   UNL A   1      40.960  26.136  26.718  1.00  0.00     0.022 A 
BRANCH  60  64
ATOM     64  S   UNL A   1      42.829  27.762  25.435  1.00  0.00     0.124 S 
ATOM     65  O   UNL A   1      42.040  28.872  24.906  1.00  0.00    -0.237 OA
ATOM     66  O   UNL A   1      44.090  28.121  26.072  1.00  0.00    -0.237 OA
ATOM     67  O   UNL A   1      42.874  26.576  24.582  1.00  0.00    -0.744 OA
ENDBRANCH  60  64
ENDBRANCH  43  57
BRANCH  44  68
ATOM     68  C   UNL A   1      39.710  33.700  37.034  1.00  0.00     0.023 A 
ATOM     69  C   UNL A   1      40.547  34.794  37.303  1.00  0.00     0.031 A 
ATOM     70  C   UNL A   1      38.710  33.389  37.973  1.00  0.00     0.131 A 
ATOM     71  C   UNL A   1      40.404  35.506  38.505  1.00  0.00     0.055 A 
ATOM     72  C   UNL A   1      38.533  34.137  39.139  1.00  0.00     0.041 A 
ATOM     73  F   UNL A   1      37.879  32.355  37.764  1.00  0.00    -0.206 F 
ATOM     74  C   UNL A   1      39.394  35.194  39.418  1.00  0.00     0.022 A 
BRANCH  71  75
ATOM     75  S   UNL A   1      41.624  36.787  38.904  1.00  0.00     0.124 S 
ATOM     76  O   UNL A   1      40.770  37.949  39.127  1.00  0.00    -0.237 OA
ATOM     77  O   UNL A   1      42.273  36.229  40.086  1.00  0.00    -0.237 OA
ATOM     78  O   UNL A   1      42.458  36.845  37.705  1.00  0.00    -0.744 OA
ENDBRANCH  71  75
ENDBRANCH  44  68
BRANCH  56  79
ATOM     79  C   UNL A   1      44.173  28.576  35.434  1.00  0.00     0.023 A 
ATOM     80  C   UNL A   1      44.049  27.421  36.226  1.00  0.00     0.031 A 
ATOM     81  C   UNL A   1      45.442  29.173  35.329  1.00  0.00     0.131 A 
ATOM     82  C   UNL A   1      45.166  26.925  36.916  1.00  0.00     0.055 A 
ATOM     83  C   UNL A   1      46.562  28.640  35.970  1.00  0.00     0.041 A 
ATOM     84  F   UNL A   1      45.617  30.279  34.589  1.00  0.00    -0.206 F 
ATOM     85  C   UNL A   1      46.425  27.516  36.777  1.00  0.00     0.022 A 
BRANCH  82  86
ATOM     86  S   UNL A   1      44.938  25.535  38.058  1.00  0.00     0.124 S 
ATOM     87  O   UNL A   1      46.156  24.761  37.841  1.00  0.00    -0.237 OA
ATOM     88  O   UNL A   1      44.831  26.205  39.350  1.00  0.00    -0.237 OA
ATOM     89  O   UNL A   1      43.708  24.900  37.587  1.00  0.00    -0.744 OA
ENDBRANCH  82  86
ENDBRANCH  56  79
ENDBRANCH  30  31
ENDBRANCH  22  25
ENDBRANCH  20  21
ENDBRANCH   1  20
TORSDOF 16
ENDMDL
MODEL 2
REMARK VINA RESULT:     -11.0      2.496      8.308
REMARK SMILES C[C@H]([C@@H](C)O)[N@H+]1CC[C@@](C)(C(=O)NCCCNC(=O)c2ccc(-c3c4nc(c(-c5cc(S(=O)(=O)[O-])ccc5F)c5ccc([nH]5)c(-c5cc(S(=O)(=O)[O-])ccc5F)c5nc(c(-c6cc(S(=O)(=O)[O-])ccc6F)c6ccc3[nH]6)C=C5)C=C4)cc2)C1
REMARK SMILES IDX 15 1 14 2 13 3 11 4 12 5 9 7 6 8 7 9 83 10 8 12 10 13 2 14
REMARK SMILES IDX 1 15 3 16 4 17 5 18 16 20 17 21 18 22 19 24 20 25 21 26
REMARK SMILES IDX 82 27 22 28 81 29 23 30 24 31 25 32 75 33 26 34 80 35 74 36
REMARK SMILES IDX 76 37 27 38 79 39 73 40 72 41 28 43 60 44 40 45 59 46 41 47
REMARK SMILES IDX 44 48 58 49 77 50 42 51 43 52 57 54 78 55 45 56 29 57 30 58
REMARK SMILES IDX 38 59 31 60 37 61 39 62 36 63 32 64 33 65 34 66 35 67 61 68
REMARK SMILES IDX 62 69 70 70 63 71 69 72 71 73 68 74 64 75 65 76 66 77 67 78
REMARK SMILES IDX 46 79 47 80 55 81 48 82 54 83 56 84 53 85 49 86 50 87 51 88
REMARK SMILES IDX 52 89
REMARK H PARENT 13 6 6 11 5 19 17 23 76 42 44 53
REMARK Flexibility Score: inf
ROOT
ATOM      1  C   UNL A   1      31.058  31.888  26.185  1.00  0.00     0.042 C 
ENDROOT
BRANCH   1   2
ATOM      2  C   UNL A   1      31.074  30.604  25.362  1.00  0.00     0.117 C 
BRANCH   2   3
ATOM      3  N   UNL A   1      32.426  30.092  25.228  1.00  0.00    -0.355 N 
ATOM      4  C   UNL A   1      32.999  28.927  25.632  1.00  0.00     0.231 C 
ATOM      5  O   UNL A   1      34.210  28.828  25.412  1.00  0.00    -0.274 OA
ATOM      6  H   UNL A   1      33.041  30.700  24.758  1.00  0.00     0.163 HD
BRANCH   4   7
ATOM      7  C   UNL A   1      32.171  27.778  26.244  1.00  0.00     0.100 C 
ATOM      8  N   UNL A   1      31.391  26.055  24.719  1.00  0.00    -0.330 N 
ATOM      9  C   UNL A   1      32.785  25.798  25.026  1.00  0.00     0.263 C 
ATOM     10  C   UNL A   1      31.040  27.379  25.257  1.00  0.00     0.279 C 
ATOM     11  H   UNL A   1      30.853  25.327  25.187  1.00  0.00     0.348 HD
ATOM     12  C   UNL A   1      32.955  26.463  26.378  1.00  0.00     0.084 C 
ATOM     13  C   UNL A   1      31.592  28.254  27.589  1.00  0.00     0.028 C 
BRANCH   8  14
ATOM     14  C   UNL A   1      30.940  25.822  23.337  1.00  0.00     0.209 C 
ATOM     15  C   UNL A   1      30.817  24.305  23.116  1.00  0.00     0.078 C 
BRANCH  14  16
ATOM     16  C   UNL A   1      31.668  26.544  22.152  1.00  0.00     0.169 C 
ATOM     17  C   UNL A   1      32.085  25.697  20.948  1.00  0.00     0.045 C 
BRANCH  16  18
ATOM     18  O   UNL A   1      30.814  27.596  21.664  1.00  0.00    -0.387 OA
ATOM     19  H   UNL A   1      31.124  28.449  22.007  1.00  0.00     0.211 HD
ENDBRANCH  16  18
ENDBRANCH  14  16
ENDBRANCH   8  14
ENDBRANCH   4   7
ENDBRANCH   2   3
ENDBRANCH   1   2
BRANCH   1  20
ATOM     20  C   UNL A   1      32.343  32.114  26.975  1.00  0.00     0.118 C 
BRANCH  20  21
ATOM     21  N   UNL A   1      32.557  33.522  27.286  1.00  0.00    -0.352 N 
ATOM     22  C   UNL A   1      33.494  34.100  28.108  1.00  0.00     0.251 C 
ATOM     23  H   UNL A   1      31.941  34.149  26.844  1.00  0.00     0.163 HD
ATOM     24  O   UNL A   1      33.372  35.278  28.434  1.00  0.00    -0.269 OA
BRANCH  22  25
ATOM     25  C   UNL A   1      34.626  33.294  28.610  1.00  0.00     0.039 A 
ATOM     26  C   UNL A   1      35.925  33.794  28.500  1.00  0.00     0.014 A 
ATOM     27  C   UNL A   1      34.400  32.047  29.199  1.00  0.00     0.014 A 
ATOM     28  C   UNL A   1      36.990  33.077  29.050  1.00  0.00     0.010 A 
ATOM     29  C   UNL A   1      35.449  31.374  29.816  1.00  0.00     0.010 A 
ATOM     30  C   UNL A   1      36.756  31.882  29.750  1.00  0.00    -0.014 A 
BRANCH  30  31
ATOM     31  C   UNL A   1      37.852  31.137  30.421  1.00  0.00     0.031 A 
ATOM     32  C   UNL A   1      38.229  31.479  31.836  1.00  0.00     0.074 A 
ATOM     33  C   UNL A   1      38.562  30.220  29.732  1.00  0.00     0.049 A 
ATOM     34  N   UNL A   1      39.244  31.062  32.549  1.00  0.00    -0.248 NA
ATOM     35  C   UNL A   1      37.367  32.449  32.529  1.00  0.00     0.031 C 
ATOM     36  C   UNL A   1      38.306  29.818  28.347  1.00  0.00     0.029 A 
ATOM     37  N   UNL A   1      39.654  29.473  30.095  1.00  0.00    -0.354 N 
ATOM     38  C   UNL A   1      39.153  31.731  33.764  1.00  0.00     0.074 A 
ATOM     39  C   UNL A   1      38.019  32.625  33.667  1.00  0.00     0.031 C 
ATOM     40  C   UNL A   1      39.204  28.888  27.985  1.00  0.00     0.029 A 
ATOM     41  C   UNL A   1      40.135  28.668  29.087  1.00  0.00     0.049 A 
ATOM     42  H   UNL A   1      40.056  29.508  30.992  1.00  0.00     0.167 HD
ATOM     43  C   UNL A   1      39.931  31.595  34.867  1.00  0.00     0.034 A 
ATOM     44  C   UNL A   1      41.217  27.864  29.047  1.00  0.00     0.034 A 
ATOM     45  C   UNL A   1      41.050  30.689  34.949  1.00  0.00     0.049 A 
ATOM     46  C   UNL A   1      42.096  27.764  30.270  1.00  0.00     0.074 A 
ATOM     47  C   UNL A   1      41.876  30.436  36.030  1.00  0.00     0.029 A 
ATOM     48  N   UNL A   1      41.505  29.890  33.908  1.00  0.00    -0.354 N 
ATOM     49  N   UNL A   1      41.977  28.378  31.424  1.00  0.00    -0.248 NA
ATOM     50  C   UNL A   1      43.250  26.860  30.186  1.00  0.00     0.031 C 
ATOM     51  C   UNL A   1      42.872  29.542  35.623  1.00  0.00     0.029 A 
ATOM     52  C   UNL A   1      42.618  29.170  34.312  1.00  0.00     0.049 A 
ATOM     53  H   UNL A   1      41.097  29.843  33.013  1.00  0.00     0.167 HD
ATOM     54  C   UNL A   1      43.019  27.903  32.216  1.00  0.00     0.074 A 
ATOM     55  C   UNL A   1      43.750  26.948  31.410  1.00  0.00     0.031 C 
ATOM     56  C   UNL A   1      43.338  28.220  33.496  1.00  0.00     0.034 A 
BRANCH  43  57
ATOM     57  C   UNL A   1      39.610  32.467  36.058  1.00  0.00     0.023 A 
ATOM     58  C   UNL A   1      38.733  32.039  37.071  1.00  0.00     0.031 A 
ATOM     59  C   UNL A   1      40.166  33.754  36.172  1.00  0.00     0.131 A 
ATOM     60  C   UNL A   1      38.378  32.916  38.107  1.00  0.00     0.055 A 
ATOM     61  C   UNL A   1      39.877  34.589  37.252  1.00  0.00     0.041 A 
ATOM     62  F   UNL A   1      40.992  34.227  35.226  1.00  0.00    -0.206 F 
ATOM     63  C   UNL A   1      38.964  34.178  38.220  1.00  0.00     0.022 A 
BRANCH  60  64
ATOM     64  S   UNL A   1      37.026  32.437  39.217  1.00  0.00     0.124 S 
ATOM     65  O   UNL A   1      35.853  32.749  38.404  1.00  0.00    -0.237 OA
ATOM     66  O   UNL A   1      37.289  31.020  39.442  1.00  0.00    -0.237 OA
ATOM     67  O   UNL A   1      37.217  33.301  40.380  1.00  0.00    -0.744 OA
ENDBRANCH  60  64
ENDBRANCH  43  57
BRANCH  44  68
ATOM     68  C   UNL A   1      41.550  27.103  27.807  1.00  0.00     0.023 A 
ATOM     69  C   UNL A   1      41.306  25.723  27.721  1.00  0.00     0.031 A 
ATOM     70  C   UNL A   1      42.162  27.733  26.708  1.00  0.00     0.131 A 
ATOM     71  C   UNL A   1      41.720  25.008  26.586  1.00  0.00     0.055 A 
ATOM     72  C   UNL A   1      42.518  27.027  25.557  1.00  0.00     0.041 A 
ATOM     73  F   UNL A   1      42.416  29.051  26.734  1.00  0.00    -0.206 F 
ATOM     74  C   UNL A   1      42.311  25.653  25.497  1.00  0.00     0.022 A 
BRANCH  71  75
ATOM     75  S   UNL A   1      41.562  23.201  26.595  1.00  0.00     0.124 S 
ATOM     76  O   UNL A   1      42.142  22.860  27.889  1.00  0.00    -0.237 OA
ATOM     77  O   UNL A   1      40.119  23.024  26.470  1.00  0.00    -0.237 OA
ATOM     78  O   UNL A   1      42.342  22.787  25.431  1.00  0.00    -0.744 OA
ENDBRANCH  71  75
ENDBRANCH  44  68
BRANCH  56  79
ATOM     79  C   UNL A   1      44.493  27.480  34.126  1.00  0.00     0.023 A 
ATOM     80  C   UNL A   1      44.307  26.297  34.861  1.00  0.00     0.031 A 
ATOM     81  C   UNL A   1      45.804  27.965  33.972  1.00  0.00     0.131 A 
ATOM     82  C   UNL A   1      45.411  25.661  35.450  1.00  0.00     0.055 A 
ATOM     83  C   UNL A   1      46.904  27.296  34.510  1.00  0.00     0.041 A 
ATOM     84  F   UNL A   1      46.038  29.093  33.282  1.00  0.00    -0.206 F 
ATOM     85  C   UNL A   1      46.709  26.143  35.263  1.00  0.00     0.022 A 
BRANCH  82  86
ATOM     86  S   UNL A   1      45.121  24.232  36.529  1.00  0.00     0.124 S 
ATOM     87  O   UNL A   1      44.497  24.852  37.693  1.00  0.00    -0.237 OA
ATOM     88  O   UNL A   1      44.253  23.393  35.711  1.00  0.00    -0.237 OA
ATOM     89  O   UNL A   1      46.463  23.697  36.757  1.00  0.00    -0.744 OA
ENDBRANCH  82  86
ENDBRANCH  56  79
ENDBRANCH  30  31
ENDBRANCH  22  25
ENDBRANCH  20  21
ENDBRANCH   1  20
TORSDOF 16
ENDMDL
MODEL 3
REMARK VINA RESULT:     -11.0      5.925     10.760
REMARK SMILES C[C@H]([C@@H](C)O)[N@H+]1CC[C@@](C)(C(=O)NCCCNC(=O)c2ccc(-c3c4nc(c(-c5cc(S(=O)(=O)[O-])ccc5F)c5ccc([nH]5)c(-c5cc(S(=O)(=O)[O-])ccc5F)c5nc(c(-c6cc(S(=O)(=O)[O-])ccc6F)c6ccc3[nH]6)C=C5)C=C4)cc2)C1
REMARK SMILES IDX 15 1 14 2 13 3 11 4 12 5 9 7 6 8 7 9 83 10 8 12 10 13 2 14
REMARK SMILES IDX 1 15 3 16 4 17 5 18 16 20 17 21 18 22 19 24 20 25 21 26
REMARK SMILES IDX 82 27 22 28 81 29 23 30 24 31 25 32 75 33 26 34 80 35 74 36
REMARK SMILES IDX 76 37 27 38 79 39 73 40 72 41 28 43 60 44 40 45 59 46 41 47
REMARK SMILES IDX 44 48 58 49 77 50 42 51 43 52 57 54 78 55 45 56 29 57 30 58
REMARK SMILES IDX 38 59 31 60 37 61 39 62 36 63 32 64 33 65 34 66 35 67 61 68
REMARK SMILES IDX 62 69 70 70 63 71 69 72 71 73 68 74 64 75 65 76 66 77 67 78
REMARK SMILES IDX 46 79 47 80 55 81 48 82 54 83 56 84 53 85 49 86 50 87 51 88
REMARK SMILES IDX 52 89
REMARK H PARENT 13 6 6 11 5 19 17 23 76 42 44 53
REMARK Flexibility Score: inf
ROOT
ATOM      1  C   UNL A   1      34.808  21.472  25.786  1.00  0.00     0.042 C 
ENDROOT
BRANCH   1   2
ATOM      2  C   UNL A   1      33.798  22.424  25.154  1.00  0.00     0.117 C 
BRANCH   2   3
ATOM      3  N   UNL A   1      33.989  23.779  25.639  1.00  0.00    -0.355 N 
ATOM      4  C   UNL A   1      33.228  24.899  25.523  1.00  0.00     0.231 C 
ATOM      5  O   UNL A   1      33.716  25.924  26.007  1.00  0.00    -0.274 OA
ATOM      6  H   UNL A   1      34.823  23.911  26.145  1.00  0.00     0.163 HD
BRANCH   4   7
ATOM      7  C   UNL A   1      31.814  24.867  24.905  1.00  0.00     0.100 C 
ATOM      8  N   UNL A   1      31.172  26.769  23.536  1.00  0.00    -0.330 N 
ATOM      9  C   UNL A   1      32.015  25.895  22.741  1.00  0.00     0.263 C 
ATOM     10  C   UNL A   1      31.211  26.299  24.929  1.00  0.00     0.279 C 
ATOM     11  H   UNL A   1      30.229  26.683  23.157  1.00  0.00     0.348 HD
ATOM     12  C   UNL A   1      31.812  24.546  23.402  1.00  0.00     0.084 C 
ATOM     13  C   UNL A   1      30.947  23.885  25.715  1.00  0.00     0.028 C 
BRANCH   8  14
ATOM     14  C   UNL A   1      31.352  28.221  23.379  1.00  0.00     0.209 C 
ATOM     15  C   UNL A   1      31.475  28.850  24.777  1.00  0.00     0.078 C 
BRANCH  14  16
ATOM     16  C   UNL A   1      30.384  29.025  22.443  1.00  0.00     0.169 C 
ATOM     17  C   UNL A   1      29.249  29.814  23.098  1.00  0.00     0.045 C 
BRANCH  16  18
ATOM     18  O   UNL A   1      31.165  29.955  21.668  1.00  0.00    -0.387 OA
ATOM     19  H   UNL A   1      31.059  29.758  20.724  1.00  0.00     0.211 HD
ENDBRANCH  16  18
ENDBRANCH  14  16
ENDBRANCH   8  14
ENDBRANCH   4   7
ENDBRANCH   2   3
ENDBRANCH   1   2
BRANCH   1  20
ATOM     20  C   UNL A   1      36.240  21.998  25.744  1.00  0.00     0.118 C 
BRANCH  20  21
ATOM     21  N   UNL A   1      37.219  20.921  25.668  1.00  0.00    -0.352 N 
ATOM     22  C   UNL A   1      38.585  20.974  25.810  1.00  0.00     0.251 C 
ATOM     23  H   UNL A   1      36.848  20.027  25.487  1.00  0.00     0.163 HD
ATOM     24  O   UNL A   1      39.268  20.009  25.477  1.00  0.00    -0.269 OA
BRANCH  22  25
ATOM     25  C   UNL A   1      39.220  22.198  26.340  1.00  0.00     0.039 A 
ATOM     26  C   UNL A   1      40.270  22.084  27.253  1.00  0.00     0.014 A 
ATOM     27  C   UNL A   1      38.782  23.458  25.926  1.00  0.00     0.014 A 
ATOM     28  C   UNL A   1      40.932  23.233  27.692  1.00  0.00     0.010 A 
ATOM     29  C   UNL A   1      39.492  24.594  26.300  1.00  0.00     0.010 A 
ATOM     30  C   UNL A   1      40.577  24.494  27.185  1.00  0.00    -0.014 A 
BRANCH  30  31
ATOM     31  C   UNL A   1      41.313  25.729  27.563  1.00  0.00     0.031 A 
ATOM     32  C   UNL A   1      40.621  26.791  28.372  1.00  0.00     0.074 A 
ATOM     33  C   UNL A   1      42.565  25.931  27.105  1.00  0.00     0.049 A 
ATOM     34  N   UNL A   1      41.025  27.997  28.675  1.00  0.00    -0.248 NA
ATOM     35  C   UNL A   1      39.279  26.461  28.876  1.00  0.00     0.031 C 
ATOM     36  C   UNL A   1      43.332  24.985  26.292  1.00  0.00     0.029 A 
ATOM     37  N   UNL A   1      43.406  27.007  27.240  1.00  0.00    -0.354 N 
ATOM     38  C   UNL A   1      39.982  28.577  29.389  1.00  0.00     0.074 A 
ATOM     39  C   UNL A   1      38.905  27.609  29.418  1.00  0.00     0.031 C 
ATOM     40  C   UNL A   1      44.535  25.515  26.017  1.00  0.00     0.029 A 
ATOM     41  C   UNL A   1      44.606  26.859  26.580  1.00  0.00     0.049 A 
ATOM     42  H   UNL A   1      43.175  27.809  27.761  1.00  0.00     0.167 HD
ATOM     43  C   UNL A   1      39.935  29.795  29.983  1.00  0.00     0.034 A 
ATOM     44  C   UNL A   1      45.634  27.717  26.426  1.00  0.00     0.034 A 
ATOM     45  C   UNL A   1      41.023  30.741  29.953  1.00  0.00     0.049 A 
ATOM     46  C   UNL A   1      45.541  29.086  27.056  1.00  0.00     0.074 A 
ATOM     47  C   UNL A   1      41.102  31.983  30.560  1.00  0.00     0.029 A 
ATOM     48  N   UNL A   1      42.221  30.555  29.276  1.00  0.00    -0.354 N 
ATOM     49  N   UNL A   1      44.560  29.607  27.757  1.00  0.00    -0.248 NA
ATOM     50  C   UNL A   1      46.694  29.979  26.879  1.00  0.00     0.031 C 
ATOM     51  C   UNL A   1      42.313  32.576  30.191  1.00  0.00     0.029 A 
ATOM     52  C   UNL A   1      43.030  31.671  29.424  1.00  0.00     0.049 A 
ATOM     53  H   UNL A   1      42.461  29.749  28.765  1.00  0.00     0.167 HD
ATOM     54  C   UNL A   1      44.997  30.874  28.136  1.00  0.00     0.074 A 
ATOM     55  C   UNL A   1      46.329  31.034  27.593  1.00  0.00     0.031 C 
ATOM     56  C   UNL A   1      44.358  31.816  28.875  1.00  0.00     0.034 A 
BRANCH  43  57
ATOM     57  C   UNL A   1      38.655  30.178  30.689  1.00  0.00     0.023 A 
ATOM     58  C   UNL A   1      37.623  30.865  30.025  1.00  0.00     0.031 A 
ATOM     59  C   UNL A   1      38.472  29.875  32.050  1.00  0.00     0.131 A 
ATOM     60  C   UNL A   1      36.495  31.295  30.739  1.00  0.00     0.055 A 
ATOM     61  C   UNL A   1      37.307  30.229  32.734  1.00  0.00     0.041 A 
ATOM     62  F   UNL A   1      39.429  29.240  32.744  1.00  0.00    -0.206 F 
ATOM     63  C   UNL A   1      36.317  30.959  32.082  1.00  0.00     0.022 A 
BRANCH  60  64
ATOM     64  S   UNL A   1      35.339  32.430  29.923  1.00  0.00     0.124 S 
ATOM     65  O   UNL A   1      36.223  33.529  29.543  1.00  0.00    -0.237 OA
ATOM     66  O   UNL A   1      34.821  31.618  28.828  1.00  0.00    -0.237 OA
ATOM     67  O   UNL A   1      34.375  32.749  30.974  1.00  0.00    -0.744 OA
ENDBRANCH  60  64
ENDBRANCH  43  57
BRANCH  44  68
ATOM     68  C   UNL A   1      46.833  27.328  25.628  1.00  0.00     0.023 A 
ATOM     69  C   UNL A   1      47.007  27.796  24.315  1.00  0.00     0.031 A 
ATOM     70  C   UNL A   1      47.797  26.444  26.145  1.00  0.00     0.131 A 
ATOM     71  C   UNL A   1      48.089  27.338  23.546  1.00  0.00     0.055 A 
ATOM     72  C   UNL A   1      48.903  26.037  25.396  1.00  0.00     0.041 A 
ATOM     73  F   UNL A   1      47.682  25.968  27.395  1.00  0.00    -0.206 F 
ATOM     74  C   UNL A   1      49.046  26.473  24.082  1.00  0.00     0.022 A 
BRANCH  71  75
ATOM     75  S   UNL A   1      48.172  27.813  21.798  1.00  0.00     0.124 S 
ATOM     76  O   UNL A   1      48.357  26.520  21.148  1.00  0.00    -0.237 OA
ATOM     77  O   UNL A   1      46.877  28.455  21.598  1.00  0.00    -0.237 OA
ATOM     78  O   UNL A   1      49.325  28.710  21.746  1.00  0.00    -0.744 OA
ENDBRANCH  71  75
ENDBRANCH  44  68
BRANCH  56  79
ATOM     79  C   UNL A   1      45.118  33.080  29.191  1.00  0.00     0.023 A 
ATOM     80  C   UNL A   1      45.149  34.173  28.307  1.00  0.00     0.031 A 
ATOM     81  C   UNL A   1      45.811  33.196  30.409  1.00  0.00     0.131 A 
ATOM     82  C   UNL A   1      45.893  35.316  28.635  1.00  0.00     0.055 A 
ATOM     83  C   UNL A   1      46.501  34.358  30.756  1.00  0.00     0.041 A 
ATOM     84  F   UNL A   1      45.818  32.182  31.290  1.00  0.00    -0.206 F 
ATOM     85  C   UNL A   1      46.553  35.423  29.863  1.00  0.00     0.022 A 
BRANCH  82  86
ATOM     86  S   UNL A   1      46.050  36.639  27.405  1.00  0.00     0.124 S 
ATOM     87  O   UNL A   1      44.656  37.007  27.175  1.00  0.00    -0.237 OA
ATOM     88  O   UNL A   1      46.862  37.626  28.107  1.00  0.00    -0.237 OA
ATOM     89  O   UNL A   1      46.712  35.983  26.278  1.00  0.00    -0.744 OA
ENDBRANCH  82  86
ENDBRANCH  56  79
ENDBRANCH  30  31
ENDBRANCH  22  25
ENDBRANCH  20  21
ENDBRANCH   1  20
TORSDOF 16
ENDMDL
