MODEL 1
REMARK VINA RESULT:     -10.6      0.000      0.000
REMARK SMILES CN(C)C(=O)CNC(=O)NCCOCC(=O)NCCCNC(=O)c1ccc(-c2c3nc(c(-c4cc(S(=O)(=O)[O-])ccc4F)c4ccc([nH]4)c(-c4cc(S(=O)(=O)[O-])ccc4F)c4nc(c(-c5cc(S(=O)(=O)[O-])ccc5F)c5ccc2[nH]5)C=C4)C=C3)cc1
REMARK SMILES IDX 15 1 16 2 17 3 14 5 13 6 12 7 11 8 10 9 7 10 8 11 9 13 6 15
REMARK SMILES IDX 4 16 1 17 2 18 3 19 5 20 18 21 19 22 20 23 21 24 22 25 23 27
REMARK SMILES IDX 24 28 25 29 86 30 26 31 85 32 27 33 28 34 29 35 79 36 30 37
REMARK SMILES IDX 84 38 78 39 80 40 31 41 83 42 77 43 76 44 32 46 64 47 44 48
REMARK SMILES IDX 63 49 45 50 48 51 62 52 81 53 46 54 47 55 61 57 82 58 49 59
REMARK SMILES IDX 33 60 34 61 42 62 35 63 41 64 43 65 40 66 36 67 37 68 38 69
REMARK SMILES IDX 39 70 65 71 66 72 74 73 67 74 73 75 75 76 72 77 68 78 69 79
REMARK SMILES IDX 70 80 71 81 50 82 51 83 59 84 52 85 58 86 60 87 57 88 53 89
REMARK SMILES IDX 54 90 55 91 56 92
REMARK H PARENT 17 4 7 12 10 14 21 26 80 45 48 56
REMARK Flexibility Score: inf
ROOT
ATOM      1  C   UNL A   1      32.664  28.887  27.220  1.00  0.00     0.245 C 
ATOM      2  O   UNL A   1      33.753  28.456  27.595  1.00  0.00    -0.272 OA
ATOM      3  N   UNL A   1      32.568  30.168  26.760  1.00  0.00    -0.354 N 
ATOM      4  H   UNL A   1      33.396  30.699  26.778  1.00  0.00     0.163 HD
ENDROOT
BRANCH   1   5
ATOM      5  C   UNL A   1      31.402  28.024  27.250  1.00  0.00     0.260 C 
BRANCH   5   6
ATOM      6  O   UNL A   1      31.579  26.651  26.942  1.00  0.00    -0.370 OA
BRANCH   6   7
ATOM      7  C   UNL A   1      31.613  26.338  25.544  1.00  0.00     0.182 C 
BRANCH   7   8
ATOM      8  C   UNL A   1      30.744  25.130  25.185  1.00  0.00     0.146 C 
BRANCH   8   9
ATOM      9  N   UNL A   1      30.179  24.469  26.355  1.00  0.00    -0.336 N 
ATOM     10  N   UNL A   1      30.750  22.177  26.320  1.00  0.00    -0.329 N 
ATOM     11  C   UNL A   1      30.115  23.228  26.832  1.00  0.00     0.315 C 
ATOM     12  H   UNL A   1      30.542  21.348  26.809  1.00  0.00     0.165 HD
ATOM     13  O   UNL A   1      29.470  23.049  27.867  1.00  0.00    -0.249 OA
ATOM     14  H   UNL A   1      29.724  25.109  26.949  1.00  0.00     0.165 HD
BRANCH  10  15
ATOM     15  C   UNL A   1      31.671  21.947  25.229  1.00  0.00     0.218 C 
BRANCH  15  16
ATOM     16  C   UNL A   1      33.069  21.371  25.546  1.00  0.00     0.241 C 
ATOM     17  C   UNL A   1      35.421  21.516  26.105  1.00  0.00     0.146 C 
ATOM     18  N   UNL A   1      34.134  22.171  25.944  1.00  0.00    -0.347 N 
ATOM     19  C   UNL A   1      34.107  23.611  26.110  1.00  0.00     0.146 C 
ATOM     20  O   UNL A   1      33.262  20.170  25.304  1.00  0.00    -0.273 OA
ENDBRANCH  15  16
ENDBRANCH  10  15
ENDBRANCH   8   9
ENDBRANCH   7   8
ENDBRANCH   6   7
ENDBRANCH   5   6
ENDBRANCH   1   5
BRANCH   3  21
ATOM     21  C   UNL A   1      31.387  30.836  26.248  1.00  0.00     0.117 C 
BRANCH  21  22
ATOM     22  C   UNL A   1      31.364  32.320  26.587  1.00  0.00     0.042 C 
BRANCH  22  23
ATOM     23  C   UNL A   1      32.700  32.866  27.080  1.00  0.00     0.118 C 
BRANCH  23  24
ATOM     24  N   UNL A   1      32.576  34.181  27.697  1.00  0.00    -0.352 N 
ATOM     25  C   UNL A   1      33.190  34.707  28.802  1.00  0.00     0.251 C 
ATOM     26  H   UNL A   1      31.947  34.790  27.247  1.00  0.00     0.163 HD
ATOM     27  O   UNL A   1      32.762  35.764  29.276  1.00  0.00    -0.269 OA
BRANCH  25  28
ATOM     28  C   UNL A   1      34.336  34.022  29.433  1.00  0.00     0.039 A 
ATOM     29  C   UNL A   1      35.633  34.389  29.063  1.00  0.00     0.014 A 
ATOM     30  C   UNL A   1      34.142  32.999  30.365  1.00  0.00     0.014 A 
ATOM     31  C   UNL A   1      36.729  33.776  29.672  1.00  0.00     0.010 A 
ATOM     32  C   UNL A   1      35.233  32.449  31.033  1.00  0.00     0.010 A 
ATOM     33  C   UNL A   1      36.539  32.826  30.690  1.00  0.00    -0.014 A 
BRANCH  33  34
ATOM     34  C   UNL A   1      37.694  32.218  31.399  1.00  0.00     0.031 A 
ATOM     35  C   UNL A   1      38.476  31.103  30.757  1.00  0.00     0.074 A 
ATOM     36  C   UNL A   1      38.001  32.632  32.644  1.00  0.00     0.049 A 
ATOM     37  N   UNL A   1      39.476  30.409  31.238  1.00  0.00    -0.248 NA
ATOM     38  C   UNL A   1      38.054  30.693  29.409  1.00  0.00     0.031 C 
ATOM     39  C   UNL A   1      37.285  33.671  33.390  1.00  0.00     0.029 A 
ATOM     40  N   UNL A   1      38.989  32.229  33.507  1.00  0.00    -0.354 N 
ATOM     41  C   UNL A   1      39.794  29.474  30.259  1.00  0.00     0.074 A 
ATOM     42  C   UNL A   1      38.835  29.647  29.188  1.00  0.00     0.031 C 
ATOM     43  C   UNL A   1      37.875  33.842  34.582  1.00  0.00     0.029 A 
ATOM     44  C   UNL A   1      38.981  32.899  34.709  1.00  0.00     0.049 A 
ATOM     45  H   UNL A   1      39.643  31.526  33.287  1.00  0.00     0.167 HD
ATOM     46  C   UNL A   1      40.806  28.570  30.244  1.00  0.00     0.034 A 
ATOM     47  C   UNL A   1      39.769  32.763  35.794  1.00  0.00     0.034 A 
ATOM     48  C   UNL A   1      41.761  28.422  31.317  1.00  0.00     0.049 A 
ATOM     49  C   UNL A   1      40.882  31.746  35.760  1.00  0.00     0.074 A 
ATOM     50  C   UNL A   1      42.861  27.585  31.383  1.00  0.00     0.029 A 
ATOM     51  N   UNL A   1      41.727  29.123  32.516  1.00  0.00    -0.354 N 
ATOM     52  N   UNL A   1      41.206  30.907  34.803  1.00  0.00    -0.248 NA
ATOM     53  C   UNL A   1      41.743  31.668  36.947  1.00  0.00     0.031 C 
ATOM     54  C   UNL A   1      43.448  27.728  32.645  1.00  0.00     0.029 A 
ATOM     55  C   UNL A   1      42.765  28.714  33.339  1.00  0.00     0.049 A 
ATOM     56  H   UNL A   1      41.061  29.810  32.748  1.00  0.00     0.167 HD
ATOM     57  C   UNL A   1      42.330  30.225  35.261  1.00  0.00     0.074 A 
ATOM     58  C   UNL A   1      42.632  30.760  36.572  1.00  0.00     0.031 C 
ATOM     59  C   UNL A   1      43.049  29.249  34.651  1.00  0.00     0.034 A 
BRANCH  46  60
ATOM     60  C   UNL A   1      40.912  27.663  29.040  1.00  0.00     0.023 A 
ATOM     61  C   UNL A   1      41.854  27.895  28.021  1.00  0.00     0.031 A 
ATOM     62  C   UNL A   1      40.041  26.571  28.889  1.00  0.00     0.131 A 
ATOM     63  C   UNL A   1      41.846  27.101  26.864  1.00  0.00     0.055 A 
ATOM     64  C   UNL A   1      40.096  25.730  27.775  1.00  0.00     0.041 A 
ATOM     65  F   UNL A   1      39.107  26.308  29.818  1.00  0.00    -0.206 F 
ATOM     66  C   UNL A   1      40.991  26.004  26.745  1.00  0.00     0.022 A 
BRANCH  63  67
ATOM     67  S   UNL A   1      42.861  27.620  25.452  1.00  0.00     0.124 S 
ATOM     68  O   UNL A   1      44.151  27.868  26.092  1.00  0.00    -0.237 OA
ATOM     69  O   UNL A   1      42.796  26.459  24.573  1.00  0.00    -0.237 OA
ATOM     70  O   UNL A   1      42.178  28.815  24.960  1.00  0.00    -0.744 OA
ENDBRANCH  63  67
ENDBRANCH  46  60
BRANCH  47  71
ATOM     71  C   UNL A   1      39.539  33.605  37.002  1.00  0.00     0.023 A 
ATOM     72  C   UNL A   1      38.977  33.061  38.167  1.00  0.00     0.031 A 
ATOM     73  C   UNL A   1      39.851  34.977  36.998  1.00  0.00     0.131 A 
ATOM     74  C   UNL A   1      38.701  33.892  39.265  1.00  0.00     0.055 A 
ATOM     75  C   UNL A   1      39.623  35.788  38.112  1.00  0.00     0.041 A 
ATOM     76  F   UNL A   1      40.398  35.546  35.912  1.00  0.00    -0.206 F 
ATOM     77  C   UNL A   1      39.033  35.248  39.249  1.00  0.00     0.022 A 
BRANCH  74  78
ATOM     78  S   UNL A   1      37.825  33.188  40.688  1.00  0.00     0.124 S 
ATOM     79  O   UNL A   1      38.110  34.169  41.729  1.00  0.00    -0.237 OA
ATOM     80  O   UNL A   1      36.448  33.145  40.206  1.00  0.00    -0.237 OA
ATOM     81  O   UNL A   1      38.461  31.884  40.867  1.00  0.00    -0.744 OA
ENDBRANCH  74  78
ENDBRANCH  47  71
BRANCH  59  82
ATOM     82  C   UNL A   1      44.264  28.734  35.383  1.00  0.00     0.023 A 
ATOM     83  C   UNL A   1      44.186  27.664  36.290  1.00  0.00     0.031 A 
ATOM     84  C   UNL A   1      45.518  29.334  35.175  1.00  0.00     0.131 A 
ATOM     85  C   UNL A   1      45.329  27.263  36.998  1.00  0.00     0.055 A 
ATOM     86  C   UNL A   1      46.665  28.890  35.836  1.00  0.00     0.041 A 
ATOM     87  F   UNL A   1      45.651  30.363  34.322  1.00  0.00    -0.206 F 
ATOM     88  C   UNL A   1      46.570  27.858  36.764  1.00  0.00     0.022 A 
BRANCH  85  89
ATOM     89  S   UNL A   1      45.152  26.013  38.303  1.00  0.00     0.124 S 
ATOM     90  O   UNL A   1      46.540  25.784  38.692  1.00  0.00    -0.237 OA
ATOM     91  O   UNL A   1      44.320  26.701  39.284  1.00  0.00    -0.237 OA
ATOM     92  O   UNL A   1      44.507  24.894  37.619  1.00  0.00    -0.744 OA
ENDBRANCH  85  89
ENDBRANCH  59  82
ENDBRANCH  33  34
ENDBRANCH  25  28
ENDBRANCH  23  24
ENDBRANCH  22  23
ENDBRANCH  21  22
ENDBRANCH   3  21
TORSDOF 19
ENDMDL
MODEL 2
REMARK VINA RESULT:     -10.4      1.765      2.114
REMARK SMILES CN(C)C(=O)CNC(=O)NCCOCC(=O)NCCCNC(=O)c1ccc(-c2c3nc(c(-c4cc(S(=O)(=O)[O-])ccc4F)c4ccc([nH]4)c(-c4cc(S(=O)(=O)[O-])ccc4F)c4nc(c(-c5cc(S(=O)(=O)[O-])ccc5F)c5ccc2[nH]5)C=C4)C=C3)cc1
REMARK SMILES IDX 15 1 16 2 17 3 14 5 13 6 12 7 11 8 10 9 7 10 8 11 9 13 6 15
REMARK SMILES IDX 4 16 1 17 2 18 3 19 5 20 18 21 19 22 20 23 21 24 22 25 23 27
REMARK SMILES IDX 24 28 25 29 86 30 26 31 85 32 27 33 28 34 29 35 79 36 30 37
REMARK SMILES IDX 84 38 78 39 80 40 31 41 83 42 77 43 76 44 32 46 64 47 44 48
REMARK SMILES IDX 63 49 45 50 48 51 62 52 81 53 46 54 47 55 61 57 82 58 49 59
REMARK SMILES IDX 33 60 34 61 42 62 35 63 41 64 43 65 40 66 36 67 37 68 38 69
REMARK SMILES IDX 39 70 65 71 66 72 74 73 67 74 73 75 75 76 72 77 68 78 69 79
REMARK SMILES IDX 70 80 71 81 50 82 51 83 59 84 52 85 58 86 60 87 57 88 53 89
REMARK SMILES IDX 54 90 55 91 56 92
REMARK H PARENT 17 4 7 12 10 14 21 26 80 45 48 56
REMARK Flexibility Score: inf
ROOT
ATOM      1  C   UNL A   1      30.460  29.297  23.730  1.00  0.00     0.245 C 
ATOM      2  O   UNL A   1      29.975  29.349  22.601  1.00  0.00    -0.272 OA
ATOM      3  N   UNL A   1      30.622  30.446  24.447  1.00  0.00    -0.354 N 
ATOM      4  H   UNL A   1      30.357  31.280  23.998  1.00  0.00     0.163 HD
ENDROOT
BRANCH   1   5
ATOM      5  C   UNL A   1      30.889  27.973  24.363  1.00  0.00     0.260 C 
BRANCH   5   6
ATOM      6  O   UNL A   1      30.825  26.832  23.523  1.00  0.00    -0.370 OA
BRANCH   6   7
ATOM      7  C   UNL A   1      29.919  25.808  23.952  1.00  0.00     0.182 C 
BRANCH   7   8
ATOM      8  C   UNL A   1      30.634  24.518  24.365  1.00  0.00     0.146 C 
BRANCH   8   9
ATOM      9  N   UNL A   1      30.331  24.114  25.733  1.00  0.00    -0.336 N 
ATOM     10  N   UNL A   1      31.165  21.938  26.116  1.00  0.00    -0.329 N 
ATOM     11  C   UNL A   1      30.489  23.023  26.480  1.00  0.00     0.315 C 
ATOM     12  H   UNL A   1      31.133  21.236  26.806  1.00  0.00     0.165 HD
ATOM     13  O   UNL A   1      30.030  23.046  27.624  1.00  0.00    -0.249 OA
ATOM     14  H   UNL A   1      29.894  24.838  26.237  1.00  0.00     0.165 HD
BRANCH  10  15
ATOM     15  C   UNL A   1      31.936  21.529  24.962  1.00  0.00     0.218 C 
BRANCH  15  16
ATOM     16  C   UNL A   1      33.477  21.630  25.027  1.00  0.00     0.241 C 
ATOM     17  C   UNL A   1      35.730  20.740  25.057  1.00  0.00     0.146 C 
ATOM     18  N   UNL A   1      34.305  20.526  24.865  1.00  0.00    -0.347 N 
ATOM     19  C   UNL A   1      33.875  19.161  24.628  1.00  0.00     0.146 C 
ATOM     20  O   UNL A   1      33.967  22.717  25.367  1.00  0.00    -0.273 OA
ENDBRANCH  15  16
ENDBRANCH  10  15
ENDBRANCH   8   9
ENDBRANCH   7   8
ENDBRANCH   6   7
ENDBRANCH   5   6
ENDBRANCH   1   5
BRANCH   3  21
ATOM     21  C   UNL A   1      31.141  30.580  25.795  1.00  0.00     0.117 C 
BRANCH  21  22
ATOM     22  C   UNL A   1      31.193  32.029  26.259  1.00  0.00     0.042 C 
BRANCH  22  23
ATOM     23  C   UNL A   1      32.543  32.449  26.832  1.00  0.00     0.118 C 
BRANCH  23  24
ATOM     24  N   UNL A   1      32.528  33.804  27.369  1.00  0.00    -0.352 N 
ATOM     25  C   UNL A   1      33.249  34.366  28.388  1.00  0.00     0.251 C 
ATOM     26  H   UNL A   1      31.895  34.415  26.927  1.00  0.00     0.163 HD
ATOM     27  O   UNL A   1      32.907  35.471  28.822  1.00  0.00    -0.269 OA
BRANCH  25  28
ATOM     28  C   UNL A   1      34.407  33.664  28.977  1.00  0.00     0.039 A 
ATOM     29  C   UNL A   1      35.694  34.130  28.701  1.00  0.00     0.014 A 
ATOM     30  C   UNL A   1      34.234  32.529  29.775  1.00  0.00     0.014 A 
ATOM     31  C   UNL A   1      36.800  33.500  29.275  1.00  0.00     0.010 A 
ATOM     32  C   UNL A   1      35.329  31.954  30.414  1.00  0.00     0.010 A 
ATOM     33  C   UNL A   1      36.625  32.429  30.166  1.00  0.00    -0.014 A 
BRANCH  33  34
ATOM     34  C   UNL A   1      37.786  31.794  30.842  1.00  0.00     0.031 A 
ATOM     35  C   UNL A   1      38.597  30.744  30.129  1.00  0.00     0.074 A 
ATOM     36  C   UNL A   1      38.072  32.121  32.117  1.00  0.00     0.049 A 
ATOM     37  N   UNL A   1      39.607  30.038  30.570  1.00  0.00    -0.248 NA
ATOM     38  C   UNL A   1      38.197  30.426  28.750  1.00  0.00     0.031 C 
ATOM     39  C   UNL A   1      37.328  33.088  32.929  1.00  0.00     0.029 A 
ATOM     40  N   UNL A   1      39.060  31.676  32.960  1.00  0.00    -0.354 N 
ATOM     41  C   UNL A   1      39.954  29.183  29.528  1.00  0.00     0.074 A 
ATOM     42  C   UNL A   1      39.002  29.415  28.462  1.00  0.00     0.031 C 
ATOM     43  C   UNL A   1      37.903  33.183  34.137  1.00  0.00     0.029 A 
ATOM     44  C   UNL A   1      39.027  32.256  34.207  1.00  0.00     0.049 A 
ATOM     45  H   UNL A   1      39.730  31.005  32.696  1.00  0.00     0.167 HD
ATOM     46  C   UNL A   1      40.985  28.304  29.459  1.00  0.00     0.034 A 
ATOM     47  C   UNL A   1      39.807  32.057  35.287  1.00  0.00     0.034 A 
ATOM     48  C   UNL A   1      41.933  28.097  30.528  1.00  0.00     0.049 A 
ATOM     49  C   UNL A   1      40.941  31.069  35.192  1.00  0.00     0.074 A 
ATOM     50  C   UNL A   1      43.049  27.280  30.545  1.00  0.00     0.029 A 
ATOM     51  N   UNL A   1      41.872  28.708  31.774  1.00  0.00    -0.354 N 
ATOM     52  N   UNL A   1      41.292  30.309  34.179  1.00  0.00    -0.248 NA
ATOM     53  C   UNL A   1      41.792  30.921  36.379  1.00  0.00     0.031 C 
ATOM     54  C   UNL A   1      43.621  27.342  31.820  1.00  0.00     0.029 A 
ATOM     55  C   UNL A   1      42.911  28.260  32.577  1.00  0.00     0.049 A 
ATOM     56  H   UNL A   1      41.190  29.362  32.049  1.00  0.00     0.167 HD
ATOM     57  C   UNL A   1      42.426  29.618  34.599  1.00  0.00     0.074 A 
ATOM     58  C   UNL A   1      42.704  30.062  35.949  1.00  0.00     0.031 C 
ATOM     59  C   UNL A   1      43.171  28.704  33.927  1.00  0.00     0.034 A 
BRANCH  46  60
ATOM     60  C   UNL A   1      41.122  27.490  28.192  1.00  0.00     0.023 A 
ATOM     61  C   UNL A   1      40.729  26.141  28.136  1.00  0.00     0.031 A 
ATOM     62  C   UNL A   1      41.682  28.058  27.035  1.00  0.00     0.131 A 
ATOM     63  C   UNL A   1      40.977  25.385  26.980  1.00  0.00     0.055 A 
ATOM     64  C   UNL A   1      41.845  27.324  25.858  1.00  0.00     0.041 A 
ATOM     65  F   UNL A   1      42.095  29.336  27.031  1.00  0.00    -0.206 F 
ATOM     66  C   UNL A   1      41.509  25.974  25.831  1.00  0.00     0.022 A 
BRANCH  63  67
ATOM     67  S   UNL A   1      40.740  23.588  27.054  1.00  0.00     0.124 S 
ATOM     68  O   UNL A   1      41.254  23.277  28.386  1.00  0.00    -0.237 OA
ATOM     69  O   UNL A   1      39.298  23.452  26.878  1.00  0.00    -0.237 OA
ATOM     70  O   UNL A   1      41.553  23.088  25.947  1.00  0.00    -0.744 OA
ENDBRANCH  63  67
ENDBRANCH  46  60
BRANCH  47  71
ATOM     71  C   UNL A   1      39.548  32.804  36.551  1.00  0.00     0.023 A 
ATOM     72  C   UNL A   1      38.645  32.316  37.508  1.00  0.00     0.031 A 
ATOM     73  C   UNL A   1      40.179  34.036  36.807  1.00  0.00     0.131 A 
ATOM     74  C   UNL A   1      38.361  33.075  38.655  1.00  0.00     0.055 A 
ATOM     75  C   UNL A   1      39.933  34.761  37.974  1.00  0.00     0.041 A 
ATOM     76  F   UNL A   1      41.057  34.544  35.928  1.00  0.00    -0.206 F 
ATOM     77  C   UNL A   1      39.009  34.287  38.900  1.00  0.00     0.022 A 
BRANCH  74  78
ATOM     78  S   UNL A   1      37.070  32.491  39.785  1.00  0.00     0.124 S 
ATOM     79  O   UNL A   1      37.604  31.200  40.206  1.00  0.00    -0.237 OA
ATOM     80  O   UNL A   1      37.057  33.541  40.799  1.00  0.00    -0.237 OA
ATOM     81  O   UNL A   1      35.880  32.428  38.939  1.00  0.00    -0.744 OA
ENDBRANCH  74  78
ENDBRANCH  47  71
BRANCH  59  82
ATOM     82  C   UNL A   1      44.390  28.161  34.633  1.00  0.00     0.023 A 
ATOM     83  C   UNL A   1      44.314  27.064  35.508  1.00  0.00     0.031 A 
ATOM     84  C   UNL A   1      45.645  28.763  34.434  1.00  0.00     0.131 A 
ATOM     85  C   UNL A   1      45.461  26.637  36.194  1.00  0.00     0.055 A 
ATOM     86  C   UNL A   1      46.795  28.294  35.072  1.00  0.00     0.041 A 
ATOM     87  F   UNL A   1      45.775  29.817  33.612  1.00  0.00    -0.206 F 
ATOM     88  C   UNL A   1      46.703  27.233  35.968  1.00  0.00     0.022 A 
BRANCH  85  89
ATOM     89  S   UNL A   1      45.290  25.348  37.460  1.00  0.00     0.124 S 
ATOM     90  O   UNL A   1      44.714  26.092  38.575  1.00  0.00    -0.237 OA
ATOM     91  O   UNL A   1      44.404  24.387  36.809  1.00  0.00    -0.237 OA
ATOM     92  O   UNL A   1      46.661  24.885  37.665  1.00  0.00    -0.744 OA
ENDBRANCH  85  89
ENDBRANCH  59  82
ENDBRANCH  33  34
ENDBRANCH  25  28
ENDBRANCH  23  24
ENDBRANCH  22  23
ENDBRANCH  21  22
ENDBRANCH   3  21
TORSDOF 19
ENDMDL
MODEL 3
REMARK VINA RESULT:     -10.4      2.260      3.524
REMARK SMILES CN(C)C(=O)CNC(=O)NCCOCC(=O)NCCCNC(=O)c1ccc(-c2c3nc(c(-c4cc(S(=O)(=O)[O-])ccc4F)c4ccc([nH]4)c(-c4cc(S(=O)(=O)[O-])ccc4F)c4nc(c(-c5cc(S(=O)(=O)[O-])ccc5F)c5ccc2[nH]5)C=C4)C=C3)cc1
REMARK SMILES IDX 15 1 16 2 17 3 14 5 13 6 12 7 11 8 10 9 7 10 8 11 9 13 6 15
REMARK SMILES IDX 4 16 1 17 2 18 3 19 5 20 18 21 19 22 20 23 21 24 22 25 23 27
REMARK SMILES IDX 24 28 25 29 86 30 26 31 85 32 27 33 28 34 29 35 79 36 30 37
REMARK SMILES IDX 84 38 78 39 80 40 31 41 83 42 77 43 76 44 32 46 64 47 44 48
REMARK SMILES IDX 63 49 45 50 48 51 62 52 81 53 46 54 47 55 61 57 82 58 49 59
REMARK SMILES IDX 33 60 34 61 42 62 35 63 41 64 43 65 40 66 36 67 37 68 38 69
REMARK SMILES IDX 39 70 65 71 66 72 74 73 67 74 73 75 75 76 72 77 68 78 69 79
REMARK SMILES IDX 70 80 71 81 50 82 51 83 59 84 52 85 58 86 60 87 57 88 53 89
REMARK SMILES IDX 54 90 55 91 56 92
REMARK H PARENT 17 4 7 12 10 14 21 26 80 45 48 56
REMARK Flexibility Score: inf
ROOT
ATOM      1  C   UNL A   1      33.485  28.826  26.977  1.00  0.00     0.245 C 
ATOM      2  O   UNL A   1      34.689  28.583  27.039  1.00  0.00    -0.272 OA
ATOM      3  N   UNL A   1      33.063  30.120  26.889  1.00  0.00    -0.354 N 
ATOM      4  H   UNL A   1      33.765  30.809  26.905  1.00  0.00     0.163 HD
ENDROOT
BRANCH   1   5
ATOM      5  C   UNL A   1      32.435  27.714  26.994  1.00  0.00     0.260 C 
BRANCH   5   6
ATOM      6  O   UNL A   1      32.675  26.620  26.124  1.00  0.00    -0.370 OA
BRANCH   6   7
ATOM      7  C   UNL A   1      31.656  26.388  25.142  1.00  0.00     0.182 C 
BRANCH   7   8
ATOM      8  C   UNL A   1      32.222  26.219  23.729  1.00  0.00     0.146 C 
BRANCH   8   9
ATOM      9  N   UNL A   1      33.317  27.137  23.442  1.00  0.00    -0.336 N 
ATOM     10  N   UNL A   1      32.487  29.345  23.333  1.00  0.00    -0.329 N 
ATOM     11  C   UNL A   1      33.456  28.442  23.215  1.00  0.00     0.315 C 
ATOM     12  H   UNL A   1      32.796  30.248  23.090  1.00  0.00     0.165 HD
ATOM     13  O   UNL A   1      34.584  28.855  22.940  1.00  0.00    -0.249 OA
ATOM     14  H   UNL A   1      34.183  26.669  23.405  1.00  0.00     0.165 HD
BRANCH  10  15
ATOM     15  C   UNL A   1      31.096  29.336  23.730  1.00  0.00     0.218 C 
BRANCH  15  16
ATOM     16  C   UNL A   1      30.010  29.360  22.630  1.00  0.00     0.241 C 
ATOM     17  C   UNL A   1      27.992  30.170  21.564  1.00  0.00     0.146 C 
ATOM     18  N   UNL A   1      29.013  30.327  22.586  1.00  0.00    -0.347 N 
ATOM     19  C   UNL A   1      28.835  31.416  23.528  1.00  0.00     0.146 C 
ATOM     20  O   UNL A   1      29.966  28.399  21.847  1.00  0.00    -0.273 OA
ENDBRANCH  15  16
ENDBRANCH  10  15
ENDBRANCH   8   9
ENDBRANCH   7   8
ENDBRANCH   6   7
ENDBRANCH   5   6
ENDBRANCH   1   5
BRANCH   3  21
ATOM     21  C   UNL A   1      31.699  30.598  26.775  1.00  0.00     0.117 C 
BRANCH  21  22
ATOM     22  C   UNL A   1      31.604  32.116  26.847  1.00  0.00     0.042 C 
BRANCH  22  23
ATOM     23  C   UNL A   1      32.907  32.802  27.247  1.00  0.00     0.118 C 
BRANCH  23  24
ATOM     24  N   UNL A   1      32.701  34.165  27.721  1.00  0.00    -0.352 N 
ATOM     25  C   UNL A   1      33.243  34.826  28.791  1.00  0.00     0.251 C 
ATOM     26  H   UNL A   1      32.069  34.696  27.186  1.00  0.00     0.163 HD
ATOM     27  O   UNL A   1      32.750  35.904  29.138  1.00  0.00    -0.269 OA
BRANCH  25  28
ATOM     28  C   UNL A   1      34.386  34.259  29.535  1.00  0.00     0.039 A 
ATOM     29  C   UNL A   1      34.140  33.508  30.687  1.00  0.00     0.014 A 
ATOM     30  C   UNL A   1      35.702  34.489  29.123  1.00  0.00     0.014 A 
ATOM     31  C   UNL A   1      35.205  32.936  31.386  1.00  0.00     0.010 A 
ATOM     32  C   UNL A   1      36.756  33.849  29.769  1.00  0.00     0.010 A 
ATOM     33  C   UNL A   1      36.521  33.071  30.911  1.00  0.00    -0.014 A 
BRANCH  33  34
ATOM     34  C   UNL A   1      37.658  32.409  31.601  1.00  0.00     0.031 A 
ATOM     35  C   UNL A   1      38.406  31.291  30.927  1.00  0.00     0.074 A 
ATOM     36  C   UNL A   1      37.976  32.777  32.858  1.00  0.00     0.049 A 
ATOM     37  N   UNL A   1      39.386  30.555  31.387  1.00  0.00    -0.248 NA
ATOM     38  C   UNL A   1      37.973  30.933  29.568  1.00  0.00     0.031 C 
ATOM     39  C   UNL A   1      37.291  33.815  33.634  1.00  0.00     0.029 A 
ATOM     40  N   UNL A   1      38.952  32.321  33.708  1.00  0.00    -0.354 N 
ATOM     41  C   UNL A   1      39.676  29.639  30.381  1.00  0.00     0.074 A 
ATOM     42  C   UNL A   1      38.723  29.871  29.316  1.00  0.00     0.031 C 
ATOM     43  C   UNL A   1      37.886  33.934  34.830  1.00  0.00     0.029 A 
ATOM     44  C   UNL A   1      38.964  32.956  34.929  1.00  0.00     0.049 A 
ATOM     45  H   UNL A   1      39.585  31.606  33.467  1.00  0.00     0.167 HD
ATOM     46  C   UNL A   1      40.662  28.708  30.339  1.00  0.00     0.034 A 
ATOM     47  C   UNL A   1      39.747  32.765  36.008  1.00  0.00     0.034 A 
ATOM     48  C   UNL A   1      41.612  28.500  31.406  1.00  0.00     0.049 A 
ATOM     49  C   UNL A   1      40.830  31.719  35.945  1.00  0.00     0.074 A 
ATOM     50  C   UNL A   1      42.687  27.630  31.448  1.00  0.00     0.029 A 
ATOM     51  N   UNL A   1      41.598  29.167  32.625  1.00  0.00    -0.354 N 
ATOM     52  N   UNL A   1      41.129  30.898  34.963  1.00  0.00    -0.248 NA
ATOM     53  C   UNL A   1      41.688  31.581  37.128  1.00  0.00     0.031 C 
ATOM     54  C   UNL A   1      43.278  27.719  32.712  1.00  0.00     0.029 A 
ATOM     55  C   UNL A   1      42.624  28.704  33.435  1.00  0.00     0.049 A 
ATOM     56  H   UNL A   1      40.953  29.866  32.878  1.00  0.00     0.167 HD
ATOM     57  C   UNL A   1      42.233  30.171  35.400  1.00  0.00     0.074 A 
ATOM     58  C   UNL A   1      42.550  30.659  36.726  1.00  0.00     0.031 C 
ATOM     59  C   UNL A   1      42.924  29.192  34.761  1.00  0.00     0.034 A 
BRANCH  46  60
ATOM     60  C   UNL A   1      40.742  27.833  29.109  1.00  0.00     0.023 A 
ATOM     61  C   UNL A   1      41.657  28.096  28.073  1.00  0.00     0.031 A 
ATOM     62  C   UNL A   1      39.870  26.741  28.951  1.00  0.00     0.131 A 
ATOM     63  C   UNL A   1      41.623  27.333  26.896  1.00  0.00     0.055 A 
ATOM     64  C   UNL A   1      39.902  25.931  27.814  1.00  0.00     0.041 A 
ATOM     65  F   UNL A   1      38.961  26.450  29.895  1.00  0.00    -0.206 F 
ATOM     66  C   UNL A   1      40.770  26.235  26.769  1.00  0.00     0.022 A 
BRANCH  63  67
ATOM     67  S   UNL A   1      42.601  27.893  25.475  1.00  0.00     0.124 S 
ATOM     68  O   UNL A   1      41.795  29.008  24.983  1.00  0.00    -0.237 OA
ATOM     69  O   UNL A   1      43.876  28.248  26.088  1.00  0.00    -0.237 OA
ATOM     70  O   UNL A   1      42.635  26.723  24.599  1.00  0.00    -0.744 OA
ENDBRANCH  63  67
ENDBRANCH  46  60
BRANCH  47  71
ATOM     71  C   UNL A   1      39.542  33.579  37.241  1.00  0.00     0.023 A 
ATOM     72  C   UNL A   1      40.304  34.732  37.482  1.00  0.00     0.031 A 
ATOM     73  C   UNL A   1      38.600  33.196  38.213  1.00  0.00     0.131 A 
ATOM     74  C   UNL A   1      40.145  35.439  38.685  1.00  0.00     0.055 A 
ATOM     75  C   UNL A   1      38.408  33.931  39.384  1.00  0.00     0.041 A 
ATOM     76  F   UNL A   1      37.840  32.105  38.029  1.00  0.00    -0.206 F 
ATOM     77  C   UNL A   1      39.193  35.053  39.630  1.00  0.00     0.022 A 
BRANCH  74  78
ATOM     78  S   UNL A   1      41.260  36.826  39.031  1.00  0.00     0.124 S 
ATOM     79  O   UNL A   1      41.988  36.338  40.198  1.00  0.00    -0.237 OA
ATOM     80  O   UNL A   1      42.023  36.918  37.791  1.00  0.00    -0.237 OA
ATOM     81  O   UNL A   1      40.349  37.940  39.285  1.00  0.00    -0.744 OA
ENDBRANCH  74  78
ENDBRANCH  47  71
BRANCH  59  82
ATOM     82  C   UNL A   1      44.123  28.621  35.477  1.00  0.00     0.023 A 
ATOM     83  C   UNL A   1      44.002  27.579  36.412  1.00  0.00     0.031 A 
ATOM     84  C   UNL A   1      45.406  29.139  35.226  1.00  0.00     0.131 A 
ATOM     85  C   UNL A   1      45.136  27.126  37.103  1.00  0.00     0.055 A 
ATOM     86  C   UNL A   1      46.540  28.641  35.870  1.00  0.00     0.041 A 
ATOM     87  F   UNL A   1      45.579  30.137  34.345  1.00  0.00    -0.206 F 
ATOM     88  C   UNL A   1      46.406  27.638  36.826  1.00  0.00     0.022 A 
BRANCH  85  89
ATOM     89  S   UNL A   1      44.917  25.919  38.441  1.00  0.00     0.124 S 
ATOM     90  O   UNL A   1      44.443  24.745  37.716  1.00  0.00    -0.237 OA
ATOM     91  O   UNL A   1      46.262  25.824  38.999  1.00  0.00    -0.237 OA
ATOM     92  O   UNL A   1      43.928  26.551  39.313  1.00  0.00    -0.744 OA
ENDBRANCH  85  89
ENDBRANCH  59  82
ENDBRANCH  33  34
ENDBRANCH  25  28
ENDBRANCH  23  24
ENDBRANCH  22  23
ENDBRANCH  21  22
ENDBRANCH   3  21
TORSDOF 19
ENDMDL
