MODEL 1
REMARK VINA RESULT:     -12.2      0.000      0.000
REMARK SMILES Cc1ccc(F)c(NC(=O)NC(=O)CCCCC(=O)NCCCNC(=O)c2ccc(-c3c4nc(c(-c5cc(S(=O)(=O)[O-])ccc5F)c5ccc([nH]5)c(-c5cc(S(=O)(=O)[O-])ccc5F)c5nc(c(-c6cc(S(=O)(=O)[O-])ccc6F)c6ccc3[nH]6)C=C5)C=C4)cc2)c1
REMARK SMILES IDX 21 1 20 2 18 3 19 4 17 6 16 7 15 8 14 9 12 10 8 11 9 12
REMARK SMILES IDX 10 14 11 15 13 17 7 18 1 19 2 20 3 21 90 22 4 23 5 24 6 25
REMARK SMILES IDX 22 26 23 27 24 28 25 29 26 31 27 32 28 33 89 34 29 35 88 36
REMARK SMILES IDX 30 37 31 38 32 39 82 40 33 41 87 42 81 43 83 44 34 45 86 46
REMARK SMILES IDX 80 47 79 48 35 50 67 51 47 52 66 53 48 54 51 55 65 56 84 57
REMARK SMILES IDX 49 58 50 59 64 61 85 62 52 63 36 64 37 65 45 66 38 67 44 68
REMARK SMILES IDX 46 69 43 70 39 71 40 72 41 73 42 74 68 75 69 76 77 77 70 78
REMARK SMILES IDX 76 79 78 80 75 81 71 82 72 83 73 84 74 85 53 86 54 87 62 88
REMARK SMILES IDX 55 89 61 90 63 91 60 92 56 93 57 94 58 95 59 96
REMARK H PARENT 20 5 8 13 11 16 24 30 83 49 51 60
REMARK Flexibility Score: inf
ROOT
ATOM      1  C   UNL A   1      32.582  29.137  24.123  1.00  0.00     0.117 C 
ENDROOT
BRANCH   1   2
ATOM      2  N   UNL A   1      31.560  29.288  23.111  1.00  0.00    -0.356 N 
ATOM      3  C   UNL A   1      30.755  28.340  22.558  1.00  0.00     0.219 C 
ATOM      4  O   UNL A   1      29.845  28.703  21.812  1.00  0.00    -0.275 OA
ATOM      5  H   UNL A   1      31.430  30.204  22.776  1.00  0.00     0.163 HD
BRANCH   3   6
ATOM      6  C   UNL A   1      30.962  26.874  22.881  1.00  0.00     0.100 C 
BRANCH   6   7
ATOM      7  C   UNL A   1      29.932  26.280  23.842  1.00  0.00     0.010 C 
BRANCH   7   8
ATOM      8  C   UNL A   1      30.299  24.972  24.552  1.00  0.00     0.010 C 
BRANCH   8   9
ATOM      9  C   UNL A   1      30.618  25.067  26.043  1.00  0.00     0.100 C 
BRANCH   9  10
ATOM     10  C   UNL A   1      30.233  23.856  26.857  1.00  0.00     0.227 C 
ATOM     11  N   UNL A   1      33.319  22.992  26.203  1.00  0.00    -0.305 N 
ATOM     12  C   UNL A   1      32.377  22.726  27.136  1.00  0.00     0.325 C 
ATOM     13  H   UNL A   1      34.218  23.094  26.594  1.00  0.00     0.171 HD
ATOM     14  O   UNL A   1      32.763  22.440  28.272  1.00  0.00    -0.248 OA
ATOM     15  N   UNL A   1      31.050  22.749  26.871  1.00  0.00    -0.278 N 
ATOM     16  H   UNL A   1      30.626  21.884  26.669  1.00  0.00     0.174 HD
ATOM     17  O   UNL A   1      29.183  23.830  27.504  1.00  0.00    -0.275 OA
BRANCH  11  18
ATOM     18  C   UNL A   1      33.320  23.160  24.803  1.00  0.00     0.079 A 
ATOM     19  C   UNL A   1      31.969  21.062  21.896  1.00  0.00     0.044 C 
ATOM     20  C   UNL A   1      32.628  22.174  22.665  1.00  0.00    -0.049 A 
ATOM     21  C   UNL A   1      33.332  23.173  21.987  1.00  0.00     0.006 A 
ATOM     22  C   UNL A   1      32.616  22.185  24.069  1.00  0.00     0.032 A 
ATOM     23  C   UNL A   1      33.992  24.172  22.701  1.00  0.00     0.042 A 
ATOM     24  C   UNL A   1      33.975  24.169  24.096  1.00  0.00     0.146 A 
ATOM     25  F   UNL A   1      34.609  25.167  24.725  1.00  0.00    -0.205 F 
ENDBRANCH  11  18
ENDBRANCH   9  10
ENDBRANCH   8   9
ENDBRANCH   7   8
ENDBRANCH   6   7
ENDBRANCH   3   6
ENDBRANCH   1   2
BRANCH   1  26
ATOM     26  C   UNL A   1      32.042  29.245  25.539  1.00  0.00     0.042 C 
BRANCH  26  27
ATOM     27  C   UNL A   1      33.124  29.656  26.516  1.00  0.00     0.118 C 
BRANCH  27  28
ATOM     28  N   UNL A   1      32.982  31.036  26.971  1.00  0.00    -0.352 N 
ATOM     29  C   UNL A   1      33.895  31.802  27.660  1.00  0.00     0.251 C 
ATOM     30  H   UNL A   1      32.126  31.473  26.761  1.00  0.00     0.163 HD
ATOM     31  O   UNL A   1      33.589  32.925  28.047  1.00  0.00    -0.269 OA
BRANCH  29  32
ATOM     32  C   UNL A   1      35.210  31.206  27.981  1.00  0.00     0.039 A 
ATOM     33  C   UNL A   1      36.333  32.030  28.044  1.00  0.00     0.014 A 
ATOM     34  C   UNL A   1      35.293  29.864  28.356  1.00  0.00     0.014 A 
ATOM     35  C   UNL A   1      37.520  31.525  28.575  1.00  0.00     0.010 A 
ATOM     36  C   UNL A   1      36.431  29.405  29.001  1.00  0.00     0.010 A 
ATOM     37  C   UNL A   1      37.561  30.226  29.108  1.00  0.00    -0.014 A 
BRANCH  37  38
ATOM     38  C   UNL A   1      38.785  29.689  29.755  1.00  0.00     0.031 A 
ATOM     39  C   UNL A   1      39.175  30.185  31.122  1.00  0.00     0.074 A 
ATOM     40  C   UNL A   1      39.574  28.825  29.084  1.00  0.00     0.049 A 
ATOM     41  N   UNL A   1      40.240  29.916  31.831  1.00  0.00    -0.248 NA
ATOM     42  C   UNL A   1      38.272  31.163  31.749  1.00  0.00     0.031 C 
ATOM     43  C   UNL A   1      39.336  28.342  27.720  1.00  0.00     0.029 A 
ATOM     44  N   UNL A   1      40.734  28.198  29.456  1.00  0.00    -0.354 N 
ATOM     45  C   UNL A   1      40.146  30.713  32.968  1.00  0.00     0.074 A 
ATOM     46  C   UNL A   1      38.973  31.540  32.805  1.00  0.00     0.031 C 
ATOM     47  C   UNL A   1      40.294  27.460  27.391  1.00  0.00     0.029 A 
ATOM     48  C   UNL A   1      41.231  27.339  28.502  1.00  0.00     0.049 A 
ATOM     49  H   UNL A   1      41.172  28.348  30.325  1.00  0.00     0.167 HD
ATOM     50  C   UNL A   1      40.942  30.725  34.065  1.00  0.00     0.034 A 
ATOM     51  C   UNL A   1      42.314  26.538  28.532  1.00  0.00     0.034 A 
ATOM     52  C   UNL A   1      42.085  29.859  34.216  1.00  0.00     0.049 A 
ATOM     53  C   UNL A   1      43.150  26.517  29.787  1.00  0.00     0.074 A 
ATOM     54  C   UNL A   1      42.946  29.737  35.293  1.00  0.00     0.029 A 
ATOM     55  N   UNL A   1      42.520  28.951  33.257  1.00  0.00    -0.354 N 
ATOM     56  N   UNL A   1      43.017  27.235  30.880  1.00  0.00    -0.248 NA
ATOM     57  C   UNL A   1      44.260  25.560  29.823  1.00  0.00     0.031 C 
ATOM     58  C   UNL A   1      43.925  28.791  34.966  1.00  0.00     0.029 A 
ATOM     59  C   UNL A   1      43.637  28.272  33.713  1.00  0.00     0.049 A 
ATOM     60  H   UNL A   1      42.094  28.813  32.380  1.00  0.00     0.167 HD
ATOM     61  C   UNL A   1      44.011  26.790  31.747  1.00  0.00     0.074 A 
ATOM     62  C   UNL A   1      44.715  25.727  31.056  1.00  0.00     0.031 C 
ATOM     63  C   UNL A   1      44.319  27.217  32.999  1.00  0.00     0.034 A 
BRANCH  50  64
ATOM     64  C   UNL A   1      40.595  31.709  35.160  1.00  0.00     0.023 A 
ATOM     65  C   UNL A   1      39.633  31.407  36.141  1.00  0.00     0.031 A 
ATOM     66  C   UNL A   1      41.173  32.990  35.183  1.00  0.00     0.131 A 
ATOM     67  C   UNL A   1      39.199  32.402  37.030  1.00  0.00     0.055 A 
ATOM     68  C   UNL A   1      40.807  33.945  36.135  1.00  0.00     0.041 A 
ATOM     69  F   UNL A   1      42.081  33.348  34.263  1.00  0.00    -0.206 F 
ATOM     70  C   UNL A   1      39.800  33.661  37.053  1.00  0.00     0.022 A 
BRANCH  67  71
ATOM     71  S   UNL A   1      37.720  32.080  38.032  1.00  0.00     0.124 S 
ATOM     72  O   UNL A   1      38.244  32.245  39.387  1.00  0.00    -0.237 OA
ATOM     73  O   UNL A   1      36.796  33.109  37.574  1.00  0.00    -0.237 OA
ATOM     74  O   UNL A   1      37.357  30.710  37.675  1.00  0.00    -0.744 OA
ENDBRANCH  67  71
ENDBRANCH  50  64
BRANCH  51  75
ATOM     75  C   UNL A   1      42.651  25.668  27.368  1.00  0.00     0.023 A 
ATOM     76  C   UNL A   1      42.178  24.347  27.295  1.00  0.00     0.031 A 
ATOM     77  C   UNL A   1      43.477  26.129  26.328  1.00  0.00     0.131 A 
ATOM     78  C   UNL A   1      42.574  23.517  26.233  1.00  0.00     0.055 A 
ATOM     79  C   UNL A   1      43.829  25.315  25.249  1.00  0.00     0.041 A 
ATOM     80  F   UNL A   1      43.945  27.387  26.342  1.00  0.00    -0.206 F 
ATOM     81  C   UNL A   1      43.389  23.995  25.205  1.00  0.00     0.022 A 
BRANCH  78  82
ATOM     82  S   UNL A   1      42.073  21.773  26.259  1.00  0.00     0.124 S 
ATOM     83  O   UNL A   1      42.946  21.197  25.243  1.00  0.00    -0.237 OA
ATOM     84  O   UNL A   1      42.362  21.398  27.640  1.00  0.00    -0.237 OA
ATOM     85  O   UNL A   1      40.655  21.821  25.913  1.00  0.00    -0.744 OA
ENDBRANCH  78  82
ENDBRANCH  51  75
BRANCH  63  86
ATOM     86  C   UNL A   1      45.434  26.489  33.705  1.00  0.00     0.023 A 
ATOM     87  C   UNL A   1      45.188  25.360  34.505  1.00  0.00     0.031 A 
ATOM     88  C   UNL A   1      46.757  26.953  33.601  1.00  0.00     0.131 A 
ATOM     89  C   UNL A   1      46.237  24.780  35.232  1.00  0.00     0.055 A 
ATOM     90  C   UNL A   1      47.808  26.330  34.273  1.00  0.00     0.041 A 
ATOM     91  F   UNL A   1      47.048  28.027  32.849  1.00  0.00    -0.206 F 
ATOM     92  C   UNL A   1      47.548  25.248  35.110  1.00  0.00     0.022 A 
BRANCH  89  93
ATOM     93  S   UNL A   1      45.842  23.483  36.435  1.00  0.00     0.124 S 
ATOM     94  O   UNL A   1      45.264  24.252  37.533  1.00  0.00    -0.237 OA
ATOM     95  O   UNL A   1      44.912  22.640  35.691  1.00  0.00    -0.237 OA
ATOM     96  O   UNL A   1      47.140  22.873  36.720  1.00  0.00    -0.744 OA
ENDBRANCH  89  93
ENDBRANCH  63  86
ENDBRANCH  37  38
ENDBRANCH  29  32
ENDBRANCH  27  28
ENDBRANCH  26  27
ENDBRANCH   1  26
TORSDOF 18
ENDMDL
MODEL 2
REMARK VINA RESULT:     -12.1      2.309      2.725
REMARK SMILES Cc1ccc(F)c(NC(=O)NC(=O)CCCCC(=O)NCCCNC(=O)c2ccc(-c3c4nc(c(-c5cc(S(=O)(=O)[O-])ccc5F)c5ccc([nH]5)c(-c5cc(S(=O)(=O)[O-])ccc5F)c5nc(c(-c6cc(S(=O)(=O)[O-])ccc6F)c6ccc3[nH]6)C=C5)C=C4)cc2)c1
REMARK SMILES IDX 21 1 20 2 18 3 19 4 17 6 16 7 15 8 14 9 12 10 8 11 9 12
REMARK SMILES IDX 10 14 11 15 13 17 7 18 1 19 2 20 3 21 90 22 4 23 5 24 6 25
REMARK SMILES IDX 22 26 23 27 24 28 25 29 26 31 27 32 28 33 89 34 29 35 88 36
REMARK SMILES IDX 30 37 31 38 32 39 82 40 33 41 87 42 81 43 83 44 34 45 86 46
REMARK SMILES IDX 80 47 79 48 35 50 67 51 47 52 66 53 48 54 51 55 65 56 84 57
REMARK SMILES IDX 49 58 50 59 64 61 85 62 52 63 36 64 37 65 45 66 38 67 44 68
REMARK SMILES IDX 46 69 43 70 39 71 40 72 41 73 42 74 68 75 69 76 77 77 70 78
REMARK SMILES IDX 76 79 78 80 75 81 71 82 72 83 73 84 74 85 53 86 54 87 62 88
REMARK SMILES IDX 55 89 61 90 63 91 60 92 56 93 57 94 58 95 59 96
REMARK H PARENT 20 5 8 13 11 16 24 30 83 49 51 60
REMARK Flexibility Score: inf
ROOT
ATOM      1  C   UNL A   1      31.853  29.777  25.106  1.00  0.00     0.117 C 
ENDROOT
BRANCH   1   2
ATOM      2  N   UNL A   1      33.038  29.693  24.283  1.00  0.00    -0.356 N 
ATOM      3  C   UNL A   1      33.369  28.760  23.348  1.00  0.00     0.219 C 
ATOM      4  O   UNL A   1      34.365  28.954  22.650  1.00  0.00    -0.275 OA
ATOM      5  H   UNL A   1      33.698  30.411  24.418  1.00  0.00     0.163 HD
BRANCH   3   6
ATOM      6  C   UNL A   1      32.508  27.529  23.156  1.00  0.00     0.100 C 
BRANCH   6   7
ATOM      7  C   UNL A   1      32.965  26.300  23.943  1.00  0.00     0.010 C 
BRANCH   7   8
ATOM      8  C   UNL A   1      33.709  26.541  25.262  1.00  0.00     0.010 C 
BRANCH   8   9
ATOM      9  C   UNL A   1      32.971  26.162  26.544  1.00  0.00     0.100 C 
BRANCH   9  10
ATOM     10  C   UNL A   1      31.534  25.742  26.353  1.00  0.00     0.227 C 
ATOM     11  N   UNL A   1      32.838  22.756  26.651  1.00  0.00    -0.305 N 
ATOM     12  C   UNL A   1      31.635  23.350  26.826  1.00  0.00     0.325 C 
ATOM     13  H   UNL A   1      33.040  22.102  27.359  1.00  0.00     0.171 HD
ATOM     14  O   UNL A   1      30.880  22.872  27.676  1.00  0.00    -0.248 OA
ATOM     15  N   UNL A   1      31.231  24.422  26.106  1.00  0.00    -0.278 N 
ATOM     16  H   UNL A   1      30.661  24.239  25.324  1.00  0.00     0.174 HD
ATOM     17  O   UNL A   1      30.617  26.565  26.399  1.00  0.00    -0.275 OA
BRANCH  11  18
ATOM     18  C   UNL A   1      33.871  22.853  25.697  1.00  0.00     0.079 A 
ATOM     19  C   UNL A   1      37.532  23.968  25.880  1.00  0.00     0.044 C 
ATOM     20  C   UNL A   1      36.222  23.461  25.342  1.00  0.00    -0.049 A 
ATOM     21  C   UNL A   1      36.048  23.295  23.965  1.00  0.00     0.006 A 
ATOM     22  C   UNL A   1      35.134  23.225  26.198  1.00  0.00     0.032 A 
ATOM     23  C   UNL A   1      34.816  22.879  23.461  1.00  0.00     0.042 A 
ATOM     24  C   UNL A   1      33.742  22.651  24.322  1.00  0.00     0.146 A 
ATOM     25  F   UNL A   1      32.591  22.233  23.780  1.00  0.00    -0.205 F 
ENDBRANCH  11  18
ENDBRANCH   9  10
ENDBRANCH   8   9
ENDBRANCH   7   8
ENDBRANCH   6   7
ENDBRANCH   3   6
ENDBRANCH   1   2
BRANCH   1  26
ATOM     26  C   UNL A   1      32.143  29.615  26.589  1.00  0.00     0.042 C 
BRANCH  26  27
ATOM     27  C   UNL A   1      33.547  30.068  26.933  1.00  0.00     0.118 C 
BRANCH  27  28
ATOM     28  N   UNL A   1      33.573  31.335  27.658  1.00  0.00    -0.352 N 
ATOM     29  C   UNL A   1      34.558  31.819  28.489  1.00  0.00     0.251 C 
ATOM     30  H   UNL A   1      32.787  31.915  27.538  1.00  0.00     0.163 HD
ATOM     31  O   UNL A   1      34.390  32.873  29.094  1.00  0.00    -0.269 OA
BRANCH  29  32
ATOM     32  C   UNL A   1      35.774  31.001  28.684  1.00  0.00     0.039 A 
ATOM     33  C   UNL A   1      36.988  31.453  28.167  1.00  0.00     0.014 A 
ATOM     34  C   UNL A   1      35.728  29.869  29.499  1.00  0.00     0.014 A 
ATOM     35  C   UNL A   1      38.170  30.818  28.548  1.00  0.00     0.010 A 
ATOM     36  C   UNL A   1      36.909  29.324  29.977  1.00  0.00     0.010 A 
ATOM     37  C   UNL A   1      38.143  29.783  29.499  1.00  0.00    -0.014 A 
BRANCH  37  38
ATOM     38  C   UNL A   1      39.391  29.144  29.988  1.00  0.00     0.031 A 
ATOM     39  C   UNL A   1      40.055  29.675  31.231  1.00  0.00     0.074 A 
ATOM     40  C   UNL A   1      39.958  28.150  29.274  1.00  0.00     0.049 A 
ATOM     41  N   UNL A   1      41.186  29.323  31.783  1.00  0.00    -0.248 NA
ATOM     42  C   UNL A   1      39.380  30.792  31.910  1.00  0.00     0.031 C 
ATOM     43  C   UNL A   1      39.446  27.614  28.009  1.00  0.00     0.029 A 
ATOM     44  N   UNL A   1      41.088  27.411  29.510  1.00  0.00    -0.354 N 
ATOM     45  C   UNL A   1      41.370  30.196  32.851  1.00  0.00     0.074 A 
ATOM     46  C   UNL A   1      40.284  31.148  32.807  1.00  0.00     0.031 C 
ATOM     47  C   UNL A   1      40.234  26.602  27.607  1.00  0.00     0.029 A 
ATOM     48  C   UNL A   1      41.322  26.440  28.563  1.00  0.00     0.049 A 
ATOM     49  H   UNL A   1      41.678  27.561  30.283  1.00  0.00     0.167 HD
ATOM     50  C   UNL A   1      42.334  30.181  33.805  1.00  0.00     0.034 A 
ATOM     51  C   UNL A   1      42.301  25.516  28.488  1.00  0.00     0.034 A 
ATOM     52  C   UNL A   1      43.384  29.194  33.845  1.00  0.00     0.049 A 
ATOM     53  C   UNL A   1      43.326  25.474  29.593  1.00  0.00     0.074 A 
ATOM     54  C   UNL A   1      44.393  29.037  34.779  1.00  0.00     0.029 A 
ATOM     55  N   UNL A   1      43.551  28.181  32.907  1.00  0.00    -0.354 N 
ATOM     56  N   UNL A   1      43.456  26.269  30.630  1.00  0.00    -0.248 NA
ATOM     57  C   UNL A   1      44.315  24.392  29.533  1.00  0.00     0.031 C 
ATOM     58  C   UNL A   1      45.194  27.959  34.381  1.00  0.00     0.029 A 
ATOM     59  C   UNL A   1      44.647  27.401  33.236  1.00  0.00     0.049 A 
ATOM     60  H   UNL A   1      42.973  28.040  32.122  1.00  0.00     0.167 HD
ATOM     61  C   UNL A   1      44.525  25.763  31.364  1.00  0.00     0.074 A 
ATOM     62  C   UNL A   1      44.983  24.581  30.660  1.00  0.00     0.031 C 
ATOM     63  C   UNL A   1      45.082  26.228  32.513  1.00  0.00     0.034 A 
BRANCH  50  64
ATOM     64  C   UNL A   1      42.282  31.267  34.856  1.00  0.00     0.023 A 
ATOM     65  C   UNL A   1      42.941  32.497  34.675  1.00  0.00     0.031 A 
ATOM     66  C   UNL A   1      41.632  31.047  36.083  1.00  0.00     0.131 A 
ATOM     67  C   UNL A   1      43.030  33.410  35.737  1.00  0.00     0.055 A 
ATOM     68  C   UNL A   1      41.640  32.004  37.101  1.00  0.00     0.041 A 
ATOM     69  F   UNL A   1      41.002  29.888  36.326  1.00  0.00    -0.206 F 
ATOM     70  C   UNL A   1      42.359  33.185  36.940  1.00  0.00     0.022 A 
BRANCH  67  71
ATOM     71  S   UNL A   1      44.178  34.806  35.581  1.00  0.00     0.124 S 
ATOM     72  O   UNL A   1      43.262  35.905  35.280  1.00  0.00    -0.237 OA
ATOM     73  O   UNL A   1      44.812  34.845  36.893  1.00  0.00    -0.237 OA
ATOM     74  O   UNL A   1      45.050  34.411  34.477  1.00  0.00    -0.744 OA
ENDBRANCH  67  71
ENDBRANCH  50  64
BRANCH  51  75
ATOM     75  C   UNL A   1      42.343  24.540  27.361  1.00  0.00     0.023 A 
ATOM     76  C   UNL A   1      41.582  23.359  27.401  1.00  0.00     0.031 A 
ATOM     77  C   UNL A   1      43.168  24.752  26.243  1.00  0.00     0.131 A 
ATOM     78  C   UNL A   1      41.698  22.413  26.370  1.00  0.00     0.055 A 
ATOM     79  C   UNL A   1      43.243  23.831  25.195  1.00  0.00     0.041 A 
ATOM     80  F   UNL A   1      43.905  25.869  26.147  1.00  0.00    -0.206 F 
ATOM     81  C   UNL A   1      42.517  22.645  25.263  1.00  0.00     0.022 A 
BRANCH  78  82
ATOM     82  S   UNL A   1      40.823  20.833  26.538  1.00  0.00     0.124 S 
ATOM     83  O   UNL A   1      39.495  21.172  26.041  1.00  0.00    -0.237 OA
ATOM     84  O   UNL A   1      41.621  19.955  25.687  1.00  0.00    -0.237 OA
ATOM     85  O   UNL A   1      40.903  20.549  27.969  1.00  0.00    -0.744 OA
ENDBRANCH  78  82
ENDBRANCH  51  75
BRANCH  63  86
ATOM     86  C   UNL A   1      46.212  25.416  33.092  1.00  0.00     0.023 A 
ATOM     87  C   UNL A   1      45.975  24.341  33.965  1.00  0.00     0.031 A 
ATOM     88  C   UNL A   1      47.545  25.746  32.791  1.00  0.00     0.131 A 
ATOM     89  C   UNL A   1      47.056  23.683  34.568  1.00  0.00     0.055 A 
ATOM     90  C   UNL A   1      48.616  25.043  33.340  1.00  0.00     0.041 A 
ATOM     91  F   UNL A   1      47.826  26.764  31.961  1.00  0.00    -0.206 F 
ATOM     92  C   UNL A   1      48.375  24.017  34.250  1.00  0.00     0.022 A 
BRANCH  89  93
ATOM     93  S   UNL A   1      46.714  22.466  35.868  1.00  0.00     0.124 S 
ATOM     94  O   UNL A   1      45.261  22.347  35.797  1.00  0.00    -0.237 OA
ATOM     95  O   UNL A   1      47.471  21.305  35.415  1.00  0.00    -0.237 OA
ATOM     96  O   UNL A   1      47.225  23.106  37.080  1.00  0.00    -0.744 OA
ENDBRANCH  89  93
ENDBRANCH  63  86
ENDBRANCH  37  38
ENDBRANCH  29  32
ENDBRANCH  27  28
ENDBRANCH  26  27
ENDBRANCH   1  26
TORSDOF 18
ENDMDL
MODEL 3
REMARK VINA RESULT:     -11.9      4.787      9.935
REMARK SMILES Cc1ccc(F)c(NC(=O)NC(=O)CCCCC(=O)NCCCNC(=O)c2ccc(-c3c4nc(c(-c5cc(S(=O)(=O)[O-])ccc5F)c5ccc([nH]5)c(-c5cc(S(=O)(=O)[O-])ccc5F)c5nc(c(-c6cc(S(=O)(=O)[O-])ccc6F)c6ccc3[nH]6)C=C5)C=C4)cc2)c1
REMARK SMILES IDX 21 1 20 2 18 3 19 4 17 6 16 7 15 8 14 9 12 10 8 11 9 12
REMARK SMILES IDX 10 14 11 15 13 17 7 18 1 19 2 20 3 21 90 22 4 23 5 24 6 25
REMARK SMILES IDX 22 26 23 27 24 28 25 29 26 31 27 32 28 33 89 34 29 35 88 36
REMARK SMILES IDX 30 37 31 38 32 39 82 40 33 41 87 42 81 43 83 44 34 45 86 46
REMARK SMILES IDX 80 47 79 48 35 50 67 51 47 52 66 53 48 54 51 55 65 56 84 57
REMARK SMILES IDX 49 58 50 59 64 61 85 62 52 63 36 64 37 65 45 66 38 67 44 68
REMARK SMILES IDX 46 69 43 70 39 71 40 72 41 73 42 74 68 75 69 76 77 77 70 78
REMARK SMILES IDX 76 79 78 80 75 81 71 82 72 83 73 84 74 85 53 86 54 87 62 88
REMARK SMILES IDX 55 89 61 90 63 91 60 92 56 93 57 94 58 95 59 96
REMARK H PARENT 20 5 8 13 11 16 24 30 83 49 51 60
REMARK Flexibility Score: inf
ROOT
ATOM      1  C   UNL A   1      35.060  22.854  24.163  1.00  0.00     0.117 C 
ENDROOT
BRANCH   1   2
ATOM      2  N   UNL A   1      34.481  22.969  22.844  1.00  0.00    -0.356 N 
ATOM      3  C   UNL A   1      33.531  23.835  22.397  1.00  0.00     0.219 C 
ATOM      4  O   UNL A   1      33.280  23.862  21.192  1.00  0.00    -0.275 OA
ATOM      5  H   UNL A   1      34.821  22.331  22.176  1.00  0.00     0.163 HD
BRANCH   3   6
ATOM      6  C   UNL A   1      32.823  24.762  23.364  1.00  0.00     0.100 C 
BRANCH   6   7
ATOM      7  C   UNL A   1      31.313  24.548  23.466  1.00  0.00     0.010 C 
BRANCH   7   8
ATOM      8  C   UNL A   1      30.442  25.775  23.758  1.00  0.00     0.010 C 
BRANCH   8   9
ATOM      9  C   UNL A   1      29.816  25.857  25.149  1.00  0.00     0.100 C 
BRANCH   9  10
ATOM     10  C   UNL A   1      30.722  25.440  26.282  1.00  0.00     0.227 C 
ATOM     11  N   UNL A   1      31.492  28.619  26.239  1.00  0.00    -0.305 N 
ATOM     12  C   UNL A   1      31.516  27.591  27.117  1.00  0.00     0.325 C 
ATOM     13  H   UNL A   1      31.194  29.461  26.654  1.00  0.00     0.171 HD
ATOM     14  O   UNL A   1      31.382  27.858  28.314  1.00  0.00    -0.248 OA
ATOM     15  N   UNL A   1      31.692  26.303  26.740  1.00  0.00    -0.278 N 
ATOM     16  H   UNL A   1      32.607  25.947  26.799  1.00  0.00     0.174 HD
ATOM     17  O   UNL A   1      30.622  24.326  26.802  1.00  0.00    -0.275 OA
BRANCH  11  18
ATOM     18  C   UNL A   1      31.792  28.772  24.870  1.00  0.00     0.079 A 
ATOM     19  C   UNL A   1      29.737  29.867  21.828  1.00  0.00     0.044 C 
ATOM     20  C   UNL A   1      30.889  29.406  22.678  1.00  0.00    -0.049 A 
ATOM     21  C   UNL A   1      32.082  28.996  22.078  1.00  0.00     0.006 A 
ATOM     22  C   UNL A   1      30.759  29.303  24.073  1.00  0.00     0.032 A 
ATOM     23  C   UNL A   1      33.131  28.514  22.861  1.00  0.00     0.042 A 
ATOM     24  C   UNL A   1      32.988  28.414  24.245  1.00  0.00     0.146 A 
ATOM     25  F   UNL A   1      34.037  27.965  24.946  1.00  0.00    -0.205 F 
ENDBRANCH  11  18
ENDBRANCH   9  10
ENDBRANCH   8   9
ENDBRANCH   7   8
ENDBRANCH   6   7
ENDBRANCH   3   6
ENDBRANCH   1   2
BRANCH   1  26
ATOM     26  C   UNL A   1      36.505  22.383  24.144  1.00  0.00     0.042 C 
BRANCH  26  27
ATOM     27  C   UNL A   1      37.068  22.261  25.545  1.00  0.00     0.118 C 
BRANCH  27  28
ATOM     28  N   UNL A   1      38.153  21.289  25.638  1.00  0.00    -0.352 N 
ATOM     29  C   UNL A   1      39.399  21.457  26.198  1.00  0.00     0.251 C 
ATOM     30  H   UNL A   1      37.971  20.403  25.250  1.00  0.00     0.163 HD
ATOM     31  O   UNL A   1      40.235  20.562  26.119  1.00  0.00    -0.269 OA
BRANCH  29  32
ATOM     32  C   UNL A   1      39.718  22.760  26.819  1.00  0.00     0.039 A 
ATOM     33  C   UNL A   1      40.684  22.817  27.823  1.00  0.00     0.014 A 
ATOM     34  C   UNL A   1      39.162  23.932  26.303  1.00  0.00     0.014 A 
ATOM     35  C   UNL A   1      41.160  24.059  28.242  1.00  0.00     0.010 A 
ATOM     36  C   UNL A   1      39.727  25.155  26.627  1.00  0.00     0.010 A 
ATOM     37  C   UNL A   1      40.724  25.235  27.609  1.00  0.00    -0.014 A 
BRANCH  37  38
ATOM     38  C   UNL A   1      41.273  26.565  27.974  1.00  0.00     0.031 A 
ATOM     39  C   UNL A   1      42.689  26.910  27.595  1.00  0.00     0.074 A 
ATOM     40  C   UNL A   1      40.529  27.418  28.708  1.00  0.00     0.049 A 
ATOM     41  N   UNL A   1      43.392  27.973  27.885  1.00  0.00    -0.248 NA
ATOM     42  C   UNL A   1      43.432  25.891  26.836  1.00  0.00     0.031 C 
ATOM     43  C   UNL A   1      39.175  27.153  29.203  1.00  0.00     0.029 A 
ATOM     44  N   UNL A   1      40.804  28.680  29.165  1.00  0.00    -0.354 N 
ATOM     45  C   UNL A   1      44.663  27.735  27.372  1.00  0.00     0.074 A 
ATOM     46  C   UNL A   1      44.656  26.392  26.839  1.00  0.00     0.031 C 
ATOM     47  C   UNL A   1      38.722  28.238  29.853  1.00  0.00     0.029 A 
ATOM     48  C   UNL A   1      39.761  29.260  29.851  1.00  0.00     0.049 A 
ATOM     49  H   UNL A   1      41.666  29.131  29.016  1.00  0.00     0.167 HD
ATOM     50  C   UNL A   1      45.726  28.575  27.313  1.00  0.00     0.034 A 
ATOM     51  C   UNL A   1      39.658  30.486  30.404  1.00  0.00     0.034 A 
ATOM     52  C   UNL A   1      45.690  29.924  27.818  1.00  0.00     0.049 A 
ATOM     53  C   UNL A   1      40.827  31.427  30.270  1.00  0.00     0.074 A 
ATOM     54  C   UNL A   1      46.679  30.892  27.780  1.00  0.00     0.029 A 
ATOM     55  N   UNL A   1      44.593  30.503  28.447  1.00  0.00    -0.354 N 
ATOM     56  N   UNL A   1      42.006  31.211  29.730  1.00  0.00    -0.248 NA
ATOM     57  C   UNL A   1      40.642  32.786  30.793  1.00  0.00     0.031 C 
ATOM     58  C   UNL A   1      46.195  32.037  28.425  1.00  0.00     0.029 A 
ATOM     59  C   UNL A   1      44.882  31.809  28.805  1.00  0.00     0.049 A 
ATOM     60  H   UNL A   1      43.735  30.049  28.613  1.00  0.00     0.167 HD
ATOM     61  C   UNL A   1      42.691  32.419  29.821  1.00  0.00     0.074 A 
ATOM     62  C   UNL A   1      41.783  33.361  30.444  1.00  0.00     0.031 C 
ATOM     63  C   UNL A   1      43.955  32.726  29.429  1.00  0.00     0.034 A 
BRANCH  50  64
ATOM     64  C   UNL A   1      46.995  28.038  26.690  1.00  0.00     0.023 A 
ATOM     65  C   UNL A   1      47.263  28.193  25.317  1.00  0.00     0.031 A 
ATOM     66  C   UNL A   1      47.914  27.300  27.457  1.00  0.00     0.131 A 
ATOM     67  C   UNL A   1      48.354  27.529  24.735  1.00  0.00     0.055 A 
ATOM     68  C   UNL A   1      49.052  26.724  26.887  1.00  0.00     0.041 A 
ATOM     69  F   UNL A   1      47.706  27.099  28.767  1.00  0.00    -0.206 F 
ATOM     70  C   UNL A   1      49.267  26.819  25.515  1.00  0.00     0.022 A 
BRANCH  67  71
ATOM     71  S   UNL A   1      48.457  27.462  22.925  1.00  0.00     0.124 S 
ATOM     72  O   UNL A   1      49.750  28.100  22.682  1.00  0.00    -0.237 OA
ATOM     73  O   UNL A   1      48.391  26.031  22.655  1.00  0.00    -0.237 OA
ATOM     74  O   UNL A   1      47.296  28.236  22.487  1.00  0.00    -0.744 OA
ENDBRANCH  67  71
ENDBRANCH  50  64
BRANCH  51  75
ATOM     75  C   UNL A   1      38.404  30.907  31.093  1.00  0.00     0.023 A 
ATOM     76  C   UNL A   1      37.372  31.548  30.386  1.00  0.00     0.031 A 
ATOM     77  C   UNL A   1      38.229  30.709  32.474  1.00  0.00     0.131 A 
ATOM     78  C   UNL A   1      36.236  32.012  31.067  1.00  0.00     0.055 A 
ATOM     79  C   UNL A   1      37.075  31.129  33.140  1.00  0.00     0.041 A 
ATOM     80  F   UNL A   1      39.177  30.091  33.195  1.00  0.00    -0.206 F 
ATOM     81  C   UNL A   1      36.076  31.799  32.439  1.00  0.00     0.022 A 
BRANCH  78  82
ATOM     82  S   UNL A   1      35.003  32.974  30.148  1.00  0.00     0.124 S 
ATOM     83  O   UNL A   1      34.526  31.997  29.176  1.00  0.00    -0.237 OA
ATOM     84  O   UNL A   1      34.063  33.343  31.201  1.00  0.00    -0.237 OA
ATOM     85  O   UNL A   1      35.779  34.081  29.593  1.00  0.00    -0.744 OA
ENDBRANCH  78  82
ENDBRANCH  51  75
BRANCH  63  86
ATOM     86  C   UNL A   1      44.393  34.155  29.622  1.00  0.00     0.023 A 
ATOM     87  C   UNL A   1      44.086  35.154  28.684  1.00  0.00     0.031 A 
ATOM     88  C   UNL A   1      45.157  34.513  30.747  1.00  0.00     0.131 A 
ATOM     89  C   UNL A   1      44.606  36.446  28.846  1.00  0.00     0.055 A 
ATOM     90  C   UNL A   1      45.615  35.816  30.938  1.00  0.00     0.041 A 
ATOM     91  F   UNL A   1      45.478  33.597  31.675  1.00  0.00    -0.206 F 
ATOM     92  C   UNL A   1      45.356  36.787  29.975  1.00  0.00     0.022 A 
BRANCH  89  93
ATOM     93  S   UNL A   1      44.393  37.641  27.499  1.00  0.00     0.124 S 
ATOM     94  O   UNL A   1      45.698  37.599  26.846  1.00  0.00    -0.237 OA
ATOM     95  O   UNL A   1      43.285  37.065  26.745  1.00  0.00    -0.237 OA
ATOM     96  O   UNL A   1      44.087  38.890  28.195  1.00  0.00    -0.744 OA
ENDBRANCH  89  93
ENDBRANCH  63  86
ENDBRANCH  37  38
ENDBRANCH  29  32
ENDBRANCH  27  28
ENDBRANCH  26  27
ENDBRANCH   1  26
TORSDOF 18
ENDMDL
