MODEL 1
REMARK VINA RESULT:     -11.4      0.000      0.000
REMARK SMILES CC[NH2+][C@@]1(C(=O)NCCCNC(=O)c2ccc(-c3c4nc(c(-c5cc(S(=O)(=O)[O-])ccc5F)c5ccc([nH]5)c(-c5cc(S(=O)(=O)[O-])ccc5F)c5nc(c(-c6cc(S(=O)(=O)[O-])ccc6F)c6ccc3[nH]6)C=C5)C=C4)cc2)CC[C@@H](Oc2cccc(OC)c2)C1
REMARK SMILES IDX 9 1 8 2 7 3 5 4 6 5 4 7 77 8 89 9 78 10 79 11 3 12 2 15 1 16
REMARK SMILES IDX 80 17 81 18 82 19 88 20 83 21 85 22 84 23 86 24 87 25 10 26
REMARK SMILES IDX 11 27 12 28 13 30 14 31 15 32 76 33 16 34 75 35 17 36 18 37
REMARK SMILES IDX 19 38 69 39 20 40 74 41 68 42 70 43 21 44 73 45 67 46 66 47
REMARK SMILES IDX 22 49 54 50 34 51 53 52 35 53 38 54 52 55 71 56 36 57 37 58
REMARK SMILES IDX 51 60 72 61 39 62 23 63 24 64 32 65 25 66 31 67 33 68 30 69
REMARK SMILES IDX 26 70 27 71 28 72 29 73 55 74 56 75 64 76 57 77 63 78 65 79
REMARK SMILES IDX 62 80 58 81 59 82 60 83 61 84 40 85 41 86 49 87 42 88 48 89
REMARK SMILES IDX 50 90 47 91 43 92 44 93 45 94 46 95
REMARK H PARENT 7 6 3 13 3 14 11 29 70 48 38 59
REMARK Flexibility Score: inf
ROOT
ATOM      1  C   UNL A   1      37.537  19.608  25.100  1.00  0.00     0.042 C 
ENDROOT
BRANCH   1   2
ATOM      2  C   UNL A   1      36.342  20.550  25.040  1.00  0.00     0.118 C 
BRANCH   2   3
ATOM      3  N   UNL A   1      36.775  21.919  25.188  1.00  0.00    -0.351 N 
ATOM      4  C   UNL A   1      36.089  23.080  25.320  1.00  0.00     0.281 C 
ATOM      5  O   UNL A   1      36.732  24.084  24.985  1.00  0.00    -0.268 OA
ATOM      6  H   UNL A   1      37.753  22.030  25.194  1.00  0.00     0.163 HD
BRANCH   4   7
ATOM      7  C   UNL A   1      34.604  23.180  25.846  1.00  0.00     0.179 C 
ATOM      8  C   UNL A   1      34.329  22.718  27.290  1.00  0.00     0.083 C 
ATOM      9  C   UNL A   1      33.682  22.316  24.960  1.00  0.00     0.124 C 
ATOM     10  C   UNL A   1      33.487  21.441  27.231  1.00  0.00     0.052 C 
ATOM     11  C   UNL A   1      33.398  21.041  25.756  1.00  0.00     0.180 C 
BRANCH   7  12
ATOM     12  N   UNL A   1      34.176  24.610  25.706  1.00  0.00    -0.334 N 
ATOM     13  H   UNL A   1      33.734  24.898  26.579  1.00  0.00     0.347 HD
ATOM     14  H   UNL A   1      35.015  25.149  25.493  1.00  0.00     0.347 HD
BRANCH  12  15
ATOM     15  C   UNL A   1      33.230  24.847  24.611  1.00  0.00     0.257 C 
ATOM     16  C   UNL A   1      33.729  25.990  23.742  1.00  0.00     0.071 C 
ENDBRANCH  12  15
ENDBRANCH   7  12
BRANCH  11  17
ATOM     17  O   UNL A   1      32.249  20.287  25.334  1.00  0.00    -0.490 OA
BRANCH  17  18
ATOM     18  C   UNL A   1      32.527  19.096  24.733  1.00  0.00     0.123 A 
ATOM     19  C   UNL A   1      32.497  19.007  23.344  1.00  0.00     0.047 A 
ATOM     20  C   UNL A   1      32.829  17.981  25.508  1.00  0.00     0.092 A 
ATOM     21  C   UNL A   1      32.876  17.816  22.727  1.00  0.00     0.008 A 
ATOM     22  C   UNL A   1      33.265  16.807  24.900  1.00  0.00     0.122 A 
ATOM     23  C   UNL A   1      33.279  16.727  23.506  1.00  0.00     0.046 A 
BRANCH  22  24
ATOM     24  O   UNL A   1      33.700  15.696  25.571  1.00  0.00    -0.497 OA
ATOM     25  C   UNL A   1      32.738  14.654  25.727  1.00  0.00     0.278 C 
ENDBRANCH  22  24
ENDBRANCH  17  18
ENDBRANCH  11  17
ENDBRANCH   4   7
ENDBRANCH   2   3
ENDBRANCH   1   2
BRANCH   1  26
ATOM     26  C   UNL A   1      38.776  20.286  25.660  1.00  0.00     0.118 C 
BRANCH  26  27
ATOM     27  N   UNL A   1      39.803  19.308  25.996  1.00  0.00    -0.352 N 
ATOM     28  C   UNL A   1      41.148  19.491  26.180  1.00  0.00     0.251 C 
ATOM     29  H   UNL A   1      39.485  18.383  26.106  1.00  0.00     0.163 HD
ATOM     30  O   UNL A   1      41.902  18.519  26.129  1.00  0.00    -0.269 OA
BRANCH  28  31
ATOM     31  C   UNL A   1      41.675  20.845  26.434  1.00  0.00     0.039 A 
ATOM     32  C   UNL A   1      41.810  21.740  25.372  1.00  0.00     0.014 A 
ATOM     33  C   UNL A   1      42.052  21.222  27.726  1.00  0.00     0.014 A 
ATOM     34  C   UNL A   1      42.274  23.032  25.618  1.00  0.00     0.010 A 
ATOM     35  C   UNL A   1      42.407  22.537  27.986  1.00  0.00     0.010 A 
ATOM     36  C   UNL A   1      42.543  23.450  26.933  1.00  0.00    -0.014 A 
BRANCH  36  37
ATOM     37  C   UNL A   1      43.001  24.830  27.230  1.00  0.00     0.031 A 
ATOM     38  C   UNL A   1      42.068  25.792  27.915  1.00  0.00     0.074 A 
ATOM     39  C   UNL A   1      44.221  25.227  26.820  1.00  0.00     0.049 A 
ATOM     40  N   UNL A   1      42.237  27.062  28.180  1.00  0.00    -0.248 NA
ATOM     41  C   UNL A   1      40.756  25.264  28.321  1.00  0.00     0.031 C 
ATOM     42  C   UNL A   1      45.186  24.390  26.105  1.00  0.00     0.029 A 
ATOM     43  N   UNL A   1      44.855  26.437  26.937  1.00  0.00    -0.354 N 
ATOM     44  C   UNL A   1      41.047  27.486  28.761  1.00  0.00     0.074 A 
ATOM     45  C   UNL A   1      40.143  26.358  28.743  1.00  0.00     0.031 C 
ATOM     46  C   UNL A   1      46.302  25.102  25.877  1.00  0.00     0.029 A 
ATOM     47  C   UNL A   1      46.112  26.459  26.376  1.00  0.00     0.049 A 
ATOM     48  H   UNL A   1      44.450  27.218  27.380  1.00  0.00     0.167 HD
ATOM     49  C   UNL A   1      40.748  28.699  29.289  1.00  0.00     0.034 A 
ATOM     50  C   UNL A   1      47.002  27.464  26.267  1.00  0.00     0.034 A 
ATOM     51  C   UNL A   1      41.675  29.803  29.309  1.00  0.00     0.049 A 
ATOM     52  C   UNL A   1      46.641  28.810  26.841  1.00  0.00     0.074 A 
ATOM     53  C   UNL A   1      41.510  31.058  29.869  1.00  0.00     0.029 A 
ATOM     54  N   UNL A   1      42.943  29.788  28.737  1.00  0.00    -0.354 N 
ATOM     55  N   UNL A   1      45.533  29.183  27.442  1.00  0.00    -0.248 NA
ATOM     56  C   UNL A   1      47.653  29.867  26.734  1.00  0.00     0.031 C 
ATOM     57  C   UNL A   1      42.641  31.823  29.567  1.00  0.00     0.029 A 
ATOM     58  C   UNL A   1      43.553  31.022  28.898  1.00  0.00     0.049 A 
ATOM     59  H   UNL A   1      43.347  29.014  28.283  1.00  0.00     0.167 HD
ATOM     60  C   UNL A   1      45.730  30.510  27.811  1.00  0.00     0.074 A 
ATOM     61  C   UNL A   1      47.068  30.864  27.381  1.00  0.00     0.031 C 
ATOM     62  C   UNL A   1      44.886  31.359  28.452  1.00  0.00     0.034 A 
BRANCH  49  63
ATOM     63  C   UNL A   1      39.360  28.892  29.855  1.00  0.00     0.023 A 
ATOM     64  C   UNL A   1      38.332  29.495  29.109  1.00  0.00     0.031 A 
ATOM     65  C   UNL A   1      39.068  28.499  31.173  1.00  0.00     0.131 A 
ATOM     66  C   UNL A   1      37.093  29.764  29.710  1.00  0.00     0.055 A 
ATOM     67  C   UNL A   1      37.803  28.686  31.736  1.00  0.00     0.041 A 
ATOM     68  F   UNL A   1      40.013  27.939  31.946  1.00  0.00    -0.206 F 
ATOM     69  C   UNL A   1      36.812  29.338  31.009  1.00  0.00     0.022 A 
BRANCH  66  70
ATOM     70  S   UNL A   1      35.913  30.819  28.823  1.00  0.00     0.124 S 
ATOM     71  O   UNL A   1      35.180  29.837  28.028  1.00  0.00    -0.237 OA
ATOM     72  O   UNL A   1      35.168  31.444  29.910  1.00  0.00    -0.237 OA
ATOM     73  O   UNL A   1      36.768  31.719  28.053  1.00  0.00    -0.744 OA
ENDBRANCH  66  70
ENDBRANCH  49  63
BRANCH  50  74
ATOM     74  C   UNL A   1      48.309  27.244  25.583  1.00  0.00     0.023 A 
ATOM     75  C   UNL A   1      48.453  27.470  24.206  1.00  0.00     0.031 A 
ATOM     76  C   UNL A   1      49.428  26.771  26.293  1.00  0.00     0.131 A 
ATOM     77  C   UNL A   1      49.671  27.180  23.572  1.00  0.00     0.055 A 
ATOM     78  C   UNL A   1      50.654  26.539  25.668  1.00  0.00     0.041 A 
ATOM     79  F   UNL A   1      49.349  26.543  27.613  1.00  0.00    -0.206 F 
ATOM     80  C   UNL A   1      50.777  26.730  24.296  1.00  0.00     0.022 A 
BRANCH  77  81
ATOM     81  S   UNL A   1      49.762  27.312  21.765  1.00  0.00     0.124 S 
ATOM     82  O   UNL A   1      51.125  26.865  21.502  1.00  0.00    -0.237 OA
ATOM     83  O   UNL A   1      48.697  26.409  21.341  1.00  0.00    -0.237 OA
ATOM     84  O   UNL A   1      49.510  28.730  21.515  1.00  0.00    -0.744 OA
ENDBRANCH  77  81
ENDBRANCH  50  74
BRANCH  62  85
ATOM     85  C   UNL A   1      45.408  32.739  28.764  1.00  0.00     0.023 A 
ATOM     86  C   UNL A   1      45.251  33.812  27.870  1.00  0.00     0.031 A 
ATOM     87  C   UNL A   1      46.078  32.982  29.977  1.00  0.00     0.131 A 
ATOM     88  C   UNL A   1      45.807  35.063  28.176  1.00  0.00     0.055 A 
ATOM     89  C   UNL A   1      46.568  34.245  30.307  1.00  0.00     0.041 A 
ATOM     90  F   UNL A   1      46.259  31.993  30.867  1.00  0.00    -0.206 F 
ATOM     91  C   UNL A   1      46.446  35.292  29.399  1.00  0.00     0.022 A 
BRANCH  88  92
ATOM     92  S   UNL A   1      45.771  36.365  26.914  1.00  0.00     0.124 S 
ATOM     93  O   UNL A   1      46.244  35.652  25.731  1.00  0.00    -0.237 OA
ATOM     94  O   UNL A   1      44.364  36.753  26.905  1.00  0.00    -0.237 OA
ATOM     95  O   UNL A   1      46.688  37.375  27.437  1.00  0.00    -0.744 OA
ENDBRANCH  88  92
ENDBRANCH  62  85
ENDBRANCH  36  37
ENDBRANCH  28  31
ENDBRANCH  26  27
ENDBRANCH   1  26
TORSDOF 18
ENDMDL
MODEL 2
REMARK VINA RESULT:     -11.3      6.331     11.322
REMARK SMILES CC[NH2+][C@@]1(C(=O)NCCCNC(=O)c2ccc(-c3c4nc(c(-c5cc(S(=O)(=O)[O-])ccc5F)c5ccc([nH]5)c(-c5cc(S(=O)(=O)[O-])ccc5F)c5nc(c(-c6cc(S(=O)(=O)[O-])ccc6F)c6ccc3[nH]6)C=C5)C=C4)cc2)CC[C@@H](Oc2cccc(OC)c2)C1
REMARK SMILES IDX 9 1 8 2 7 3 5 4 6 5 4 7 77 8 89 9 78 10 79 11 3 12 2 15 1 16
REMARK SMILES IDX 80 17 81 18 82 19 88 20 83 21 85 22 84 23 86 24 87 25 10 26
REMARK SMILES IDX 11 27 12 28 13 30 14 31 15 32 76 33 16 34 75 35 17 36 18 37
REMARK SMILES IDX 19 38 69 39 20 40 74 41 68 42 70 43 21 44 73 45 67 46 66 47
REMARK SMILES IDX 22 49 54 50 34 51 53 52 35 53 38 54 52 55 71 56 36 57 37 58
REMARK SMILES IDX 51 60 72 61 39 62 23 63 24 64 32 65 25 66 31 67 33 68 30 69
REMARK SMILES IDX 26 70 27 71 28 72 29 73 55 74 56 75 64 76 57 77 63 78 65 79
REMARK SMILES IDX 62 80 58 81 59 82 60 83 61 84 40 85 41 86 49 87 42 88 48 89
REMARK SMILES IDX 50 90 47 91 43 92 44 93 45 94 46 95
REMARK H PARENT 7 6 3 13 3 14 11 29 70 48 38 59
REMARK Flexibility Score: inf
ROOT
ATOM      1  C   UNL A   1      31.404  31.853  26.469  1.00  0.00     0.042 C 
ENDROOT
BRANCH   1   2
ATOM      2  C   UNL A   1      31.423  30.376  26.098  1.00  0.00     0.118 C 
BRANCH   2   3
ATOM      3  N   UNL A   1      32.596  30.071  25.315  1.00  0.00    -0.351 N 
ATOM      4  C   UNL A   1      32.856  29.097  24.410  1.00  0.00     0.281 C 
ATOM      5  O   UNL A   1      34.062  28.857  24.262  1.00  0.00    -0.268 OA
ATOM      6  H   UNL A   1      33.349  30.687  25.466  1.00  0.00     0.163 HD
BRANCH   4   7
ATOM      7  C   UNL A   1      31.748  28.315  23.602  1.00  0.00     0.179 C 
ATOM      8  C   UNL A   1      30.657  27.589  24.412  1.00  0.00     0.083 C 
ATOM      9  C   UNL A   1      32.412  27.220  22.741  1.00  0.00     0.124 C 
ATOM     10  C   UNL A   1      30.859  26.081  24.243  1.00  0.00     0.052 C 
ATOM     11  C   UNL A   1      32.169  25.898  23.470  1.00  0.00     0.180 C 
BRANCH   7  12
ATOM     12  N   UNL A   1      31.091  29.297  22.679  1.00  0.00    -0.334 N 
ATOM     13  H   UNL A   1      31.395  30.235  22.942  1.00  0.00     0.347 HD
ATOM     14  H   UNL A   1      31.371  29.043  21.732  1.00  0.00     0.347 HD
BRANCH  12  15
ATOM     15  C   UNL A   1      29.626  29.262  22.712  1.00  0.00     0.257 C 
ATOM     16  C   UNL A   1      29.090  30.613  23.155  1.00  0.00     0.071 C 
ENDBRANCH  12  15
ENDBRANCH   7  12
BRANCH  11  17
ATOM     17  O   UNL A   1      32.317  24.711  22.673  1.00  0.00    -0.490 OA
BRANCH  17  18
ATOM     18  C   UNL A   1      33.072  23.726  23.237  1.00  0.00     0.123 A 
ATOM     19  C   UNL A   1      32.442  22.638  23.835  1.00  0.00     0.047 A 
ATOM     20  C   UNL A   1      34.460  23.818  23.219  1.00  0.00     0.092 A 
ATOM     21  C   UNL A   1      33.214  21.586  24.325  1.00  0.00     0.008 A 
ATOM     22  C   UNL A   1      35.235  22.747  23.651  1.00  0.00     0.122 A 
ATOM     23  C   UNL A   1      34.607  21.633  24.212  1.00  0.00     0.046 A 
BRANCH  22  24
ATOM     24  O   UNL A   1      36.600  22.686  23.564  1.00  0.00    -0.497 OA
ATOM     25  C   UNL A   1      37.239  21.809  24.491  1.00  0.00     0.278 C 
ENDBRANCH  22  24
ENDBRANCH  17  18
ENDBRANCH  11  17
ENDBRANCH   4   7
ENDBRANCH   2   3
ENDBRANCH   1   2
BRANCH   1  26
ATOM     26  C   UNL A   1      32.676  32.283  27.182  1.00  0.00     0.118 C 
BRANCH  26  27
ATOM     27  N   UNL A   1      32.620  33.691  27.552  1.00  0.00    -0.352 N 
ATOM     28  C   UNL A   1      33.256  34.345  28.573  1.00  0.00     0.251 C 
ATOM     29  H   UNL A   1      32.041  34.253  26.987  1.00  0.00     0.163 HD
ATOM     30  O   UNL A   1      32.841  35.446  28.937  1.00  0.00    -0.269 OA
BRANCH  28  31
ATOM     31  C   UNL A   1      34.425  33.725  29.225  1.00  0.00     0.039 A 
ATOM     32  C   UNL A   1      35.705  34.205  28.941  1.00  0.00     0.014 A 
ATOM     33  C   UNL A   1      34.253  32.655  30.107  1.00  0.00     0.014 A 
ATOM     34  C   UNL A   1      36.807  33.644  29.585  1.00  0.00     0.010 A 
ATOM     35  C   UNL A   1      35.336  32.172  30.827  1.00  0.00     0.010 A 
ATOM     36  C   UNL A   1      36.627  32.646  30.559  1.00  0.00    -0.014 A 
BRANCH  36  37
ATOM     37  C   UNL A   1      37.776  32.057  31.288  1.00  0.00     0.031 A 
ATOM     38  C   UNL A   1      38.583  30.961  30.646  1.00  0.00     0.074 A 
ATOM     39  C   UNL A   1      38.040  32.459  32.546  1.00  0.00     0.049 A 
ATOM     40  N   UNL A   1      39.561  30.251  31.145  1.00  0.00    -0.248 NA
ATOM     41  C   UNL A   1      38.214  30.588  29.271  1.00  0.00     0.031 C 
ATOM     42  C   UNL A   1      37.291  33.480  33.282  1.00  0.00     0.029 A 
ATOM     43  N   UNL A   1      39.006  32.055  33.432  1.00  0.00    -0.354 N 
ATOM     44  C   UNL A   1      39.907  29.337  30.156  1.00  0.00     0.074 A 
ATOM     45  C   UNL A   1      38.986  29.535  29.059  1.00  0.00     0.031 C 
ATOM     46  C   UNL A   1      37.845  33.644  34.495  1.00  0.00     0.029 A 
ATOM     47  C   UNL A   1      38.950  32.704  34.644  1.00  0.00     0.049 A 
ATOM     48  H   UNL A   1      39.675  31.364  33.222  1.00  0.00     0.167 HD
ATOM     49  C   UNL A   1      40.919  28.435  30.153  1.00  0.00     0.034 A 
ATOM     50  C   UNL A   1      39.698  32.547  35.754  1.00  0.00     0.034 A 
ATOM     51  C   UNL A   1      41.834  28.269  31.255  1.00  0.00     0.049 A 
ATOM     52  C   UNL A   1      40.805  31.524  35.736  1.00  0.00     0.074 A 
ATOM     53  C   UNL A   1      42.933  27.434  31.345  1.00  0.00     0.029 A 
ATOM     54  N   UNL A   1      41.752  28.948  32.466  1.00  0.00    -0.354 N 
ATOM     55  N   UNL A   1      41.159  30.705  34.771  1.00  0.00    -0.248 NA
ATOM     56  C   UNL A   1      41.620  31.411  36.952  1.00  0.00     0.031 C 
ATOM     57  C   UNL A   1      43.466  27.549  32.633  1.00  0.00     0.029 A 
ATOM     58  C   UNL A   1      42.758  28.523  33.320  1.00  0.00     0.049 A 
ATOM     59  H   UNL A   1      41.077  29.631  32.685  1.00  0.00     0.167 HD
ATOM     60  C   UNL A   1      42.259  30.002  35.255  1.00  0.00     0.074 A 
ATOM     61  C   UNL A   1      42.517  30.506  36.589  1.00  0.00     0.031 C 
ATOM     62  C   UNL A   1      42.993  29.032  34.651  1.00  0.00     0.034 A 
BRANCH  49  63
ATOM     63  C   UNL A   1      41.064  27.551  28.936  1.00  0.00     0.023 A 
ATOM     64  C   UNL A   1      42.084  27.753  27.990  1.00  0.00     0.031 A 
ATOM     65  C   UNL A   1      40.148  26.511  28.699  1.00  0.00     0.131 A 
ATOM     66  C   UNL A   1      42.114  26.988  26.814  1.00  0.00     0.055 A 
ATOM     67  C   UNL A   1      40.238  25.692  27.570  1.00  0.00     0.041 A 
ATOM     68  F   UNL A   1      39.136  26.281  29.551  1.00  0.00    -0.206 F 
ATOM     69  C   UNL A   1      41.215  25.939  26.611  1.00  0.00     0.022 A 
BRANCH  66  70
ATOM     70  S   UNL A   1      43.244  27.488  25.485  1.00  0.00     0.124 S 
ATOM     71  O   UNL A   1      42.342  28.205  24.586  1.00  0.00    -0.237 OA
ATOM     72  O   UNL A   1      44.222  28.305  26.193  1.00  0.00    -0.237 OA
ATOM     73  O   UNL A   1      43.747  26.218  24.967  1.00  0.00    -0.744 OA
ENDBRANCH  66  70
ENDBRANCH  49  63
BRANCH  50  74
ATOM     74  C   UNL A   1      39.424  33.365  36.971  1.00  0.00     0.023 A 
ATOM     75  C   UNL A   1      40.092  34.579  37.192  1.00  0.00     0.031 A 
ATOM     76  C   UNL A   1      38.513  32.927  37.949  1.00  0.00     0.131 A 
ATOM     77  C   UNL A   1      39.875  35.291  38.382  1.00  0.00     0.055 A 
ATOM     78  C   UNL A   1      38.258  33.668  39.104  1.00  0.00     0.041 A 
ATOM     79  F   UNL A   1      37.843  31.775  37.787  1.00  0.00    -0.206 F 
ATOM     80  C   UNL A   1      38.952  34.851  39.333  1.00  0.00     0.022 A 
BRANCH  77  81
ATOM     81  S   UNL A   1      40.889  36.759  38.712  1.00  0.00     0.124 S 
ATOM     82  O   UNL A   1      41.630  36.347  39.899  1.00  0.00    -0.237 OA
ATOM     83  O   UNL A   1      41.663  36.875  37.480  1.00  0.00    -0.237 OA
ATOM     84  O   UNL A   1      39.901  37.813  38.926  1.00  0.00    -0.744 OA
ENDBRANCH  77  81
ENDBRANCH  50  74
BRANCH  62  85
ATOM     85  C   UNL A   1      44.172  28.488  35.419  1.00  0.00     0.023 A 
ATOM     86  C   UNL A   1      44.024  27.498  36.406  1.00  0.00     0.031 A 
ATOM     87  C   UNL A   1      45.467  28.973  35.158  1.00  0.00     0.131 A 
ATOM     88  C   UNL A   1      45.142  27.067  37.135  1.00  0.00     0.055 A 
ATOM     89  C   UNL A   1      46.584  28.491  35.838  1.00  0.00     0.041 A 
ATOM     90  F   UNL A   1      45.666  29.921  34.228  1.00  0.00    -0.206 F 
ATOM     91  C   UNL A   1      46.424  27.541  36.843  1.00  0.00     0.022 A 
BRANCH  88  92
ATOM     92  S   UNL A   1      44.886  25.948  38.539  1.00  0.00     0.124 S 
ATOM     93  O   UNL A   1      46.165  26.041  39.237  1.00  0.00    -0.237 OA
ATOM     94  O   UNL A   1      43.745  26.553  39.217  1.00  0.00    -0.237 OA
ATOM     95  O   UNL A   1      44.618  24.659  37.906  1.00  0.00    -0.744 OA
ENDBRANCH  88  92
ENDBRANCH  62  85
ENDBRANCH  36  37
ENDBRANCH  28  31
ENDBRANCH  26  27
ENDBRANCH   1  26
TORSDOF 18
ENDMDL
MODEL 3
REMARK VINA RESULT:     -11.3      5.836      9.406
REMARK SMILES CC[NH2+][C@@]1(C(=O)NCCCNC(=O)c2ccc(-c3c4nc(c(-c5cc(S(=O)(=O)[O-])ccc5F)c5ccc([nH]5)c(-c5cc(S(=O)(=O)[O-])ccc5F)c5nc(c(-c6cc(S(=O)(=O)[O-])ccc6F)c6ccc3[nH]6)C=C5)C=C4)cc2)CC[C@@H](Oc2cccc(OC)c2)C1
REMARK SMILES IDX 9 1 8 2 7 3 5 4 6 5 4 7 77 8 89 9 78 10 79 11 3 12 2 15 1 16
REMARK SMILES IDX 80 17 81 18 82 19 88 20 83 21 85 22 84 23 86 24 87 25 10 26
REMARK SMILES IDX 11 27 12 28 13 30 14 31 15 32 76 33 16 34 75 35 17 36 18 37
REMARK SMILES IDX 19 38 69 39 20 40 74 41 68 42 70 43 21 44 73 45 67 46 66 47
REMARK SMILES IDX 22 49 54 50 34 51 53 52 35 53 38 54 52 55 71 56 36 57 37 58
REMARK SMILES IDX 51 60 72 61 39 62 23 63 24 64 32 65 25 66 31 67 33 68 30 69
REMARK SMILES IDX 26 70 27 71 28 72 29 73 55 74 56 75 64 76 57 77 63 78 65 79
REMARK SMILES IDX 62 80 58 81 59 82 60 83 61 84 40 85 41 86 49 87 42 88 48 89
REMARK SMILES IDX 50 90 47 91 43 92 44 93 45 94 46 95
REMARK H PARENT 7 6 3 13 3 14 11 29 70 48 38 59
REMARK Flexibility Score: inf
ROOT
ATOM      1  C   UNL A   1      32.083  28.651  26.269  1.00  0.00     0.042 C 
ENDROOT
BRANCH   1   2
ATOM      2  C   UNL A   1      32.698  27.296  26.597  1.00  0.00     0.118 C 
BRANCH   2   3
ATOM      3  N   UNL A   1      31.661  26.323  26.850  1.00  0.00    -0.351 N 
ATOM      4  C   UNL A   1      30.818  25.661  26.022  1.00  0.00     0.281 C 
ATOM      5  O   UNL A   1      29.789  25.251  26.578  1.00  0.00    -0.268 OA
ATOM      6  H   UNL A   1      31.547  26.099  27.801  1.00  0.00     0.163 HD
BRANCH   4   7
ATOM      7  C   UNL A   1      31.087  25.417  24.487  1.00  0.00     0.179 C 
ATOM      8  C   UNL A   1      32.433  25.904  23.915  1.00  0.00     0.083 C 
ATOM      9  C   UNL A   1      30.006  26.135  23.652  1.00  0.00     0.124 C 
ATOM     10  C   UNL A   1      32.154  27.076  22.969  1.00  0.00     0.052 C 
ATOM     11  C   UNL A   1      30.664  27.402  23.101  1.00  0.00     0.180 C 
BRANCH   7  12
ATOM     12  N   UNL A   1      30.962  23.944  24.239  1.00  0.00    -0.334 N 
ATOM     13  H   UNL A   1      30.538  23.516  25.063  1.00  0.00     0.347 HD
ATOM     14  H   UNL A   1      30.392  23.833  23.401  1.00  0.00     0.347 HD
BRANCH  12  15
ATOM     15  C   UNL A   1      32.237  23.270  23.976  1.00  0.00     0.257 C 
ATOM     16  C   UNL A   1      32.181  21.844  24.498  1.00  0.00     0.071 C 
ENDBRANCH  12  15
ENDBRANCH   7  12
BRANCH  11  17
ATOM     17  O   UNL A   1      30.007  28.005  21.974  1.00  0.00    -0.490 OA
BRANCH  17  18
ATOM     18  C   UNL A   1      29.210  29.070  22.270  1.00  0.00     0.123 A 
ATOM     19  C   UNL A   1      28.021  28.862  22.964  1.00  0.00     0.047 A 
ATOM     20  C   UNL A   1      29.583  30.349  21.872  1.00  0.00     0.092 A 
ATOM     21  C   UNL A   1      27.254  29.960  23.351  1.00  0.00     0.008 A 
ATOM     22  C   UNL A   1      28.855  31.454  22.305  1.00  0.00     0.122 A 
ATOM     23  C   UNL A   1      27.685  31.253  23.039  1.00  0.00     0.046 A 
BRANCH  22  24
ATOM     24  O   UNL A   1      29.203  32.757  22.072  1.00  0.00    -0.497 OA
ATOM     25  C   UNL A   1      29.159  33.619  23.208  1.00  0.00     0.278 C 
ENDBRANCH  22  24
ENDBRANCH  17  18
ENDBRANCH  11  17
ENDBRANCH   4   7
ENDBRANCH   2   3
ENDBRANCH   1   2
BRANCH   1  26
ATOM     26  C   UNL A   1      33.100  29.617  25.686  1.00  0.00     0.118 C 
BRANCH  26  27
ATOM     27  N   UNL A   1      32.800  30.990  26.071  1.00  0.00    -0.352 N 
ATOM     28  C   UNL A   1      33.304  31.729  27.108  1.00  0.00     0.251 C 
ATOM     29  H   UNL A   1      32.141  31.453  25.505  1.00  0.00     0.163 HD
ATOM     30  O   UNL A   1      32.703  32.739  27.479  1.00  0.00    -0.269 OA
BRANCH  28  31
ATOM     31  C   UNL A   1      34.554  31.309  27.768  1.00  0.00     0.039 A 
ATOM     32  C   UNL A   1      35.612  32.213  27.875  1.00  0.00     0.014 A 
ATOM     33  C   UNL A   1      34.683  30.011  28.269  1.00  0.00     0.014 A 
ATOM     34  C   UNL A   1      36.781  31.827  28.532  1.00  0.00     0.010 A 
ATOM     35  C   UNL A   1      35.799  29.666  29.016  1.00  0.00     0.010 A 
ATOM     36  C   UNL A   1      36.869  30.562  29.138  1.00  0.00    -0.014 A 
BRANCH  36  37
ATOM     37  C   UNL A   1      38.084  30.138  29.876  1.00  0.00     0.031 A 
ATOM     38  C   UNL A   1      38.325  30.653  31.270  1.00  0.00     0.074 A 
ATOM     39  C   UNL A   1      38.992  29.354  29.265  1.00  0.00     0.049 A 
ATOM     40  N   UNL A   1      39.362  30.482  32.047  1.00  0.00    -0.248 NA
ATOM     41  C   UNL A   1      37.276  31.507  31.849  1.00  0.00     0.031 C 
ATOM     42  C   UNL A   1      38.881  28.838  27.899  1.00  0.00     0.029 A 
ATOM     43  N   UNL A   1      40.192  28.860  29.708  1.00  0.00    -0.354 N 
ATOM     44  C   UNL A   1      39.099  31.223  33.195  1.00  0.00     0.074 A 
ATOM     45  C   UNL A   1      37.840  31.900  32.979  1.00  0.00     0.031 C 
ATOM     46  C   UNL A   1      39.952  28.074  27.629  1.00  0.00     0.029 A 
ATOM     47  C   UNL A   1      40.851  28.092  28.777  1.00  0.00     0.049 A 
ATOM     48  H   UNL A   1      40.549  29.039  30.608  1.00  0.00     0.167 HD
ATOM     49  C   UNL A   1      39.828  31.305  34.335  1.00  0.00     0.034 A 
ATOM     50  C   UNL A   1      42.051  27.482  28.838  1.00  0.00     0.034 A 
ATOM     51  C   UNL A   1      41.073  30.604  34.530  1.00  0.00     0.049 A 
ATOM     52  C   UNL A   1      42.855  27.604  30.108  1.00  0.00     0.074 A 
ATOM     53  C   UNL A   1      41.870  30.560  35.660  1.00  0.00     0.029 A 
ATOM     54  N   UNL A   1      41.709  29.829  33.566  1.00  0.00    -0.354 N 
ATOM     55  N   UNL A   1      42.567  28.260  31.209  1.00  0.00    -0.248 NA
ATOM     56  C   UNL A   1      44.139  26.894  30.148  1.00  0.00     0.031 C 
ATOM     57  C   UNL A   1      43.021  29.826  35.356  1.00  0.00     0.029 A 
ATOM     58  C   UNL A   1      42.904  29.334  34.065  1.00  0.00     0.049 A 
ATOM     59  H   UNL A   1      41.361  29.657  32.661  1.00  0.00     0.167 HD
ATOM     60  C   UNL A   1      43.622  28.015  32.084  1.00  0.00     0.074 A 
ATOM     61  C   UNL A   1      44.540  27.138  31.386  1.00  0.00     0.031 C 
ATOM     62  C   UNL A   1      43.812  28.468  33.350  1.00  0.00     0.034 A 
BRANCH  49  63
ATOM     63  C   UNL A   1      39.307  32.201  35.435  1.00  0.00     0.023 A 
ATOM     64  C   UNL A   1      39.688  33.551  35.535  1.00  0.00     0.031 A 
ATOM     65  C   UNL A   1      38.442  31.690  36.419  1.00  0.00     0.131 A 
ATOM     66  C   UNL A   1      39.278  34.317  36.636  1.00  0.00     0.055 A 
ATOM     67  C   UNL A   1      37.962  32.484  37.464  1.00  0.00     0.041 A 
ATOM     68  F   UNL A   1      38.059  30.404  36.394  1.00  0.00    -0.206 F 
ATOM     69  C   UNL A   1      38.394  33.802  37.586  1.00  0.00     0.022 A 
BRANCH  66  70
ATOM     70  S   UNL A   1      40.042  35.942  36.892  1.00  0.00     0.124 S 
ATOM     71  O   UNL A   1      41.443  35.581  37.095  1.00  0.00    -0.237 OA
ATOM     72  O   UNL A   1      39.736  36.635  35.646  1.00  0.00    -0.237 OA
ATOM     73  O   UNL A   1      39.362  36.458  38.078  1.00  0.00    -0.744 OA
ENDBRANCH  66  70
ENDBRANCH  49  63
BRANCH  50  74
ATOM     74  C   UNL A   1      42.569  26.713  27.670  1.00  0.00     0.023 A 
ATOM     75  C   UNL A   1      42.191  25.380  27.456  1.00  0.00     0.031 A 
ATOM     76  C   UNL A   1      43.478  27.293  26.766  1.00  0.00     0.131 A 
ATOM     77  C   UNL A   1      42.753  24.654  26.394  1.00  0.00     0.055 A 
ATOM     78  C   UNL A   1      43.990  26.585  25.678  1.00  0.00     0.041 A 
ATOM     79  F   UNL A   1      43.870  28.568  26.920  1.00  0.00    -0.206 F 
ATOM     80  C   UNL A   1      43.638  25.252  25.495  1.00  0.00     0.022 A 
BRANCH  77  81
ATOM     81  S   UNL A   1      42.379  22.884  26.258  1.00  0.00     0.124 S 
ATOM     82  O   UNL A   1      43.285  22.312  27.248  1.00  0.00    -0.237 OA
ATOM     83  O   UNL A   1      40.958  22.848  26.591  1.00  0.00    -0.237 OA
ATOM     84  O   UNL A   1      42.698  22.575  24.866  1.00  0.00    -0.744 OA
ENDBRANCH  77  81
ENDBRANCH  50  74
BRANCH  62  85
ATOM     85  C   UNL A   1      45.044  27.982  34.073  1.00  0.00     0.023 A 
ATOM     86  C   UNL A   1      45.038  26.807  34.844  1.00  0.00     0.031 A 
ATOM     87  C   UNL A   1      46.244  28.713  33.990  1.00  0.00     0.131 A 
ATOM     88  C   UNL A   1      46.190  26.428  35.547  1.00  0.00     0.055 A 
ATOM     89  C   UNL A   1      47.406  28.293  34.637  1.00  0.00     0.041 A 
ATOM     90  F   UNL A   1      46.306  29.845  33.272  1.00  0.00    -0.206 F 
ATOM     91  C   UNL A   1      47.380  27.151  35.431  1.00  0.00     0.022 A 
BRANCH  88  92
ATOM     92  S   UNL A   1      46.087  25.027  36.696  1.00  0.00     0.124 S 
ATOM     93  O   UNL A   1      44.668  24.690  36.636  1.00  0.00    -0.237 OA
ATOM     94  O   UNL A   1      46.999  24.061  36.092  1.00  0.00    -0.237 OA
ATOM     95  O   UNL A   1      46.537  25.593  37.966  1.00  0.00    -0.744 OA
ENDBRANCH  88  92
ENDBRANCH  62  85
ENDBRANCH  36  37
ENDBRANCH  28  31
ENDBRANCH  26  27
ENDBRANCH   1  26
TORSDOF 18
ENDMDL
