MODEL 1
REMARK VINA RESULT:     -12.3      0.000      0.000
REMARK SMILES C[C@@H]1CCC[C@@](Cc2ncccn2)(C(=O)NCCCNC(=O)c2ccc(-c3c4nc(c(-c5cc(S(=O)(=O)[O-])ccc5F)c5ccc([nH]5)c(-c5cc(S(=O)(=O)[O-])ccc5F)c5nc(c(-c6cc(S(=O)(=O)[O-])ccc6F)c6ccc3[nH]6)C=C5)C=C4)cc2)C1
REMARK SMILES IDX 18 1 17 2 16 3 14 4 15 5 6 7 1 8 2 9 3 10 86 11 4 12 5 13
REMARK SMILES IDX 7 14 8 15 9 16 13 17 10 18 12 19 11 20 19 21 20 22 21 23
REMARK SMILES IDX 22 25 23 26 24 27 85 28 25 29 84 30 26 31 27 32 28 33 78 34
REMARK SMILES IDX 29 35 83 36 77 37 79 38 30 39 82 40 76 41 75 42 31 44 63 45
REMARK SMILES IDX 43 46 62 47 44 48 47 49 61 50 80 51 45 52 46 53 60 55 81 56
REMARK SMILES IDX 48 57 32 58 33 59 41 60 34 61 40 62 42 63 39 64 35 65 36 66
REMARK SMILES IDX 37 67 38 68 64 69 65 70 73 71 66 72 72 73 74 74 71 75 67 76
REMARK SMILES IDX 68 77 69 78 70 79 49 80 50 81 58 82 51 83 57 84 59 85 56 86
REMARK SMILES IDX 52 87 53 88 54 89 55 90
REMARK H PARENT 16 6 20 24 79 43 47 54
REMARK Flexibility Score: inf
ROOT
ATOM      1  C   UNL A   1      32.044  30.690  26.951  1.00  0.00     0.042 C 
ENDROOT
BRANCH   1   2
ATOM      2  C   UNL A   1      31.788  30.334  25.503  1.00  0.00     0.117 C 
BRANCH   2   3
ATOM      3  N   UNL A   1      32.918  29.757  24.811  1.00  0.00    -0.356 N 
ATOM      4  C   UNL A   1      33.008  28.643  24.038  1.00  0.00     0.226 C 
ATOM      5  O   UNL A   1      33.988  28.612  23.282  1.00  0.00    -0.274 OA
ATOM      6  H   UNL A   1      33.762  30.252  24.919  1.00  0.00     0.163 HD
BRANCH   4   7
ATOM      7  C   UNL A   1      31.986  27.467  24.074  1.00  0.00     0.056 C 
ATOM      8  C   UNL A   1      31.377  24.185  23.351  1.00  0.00     0.007 C 
ATOM      9  C   UNL A   1      32.204  24.828  24.466  1.00  0.00    -0.013 C 
ATOM     10  C   UNL A   1      31.398  24.973  25.756  1.00  0.00     0.003 C 
ATOM     11  C   UNL A   1      32.872  26.160  24.074  1.00  0.00     0.020 C 
ATOM     12  C   UNL A   1      30.455  26.165  25.716  1.00  0.00     0.001 C 
ATOM     13  C   UNL A   1      31.194  27.464  25.406  1.00  0.00     0.017 C 
BRANCH   7  14
ATOM     14  C   UNL A   1      31.141  27.452  22.766  1.00  0.00     0.094 C 
BRANCH  14  15
ATOM     15  C   UNL A   1      30.026  28.444  22.581  1.00  0.00     0.129 A 
ATOM     16  N   UNL A   1      30.290  29.562  21.875  1.00  0.00    -0.241 NA
ATOM     17  N   UNL A   1      28.824  28.154  23.117  1.00  0.00    -0.241 NA
ATOM     18  C   UNL A   1      29.257  30.404  21.668  1.00  0.00     0.115 A 
ATOM     19  C   UNL A   1      27.829  29.035  22.886  1.00  0.00     0.115 A 
ATOM     20  C   UNL A   1      27.987  30.181  22.144  1.00  0.00     0.040 A 
ENDBRANCH  14  15
ENDBRANCH   7  14
ENDBRANCH   4   7
ENDBRANCH   2   3
ENDBRANCH   1   2
BRANCH   1  21
ATOM     21  C   UNL A   1      33.233  31.621  27.127  1.00  0.00     0.118 C 
BRANCH  21  22
ATOM     22  N   UNL A   1      32.834  33.013  27.350  1.00  0.00    -0.352 N 
ATOM     23  C   UNL A   1      33.210  33.917  28.316  1.00  0.00     0.251 C 
ATOM     24  H   UNL A   1      32.185  33.361  26.696  1.00  0.00     0.163 HD
ATOM     25  O   UNL A   1      32.554  34.946  28.466  1.00  0.00    -0.269 OA
BRANCH  23  26
ATOM     26  C   UNL A   1      34.371  33.636  29.185  1.00  0.00     0.039 A 
ATOM     27  C   UNL A   1      34.206  32.852  30.331  1.00  0.00     0.014 A 
ATOM     28  C   UNL A   1      35.634  34.126  28.857  1.00  0.00     0.014 A 
ATOM     29  C   UNL A   1      35.326  32.463  31.070  1.00  0.00     0.010 A 
ATOM     30  C   UNL A   1      36.754  33.642  29.517  1.00  0.00     0.010 A 
ATOM     31  C   UNL A   1      36.616  32.795  30.627  1.00  0.00    -0.014 A 
BRANCH  31  32
ATOM     32  C   UNL A   1      37.843  32.261  31.275  1.00  0.00     0.031 A 
ATOM     33  C   UNL A   1      38.613  31.147  30.613  1.00  0.00     0.074 A 
ATOM     34  C   UNL A   1      38.180  32.683  32.512  1.00  0.00     0.049 A 
ATOM     35  N   UNL A   1      39.592  30.424  31.088  1.00  0.00    -0.248 NA
ATOM     36  C   UNL A   1      38.189  30.765  29.256  1.00  0.00     0.031 C 
ATOM     37  C   UNL A   1      37.469  33.709  33.280  1.00  0.00     0.029 A 
ATOM     38  N   UNL A   1      39.189  32.285  33.355  1.00  0.00    -0.354 N 
ATOM     39  C   UNL A   1      39.873  29.477  30.108  1.00  0.00     0.074 A 
ATOM     40  C   UNL A   1      38.929  29.688  29.034  1.00  0.00     0.031 C 
ATOM     41  C   UNL A   1      38.071  33.869  34.470  1.00  0.00     0.029 A 
ATOM     42  C   UNL A   1      39.173  32.920  34.577  1.00  0.00     0.049 A 
ATOM     43  H   UNL A   1      39.859  31.608  33.109  1.00  0.00     0.167 HD
ATOM     44  C   UNL A   1      40.843  28.530  30.101  1.00  0.00     0.034 A 
ATOM     45  C   UNL A   1      39.940  32.739  35.671  1.00  0.00     0.034 A 
ATOM     46  C   UNL A   1      41.809  28.373  31.159  1.00  0.00     0.049 A 
ATOM     47  C   UNL A   1      41.024  31.691  35.626  1.00  0.00     0.074 A 
ATOM     48  C   UNL A   1      42.910  27.536  31.198  1.00  0.00     0.029 A 
ATOM     49  N   UNL A   1      41.785  29.059  32.364  1.00  0.00    -0.354 N 
ATOM     50  N   UNL A   1      41.334  30.867  34.652  1.00  0.00    -0.248 NA
ATOM     51  C   UNL A   1      41.862  31.549  36.825  1.00  0.00     0.031 C 
ATOM     52  C   UNL A   1      43.512  27.666  32.454  1.00  0.00     0.029 A 
ATOM     53  C   UNL A   1      42.827  28.634  33.172  1.00  0.00     0.049 A 
ATOM     54  H   UNL A   1      41.125  29.747  32.610  1.00  0.00     0.167 HD
ATOM     55  C   UNL A   1      42.419  30.126  35.114  1.00  0.00     0.074 A 
ATOM     56  C   UNL A   1      42.721  30.616  36.443  1.00  0.00     0.031 C 
ATOM     57  C   UNL A   1      43.103  29.130  34.499  1.00  0.00     0.034 A 
BRANCH  44  58
ATOM     58  C   UNL A   1      40.898  27.583  28.928  1.00  0.00     0.023 A 
ATOM     59  C   UNL A   1      41.845  27.725  27.900  1.00  0.00     0.031 A 
ATOM     60  C   UNL A   1      39.987  26.515  28.840  1.00  0.00     0.131 A 
ATOM     61  C   UNL A   1      41.823  26.855  26.800  1.00  0.00     0.055 A 
ATOM     62  C   UNL A   1      40.017  25.607  27.780  1.00  0.00     0.041 A 
ATOM     63  F   UNL A   1      39.047  26.341  29.782  1.00  0.00    -0.206 F 
ATOM     64  C   UNL A   1      40.932  25.780  26.746  1.00  0.00     0.022 A 
BRANCH  61  65
ATOM     65  S   UNL A   1      42.900  27.215  25.388  1.00  0.00     0.124 S 
ATOM     66  O   UNL A   1      42.886  25.941  24.674  1.00  0.00    -0.237 OA
ATOM     67  O   UNL A   1      42.209  28.320  24.735  1.00  0.00    -0.237 OA
ATOM     68  O   UNL A   1      44.179  27.558  26.011  1.00  0.00    -0.744 OA
ENDBRANCH  61  65
ENDBRANCH  44  58
BRANCH  45  69
ATOM     69  C   UNL A   1      39.704  33.534  36.911  1.00  0.00     0.023 A 
ATOM     70  C   UNL A   1      39.019  32.980  38.005  1.00  0.00     0.031 A 
ATOM     71  C   UNL A   1      40.104  34.880  37.000  1.00  0.00     0.131 A 
ATOM     72  C   UNL A   1      38.703  33.781  39.113  1.00  0.00     0.055 A 
ATOM     73  C   UNL A   1      39.838  35.657  38.130  1.00  0.00     0.041 A 
ATOM     74  F   UNL A   1      40.767  35.461  35.987  1.00  0.00    -0.206 F 
ATOM     75  C   UNL A   1      39.119  35.112  39.189  1.00  0.00     0.022 A 
BRANCH  72  76
ATOM     76  S   UNL A   1      37.642  33.086  40.411  1.00  0.00     0.124 S 
ATOM     77  O   UNL A   1      38.401  31.908  40.815  1.00  0.00    -0.237 OA
ATOM     78  O   UNL A   1      37.591  34.179  41.375  1.00  0.00    -0.237 OA
ATOM     79  O   UNL A   1      36.388  32.812  39.712  1.00  0.00    -0.744 OA
ENDBRANCH  72  76
ENDBRANCH  45  69
BRANCH  57  80
ATOM     80  C   UNL A   1      44.264  28.532  35.251  1.00  0.00     0.023 A 
ATOM     81  C   UNL A   1      44.080  27.497  36.183  1.00  0.00     0.031 A 
ATOM     82  C   UNL A   1      45.570  29.003  35.029  1.00  0.00     0.131 A 
ATOM     83  C   UNL A   1      45.180  26.996  36.894  1.00  0.00     0.055 A 
ATOM     84  C   UNL A   1      46.668  28.461  35.697  1.00  0.00     0.041 A 
ATOM     85  F   UNL A   1      45.800  29.992  34.151  1.00  0.00    -0.206 F 
ATOM     86  C   UNL A   1      46.474  27.459  36.644  1.00  0.00     0.022 A 
BRANCH  83  87
ATOM     87  S   UNL A   1      44.887  25.777  38.204  1.00  0.00     0.124 S 
ATOM     88  O   UNL A   1      44.263  26.592  39.241  1.00  0.00    -0.237 OA
ATOM     89  O   UNL A   1      44.015  24.810  37.543  1.00  0.00    -0.237 OA
ATOM     90  O   UNL A   1      46.227  25.287  38.522  1.00  0.00    -0.744 OA
ENDBRANCH  83  87
ENDBRANCH  57  80
ENDBRANCH  31  32
ENDBRANCH  23  26
ENDBRANCH  21  22
ENDBRANCH   1  21
TORSDOF 15
ENDMDL
MODEL 2
REMARK VINA RESULT:     -12.2      1.515      1.883
REMARK SMILES C[C@@H]1CCC[C@@](Cc2ncccn2)(C(=O)NCCCNC(=O)c2ccc(-c3c4nc(c(-c5cc(S(=O)(=O)[O-])ccc5F)c5ccc([nH]5)c(-c5cc(S(=O)(=O)[O-])ccc5F)c5nc(c(-c6cc(S(=O)(=O)[O-])ccc6F)c6ccc3[nH]6)C=C5)C=C4)cc2)C1
REMARK SMILES IDX 18 1 17 2 16 3 14 4 15 5 6 7 1 8 2 9 3 10 86 11 4 12 5 13
REMARK SMILES IDX 7 14 8 15 9 16 13 17 10 18 12 19 11 20 19 21 20 22 21 23
REMARK SMILES IDX 22 25 23 26 24 27 85 28 25 29 84 30 26 31 27 32 28 33 78 34
REMARK SMILES IDX 29 35 83 36 77 37 79 38 30 39 82 40 76 41 75 42 31 44 63 45
REMARK SMILES IDX 43 46 62 47 44 48 47 49 61 50 80 51 45 52 46 53 60 55 81 56
REMARK SMILES IDX 48 57 32 58 33 59 41 60 34 61 40 62 42 63 39 64 35 65 36 66
REMARK SMILES IDX 37 67 38 68 64 69 65 70 73 71 66 72 72 73 74 74 71 75 67 76
REMARK SMILES IDX 68 77 69 78 70 79 49 80 50 81 58 82 51 83 57 84 59 85 56 86
REMARK SMILES IDX 52 87 53 88 54 89 55 90
REMARK H PARENT 16 6 20 24 79 43 47 54
REMARK Flexibility Score: inf
ROOT
ATOM      1  C   UNL A   1      31.011  31.778  25.941  1.00  0.00     0.042 C 
ENDROOT
BRANCH   1   2
ATOM      2  C   UNL A   1      31.020  30.408  25.297  1.00  0.00     0.117 C 
BRANCH   2   3
ATOM      3  N   UNL A   1      32.321  29.952  24.861  1.00  0.00    -0.356 N 
ATOM      4  C   UNL A   1      32.685  28.828  24.191  1.00  0.00     0.226 C 
ATOM      5  O   UNL A   1      33.786  28.890  23.628  1.00  0.00    -0.274 OA
ATOM      6  H   UNL A   1      33.065  30.555  25.088  1.00  0.00     0.163 HD
BRANCH   4   7
ATOM      7  C   UNL A   1      31.820  27.533  24.118  1.00  0.00     0.056 C 
ATOM      8  C   UNL A   1      31.640  24.267  23.136  1.00  0.00     0.007 C 
ATOM      9  C   UNL A   1      32.367  24.920  24.313  1.00  0.00    -0.013 C 
ATOM     10  C   UNL A   1      31.536  24.862  25.594  1.00  0.00     0.003 C 
ATOM     11  C   UNL A   1      32.864  26.351  24.037  1.00  0.00     0.020 C 
ATOM     12  C   UNL A   1      30.450  25.926  25.624  1.00  0.00     0.001 C 
ATOM     13  C   UNL A   1      31.021  27.327  25.429  1.00  0.00     0.017 C 
BRANCH   7  14
ATOM     14  C   UNL A   1      30.998  27.514  22.795  1.00  0.00     0.094 C 
BRANCH  14  15
ATOM     15  C   UNL A   1      29.885  28.504  22.588  1.00  0.00     0.129 A 
ATOM     16  N   UNL A   1      30.155  29.610  21.866  1.00  0.00    -0.241 NA
ATOM     17  N   UNL A   1      28.680  28.225  23.122  1.00  0.00    -0.241 NA
ATOM     18  C   UNL A   1      29.125  30.451  21.640  1.00  0.00     0.115 A 
ATOM     19  C   UNL A   1      27.688  29.104  22.871  1.00  0.00     0.115 A 
ATOM     20  C   UNL A   1      27.852  30.237  22.112  1.00  0.00     0.040 A 
ENDBRANCH  14  15
ENDBRANCH   7  14
ENDBRANCH   4   7
ENDBRANCH   2   3
ENDBRANCH   1   2
BRANCH   1  21
ATOM     21  C   UNL A   1      32.212  32.012  26.845  1.00  0.00     0.118 C 
BRANCH  21  22
ATOM     22  N   UNL A   1      32.294  33.392  27.328  1.00  0.00    -0.352 N 
ATOM     23  C   UNL A   1      33.174  33.994  28.198  1.00  0.00     0.251 C 
ATOM     24  H   UNL A   1      31.602  33.992  26.969  1.00  0.00     0.163 HD
ATOM     25  O   UNL A   1      32.901  35.098  28.663  1.00  0.00    -0.269 OA
BRANCH  23  26
ATOM     26  C   UNL A   1      34.418  33.301  28.594  1.00  0.00     0.039 A 
ATOM     27  C   UNL A   1      35.656  33.891  28.320  1.00  0.00     0.014 A 
ATOM     28  C   UNL A   1      34.365  32.078  29.260  1.00  0.00     0.014 A 
ATOM     29  C   UNL A   1      36.824  33.311  28.824  1.00  0.00     0.010 A 
ATOM     30  C   UNL A   1      35.507  31.570  29.861  1.00  0.00     0.010 A 
ATOM     31  C   UNL A   1      36.752  32.185  29.659  1.00  0.00    -0.014 A 
BRANCH  31  32
ATOM     32  C   UNL A   1      37.942  31.637  30.361  1.00  0.00     0.031 A 
ATOM     33  C   UNL A   1      38.779  30.575  29.695  1.00  0.00     0.074 A 
ATOM     34  C   UNL A   1      38.185  31.996  31.639  1.00  0.00     0.049 A 
ATOM     35  N   UNL A   1      39.739  29.844  30.197  1.00  0.00    -0.248 NA
ATOM     36  C   UNL A   1      38.458  30.261  28.293  1.00  0.00     0.031 C 
ATOM     37  C   UNL A   1      37.402  32.966  32.410  1.00  0.00     0.029 A 
ATOM     38  N   UNL A   1      39.141  31.569  32.528  1.00  0.00    -0.354 N 
ATOM     39  C   UNL A   1      40.106  28.957  29.189  1.00  0.00     0.074 A 
ATOM     40  C   UNL A   1      39.233  29.212  28.066  1.00  0.00     0.031 C 
ATOM     41  C   UNL A   1      37.917  33.070  33.646  1.00  0.00     0.029 A 
ATOM     42  C   UNL A   1      39.028  32.136  33.778  1.00  0.00     0.049 A 
ATOM     43  H   UNL A   1      39.842  30.919  32.293  1.00  0.00     0.167 HD
ATOM     44  C   UNL A   1      41.094  28.029  29.199  1.00  0.00     0.034 A 
ATOM     45  C   UNL A   1      39.723  31.909  34.911  1.00  0.00     0.034 A 
ATOM     46  C   UNL A   1      41.988  27.831  30.312  1.00  0.00     0.049 A 
ATOM     47  C   UNL A   1      40.829  30.883  34.886  1.00  0.00     0.074 A 
ATOM     48  C   UNL A   1      43.102  27.013  30.382  1.00  0.00     0.029 A 
ATOM     49  N   UNL A   1      41.867  28.449  31.548  1.00  0.00    -0.354 N 
ATOM     50  N   UNL A   1      41.223  30.120  33.893  1.00  0.00    -0.248 NA
ATOM     51  C   UNL A   1      41.586  30.690  36.130  1.00  0.00     0.031 C 
ATOM     52  C   UNL A   1      43.613  27.084  31.682  1.00  0.00     0.029 A 
ATOM     53  C   UNL A   1      42.861  27.998  32.402  1.00  0.00     0.049 A 
ATOM     54  H   UNL A   1      41.177  29.111  31.783  1.00  0.00     0.167 HD
ATOM     55  C   UNL A   1      42.288  29.373  34.388  1.00  0.00     0.074 A 
ATOM     56  C   UNL A   1      42.488  29.794  35.759  1.00  0.00     0.031 C 
ATOM     57  C   UNL A   1      43.034  28.425  33.770  1.00  0.00     0.034 A 
BRANCH  44  58
ATOM     58  C   UNL A   1      41.249  27.150  27.983  1.00  0.00     0.023 A 
ATOM     59  C   UNL A   1      40.825  25.811  27.973  1.00  0.00     0.031 A 
ATOM     60  C   UNL A   1      41.831  27.665  26.811  1.00  0.00     0.131 A 
ATOM     61  C   UNL A   1      41.042  25.015  26.838  1.00  0.00     0.055 A 
ATOM     62  C   UNL A   1      41.977  26.890  25.659  1.00  0.00     0.041 A 
ATOM     63  F   UNL A   1      42.274  28.932  26.768  1.00  0.00    -0.206 F 
ATOM     64  C   UNL A   1      41.591  25.553  25.672  1.00  0.00     0.022 A 
BRANCH  61  65
ATOM     65  S   UNL A   1      40.699  23.239  26.947  1.00  0.00     0.124 S 
ATOM     66  O   UNL A   1      41.024  22.961  28.343  1.00  0.00    -0.237 OA
ATOM     67  O   UNL A   1      39.286  23.167  26.594  1.00  0.00    -0.237 OA
ATOM     68  O   UNL A   1      41.617  22.652  25.971  1.00  0.00    -0.744 OA
ENDBRANCH  61  65
ENDBRANCH  44  58
BRANCH  45  69
ATOM     69  C   UNL A   1      39.385  32.630  36.173  1.00  0.00     0.023 A 
ATOM     70  C   UNL A   1      38.530  32.055  37.127  1.00  0.00     0.031 A 
ATOM     71  C   UNL A   1      39.863  33.930  36.419  1.00  0.00     0.131 A 
ATOM     72  C   UNL A   1      38.131  32.797  38.250  1.00  0.00     0.055 A 
ATOM     73  C   UNL A   1      39.509  34.643  37.566  1.00  0.00     0.041 A 
ATOM     74  F   UNL A   1      40.688  34.528  35.544  1.00  0.00    -0.206 F 
ATOM     75  C   UNL A   1      38.624  34.083  38.482  1.00  0.00     0.022 A 
BRANCH  72  76
ATOM     76  S   UNL A   1      36.867  32.097  39.347  1.00  0.00     0.124 S 
ATOM     77  O   UNL A   1      35.649  32.702  38.821  1.00  0.00    -0.237 OA
ATOM     78  O   UNL A   1      37.026  30.666  39.115  1.00  0.00    -0.237 OA
ATOM     79  O   UNL A   1      37.273  32.563  40.672  1.00  0.00    -0.744 OA
ENDBRANCH  72  76
ENDBRANCH  45  69
BRANCH  57  80
ATOM     80  C   UNL A   1      44.153  27.807  34.568  1.00  0.00     0.023 A 
ATOM     81  C   UNL A   1      43.945  26.668  35.363  1.00  0.00     0.031 A 
ATOM     82  C   UNL A   1      45.444  28.364  34.527  1.00  0.00     0.131 A 
ATOM     83  C   UNL A   1      45.002  26.147  36.124  1.00  0.00     0.055 A 
ATOM     84  C   UNL A   1      46.504  27.807  35.242  1.00  0.00     0.041 A 
ATOM     85  F   UNL A   1      45.695  29.454  33.785  1.00  0.00    -0.206 F 
ATOM     86  C   UNL A   1      46.284  26.698  36.055  1.00  0.00     0.022 A 
BRANCH  83  87
ATOM     87  S   UNL A   1      44.661  24.778  37.263  1.00  0.00     0.124 S 
ATOM     88  O   UNL A   1      43.207  24.833  37.375  1.00  0.00    -0.237 OA
ATOM     89  O   UNL A   1      45.201  23.629  36.544  1.00  0.00    -0.237 OA
ATOM     90  O   UNL A   1      45.391  25.150  38.474  1.00  0.00    -0.744 OA
ENDBRANCH  83  87
ENDBRANCH  57  80
ENDBRANCH  31  32
ENDBRANCH  23  26
ENDBRANCH  21  22
ENDBRANCH   1  21
TORSDOF 15
ENDMDL
MODEL 3
REMARK VINA RESULT:     -12.0      6.156     11.830
REMARK SMILES C[C@@H]1CCC[C@@](Cc2ncccn2)(C(=O)NCCCNC(=O)c2ccc(-c3c4nc(c(-c5cc(S(=O)(=O)[O-])ccc5F)c5ccc([nH]5)c(-c5cc(S(=O)(=O)[O-])ccc5F)c5nc(c(-c6cc(S(=O)(=O)[O-])ccc6F)c6ccc3[nH]6)C=C5)C=C4)cc2)C1
REMARK SMILES IDX 18 1 17 2 16 3 14 4 15 5 6 7 1 8 2 9 3 10 86 11 4 12 5 13
REMARK SMILES IDX 7 14 8 15 9 16 13 17 10 18 12 19 11 20 19 21 20 22 21 23
REMARK SMILES IDX 22 25 23 26 24 27 85 28 25 29 84 30 26 31 27 32 28 33 78 34
REMARK SMILES IDX 29 35 83 36 77 37 79 38 30 39 82 40 76 41 75 42 31 44 63 45
REMARK SMILES IDX 43 46 62 47 44 48 47 49 61 50 80 51 45 52 46 53 60 55 81 56
REMARK SMILES IDX 48 57 32 58 33 59 41 60 34 61 40 62 42 63 39 64 35 65 36 66
REMARK SMILES IDX 37 67 38 68 64 69 65 70 73 71 66 72 72 73 74 74 71 75 67 76
REMARK SMILES IDX 68 77 69 78 70 79 49 80 50 81 58 82 51 83 57 84 59 85 56 86
REMARK SMILES IDX 52 87 53 88 54 89 55 90
REMARK H PARENT 16 6 20 24 79 43 47 54
REMARK Flexibility Score: inf
ROOT
ATOM      1  C   UNL A   1      37.826  21.153  24.837  1.00  0.00     0.042 C 
ENDROOT
BRANCH   1   2
ATOM      2  C   UNL A   1      36.424  20.708  25.191  1.00  0.00     0.117 C 
BRANCH   2   3
ATOM      3  N   UNL A   1      35.832  21.403  26.311  1.00  0.00    -0.356 N 
ATOM      4  C   UNL A   1      34.589  21.929  26.470  1.00  0.00     0.226 C 
ATOM      5  O   UNL A   1      34.249  22.115  27.645  1.00  0.00    -0.274 OA
ATOM      6  H   UNL A   1      36.428  21.515  27.087  1.00  0.00     0.163 HD
BRANCH   4   7
ATOM      7  C   UNL A   1      33.635  22.294  25.292  1.00  0.00     0.056 C 
ATOM      8  C   UNL A   1      31.006  24.194  24.227  1.00  0.00     0.007 C 
ATOM      9  C   UNL A   1      32.469  24.562  24.480  1.00  0.00    -0.013 C 
ATOM     10  C   UNL A   1      33.297  24.507  23.198  1.00  0.00     0.003 C 
ATOM     11  C   UNL A   1      33.138  23.758  25.611  1.00  0.00     0.020 C 
ATOM     12  C   UNL A   1      33.681  23.084  22.822  1.00  0.00     0.001 C 
ATOM     13  C   UNL A   1      34.414  22.373  23.955  1.00  0.00     0.017 C 
BRANCH   7  14
ATOM     14  C   UNL A   1      32.384  21.367  25.311  1.00  0.00     0.094 C 
BRANCH  14  15
ATOM     15  C   UNL A   1      32.495  19.945  24.833  1.00  0.00     0.129 A 
ATOM     16  N   UNL A   1      32.366  19.714  23.512  1.00  0.00    -0.241 NA
ATOM     17  N   UNL A   1      32.731  18.986  25.749  1.00  0.00    -0.241 NA
ATOM     18  C   UNL A   1      32.534  18.440  23.101  1.00  0.00     0.115 A 
ATOM     19  C   UNL A   1      32.882  17.728  25.285  1.00  0.00     0.115 A 
ATOM     20  C   UNL A   1      32.811  17.398  23.953  1.00  0.00     0.040 A 
ENDBRANCH  14  15
ENDBRANCH   7  14
ENDBRANCH   4   7
ENDBRANCH   2   3
ENDBRANCH   1   2
BRANCH   1  21
ATOM     21  C   UNL A   1      38.763  21.154  26.035  1.00  0.00     0.118 C 
BRANCH  21  22
ATOM     22  N   UNL A   1      39.648  19.988  26.062  1.00  0.00    -0.352 N 
ATOM     23  C   UNL A   1      41.020  19.895  26.093  1.00  0.00     0.251 C 
ATOM     24  H   UNL A   1      39.181  19.122  26.059  1.00  0.00     0.163 HD
ATOM     25  O   UNL A   1      41.557  18.816  25.849  1.00  0.00    -0.269 OA
BRANCH  23  26
ATOM     26  C   UNL A   1      41.840  21.090  26.383  1.00  0.00     0.039 A 
ATOM     27  C   UNL A   1      42.142  21.989  25.356  1.00  0.00     0.014 A 
ATOM     28  C   UNL A   1      42.292  21.339  27.678  1.00  0.00     0.014 A 
ATOM     29  C   UNL A   1      42.788  23.191  25.657  1.00  0.00     0.010 A 
ATOM     30  C   UNL A   1      42.822  22.581  27.996  1.00  0.00     0.010 A 
ATOM     31  C   UNL A   1      43.069  23.528  26.991  1.00  0.00    -0.014 A 
BRANCH  31  32
ATOM     32  C   UNL A   1      43.592  24.864  27.381  1.00  0.00     0.031 A 
ATOM     33  C   UNL A   1      42.652  25.901  27.941  1.00  0.00     0.074 A 
ATOM     34  C   UNL A   1      44.874  25.183  27.106  1.00  0.00     0.049 A 
ATOM     35  N   UNL A   1      42.863  27.169  28.173  1.00  0.00    -0.248 NA
ATOM     36  C   UNL A   1      41.277  25.460  28.231  1.00  0.00     0.031 C 
ATOM     37  C   UNL A   1      45.860  24.282  26.502  1.00  0.00     0.029 A 
ATOM     38  N   UNL A   1      45.564  26.359  27.271  1.00  0.00    -0.354 N 
ATOM     39  C   UNL A   1      41.642  27.686  28.594  1.00  0.00     0.074 A 
ATOM     40  C   UNL A   1      40.685  26.604  28.540  1.00  0.00     0.031 C 
ATOM     41  C   UNL A   1      47.027  24.932  26.362  1.00  0.00     0.029 A 
ATOM     42  C   UNL A   1      46.862  26.309  26.810  1.00  0.00     0.049 A 
ATOM     43  H   UNL A   1      45.169  27.162  27.680  1.00  0.00     0.167 HD
ATOM     44  C   UNL A   1      41.354  28.945  29.005  1.00  0.00     0.034 A 
ATOM     45  C   UNL A   1      47.802  27.272  26.730  1.00  0.00     0.034 A 
ATOM     46  C   UNL A   1      42.337  29.994  29.104  1.00  0.00     0.049 A 
ATOM     47  C   UNL A   1      47.458  28.659  27.212  1.00  0.00     0.074 A 
ATOM     48  C   UNL A   1      42.186  31.266  29.628  1.00  0.00     0.029 A 
ATOM     49  N   UNL A   1      43.649  29.897  28.663  1.00  0.00    -0.354 N 
ATOM     50  N   UNL A   1      46.322  29.105  27.695  1.00  0.00    -0.248 NA
ATOM     51  C   UNL A   1      48.521  29.671  27.142  1.00  0.00     0.031 C 
ATOM     52  C   UNL A   1      43.386  31.960  29.441  1.00  0.00     0.029 A 
ATOM     53  C   UNL A   1      44.307  31.101  28.864  1.00  0.00     0.049 A 
ATOM     54  H   UNL A   1      44.054  29.092  28.267  1.00  0.00     0.167 HD
ATOM     55  C   UNL A   1      46.543  30.444  28.008  1.00  0.00     0.074 A 
ATOM     56  C   UNL A   1      47.924  30.724  27.679  1.00  0.00     0.031 C 
ATOM     57  C   UNL A   1      45.684  31.360  28.518  1.00  0.00     0.034 A 
BRANCH  44  58
ATOM     58  C   UNL A   1      39.923  29.263  29.361  1.00  0.00     0.023 A 
ATOM     59  C   UNL A   1      39.498  29.390  30.694  1.00  0.00     0.031 A 
ATOM     60  C   UNL A   1      38.967  29.445  28.345  1.00  0.00     0.131 A 
ATOM     61  C   UNL A   1      38.145  29.630  30.978  1.00  0.00     0.055 A 
ATOM     62  C   UNL A   1      37.638  29.758  28.632  1.00  0.00     0.041 A 
ATOM     63  F   UNL A   1      39.311  29.316  27.054  1.00  0.00    -0.206 F 
ATOM     64  C   UNL A   1      37.217  29.841  29.956  1.00  0.00     0.022 A 
BRANCH  61  65
ATOM     65  S   UNL A   1      37.596  29.551  32.704  1.00  0.00     0.124 S 
ATOM     66  O   UNL A   1      36.340  30.294  32.647  1.00  0.00    -0.237 OA
ATOM     67  O   UNL A   1      37.479  28.116  32.934  1.00  0.00    -0.237 OA
ATOM     68  O   UNL A   1      38.672  30.216  33.437  1.00  0.00    -0.744 OA
ENDBRANCH  61  65
ENDBRANCH  44  58
BRANCH  45  69
ATOM     69  C   UNL A   1      49.145  26.982  26.147  1.00  0.00     0.023 A 
ATOM     70  C   UNL A   1      49.469  27.390  24.842  1.00  0.00     0.031 A 
ATOM     71  C   UNL A   1      50.104  26.240  26.860  1.00  0.00     0.131 A 
ATOM     72  C   UNL A   1      50.692  27.005  24.270  1.00  0.00     0.055 A 
ATOM     73  C   UNL A   1      51.343  25.909  26.308  1.00  0.00     0.041 A 
ATOM     74  F   UNL A   1      49.851  25.829  28.113  1.00  0.00    -0.206 F 
ATOM     75  C   UNL A   1      51.636  26.278  24.999  1.00  0.00     0.022 A 
BRANCH  72  76
ATOM     76  S   UNL A   1      50.984  27.375  22.519  1.00  0.00     0.124 S 
ATOM     77  O   UNL A   1      49.845  26.723  21.884  1.00  0.00    -0.237 OA
ATOM     78  O   UNL A   1      50.975  28.833  22.514  1.00  0.00    -0.237 OA
ATOM     79  O   UNL A   1      52.283  26.759  22.254  1.00  0.00    -0.744 OA
ENDBRANCH  72  76
ENDBRANCH  45  69
BRANCH  57  80
ATOM     80  C   UNL A   1      46.231  32.740  28.779  1.00  0.00     0.023 A 
ATOM     81  C   UNL A   1      46.174  33.749  27.803  1.00  0.00     0.031 A 
ATOM     82  C   UNL A   1      46.812  33.048  30.022  1.00  0.00     0.131 A 
ATOM     83  C   UNL A   1      46.733  35.007  28.069  1.00  0.00     0.055 A 
ATOM     84  C   UNL A   1      47.314  34.319  30.301  1.00  0.00     0.041 A 
ATOM     85  F   UNL A   1      46.893  32.119  30.988  1.00  0.00    -0.206 F 
ATOM     86  C   UNL A   1      47.285  35.304  29.317  1.00  0.00     0.022 A 
BRANCH  83  87
ATOM     87  S   UNL A   1      46.789  36.233  26.734  1.00  0.00     0.124 S 
ATOM     88  O   UNL A   1      45.529  36.944  26.923  1.00  0.00    -0.237 OA
ATOM     89  O   UNL A   1      47.999  36.986  27.051  1.00  0.00    -0.237 OA
ATOM     90  O   UNL A   1      46.866  35.417  25.524  1.00  0.00    -0.744 OA
ENDBRANCH  83  87
ENDBRANCH  57  80
ENDBRANCH  31  32
ENDBRANCH  23  26
ENDBRANCH  21  22
ENDBRANCH   1  21
TORSDOF 15
ENDMDL
