MODEL 1
REMARK VINA RESULT:     -12.1      0.000      0.000
REMARK SMILES Cc1ccc(O)c(C(=O)NCc2ccc(C(=O)NCCCNC(=O)c3ccc(-c4c5nc(c(-c6cc(S(=O)(=O)[O-])ccc6F)c6ccc([nH]6)c(-c6cc(S(=O)(=O)[O-])ccc6F)c6nc(c(-c7cc(S(=O)(=O)[O-])ccc7F)c7ccc4[nH]7)C=C6)C=C5)cc3)o2)c1
REMARK SMILES IDX 19 1 18 2 16 3 17 4 15 6 12 7 13 8 88 9 14 10 11 11 10 12
REMARK SMILES IDX 8 13 9 14 7 16 1 17 2 18 3 19 89 20 4 21 5 22 6 23 20 25
REMARK SMILES IDX 21 26 22 27 23 28 24 30 25 31 26 32 87 33 27 34 86 35 28 36
REMARK SMILES IDX 29 37 30 38 80 39 31 40 85 41 79 42 81 43 32 44 84 45 78 46
REMARK SMILES IDX 77 47 33 49 65 50 45 51 64 52 46 53 49 54 63 55 82 56 47 57
REMARK SMILES IDX 48 58 62 60 83 61 50 62 34 63 35 64 43 65 36 66 42 67 44 68
REMARK SMILES IDX 41 69 37 70 38 71 39 72 40 73 66 74 67 75 75 76 68 77 74 78
REMARK SMILES IDX 76 79 73 80 69 81 70 82 71 83 72 84 51 85 52 86 60 87 53 88
REMARK SMILES IDX 59 89 61 90 58 91 54 92 55 93 56 94 57 95
REMARK H PARENT 18 5 10 15 6 24 22 29 81 48 49 59
REMARK Flexibility Score: inf
ROOT
ATOM      1  C   UNL A   1      31.281  29.222  24.947  1.00  0.00     0.118 C 
ENDROOT
BRANCH   1   2
ATOM      2  N   UNL A   1      30.644  29.399  23.658  1.00  0.00    -0.349 N 
ATOM      3  C   UNL A   1      30.521  28.561  22.580  1.00  0.00     0.286 C 
ATOM      4  O   UNL A   1      29.831  28.995  21.647  1.00  0.00    -0.266 OA
ATOM      5  H   UNL A   1      30.224  30.281  23.534  1.00  0.00     0.163 HD
BRANCH   3   6
ATOM      6  C   UNL A   1      31.139  27.250  22.549  1.00  0.00     0.191 A 
ATOM      7  C   UNL A   1      31.164  25.088  23.058  1.00  0.00     0.124 A 
ATOM      8  C   UNL A   1      32.307  25.329  22.330  1.00  0.00     0.048 A 
ATOM      9  O   UNL A   1      30.469  26.248  23.209  1.00  0.00    -0.454 OA
ATOM     10  C   UNL A   1      32.271  26.700  21.972  1.00  0.00     0.056 A 
BRANCH   7  11
ATOM     11  C   UNL A   1      30.526  23.877  23.628  1.00  0.00     0.191 C 
BRANCH  11  12
ATOM     12  N   UNL A   1      30.509  24.014  25.069  1.00  0.00    -0.345 N 
ATOM     13  C   UNL A   1      31.353  23.685  26.090  1.00  0.00     0.255 C 
ATOM     14  O   UNL A   1      30.960  23.975  27.226  1.00  0.00    -0.269 OA
ATOM     15  H   UNL A   1      29.688  24.451  25.391  1.00  0.00     0.164 HD
BRANCH  13  16
ATOM     16  C   UNL A   1      32.691  23.024  25.965  1.00  0.00     0.081 A 
ATOM     17  C   UNL A   1      36.444  23.768  25.912  1.00  0.00     0.044 C 
ATOM     18  C   UNL A   1      35.145  23.016  25.869  1.00  0.00    -0.050 A 
ATOM     19  C   UNL A   1      35.143  21.638  25.655  1.00  0.00     0.007 A 
ATOM     20  C   UNL A   1      33.919  23.692  26.023  1.00  0.00     0.021 A 
ATOM     21  C   UNL A   1      33.938  20.949  25.589  1.00  0.00     0.047 A 
ATOM     22  C   UNL A   1      32.730  21.633  25.735  1.00  0.00     0.128 A 
BRANCH  22  23
ATOM     23  O   UNL A   1      31.609  20.846  25.628  1.00  0.00    -0.507 OA
ATOM     24  H   UNL A   1      30.975  21.022  24.961  1.00  0.00     0.293 HD
ENDBRANCH  22  23
ENDBRANCH  13  16
ENDBRANCH  11  12
ENDBRANCH   7  11
ENDBRANCH   3   6
ENDBRANCH   1   2
BRANCH   1  25
ATOM     25  C   UNL A   1      32.799  29.340  24.849  1.00  0.00     0.042 C 
BRANCH  25  26
ATOM     26  C   UNL A   1      33.465  29.585  26.202  1.00  0.00     0.118 C 
BRANCH  26  27
ATOM     27  N   UNL A   1      33.377  30.983  26.604  1.00  0.00    -0.352 N 
ATOM     28  C   UNL A   1      34.072  31.681  27.560  1.00  0.00     0.251 C 
ATOM     29  H   UNL A   1      32.711  31.513  26.112  1.00  0.00     0.163 HD
ATOM     30  O   UNL A   1      33.648  32.774  27.924  1.00  0.00    -0.269 OA
BRANCH  28  31
ATOM     31  C   UNL A   1      35.310  31.126  28.147  1.00  0.00     0.039 A 
ATOM     32  C   UNL A   1      36.470  31.906  28.141  1.00  0.00     0.014 A 
ATOM     33  C   UNL A   1      35.345  29.826  28.659  1.00  0.00     0.014 A 
ATOM     34  C   UNL A   1      37.647  31.403  28.699  1.00  0.00     0.010 A 
ATOM     35  C   UNL A   1      36.495  29.356  29.287  1.00  0.00     0.010 A 
ATOM     36  C   UNL A   1      37.660  30.137  29.309  1.00  0.00    -0.014 A 
BRANCH  36  37
ATOM     37  C   UNL A   1      38.884  29.614  29.969  1.00  0.00     0.031 A 
ATOM     38  C   UNL A   1      39.300  30.137  31.318  1.00  0.00     0.074 A 
ATOM     39  C   UNL A   1      39.650  28.711  29.326  1.00  0.00     0.049 A 
ATOM     40  N   UNL A   1      40.370  29.862  32.019  1.00  0.00    -0.248 NA
ATOM     41  C   UNL A   1      38.408  31.124  31.946  1.00  0.00     0.031 C 
ATOM     42  C   UNL A   1      39.368  28.160  27.999  1.00  0.00     0.029 A 
ATOM     43  N   UNL A   1      40.823  28.101  29.693  1.00  0.00    -0.354 N 
ATOM     44  C   UNL A   1      40.285  30.647  33.165  1.00  0.00     0.074 A 
ATOM     45  C   UNL A   1      39.094  31.457  33.028  1.00  0.00     0.031 C 
ATOM     46  C   UNL A   1      40.324  27.276  27.675  1.00  0.00     0.029 A 
ATOM     47  C   UNL A   1      41.316  27.235  28.744  1.00  0.00     0.049 A 
ATOM     48  H   UNL A   1      41.270  28.268  30.554  1.00  0.00     0.167 HD
ATOM     49  C   UNL A   1      41.111  30.669  34.241  1.00  0.00     0.034 A 
ATOM     50  C   UNL A   1      42.449  26.503  28.730  1.00  0.00     0.034 A 
ATOM     51  C   UNL A   1      42.294  29.850  34.357  1.00  0.00     0.049 A 
ATOM     52  C   UNL A   1      43.371  26.572  29.921  1.00  0.00     0.074 A 
ATOM     53  C   UNL A   1      43.177  29.757  35.419  1.00  0.00     0.029 A 
ATOM     54  N   UNL A   1      42.765  28.986  33.375  1.00  0.00    -0.354 N 
ATOM     55  N   UNL A   1      43.251  27.282  31.019  1.00  0.00    -0.248 NA
ATOM     56  C   UNL A   1      44.573  25.730  29.875  1.00  0.00     0.031 C 
ATOM     57  C   UNL A   1      44.221  28.901  35.049  1.00  0.00     0.029 A 
ATOM     58  C   UNL A   1      43.944  28.386  33.793  1.00  0.00     0.049 A 
ATOM     59  H   UNL A   1      42.327  28.826  32.509  1.00  0.00     0.167 HD
ATOM     60  C   UNL A   1      44.347  26.948  31.808  1.00  0.00     0.074 A 
ATOM     61  C   UNL A   1      45.105  25.959  31.067  1.00  0.00     0.031 C 
ATOM     62  C   UNL A   1      44.696  27.411  33.037  1.00  0.00     0.034 A 
BRANCH  49  63
ATOM     63  C   UNL A   1      40.774  31.630  35.357  1.00  0.00     0.023 A 
ATOM     64  C   UNL A   1      39.716  31.382  36.251  1.00  0.00     0.031 A 
ATOM     65  C   UNL A   1      41.500  32.824  35.518  1.00  0.00     0.131 A 
ATOM     66  C   UNL A   1      39.363  32.346  37.207  1.00  0.00     0.055 A 
ATOM     67  C   UNL A   1      41.200  33.740  36.529  1.00  0.00     0.041 A 
ATOM     68  F   UNL A   1      42.506  33.130  34.684  1.00  0.00    -0.206 F 
ATOM     69  C   UNL A   1      40.115  33.511  37.371  1.00  0.00     0.022 A 
BRANCH  66  70
ATOM     70  S   UNL A   1      37.814  32.127  38.125  1.00  0.00     0.124 S 
ATOM     71  O   UNL A   1      37.422  30.778  37.725  1.00  0.00    -0.237 OA
ATOM     72  O   UNL A   1      38.243  32.285  39.510  1.00  0.00    -0.237 OA
ATOM     73  O   UNL A   1      36.957  33.194  37.611  1.00  0.00    -0.744 OA
ENDBRANCH  66  70
ENDBRANCH  49  63
BRANCH  50  74
ATOM     74  C   UNL A   1      42.785  25.657  27.549  1.00  0.00     0.023 A 
ATOM     75  C   UNL A   1      42.262  24.361  27.414  1.00  0.00     0.031 A 
ATOM     76  C   UNL A   1      43.669  26.116  26.556  1.00  0.00     0.131 A 
ATOM     77  C   UNL A   1      42.664  23.551  26.339  1.00  0.00     0.055 A 
ATOM     78  C   UNL A   1      44.019  25.330  25.457  1.00  0.00     0.041 A 
ATOM     79  F   UNL A   1      44.196  27.349  26.633  1.00  0.00    -0.206 F 
ATOM     80  C   UNL A   1      43.527  24.032  25.352  1.00  0.00     0.022 A 
BRANCH  77  81
ATOM     81  S   UNL A   1      42.114  21.823  26.301  1.00  0.00     0.124 S 
ATOM     82  O   UNL A   1      42.426  21.383  27.655  1.00  0.00    -0.237 OA
ATOM     83  O   UNL A   1      40.698  21.964  25.980  1.00  0.00    -0.237 OA
ATOM     84  O   UNL A   1      42.934  21.230  25.246  1.00  0.00    -0.744 OA
ENDBRANCH  77  81
ENDBRANCH  50  74
BRANCH  62  85
ATOM     85  C   UNL A   1      45.929  26.813  33.672  1.00  0.00     0.023 A 
ATOM     86  C   UNL A   1      45.873  25.645  34.452  1.00  0.00     0.031 A 
ATOM     87  C   UNL A   1      47.181  27.431  33.501  1.00  0.00     0.131 A 
ATOM     88  C   UNL A   1      47.031  25.169  35.083  1.00  0.00     0.055 A 
ATOM     89  C   UNL A   1      48.343  26.914  34.074  1.00  0.00     0.041 A 
ATOM     90  F   UNL A   1      47.296  28.553  32.769  1.00  0.00    -0.206 F 
ATOM     91  C   UNL A   1      48.270  25.784  34.883  1.00  0.00     0.022 A 
BRANCH  88  92
ATOM     92  S   UNL A   1      46.881  23.795  36.259  1.00  0.00     0.124 S 
ATOM     93  O   UNL A   1      47.369  22.668  35.470  1.00  0.00    -0.237 OA
ATOM     94  O   UNL A   1      47.743  24.227  37.354  1.00  0.00    -0.237 OA
ATOM     95  O   UNL A   1      45.453  23.763  36.570  1.00  0.00    -0.744 OA
ENDBRANCH  88  92
ENDBRANCH  62  85
ENDBRANCH  36  37
ENDBRANCH  28  31
ENDBRANCH  26  27
ENDBRANCH  25  26
ENDBRANCH   1  25
TORSDOF 17
ENDMDL
MODEL 2
REMARK VINA RESULT:     -12.0      2.610      8.273
REMARK SMILES Cc1ccc(O)c(C(=O)NCc2ccc(C(=O)NCCCNC(=O)c3ccc(-c4c5nc(c(-c6cc(S(=O)(=O)[O-])ccc6F)c6ccc([nH]6)c(-c6cc(S(=O)(=O)[O-])ccc6F)c6nc(c(-c7cc(S(=O)(=O)[O-])ccc7F)c7ccc4[nH]7)C=C6)C=C5)cc3)o2)c1
REMARK SMILES IDX 19 1 18 2 16 3 17 4 15 6 12 7 13 8 88 9 14 10 11 11 10 12
REMARK SMILES IDX 8 13 9 14 7 16 1 17 2 18 3 19 89 20 4 21 5 22 6 23 20 25
REMARK SMILES IDX 21 26 22 27 23 28 24 30 25 31 26 32 87 33 27 34 86 35 28 36
REMARK SMILES IDX 29 37 30 38 80 39 31 40 85 41 79 42 81 43 32 44 84 45 78 46
REMARK SMILES IDX 77 47 33 49 65 50 45 51 64 52 46 53 49 54 63 55 82 56 47 57
REMARK SMILES IDX 48 58 62 60 83 61 50 62 34 63 35 64 43 65 36 66 42 67 44 68
REMARK SMILES IDX 41 69 37 70 38 71 39 72 40 73 66 74 67 75 75 76 68 77 74 78
REMARK SMILES IDX 76 79 73 80 69 81 70 82 71 83 72 84 51 85 52 86 60 87 53 88
REMARK SMILES IDX 59 89 61 90 58 91 54 92 55 93 56 94 57 95
REMARK H PARENT 18 5 10 15 6 24 22 29 81 48 49 59
REMARK Flexibility Score: inf
ROOT
ATOM      1  C   UNL A   1      31.624  30.798  26.103  1.00  0.00     0.118 C 
ENDROOT
BRANCH   1   2
ATOM      2  N   UNL A   1      32.793  30.138  26.646  1.00  0.00    -0.349 N 
ATOM      3  C   UNL A   1      33.559  29.106  26.169  1.00  0.00     0.286 C 
ATOM      4  O   UNL A   1      34.558  28.830  26.847  1.00  0.00    -0.266 OA
ATOM      5  H   UNL A   1      33.091  30.495  27.514  1.00  0.00     0.163 HD
BRANCH   3   6
ATOM      6  C   UNL A   1      33.231  28.404  24.944  1.00  0.00     0.191 A 
ATOM      7  C   UNL A   1      32.438  26.637  23.856  1.00  0.00     0.124 A 
ATOM      8  C   UNL A   1      32.800  27.555  22.896  1.00  0.00     0.048 A 
ATOM      9  O   UNL A   1      32.715  27.138  25.090  1.00  0.00    -0.454 OA
ATOM     10  C   UNL A   1      33.269  28.697  23.591  1.00  0.00     0.056 A 
BRANCH   7  11
ATOM     11  C   UNL A   1      31.778  25.309  23.833  1.00  0.00     0.191 C 
BRANCH  11  12
ATOM     12  N   UNL A   1      31.386  24.980  25.187  1.00  0.00    -0.345 N 
ATOM     13  C   UNL A   1      31.849  24.142  26.160  1.00  0.00     0.255 C 
ATOM     14  O   UNL A   1      31.211  24.144  27.220  1.00  0.00    -0.269 OA
ATOM     15  H   UNL A   1      30.591  25.483  25.477  1.00  0.00     0.164 HD
BRANCH  13  16
ATOM     16  C   UNL A   1      33.041  23.241  26.070  1.00  0.00     0.081 A 
ATOM     17  C   UNL A   1      36.866  23.279  25.960  1.00  0.00     0.044 C 
ATOM     18  C   UNL A   1      35.452  22.778  25.965  1.00  0.00    -0.050 A 
ATOM     19  C   UNL A   1      35.195  21.413  25.833  1.00  0.00     0.007 A 
ATOM     20  C   UNL A   1      34.372  23.674  26.085  1.00  0.00     0.021 A 
ATOM     21  C   UNL A   1      33.883  20.954  25.812  1.00  0.00     0.047 A 
ATOM     22  C   UNL A   1      32.822  21.856  25.921  1.00  0.00     0.128 A 
BRANCH  22  23
ATOM     23  O   UNL A   1      31.576  21.283  25.864  1.00  0.00    -0.507 OA
ATOM     24  H   UNL A   1      30.931  21.497  26.510  1.00  0.00     0.293 HD
ENDBRANCH  22  23
ENDBRANCH  13  16
ENDBRANCH  11  12
ENDBRANCH   7  11
ENDBRANCH   3   6
ENDBRANCH   1   2
BRANCH   1  25
ATOM     25  C   UNL A   1      31.451  32.203  26.676  1.00  0.00     0.042 C 
BRANCH  25  26
ATOM     26  C   UNL A   1      32.725  32.740  27.327  1.00  0.00     0.118 C 
BRANCH  26  27
ATOM     27  N   UNL A   1      32.590  34.140  27.710  1.00  0.00    -0.352 N 
ATOM     28  C   UNL A   1      33.166  34.842  28.738  1.00  0.00     0.251 C 
ATOM     29  H   UNL A   1      31.986  34.667  27.139  1.00  0.00     0.163 HD
ATOM     30  O   UNL A   1      32.702  35.937  29.044  1.00  0.00    -0.269 OA
BRANCH  28  31
ATOM     31  C   UNL A   1      34.325  34.290  29.471  1.00  0.00     0.039 A 
ATOM     32  C   UNL A   1      34.097  33.521  30.615  1.00  0.00     0.014 A 
ATOM     33  C   UNL A   1      35.633  34.567  29.065  1.00  0.00     0.014 A 
ATOM     34  C   UNL A   1      35.178  32.984  31.316  1.00  0.00     0.010 A 
ATOM     35  C   UNL A   1      36.706  33.965  29.716  1.00  0.00     0.010 A 
ATOM     36  C   UNL A   1      36.491  33.172  30.853  1.00  0.00    -0.014 A 
BRANCH  36  37
ATOM     37  C   UNL A   1      37.648  32.550  31.547  1.00  0.00     0.031 A 
ATOM     38  C   UNL A   1      38.377  31.393  30.917  1.00  0.00     0.074 A 
ATOM     39  C   UNL A   1      38.004  32.992  32.769  1.00  0.00     0.049 A 
ATOM     40  N   UNL A   1      39.358  30.672  31.397  1.00  0.00    -0.248 NA
ATOM     41  C   UNL A   1      37.920  30.974  29.583  1.00  0.00     0.031 C 
ATOM     42  C   UNL A   1      37.347  34.081  33.495  1.00  0.00     0.029 A 
ATOM     43  N   UNL A   1      38.997  32.579  33.621  1.00  0.00    -0.354 N 
ATOM     44  C   UNL A   1      39.629  29.709  30.429  1.00  0.00     0.074 A 
ATOM     45  C   UNL A   1      38.662  29.899  29.369  1.00  0.00     0.031 C 
ATOM     46  C   UNL A   1      37.971  34.267  34.669  1.00  0.00     0.029 A 
ATOM     47  C   UNL A   1      39.036  33.279  34.805  1.00  0.00     0.049 A 
ATOM     48  H   UNL A   1      39.623  31.851  33.405  1.00  0.00     0.167 HD
ATOM     49  C   UNL A   1      40.610  28.772  30.417  1.00  0.00     0.034 A 
ATOM     50  C   UNL A   1      39.828  33.130  35.886  1.00  0.00     0.034 A 
ATOM     51  C   UNL A   1      41.566  28.602  31.485  1.00  0.00     0.049 A 
ATOM     52  C   UNL A   1      40.887  32.057  35.865  1.00  0.00     0.074 A 
ATOM     53  C   UNL A   1      42.627  27.717  31.559  1.00  0.00     0.029 A 
ATOM     54  N   UNL A   1      41.572  29.326  32.672  1.00  0.00    -0.354 N 
ATOM     55  N   UNL A   1      41.163  31.186  34.922  1.00  0.00    -0.248 NA
ATOM     56  C   UNL A   1      41.749  31.957  37.049  1.00  0.00     0.031 C 
ATOM     57  C   UNL A   1      43.225  27.852  32.817  1.00  0.00     0.029 A 
ATOM     58  C   UNL A   1      42.596  28.883  33.496  1.00  0.00     0.049 A 
ATOM     59  H   UNL A   1      40.941  30.047  32.895  1.00  0.00     0.167 HD
ATOM     60  C   UNL A   1      42.252  30.455  35.388  1.00  0.00     0.074 A 
ATOM     61  C   UNL A   1      42.592  31.002  36.686  1.00  0.00     0.031 C 
ATOM     62  C   UNL A   1      42.916  29.429  34.795  1.00  0.00     0.034 A 
BRANCH  49  63
ATOM     63  C   UNL A   1      40.673  27.846  29.224  1.00  0.00     0.023 A 
ATOM     64  C   UNL A   1      41.605  28.038  28.189  1.00  0.00     0.031 A 
ATOM     65  C   UNL A   1      39.773  26.771  29.104  1.00  0.00     0.131 A 
ATOM     66  C   UNL A   1      41.564  27.225  27.047  1.00  0.00     0.055 A 
ATOM     67  C   UNL A   1      39.796  25.910  28.005  1.00  0.00     0.041 A 
ATOM     68  F   UNL A   1      38.845  26.548  30.047  1.00  0.00    -0.206 F 
ATOM     69  C   UNL A   1      40.684  26.144  26.960  1.00  0.00     0.022 A 
BRANCH  66  70
ATOM     70  S   UNL A   1      42.569  27.697  25.612  1.00  0.00     0.124 S 
ATOM     71  O   UNL A   1      41.907  28.926  25.180  1.00  0.00    -0.237 OA
ATOM     72  O   UNL A   1      43.896  27.857  26.195  1.00  0.00    -0.237 OA
ATOM     73  O   UNL A   1      42.419  26.565  24.700  1.00  0.00    -0.744 OA
ENDBRANCH  66  70
ENDBRANCH  49  63
BRANCH  50  74
ATOM     74  C   UNL A   1      39.645  34.003  37.082  1.00  0.00     0.023 A 
ATOM     75  C   UNL A   1      39.033  33.515  38.247  1.00  0.00     0.031 A 
ATOM     76  C   UNL A   1      40.043  35.352  37.062  1.00  0.00     0.131 A 
ATOM     77  C   UNL A   1      38.791  34.382  39.326  1.00  0.00     0.055 A 
ATOM     78  C   UNL A   1      39.855  36.194  38.159  1.00  0.00     0.041 A 
ATOM     79  F   UNL A   1      40.637  35.869  35.975  1.00  0.00    -0.206 F 
ATOM     80  C   UNL A   1      39.211  35.713  39.296  1.00  0.00     0.022 A 
BRANCH  77  81
ATOM     81  S   UNL A   1      37.832  33.765  40.737  1.00  0.00     0.124 S 
ATOM     82  O   UNL A   1      37.514  35.001  41.442  1.00  0.00    -0.237 OA
ATOM     83  O   UNL A   1      36.717  33.097  40.075  1.00  0.00    -0.237 OA
ATOM     84  O   UNL A   1      38.769  32.878  41.422  1.00  0.00    -0.744 OA
ENDBRANCH  77  81
ENDBRANCH  50  74
BRANCH  62  85
ATOM     85  C   UNL A   1      44.107  28.865  35.532  1.00  0.00     0.023 A 
ATOM     86  C   UNL A   1      43.990  27.778  36.415  1.00  0.00     0.031 A 
ATOM     87  C   UNL A   1      45.381  29.437  35.357  1.00  0.00     0.131 A 
ATOM     88  C   UNL A   1      45.109  27.337  37.135  1.00  0.00     0.055 A 
ATOM     89  C   UNL A   1      46.505  28.949  36.023  1.00  0.00     0.041 A 
ATOM     90  F   UNL A   1      45.554  30.481  34.529  1.00  0.00    -0.206 F 
ATOM     91  C   UNL A   1      46.371  27.902  36.929  1.00  0.00     0.022 A 
BRANCH  88  92
ATOM     92  S   UNL A   1      44.878  26.084  38.426  1.00  0.00     0.124 S 
ATOM     93  O   UNL A   1      46.118  26.200  39.186  1.00  0.00    -0.237 OA
ATOM     94  O   UNL A   1      43.671  26.551  39.102  1.00  0.00    -0.237 OA
ATOM     95  O   UNL A   1      44.724  24.840  37.674  1.00  0.00    -0.744 OA
ENDBRANCH  88  92
ENDBRANCH  62  85
ENDBRANCH  36  37
ENDBRANCH  28  31
ENDBRANCH  26  27
ENDBRANCH  25  26
ENDBRANCH   1  25
TORSDOF 17
ENDMDL
MODEL 3
REMARK VINA RESULT:     -11.9      5.354      8.436
REMARK SMILES Cc1ccc(O)c(C(=O)NCc2ccc(C(=O)NCCCNC(=O)c3ccc(-c4c5nc(c(-c6cc(S(=O)(=O)[O-])ccc6F)c6ccc([nH]6)c(-c6cc(S(=O)(=O)[O-])ccc6F)c6nc(c(-c7cc(S(=O)(=O)[O-])ccc7F)c7ccc4[nH]7)C=C6)C=C5)cc3)o2)c1
REMARK SMILES IDX 19 1 18 2 16 3 17 4 15 6 12 7 13 8 88 9 14 10 11 11 10 12
REMARK SMILES IDX 8 13 9 14 7 16 1 17 2 18 3 19 89 20 4 21 5 22 6 23 20 25
REMARK SMILES IDX 21 26 22 27 23 28 24 30 25 31 26 32 87 33 27 34 86 35 28 36
REMARK SMILES IDX 29 37 30 38 80 39 31 40 85 41 79 42 81 43 32 44 84 45 78 46
REMARK SMILES IDX 77 47 33 49 65 50 45 51 64 52 46 53 49 54 63 55 82 56 47 57
REMARK SMILES IDX 48 58 62 60 83 61 50 62 34 63 35 64 43 65 36 66 42 67 44 68
REMARK SMILES IDX 41 69 37 70 38 71 39 72 40 73 66 74 67 75 75 76 68 77 74 78
REMARK SMILES IDX 76 79 73 80 69 81 70 82 71 83 72 84 51 85 52 86 60 87 53 88
REMARK SMILES IDX 59 89 61 90 58 91 54 92 55 93 56 94 57 95
REMARK H PARENT 18 5 10 15 6 24 22 29 81 48 49 59
REMARK Flexibility Score: inf
ROOT
ATOM      1  C   UNL A   1      36.770  20.649  25.010  1.00  0.00     0.118 C 
ENDROOT
BRANCH   1   2
ATOM      2  N   UNL A   1      35.583  19.820  25.006  1.00  0.00    -0.349 N 
ATOM      3  C   UNL A   1      34.249  20.139  24.987  1.00  0.00     0.286 C 
ATOM      4  O   UNL A   1      33.475  19.176  24.902  1.00  0.00    -0.266 OA
ATOM      5  H   UNL A   1      35.766  18.852  25.020  1.00  0.00     0.163 HD
BRANCH   3   6
ATOM      6  C   UNL A   1      33.785  21.511  25.041  1.00  0.00     0.191 A 
ATOM      7  C   UNL A   1      32.566  23.194  24.256  1.00  0.00     0.124 A 
ATOM      8  C   UNL A   1      33.213  23.670  25.373  1.00  0.00     0.048 A 
ATOM      9  O   UNL A   1      32.924  21.899  24.042  1.00  0.00    -0.454 OA
ATOM     10  C   UNL A   1      33.960  22.585  25.896  1.00  0.00     0.056 A 
BRANCH   7  11
ATOM     11  C   UNL A   1      31.556  23.745  23.321  1.00  0.00     0.191 C 
BRANCH  11  12
ATOM     12  N   UNL A   1      32.258  24.418  22.248  1.00  0.00    -0.345 N 
ATOM     13  C   UNL A   1      32.720  25.684  22.029  1.00  0.00     0.255 C 
ATOM     14  O   UNL A   1      33.285  25.869  20.943  1.00  0.00    -0.269 OA
ATOM     15  H   UNL A   1      32.449  23.816  21.493  1.00  0.00     0.164 HD
BRANCH  13  16
ATOM     16  C   UNL A   1      32.618  26.848  22.965  1.00  0.00     0.081 A 
ATOM     17  C   UNL A   1      34.057  28.252  26.221  1.00  0.00     0.044 C 
ATOM     18  C   UNL A   1      33.226  28.118  24.978  1.00  0.00    -0.050 A 
ATOM     19  C   UNL A   1      32.266  29.083  24.672  1.00  0.00     0.007 A 
ATOM     20  C   UNL A   1      33.392  27.014  24.120  1.00  0.00     0.021 A 
ATOM     21  C   UNL A   1      31.480  28.942  23.534  1.00  0.00     0.047 A 
ATOM     22  C   UNL A   1      31.649  27.837  22.697  1.00  0.00     0.128 A 
BRANCH  22  23
ATOM     23  O   UNL A   1      30.800  27.800  21.619  1.00  0.00    -0.507 OA
ATOM     24  H   UNL A   1      30.169  28.482  21.495  1.00  0.00     0.293 HD
ENDBRANCH  22  23
ENDBRANCH  13  16
ENDBRANCH  11  12
ENDBRANCH   7  11
ENDBRANCH   3   6
ENDBRANCH   1   2
BRANCH   1  25
ATOM     25  C   UNL A   1      38.044  19.812  24.931  1.00  0.00     0.042 C 
BRANCH  25  26
ATOM     26  C   UNL A   1      39.176  20.369  25.794  1.00  0.00     0.118 C 
BRANCH  26  27
ATOM     27  N   UNL A   1      40.248  19.398  25.976  1.00  0.00    -0.352 N 
ATOM     28  C   UNL A   1      41.603  19.580  26.100  1.00  0.00     0.251 C 
ATOM     29  H   UNL A   1      39.954  18.461  26.015  1.00  0.00     0.163 HD
ATOM     30  O   UNL A   1      42.347  18.613  25.966  1.00  0.00    -0.269 OA
BRANCH  28  31
ATOM     31  C   UNL A   1      42.161  20.918  26.386  1.00  0.00     0.039 A 
ATOM     32  C   UNL A   1      42.407  21.789  25.320  1.00  0.00     0.014 A 
ATOM     33  C   UNL A   1      42.487  21.300  27.689  1.00  0.00     0.014 A 
ATOM     34  C   UNL A   1      42.926  23.061  25.570  1.00  0.00     0.010 A 
ATOM     35  C   UNL A   1      42.927  22.596  27.945  1.00  0.00     0.010 A 
ATOM     36  C   UNL A   1      43.158  23.489  26.888  1.00  0.00    -0.014 A 
BRANCH  36  37
ATOM     37  C   UNL A   1      43.644  24.862  27.177  1.00  0.00     0.031 A 
ATOM     38  C   UNL A   1      42.698  25.903  27.715  1.00  0.00     0.074 A 
ATOM     39  C   UNL A   1      44.923  25.185  26.900  1.00  0.00     0.049 A 
ATOM     40  N   UNL A   1      42.914  27.171  27.959  1.00  0.00    -0.248 NA
ATOM     41  C   UNL A   1      41.320  25.465  27.985  1.00  0.00     0.031 C 
ATOM     42  C   UNL A   1      45.920  24.271  26.341  1.00  0.00     0.029 A 
ATOM     43  N   UNL A   1      45.603  26.368  27.043  1.00  0.00    -0.354 N 
ATOM     44  C   UNL A   1      41.698  27.683  28.401  1.00  0.00     0.074 A 
ATOM     45  C   UNL A   1      40.737  26.604  28.325  1.00  0.00     0.031 C 
ATOM     46  C   UNL A   1      47.089  24.917  26.214  1.00  0.00     0.029 A 
ATOM     47  C   UNL A   1      46.914  26.305  26.629  1.00  0.00     0.049 A 
ATOM     48  H   UNL A   1      45.192  27.185  27.406  1.00  0.00     0.167 HD
ATOM     49  C   UNL A   1      41.418  28.932  28.853  1.00  0.00     0.034 A 
ATOM     50  C   UNL A   1      47.863  27.261  26.574  1.00  0.00     0.034 A 
ATOM     51  C   UNL A   1      42.394  29.994  28.922  1.00  0.00     0.049 A 
ATOM     52  C   UNL A   1      47.519  28.651  27.047  1.00  0.00     0.074 A 
ATOM     53  C   UNL A   1      42.233  31.281  29.404  1.00  0.00     0.029 A 
ATOM     54  N   UNL A   1      43.712  29.895  28.491  1.00  0.00    -0.354 N 
ATOM     55  N   UNL A   1      46.377  29.108  27.509  1.00  0.00    -0.248 NA
ATOM     56  C   UNL A   1      48.594  29.649  27.002  1.00  0.00     0.031 C 
ATOM     57  C   UNL A   1      43.426  31.982  29.192  1.00  0.00     0.029 A 
ATOM     58  C   UNL A   1      44.362  31.108  28.663  1.00  0.00     0.049 A 
ATOM     59  H   UNL A   1      44.122  29.083  28.117  1.00  0.00     0.167 HD
ATOM     60  C   UNL A   1      46.608  30.440  27.840  1.00  0.00     0.074 A 
ATOM     61  C   UNL A   1      48.002  30.705  27.541  1.00  0.00     0.031 C 
ATOM     62  C   UNL A   1      45.750  31.361  28.349  1.00  0.00     0.034 A 
BRANCH  49  63
ATOM     63  C   UNL A   1      39.995  29.216  29.276  1.00  0.00     0.023 A 
ATOM     64  C   UNL A   1      39.628  29.283  30.632  1.00  0.00     0.031 A 
ATOM     65  C   UNL A   1      38.985  29.398  28.314  1.00  0.00     0.131 A 
ATOM     66  C   UNL A   1      38.280  29.441  30.987  1.00  0.00     0.055 A 
ATOM     67  C   UNL A   1      37.658  29.644  28.675  1.00  0.00     0.041 A 
ATOM     68  F   UNL A   1      39.267  29.323  27.004  1.00  0.00    -0.206 F 
ATOM     69  C   UNL A   1      37.297  29.650  30.019  1.00  0.00     0.022 A 
BRANCH  66  70
ATOM     70  S   UNL A   1      37.811  29.212  32.725  1.00  0.00     0.124 S 
ATOM     71  O   UNL A   1      36.539  29.927  32.784  1.00  0.00    -0.237 OA
ATOM     72  O   UNL A   1      37.734  27.760  32.841  1.00  0.00    -0.237 OA
ATOM     73  O   UNL A   1      38.906  29.840  33.462  1.00  0.00    -0.744 OA
ENDBRANCH  66  70
ENDBRANCH  49  63
BRANCH  50  74
ATOM     74  C   UNL A   1      49.220  26.948  26.041  1.00  0.00     0.023 A 
ATOM     75  C   UNL A   1      49.625  27.404  24.777  1.00  0.00     0.031 A 
ATOM     76  C   UNL A   1      50.120  26.151  26.772  1.00  0.00     0.131 A 
ATOM     77  C   UNL A   1      50.873  27.020  24.260  1.00  0.00     0.055 A 
ATOM     78  C   UNL A   1      51.383  25.821  26.280  1.00  0.00     0.041 A 
ATOM     79  F   UNL A   1      49.786  25.691  27.989  1.00  0.00    -0.206 F 
ATOM     80  C   UNL A   1      51.761  26.244  25.009  1.00  0.00     0.022 A 
BRANCH  77  81
ATOM     81  S   UNL A   1      51.282  27.472  22.552  1.00  0.00     0.124 S 
ATOM     82  O   UNL A   1      51.077  28.916  22.571  1.00  0.00    -0.237 OA
ATOM     83  O   UNL A   1      52.665  27.021  22.443  1.00  0.00    -0.237 OA
ATOM     84  O   UNL A   1      50.317  26.714  21.760  1.00  0.00    -0.744 OA
ENDBRANCH  77  81
ENDBRANCH  50  74
BRANCH  62  85
ATOM     85  C   UNL A   1      46.313  32.728  28.658  1.00  0.00     0.023 A 
ATOM     86  C   UNL A   1      46.866  33.040  29.912  1.00  0.00     0.031 A 
ATOM     87  C   UNL A   1      46.284  33.740  27.681  1.00  0.00     0.131 A 
ATOM     88  C   UNL A   1      47.308  34.344  30.177  1.00  0.00     0.055 A 
ATOM     89  C   UNL A   1      46.789  35.017  27.927  1.00  0.00     0.041 A 
ATOM     90  F   UNL A   1      45.764  33.502  26.464  1.00  0.00    -0.206 F 
ATOM     91  C   UNL A   1      47.292  35.329  29.186  1.00  0.00     0.022 A 
BRANCH  88  92
ATOM     92  S   UNL A   1      47.806  34.768  31.869  1.00  0.00     0.124 S 
ATOM     93  O   UNL A   1      46.548  35.231  32.447  1.00  0.00    -0.237 OA
ATOM     94  O   UNL A   1      48.309  33.495  32.375  1.00  0.00    -0.237 OA
ATOM     95  O   UNL A   1      48.821  35.803  31.679  1.00  0.00    -0.744 OA
ENDBRANCH  88  92
ENDBRANCH  62  85
ENDBRANCH  36  37
ENDBRANCH  28  31
ENDBRANCH  26  27
ENDBRANCH  25  26
ENDBRANCH   1  25
TORSDOF 17
ENDMDL
