MODEL 1
REMARK VINA RESULT:     -12.1      0.000      0.000
REMARK SMILES O=C(Cc1ccccc1Nc1c(Cl)cccc1C(F)(F)F)NCCCNC(=O)c1ccc(-c2c3nc(c(-c4cc(S(=O)(=O)[O-])ccc4F)c4ccc([nH]4)c(-c4cc(S(=O)(=O)[O-])ccc4F)c4nc(c(-c5cc(S(=O)(=O)[O-])ccc5F)c5ccc2[nH]5)C=C4)C=C3)cc1
REMARK SMILES IDX 23 1 22 2 1 3 2 4 3 6 4 7 5 8 9 9 6 10 8 11 7 12 10 13 11 15
REMARK SMILES IDX 12 16 17 17 13 18 14 19 16 20 15 21 18 22 19 23 20 24 21 25
REMARK SMILES IDX 24 26 25 27 26 28 27 29 28 31 29 32 30 33 91 34 31 35 90 36
REMARK SMILES IDX 32 37 33 38 34 39 84 40 35 41 89 42 83 43 85 44 36 45 88 46
REMARK SMILES IDX 82 47 81 48 37 50 69 51 49 52 68 53 50 54 53 55 67 56 86 57
REMARK SMILES IDX 51 58 52 59 66 61 87 62 54 63 38 64 39 65 47 66 40 67 46 68
REMARK SMILES IDX 48 69 45 70 41 71 42 72 43 73 44 74 70 75 71 76 79 77 72 78
REMARK SMILES IDX 78 79 80 80 77 81 73 82 74 83 75 84 76 85 55 86 56 87 64 88
REMARK SMILES IDX 57 89 63 90 65 91 62 92 58 93 59 94 60 95 61 96
REMARK H PARENT 22 5 10 14 26 30 85 49 53 60
REMARK Flexibility Score: inf
ROOT
ATOM      1  C   UNL A   1      31.780  28.229  27.342  1.00  0.00     0.117 C 
ENDROOT
BRANCH   1   2
ATOM      2  N   UNL A   1      32.837  27.326  26.915  1.00  0.00    -0.356 N 
ATOM      3  O   UNL A   1      31.429  25.665  26.172  1.00  0.00    -0.275 OA
ATOM      4  C   UNL A   1      32.566  26.099  26.326  1.00  0.00     0.224 C 
ATOM      5  H   UNL A   1      33.775  27.594  27.047  1.00  0.00     0.163 HD
BRANCH   4   6
ATOM      6  C   UNL A   1      33.801  25.373  25.837  1.00  0.00     0.137 C 
BRANCH   6   7
ATOM      7  C   UNL A   1      33.755  24.745  24.449  1.00  0.00    -0.015 A 
ATOM      8  C   UNL A   1      33.376  25.621  23.404  1.00  0.00     0.006 A 
ATOM      9  C   UNL A   1      33.922  23.372  24.148  1.00  0.00     0.042 A 
ATOM     10  C   UNL A   1      33.144  25.162  22.108  1.00  0.00     0.000 A 
ATOM     11  C   UNL A   1      33.641  22.928  22.841  1.00  0.00     0.026 A 
ATOM     12  C   UNL A   1      33.262  23.809  21.830  1.00  0.00     0.002 A 
BRANCH   9  13
ATOM     13  N   UNL A   1      34.285  22.431  25.128  1.00  0.00    -0.354 N 
ATOM     14  H   UNL A   1      33.691  22.403  25.913  1.00  0.00     0.167 HD
BRANCH  13  15
ATOM     15  C   UNL A   1      35.364  21.522  25.168  1.00  0.00     0.070 A 
ATOM     16  C   UNL A   1      36.685  22.018  25.215  1.00  0.00     0.065 A 
ATOM     17  C   UNL A   1      35.162  20.147  24.926  1.00  0.00     0.080 A 
ATOM     18  Cl  UNL A   1      36.990  23.703  25.477  1.00  0.00    -0.082 Cl
ATOM     19  C   UNL A   1      37.779  21.171  25.041  1.00  0.00     0.023 A 
ATOM     20  C   UNL A   1      36.281  19.306  24.764  1.00  0.00     0.015 A 
ATOM     21  C   UNL A   1      37.577  19.815  24.809  1.00  0.00     0.002 A 
BRANCH  17  22
ATOM     22  C   UNL A   1      33.780  19.541  24.865  1.00  0.00     0.418 C 
ATOM     23  F   UNL A   1      33.808  18.187  24.673  1.00  0.00    -0.166 F 
ATOM     24  F   UNL A   1      33.078  19.718  26.019  1.00  0.00    -0.166 F 
ATOM     25  F   UNL A   1      33.003  20.020  23.856  1.00  0.00    -0.166 F 
ENDBRANCH  17  22
ENDBRANCH  13  15
ENDBRANCH   9  13
ENDBRANCH   6   7
ENDBRANCH   4   6
ENDBRANCH   1   2
BRANCH   1  26
ATOM     26  C   UNL A   1      31.421  29.289  26.305  1.00  0.00     0.042 C 
BRANCH  26  27
ATOM     27  C   UNL A   1      32.542  30.251  25.915  1.00  0.00     0.118 C 
BRANCH  27  28
ATOM     28  N   UNL A   1      32.418  31.578  26.493  1.00  0.00    -0.352 N 
ATOM     29  C   UNL A   1      33.271  32.261  27.333  1.00  0.00     0.251 C 
ATOM     30  H   UNL A   1      31.599  32.064  26.246  1.00  0.00     0.163 HD
ATOM     31  O   UNL A   1      32.947  33.380  27.719  1.00  0.00    -0.269 OA
BRANCH  29  32
ATOM     32  C   UNL A   1      34.531  31.648  27.828  1.00  0.00     0.039 A 
ATOM     33  C   UNL A   1      35.636  32.489  28.003  1.00  0.00     0.014 A 
ATOM     34  C   UNL A   1      34.649  30.288  28.127  1.00  0.00     0.014 A 
ATOM     35  C   UNL A   1      36.813  31.993  28.568  1.00  0.00     0.010 A 
ATOM     36  C   UNL A   1      35.801  29.808  28.756  1.00  0.00     0.010 A 
ATOM     37  C   UNL A   1      36.886  30.660  29.003  1.00  0.00    -0.014 A 
BRANCH  37  38
ATOM     38  C   UNL A   1      38.068  30.182  29.768  1.00  0.00     0.031 A 
ATOM     39  C   UNL A   1      38.322  30.649  31.173  1.00  0.00     0.074 A 
ATOM     40  C   UNL A   1      38.943  29.351  29.164  1.00  0.00     0.049 A 
ATOM     41  N   UNL A   1      39.304  30.340  31.983  1.00  0.00    -0.248 NA
ATOM     42  C   UNL A   1      37.360  31.609  31.732  1.00  0.00     0.031 C 
ATOM     43  C   UNL A   1      38.835  28.875  27.782  1.00  0.00     0.029 A 
ATOM     44  N   UNL A   1      40.090  28.759  29.627  1.00  0.00    -0.354 N 
ATOM     45  C   UNL A   1      39.082  31.069  33.146  1.00  0.00     0.074 A 
ATOM     46  C   UNL A   1      37.904  31.879  32.910  1.00  0.00     0.031 C 
ATOM     47  C   UNL A   1      39.854  28.041  27.522  1.00  0.00     0.029 A 
ATOM     48  C   UNL A   1      40.707  27.948  28.702  1.00  0.00     0.049 A 
ATOM     49  H   UNL A   1      40.441  28.900  30.536  1.00  0.00     0.167 HD
ATOM     50  C   UNL A   1      39.783  31.049  34.309  1.00  0.00     0.034 A 
ATOM     51  C   UNL A   1      41.832  27.212  28.791  1.00  0.00     0.034 A 
ATOM     52  C   UNL A   1      40.958  30.237  34.526  1.00  0.00     0.049 A 
ATOM     53  C   UNL A   1      42.586  27.196  30.094  1.00  0.00     0.074 A 
ATOM     54  C   UNL A   1      41.725  30.115  35.673  1.00  0.00     0.029 A 
ATOM     55  N   UNL A   1      41.542  29.410  33.573  1.00  0.00    -0.354 N 
ATOM     56  N   UNL A   1      42.331  27.850  31.204  1.00  0.00    -0.248 NA
ATOM     57  C   UNL A   1      43.766  26.327  30.162  1.00  0.00     0.031 C 
ATOM     58  C   UNL A   1      42.800  29.261  35.396  1.00  0.00     0.029 A 
ATOM     59  C   UNL A   1      42.668  28.792  34.099  1.00  0.00     0.049 A 
ATOM     60  H   UNL A   1      41.204  29.281  32.658  1.00  0.00     0.167 HD
ATOM     61  C   UNL A   1      43.307  27.448  32.111  1.00  0.00     0.074 A 
ATOM     62  C   UNL A   1      44.139  26.481  31.424  1.00  0.00     0.031 C 
ATOM     63  C   UNL A   1      43.497  27.840  33.397  1.00  0.00     0.034 A 
BRANCH  50  64
ATOM     64  C   UNL A   1      39.305  31.958  35.418  1.00  0.00     0.023 A 
ATOM     65  C   UNL A   1      39.770  33.280  35.538  1.00  0.00     0.031 A 
ATOM     66  C   UNL A   1      38.405  31.488  36.390  1.00  0.00     0.131 A 
ATOM     67  C   UNL A   1      39.400  34.056  36.648  1.00  0.00     0.055 A 
ATOM     68  C   UNL A   1      37.975  32.293  37.448  1.00  0.00     0.041 A 
ATOM     69  F   UNL A   1      37.941  30.229  36.341  1.00  0.00    -0.206 F 
ATOM     70  C   UNL A   1      38.486  33.580  37.592  1.00  0.00     0.022 A 
BRANCH  67  71
ATOM     71  S   UNL A   1      40.246  35.637  36.919  1.00  0.00     0.124 S 
ATOM     72  O   UNL A   1      39.653  36.470  35.875  1.00  0.00    -0.237 OA
ATOM     73  O   UNL A   1      39.871  35.965  38.290  1.00  0.00    -0.237 OA
ATOM     74  O   UNL A   1      41.656  35.310  36.719  1.00  0.00    -0.744 OA
ENDBRANCH  67  71
ENDBRANCH  50  64
BRANCH  51  75
ATOM     75  C   UNL A   1      42.311  26.422  27.622  1.00  0.00     0.023 A 
ATOM     76  C   UNL A   1      41.957  25.073  27.465  1.00  0.00     0.031 A 
ATOM     77  C   UNL A   1      43.162  26.997  26.661  1.00  0.00     0.131 A 
ATOM     78  C   UNL A   1      42.486  24.329  26.400  1.00  0.00     0.055 A 
ATOM     79  C   UNL A   1      43.647  26.267  25.575  1.00  0.00     0.041 A 
ATOM     80  F   UNL A   1      43.522  28.287  26.758  1.00  0.00    -0.206 F 
ATOM     81  C   UNL A   1      43.320  24.920  25.447  1.00  0.00     0.022 A 
BRANCH  78  82
ATOM     82  S   UNL A   1      42.129  22.553  26.317  1.00  0.00     0.124 S 
ATOM     83  O   UNL A   1      40.677  22.534  26.457  1.00  0.00    -0.237 OA
ATOM     84  O   UNL A   1      42.652  22.200  25.002  1.00  0.00    -0.237 OA
ATOM     85  O   UNL A   1      42.872  22.004  27.449  1.00  0.00    -0.744 OA
ENDBRANCH  78  82
ENDBRANCH  51  75
BRANCH  63  86
ATOM     86  C   UNL A   1      44.630  27.181  34.145  1.00  0.00     0.023 A 
ATOM     87  C   UNL A   1      44.491  25.909  34.728  1.00  0.00     0.031 A 
ATOM     88  C   UNL A   1      45.852  27.856  34.312  1.00  0.00     0.131 A 
ATOM     89  C   UNL A   1      45.531  25.381  35.507  1.00  0.00     0.055 A 
ATOM     90  C   UNL A   1      46.906  27.299  35.037  1.00  0.00     0.041 A 
ATOM     91  F   UNL A   1      46.040  29.074  33.778  1.00  0.00    -0.206 F 
ATOM     92  C   UNL A   1      46.743  26.062  35.654  1.00  0.00     0.022 A 
BRANCH  89  93
ATOM     93  S   UNL A   1      45.238  23.841  36.422  1.00  0.00     0.124 S 
ATOM     94  O   UNL A   1      43.981  23.378  35.844  1.00  0.00    -0.237 OA
ATOM     95  O   UNL A   1      46.421  23.054  36.089  1.00  0.00    -0.237 OA
ATOM     96  O   UNL A   1      45.157  24.279  37.814  1.00  0.00    -0.744 OA
ENDBRANCH  89  93
ENDBRANCH  63  86
ENDBRANCH  37  38
ENDBRANCH  29  32
ENDBRANCH  27  28
ENDBRANCH  26  27
ENDBRANCH   1  26
TORSDOF 17
ENDMDL
MODEL 2
REMARK VINA RESULT:     -12.0      2.106      3.302
REMARK SMILES O=C(Cc1ccccc1Nc1c(Cl)cccc1C(F)(F)F)NCCCNC(=O)c1ccc(-c2c3nc(c(-c4cc(S(=O)(=O)[O-])ccc4F)c4ccc([nH]4)c(-c4cc(S(=O)(=O)[O-])ccc4F)c4nc(c(-c5cc(S(=O)(=O)[O-])ccc5F)c5ccc2[nH]5)C=C4)C=C3)cc1
REMARK SMILES IDX 23 1 22 2 1 3 2 4 3 6 4 7 5 8 9 9 6 10 8 11 7 12 10 13 11 15
REMARK SMILES IDX 12 16 17 17 13 18 14 19 16 20 15 21 18 22 19 23 20 24 21 25
REMARK SMILES IDX 24 26 25 27 26 28 27 29 28 31 29 32 30 33 91 34 31 35 90 36
REMARK SMILES IDX 32 37 33 38 34 39 84 40 35 41 89 42 83 43 85 44 36 45 88 46
REMARK SMILES IDX 82 47 81 48 37 50 69 51 49 52 68 53 50 54 53 55 67 56 86 57
REMARK SMILES IDX 51 58 52 59 66 61 87 62 54 63 38 64 39 65 47 66 40 67 46 68
REMARK SMILES IDX 48 69 45 70 41 71 42 72 43 73 44 74 70 75 71 76 79 77 72 78
REMARK SMILES IDX 78 79 80 80 77 81 73 82 74 83 75 84 76 85 55 86 56 87 64 88
REMARK SMILES IDX 57 89 63 90 65 91 62 92 58 93 59 94 60 95 61 96
REMARK H PARENT 22 5 10 14 26 30 85 49 53 60
REMARK Flexibility Score: inf
ROOT
ATOM      1  C   UNL A   1      31.832  28.191  27.231  1.00  0.00     0.117 C 
ENDROOT
BRANCH   1   2
ATOM      2  N   UNL A   1      31.035  27.063  26.775  1.00  0.00    -0.356 N 
ATOM      3  O   UNL A   1      32.819  25.651  26.428  1.00  0.00    -0.275 OA
ATOM      4  C   UNL A   1      31.608  25.847  26.428  1.00  0.00     0.224 C 
ATOM      5  H   UNL A   1      30.058  27.164  26.712  1.00  0.00     0.163 HD
BRANCH   4   6
ATOM      6  C   UNL A   1      30.596  24.767  26.109  1.00  0.00     0.137 C 
BRANCH   6   7
ATOM      7  C   UNL A   1      31.027  23.640  25.179  1.00  0.00    -0.015 A 
ATOM      8  C   UNL A   1      31.602  22.517  25.819  1.00  0.00     0.006 A 
ATOM      9  C   UNL A   1      31.026  23.680  23.763  1.00  0.00     0.042 A 
ATOM     10  C   UNL A   1      32.179  21.474  25.096  1.00  0.00     0.000 A 
ATOM     11  C   UNL A   1      31.652  22.633  23.058  1.00  0.00     0.026 A 
ATOM     12  C   UNL A   1      32.217  21.541  23.712  1.00  0.00     0.002 A 
BRANCH   9  13
ATOM     13  N   UNL A   1      30.487  24.763  23.047  1.00  0.00    -0.354 N 
ATOM     14  H   UNL A   1      29.860  24.512  22.329  1.00  0.00     0.167 HD
BRANCH  13  15
ATOM     15  C   UNL A   1      30.699  26.151  23.190  1.00  0.00     0.070 A 
ATOM     16  C   UNL A   1      29.611  26.987  23.521  1.00  0.00     0.065 A 
ATOM     17  C   UNL A   1      31.913  26.743  22.782  1.00  0.00     0.080 A 
ATOM     18  Cl  UNL A   1      28.089  26.312  23.998  1.00  0.00    -0.082 Cl
ATOM     19  C   UNL A   1      29.726  28.375  23.463  1.00  0.00     0.023 A 
ATOM     20  C   UNL A   1      32.012  28.148  22.741  1.00  0.00     0.015 A 
ATOM     21  C   UNL A   1      30.925  28.957  23.067  1.00  0.00     0.002 A 
BRANCH  17  22
ATOM     22  C   UNL A   1      33.122  25.916  22.415  1.00  0.00     0.418 C 
ATOM     23  F   UNL A   1      32.863  25.025  21.410  1.00  0.00    -0.166 F 
ATOM     24  F   UNL A   1      34.156  26.675  21.954  1.00  0.00    -0.166 F 
ATOM     25  F   UNL A   1      33.614  25.160  23.433  1.00  0.00    -0.166 F 
ENDBRANCH  17  22
ENDBRANCH  13  15
ENDBRANCH   9  13
ENDBRANCH   6   7
ENDBRANCH   4   6
ENDBRANCH   1   2
BRANCH   1  26
ATOM     26  C   UNL A   1      31.400  29.528  26.637  1.00  0.00     0.042 C 
BRANCH  26  27
ATOM     27  C   UNL A   1      32.527  30.442  26.157  1.00  0.00     0.118 C 
BRANCH  27  28
ATOM     28  N   UNL A   1      32.455  31.799  26.670  1.00  0.00    -0.352 N 
ATOM     29  C   UNL A   1      33.343  32.494  27.462  1.00  0.00     0.251 C 
ATOM     30  H   UNL A   1      31.649  32.299  26.410  1.00  0.00     0.163 HD
ATOM     31  O   UNL A   1      33.060  33.640  27.797  1.00  0.00    -0.269 OA
BRANCH  29  32
ATOM     32  C   UNL A   1      34.589  31.865  27.970  1.00  0.00     0.039 A 
ATOM     33  C   UNL A   1      35.718  32.680  28.108  1.00  0.00     0.014 A 
ATOM     34  C   UNL A   1      34.672  30.513  28.317  1.00  0.00     0.014 A 
ATOM     35  C   UNL A   1      36.886  32.172  28.682  1.00  0.00     0.010 A 
ATOM     36  C   UNL A   1      35.816  30.024  28.955  1.00  0.00     0.010 A 
ATOM     37  C   UNL A   1      36.926  30.855  29.164  1.00  0.00    -0.014 A 
BRANCH  37  38
ATOM     38  C   UNL A   1      38.101  30.371  29.937  1.00  0.00     0.031 A 
ATOM     39  C   UNL A   1      38.327  30.810  31.355  1.00  0.00     0.074 A 
ATOM     40  C   UNL A   1      38.993  29.563  29.329  1.00  0.00     0.049 A 
ATOM     41  N   UNL A   1      39.299  30.494  32.174  1.00  0.00    -0.248 NA
ATOM     42  C   UNL A   1      37.346  31.748  31.920  1.00  0.00     0.031 C 
ATOM     43  C   UNL A   1      38.912  29.116  27.935  1.00  0.00     0.029 A 
ATOM     44  N   UNL A   1      40.139  28.972  29.797  1.00  0.00    -0.354 N 
ATOM     45  C   UNL A   1      39.051  31.195  33.349  1.00  0.00     0.074 A 
ATOM     46  C   UNL A   1      37.868  31.997  33.112  1.00  0.00     0.031 C 
ATOM     47  C   UNL A   1      39.943  28.298  27.673  1.00  0.00     0.029 A 
ATOM     48  C   UNL A   1      40.779  28.189  28.864  1.00  0.00     0.049 A 
ATOM     49  H   UNL A   1      40.474  29.097  30.714  1.00  0.00     0.167 HD
ATOM     50  C   UNL A   1      39.734  31.156  34.523  1.00  0.00     0.034 A 
ATOM     51  C   UNL A   1      41.910  27.462  28.956  1.00  0.00     0.034 A 
ATOM     52  C   UNL A   1      40.913  30.351  34.741  1.00  0.00     0.049 A 
ATOM     53  C   UNL A   1      42.644  27.425  30.270  1.00  0.00     0.074 A 
ATOM     54  C   UNL A   1      41.664  30.211  35.897  1.00  0.00     0.029 A 
ATOM     55  N   UNL A   1      41.521  29.551  33.779  1.00  0.00    -0.354 N 
ATOM     56  N   UNL A   1      42.364  28.052  31.390  1.00  0.00    -0.248 NA
ATOM     57  C   UNL A   1      43.831  26.566  30.338  1.00  0.00     0.031 C 
ATOM     58  C   UNL A   1      42.752  29.374  35.618  1.00  0.00     0.029 A 
ATOM     59  C   UNL A   1      42.645  28.933  34.310  1.00  0.00     0.049 A 
ATOM     60  H   UNL A   1      41.200  29.439  32.856  1.00  0.00     0.167 HD
ATOM     61  C   UNL A   1      43.330  27.640  32.303  1.00  0.00     0.074 A 
ATOM     62  C   UNL A   1      44.182  26.696  31.609  1.00  0.00     0.031 C 
ATOM     63  C   UNL A   1      43.495  28.005  33.601  1.00  0.00     0.034 A 
BRANCH  50  64
ATOM     64  C   UNL A   1      39.229  32.035  35.644  1.00  0.00     0.023 A 
ATOM     65  C   UNL A   1      39.615  33.383  35.752  1.00  0.00     0.031 A 
ATOM     66  C   UNL A   1      38.384  31.512  36.637  1.00  0.00     0.131 A 
ATOM     67  C   UNL A   1      39.226  34.136  36.871  1.00  0.00     0.055 A 
ATOM     68  C   UNL A   1      37.932  32.291  37.706  1.00  0.00     0.041 A 
ATOM     69  F   UNL A   1      37.996  30.228  36.599  1.00  0.00    -0.206 F 
ATOM     70  C   UNL A   1      38.367  33.607  37.837  1.00  0.00     0.022 A 
BRANCH  67  71
ATOM     71  S   UNL A   1      39.981  35.767  37.121  1.00  0.00     0.124 S 
ATOM     72  O   UNL A   1      41.386  35.415  37.313  1.00  0.00    -0.237 OA
ATOM     73  O   UNL A   1      39.658  36.458  35.879  1.00  0.00    -0.237 OA
ATOM     74  O   UNL A   1      39.306  36.277  38.313  1.00  0.00    -0.744 OA
ENDBRANCH  67  71
ENDBRANCH  50  64
BRANCH  51  75
ATOM     75  C   UNL A   1      42.416  26.702  27.778  1.00  0.00     0.023 A 
ATOM     76  C   UNL A   1      42.039  25.369  27.560  1.00  0.00     0.031 A 
ATOM     77  C   UNL A   1      43.314  27.292  26.870  1.00  0.00     0.131 A 
ATOM     78  C   UNL A   1      42.593  24.650  26.489  1.00  0.00     0.055 A 
ATOM     79  C   UNL A   1      43.824  26.589  25.777  1.00  0.00     0.041 A 
ATOM     80  F   UNL A   1      43.697  28.569  27.026  1.00  0.00    -0.206 F 
ATOM     81  C   UNL A   1      43.474  25.256  25.589  1.00  0.00     0.022 A 
BRANCH  78  82
ATOM     82  S   UNL A   1      42.201  22.886  26.330  1.00  0.00     0.124 S 
ATOM     83  O   UNL A   1      42.981  22.309  27.418  1.00  0.00    -0.237 OA
ATOM     84  O   UNL A   1      40.753  22.882  26.505  1.00  0.00    -0.237 OA
ATOM     85  O   UNL A   1      42.665  22.555  24.985  1.00  0.00    -0.744 OA
ENDBRANCH  78  82
ENDBRANCH  51  75
BRANCH  63  86
ATOM     86  C   UNL A   1      44.623  27.342  34.352  1.00  0.00     0.023 A 
ATOM     87  C   UNL A   1      44.445  26.122  35.029  1.00  0.00     0.031 A 
ATOM     88  C   UNL A   1      45.883  27.961  34.426  1.00  0.00     0.131 A 
ATOM     89  C   UNL A   1      45.487  25.596  35.806  1.00  0.00     0.055 A 
ATOM     90  C   UNL A   1      46.935  27.402  35.151  1.00  0.00     0.041 A 
ATOM     91  F   UNL A   1      46.109  29.128  33.800  1.00  0.00    -0.206 F 
ATOM     92  C   UNL A   1      46.736  26.221  35.860  1.00  0.00     0.022 A 
BRANCH  89  93
ATOM     93  S   UNL A   1      45.155  24.141  36.838  1.00  0.00     0.124 S 
ATOM     94  O   UNL A   1      44.225  24.675  37.827  1.00  0.00    -0.237 OA
ATOM     95  O   UNL A   1      44.590  23.201  35.875  1.00  0.00    -0.237 OA
ATOM     96  O   UNL A   1      46.472  23.779  37.357  1.00  0.00    -0.744 OA
ENDBRANCH  89  93
ENDBRANCH  63  86
ENDBRANCH  37  38
ENDBRANCH  29  32
ENDBRANCH  27  28
ENDBRANCH  26  27
ENDBRANCH   1  26
TORSDOF 17
ENDMDL
MODEL 3
REMARK VINA RESULT:     -11.9      2.968      3.971
REMARK SMILES O=C(Cc1ccccc1Nc1c(Cl)cccc1C(F)(F)F)NCCCNC(=O)c1ccc(-c2c3nc(c(-c4cc(S(=O)(=O)[O-])ccc4F)c4ccc([nH]4)c(-c4cc(S(=O)(=O)[O-])ccc4F)c4nc(c(-c5cc(S(=O)(=O)[O-])ccc5F)c5ccc2[nH]5)C=C4)C=C3)cc1
REMARK SMILES IDX 23 1 22 2 1 3 2 4 3 6 4 7 5 8 9 9 6 10 8 11 7 12 10 13 11 15
REMARK SMILES IDX 12 16 17 17 13 18 14 19 16 20 15 21 18 22 19 23 20 24 21 25
REMARK SMILES IDX 24 26 25 27 26 28 27 29 28 31 29 32 30 33 91 34 31 35 90 36
REMARK SMILES IDX 32 37 33 38 34 39 84 40 35 41 89 42 83 43 85 44 36 45 88 46
REMARK SMILES IDX 82 47 81 48 37 50 69 51 49 52 68 53 50 54 53 55 67 56 86 57
REMARK SMILES IDX 51 58 52 59 66 61 87 62 54 63 38 64 39 65 47 66 40 67 46 68
REMARK SMILES IDX 48 69 45 70 41 71 42 72 43 73 44 74 70 75 71 76 79 77 72 78
REMARK SMILES IDX 78 79 80 80 77 81 73 82 74 83 75 84 76 85 55 86 56 87 64 88
REMARK SMILES IDX 57 89 63 90 65 91 62 92 58 93 59 94 60 95 61 96
REMARK H PARENT 22 5 10 14 26 30 85 49 53 60
REMARK Flexibility Score: inf
ROOT
ATOM      1  C   UNL A   1      32.135  30.359  26.458  1.00  0.00     0.117 C 
ENDROOT
BRANCH   1   2
ATOM      2  N   UNL A   1      31.605  29.988  25.156  1.00  0.00    -0.356 N 
ATOM      3  O   UNL A   1      33.569  29.093  24.359  1.00  0.00    -0.275 OA
ATOM      4  C   UNL A   1      32.380  29.346  24.201  1.00  0.00     0.224 C 
ATOM      5  H   UNL A   1      30.666  30.198  24.946  1.00  0.00     0.163 HD
BRANCH   4   6
ATOM      6  C   UNL A   1      31.604  28.930  22.968  1.00  0.00     0.137 C 
BRANCH   6   7
ATOM      7  C   UNL A   1      30.342  28.099  23.168  1.00  0.00    -0.015 A 
ATOM      8  C   UNL A   1      29.126  28.786  22.942  1.00  0.00     0.006 A 
ATOM      9  C   UNL A   1      30.285  26.779  23.677  1.00  0.00     0.042 A 
ATOM     10  C   UNL A   1      27.891  28.206  23.227  1.00  0.00     0.000 A 
ATOM     11  C   UNL A   1      29.026  26.233  23.995  1.00  0.00     0.026 A 
ATOM     12  C   UNL A   1      27.842  26.932  23.769  1.00  0.00     0.002 A 
BRANCH   9  13
ATOM     13  N   UNL A   1      31.444  26.029  23.942  1.00  0.00    -0.354 N 
ATOM     14  H   UNL A   1      32.134  26.505  24.458  1.00  0.00     0.167 HD
BRANCH  13  15
ATOM     15  C   UNL A   1      31.778  24.704  23.585  1.00  0.00     0.070 A 
ATOM     16  C   UNL A   1      31.643  23.676  24.542  1.00  0.00     0.065 A 
ATOM     17  C   UNL A   1      32.459  24.429  22.381  1.00  0.00     0.080 A 
ATOM     18  Cl  UNL A   1      30.842  23.968  26.050  1.00  0.00    -0.082 Cl
ATOM     19  C   UNL A   1      32.157  22.401  24.307  1.00  0.00     0.023 A 
ATOM     20  C   UNL A   1      32.962  23.132  22.158  1.00  0.00     0.015 A 
ATOM     21  C   UNL A   1      32.824  22.130  23.116  1.00  0.00     0.002 A 
BRANCH  17  22
ATOM     22  C   UNL A   1      32.642  25.476  21.308  1.00  0.00     0.418 C 
ATOM     23  F   UNL A   1      31.466  26.080  20.958  1.00  0.00    -0.166 F 
ATOM     24  F   UNL A   1      33.457  26.495  21.703  1.00  0.00    -0.166 F 
ATOM     25  F   UNL A   1      33.150  24.999  20.140  1.00  0.00    -0.166 F 
ENDBRANCH  17  22
ENDBRANCH  13  15
ENDBRANCH   9  13
ENDBRANCH   6   7
ENDBRANCH   4   6
ENDBRANCH   1   2
BRANCH   1  26
ATOM     26  C   UNL A   1      31.783  31.782  26.883  1.00  0.00     0.042 C 
BRANCH  26  27
ATOM     27  C   UNL A   1      32.957  32.664  27.304  1.00  0.00     0.118 C 
BRANCH  27  28
ATOM     28  N   UNL A   1      32.574  33.983  27.776  1.00  0.00    -0.352 N 
ATOM     29  C   UNL A   1      33.191  34.811  28.689  1.00  0.00     0.251 C 
ATOM     30  H   UNL A   1      31.748  34.342  27.380  1.00  0.00     0.163 HD
ATOM     31  O   UNL A   1      32.667  35.889  28.954  1.00  0.00    -0.269 OA
BRANCH  29  32
ATOM     32  C   UNL A   1      34.426  34.397  29.402  1.00  0.00     0.039 A 
ATOM     33  C   UNL A   1      34.280  33.768  30.643  1.00  0.00     0.014 A 
ATOM     34  C   UNL A   1      35.708  34.603  28.885  1.00  0.00     0.014 A 
ATOM     35  C   UNL A   1      35.397  33.259  31.310  1.00  0.00     0.010 A 
ATOM     36  C   UNL A   1      36.817  34.033  29.517  1.00  0.00     0.010 A 
ATOM     37  C   UNL A   1      36.670  33.337  30.724  1.00  0.00    -0.014 A 
BRANCH  37  38
ATOM     38  C   UNL A   1      37.827  32.637  31.343  1.00  0.00     0.031 A 
ATOM     39  C   UNL A   1      38.427  33.124  32.632  1.00  0.00     0.074 A 
ATOM     40  C   UNL A   1      38.366  31.578  30.704  1.00  0.00     0.049 A 
ATOM     41  N   UNL A   1      39.439  32.641  33.307  1.00  0.00    -0.248 NA
ATOM     42  C   UNL A   1      37.826  34.326  33.226  1.00  0.00     0.031 C 
ATOM     43  C   UNL A   1      37.908  31.049  29.417  1.00  0.00     0.029 A 
ATOM     44  N   UNL A   1      39.410  30.756  31.045  1.00  0.00    -0.354 N 
ATOM     45  C   UNL A   1      39.601  33.480  34.404  1.00  0.00     0.074 A 
ATOM     46  C   UNL A   1      38.617  34.535  34.268  1.00  0.00     0.031 C 
ATOM     47  C   UNL A   1      38.645  29.975  29.093  1.00  0.00     0.029 A 
ATOM     48  C   UNL A   1      39.651  29.758  30.129  1.00  0.00     0.049 A 
ATOM     49  H   UNL A   1      39.939  30.870  31.867  1.00  0.00     0.167 HD
ATOM     50  C   UNL A   1      40.473  33.369  35.439  1.00  0.00     0.034 A 
ATOM     51  C   UNL A   1      40.574  28.777  30.122  1.00  0.00     0.034 A 
ATOM     52  C   UNL A   1      41.449  32.311  35.558  1.00  0.00     0.049 A 
ATOM     53  C   UNL A   1      41.523  28.666  31.285  1.00  0.00     0.074 A 
ATOM     54  C   UNL A   1      42.360  32.084  36.577  1.00  0.00     0.029 A 
ATOM     55  N   UNL A   1      41.649  31.302  34.622  1.00  0.00    -0.354 N 
ATOM     56  N   UNL A   1      41.626  29.438  32.343  1.00  0.00    -0.248 NA
ATOM     57  C   UNL A   1      42.465  27.541  31.264  1.00  0.00     0.031 C 
ATOM     58  C   UNL A   1      43.143  30.975  36.231  1.00  0.00     0.029 A 
ATOM     59  C   UNL A   1      42.679  30.466  35.030  1.00  0.00     0.049 A 
ATOM     60  H   UNL A   1      41.134  31.197  33.790  1.00  0.00     0.167 HD
ATOM     61  C   UNL A   1      42.629  28.873  33.125  1.00  0.00     0.074 A 
ATOM     62  C   UNL A   1      43.081  27.686  32.427  1.00  0.00     0.031 C 
ATOM     63  C   UNL A   1      43.128  29.294  34.316  1.00  0.00     0.034 A 
BRANCH  50  64
ATOM     64  C   UNL A   1      40.421  34.441  36.503  1.00  0.00     0.023 A 
ATOM     65  C   UNL A   1      41.459  35.378  36.655  1.00  0.00     0.031 A 
ATOM     66  C   UNL A   1      39.343  34.505  37.402  1.00  0.00     0.131 A 
ATOM     67  C   UNL A   1      41.437  36.282  37.729  1.00  0.00     0.055 A 
ATOM     68  C   UNL A   1      39.286  35.461  38.419  1.00  0.00     0.041 A 
ATOM     69  F   UNL A   1      38.331  33.626  37.320  1.00  0.00    -0.206 F 
ATOM     70  C   UNL A   1      40.346  36.346  38.598  1.00  0.00     0.022 A 
BRANCH  67  71
ATOM     71  S   UNL A   1      42.923  37.268  38.060  1.00  0.00     0.124 S 
ATOM     72  O   UNL A   1      43.768  36.302  38.759  1.00  0.00    -0.237 OA
ATOM     73  O   UNL A   1      43.357  37.646  36.720  1.00  0.00    -0.237 OA
ATOM     74  O   UNL A   1      42.428  38.366  38.888  1.00  0.00    -0.744 OA
ENDBRANCH  67  71
ENDBRANCH  50  64
BRANCH  51  75
ATOM     75  C   UNL A   1      40.643  27.815  28.986  1.00  0.00     0.023 A 
ATOM     76  C   UNL A   1      41.574  27.983  27.950  1.00  0.00     0.031 A 
ATOM     77  C   UNL A   1      39.752  26.730  28.903  1.00  0.00     0.131 A 
ATOM     78  C   UNL A   1      41.566  27.109  26.852  1.00  0.00     0.055 A 
ATOM     79  C   UNL A   1      39.779  25.834  27.833  1.00  0.00     0.041 A 
ATOM     80  F   UNL A   1      38.849  26.517  29.873  1.00  0.00    -0.206 F 
ATOM     81  C   UNL A   1      40.681  26.029  26.792  1.00  0.00     0.022 A 
BRANCH  78  82
ATOM     82  S   UNL A   1      42.680  27.449  25.462  1.00  0.00     0.124 S 
ATOM     83  O   UNL A   1      43.927  27.762  26.149  1.00  0.00    -0.237 OA
ATOM     84  O   UNL A   1      42.648  26.186  24.733  1.00  0.00    -0.237 OA
ATOM     85  O   UNL A   1      42.042  28.574  24.782  1.00  0.00    -0.744 OA
ENDBRANCH  78  82
ENDBRANCH  51  75
BRANCH  63  86
ATOM     86  C   UNL A   1      44.195  28.431  34.945  1.00  0.00     0.023 A 
ATOM     87  C   UNL A   1      43.882  27.449  35.903  1.00  0.00     0.031 A 
ATOM     88  C   UNL A   1      45.547  28.623  34.612  1.00  0.00     0.131 A 
ATOM     89  C   UNL A   1      44.913  26.745  36.543  1.00  0.00     0.055 A 
ATOM     90  C   UNL A   1      46.564  27.877  35.208  1.00  0.00     0.041 A 
ATOM     91  F   UNL A   1      45.903  29.548  33.705  1.00  0.00    -0.206 F 
ATOM     92  C   UNL A   1      46.251  26.944  36.192  1.00  0.00     0.022 A 
BRANCH  89  93
ATOM     93  S   UNL A   1      44.489  25.647  37.924  1.00  0.00     0.124 S 
ATOM     94  O   UNL A   1      43.654  24.645  37.271  1.00  0.00    -0.237 OA
ATOM     95  O   UNL A   1      45.802  25.190  38.369  1.00  0.00    -0.237 OA
ATOM     96  O   UNL A   1      43.789  26.525  38.859  1.00  0.00    -0.744 OA
ENDBRANCH  89  93
ENDBRANCH  63  86
ENDBRANCH  37  38
ENDBRANCH  29  32
ENDBRANCH  27  28
ENDBRANCH  26  27
ENDBRANCH   1  26
TORSDOF 17
ENDMDL
