MODEL 1
REMARK VINA RESULT:     -12.7      0.000      0.000
REMARK SMILES Cc1nccn1CCC[NH+]1CCC2(CC1)[C@@H](C(=O)NCCCNC(=O)c1ccc(-c3c4nc(c(-c5cc(S(=O)(=O)[O-])ccc5F)c5ccc([nH]5)c(-c5cc(S(=O)(=O)[O-])ccc5F)c5nc(c(-c6cc(S(=O)(=O)[O-])ccc6F)c6ccc3[nH]6)C=C5)C=C4)cc1)CC(=O)N2C
REMARK SMILES IDX 20 1 19 2 17 3 18 4 16 6 10 7 11 8 15 9 12 11 14 12 13 13
REMARK SMILES IDX 92 14 89 15 90 16 93 17 91 18 9 19 8 20 7 21 6 22 1 23 2 24
REMARK SMILES IDX 3 25 4 26 5 27 21 28 22 29 23 30 24 31 25 33 26 34 27 35
REMARK SMILES IDX 88 36 28 37 87 38 29 39 30 40 31 41 81 42 32 43 86 44 80 45
REMARK SMILES IDX 82 46 33 47 85 48 79 49 78 50 34 52 66 53 46 54 65 55 47 56
REMARK SMILES IDX 50 57 64 58 83 59 48 60 49 61 63 63 84 64 51 65 35 66 36 67
REMARK SMILES IDX 44 68 37 69 43 70 45 71 42 72 38 73 39 74 40 75 41 76 67 77
REMARK SMILES IDX 68 78 76 79 69 80 75 81 77 82 74 83 70 84 71 85 72 86 73 87
REMARK SMILES IDX 52 88 53 89 61 90 54 91 60 92 62 93 59 94 55 95 56 96 57 97
REMARK SMILES IDX 58 98
REMARK H PARENT 19 5 10 10 23 32 82 51 50 62
REMARK Flexibility Score: inf
ROOT
ATOM      1  C   UNL A   1      34.434  28.837  26.654  1.00  0.00     0.117 C 
ENDROOT
BRANCH   1   2
ATOM      2  N   UNL A   1      34.320  28.976  25.209  1.00  0.00    -0.356 N 
ATOM      3  C   UNL A   1      33.254  28.771  24.369  1.00  0.00     0.226 C 
ATOM      4  O   UNL A   1      33.373  29.179  23.217  1.00  0.00    -0.275 OA
ATOM      5  H   UNL A   1      35.147  29.266  24.759  1.00  0.00     0.163 HD
BRANCH   3   6
ATOM      6  C   UNL A   1      32.011  28.050  24.900  1.00  0.00     0.114 C 
ATOM      7  N   UNL A   1      33.003  23.779  25.621  1.00  0.00    -0.335 N 
ATOM      8  C   UNL A   1      31.862  24.382  26.318  1.00  0.00     0.264 C 
ATOM      9  C   UNL A   1      33.039  24.229  24.221  1.00  0.00     0.264 C 
ATOM     10  H   UNL A   1      32.868  22.767  25.614  1.00  0.00     0.348 HD
ATOM     11  C   UNL A   1      31.775  25.906  26.204  1.00  0.00     0.091 C 
ATOM     12  C   UNL A   1      33.021  25.752  24.037  1.00  0.00     0.091 C 
ATOM     13  C   UNL A   1      31.865  26.475  24.758  1.00  0.00     0.065 C 
ATOM     14  N   UNL A   1      30.574  26.337  24.032  1.00  0.00    -0.339 N 
ATOM     15  C   UNL A   1      30.761  28.657  24.258  1.00  0.00     0.116 C 
ATOM     16  C   UNL A   1      29.959  27.530  23.722  1.00  0.00     0.223 C 
ATOM     17  C   UNL A   1      30.045  25.123  23.442  1.00  0.00     0.147 C 
ATOM     18  O   UNL A   1      28.910  27.676  23.112  1.00  0.00    -0.275 OA
BRANCH   7  19
ATOM     19  C   UNL A   1      34.280  23.971  26.331  1.00  0.00     0.264 C 
BRANCH  19  20
ATOM     20  C   UNL A   1      35.155  22.706  26.314  1.00  0.00     0.083 C 
BRANCH  20  21
ATOM     21  C   UNL A   1      36.108  22.534  25.129  1.00  0.00     0.129 C 
BRANCH  21  22
ATOM     22  N   UNL A   1      37.467  22.139  25.452  1.00  0.00    -0.335 N 
ATOM     23  C   UNL A   1      38.235  24.314  26.524  1.00  0.00     0.087 C 
ATOM     24  C   UNL A   1      38.402  22.891  26.138  1.00  0.00     0.105 A 
ATOM     25  N   UNL A   1      39.464  22.164  26.424  1.00  0.00    -0.242 NA
ATOM     26  C   UNL A   1      39.244  20.938  25.868  1.00  0.00     0.131 A 
ATOM     27  C   UNL A   1      38.020  20.904  25.250  1.00  0.00     0.107 A 
ENDBRANCH  21  22
ENDBRANCH  20  21
ENDBRANCH  19  20
ENDBRANCH   7  19
ENDBRANCH   3   6
ENDBRANCH   1   2
BRANCH   1  28
ATOM     28  C   UNL A   1      34.330  30.150  27.424  1.00  0.00     0.042 C 
BRANCH  28  29
ATOM     29  C   UNL A   1      35.662  30.632  27.975  1.00  0.00     0.118 C 
BRANCH  29  30
ATOM     30  N   UNL A   1      35.707  30.647  29.435  1.00  0.00    -0.352 N 
ATOM     31  C   UNL A   1      36.525  29.891  30.255  1.00  0.00     0.251 C 
ATOM     32  H   UNL A   1      35.086  31.265  29.886  1.00  0.00     0.163 HD
ATOM     33  O   UNL A   1      36.288  29.786  31.446  1.00  0.00    -0.269 OA
BRANCH  31  34
ATOM     34  C   UNL A   1      37.654  29.177  29.628  1.00  0.00     0.039 A 
ATOM     35  C   UNL A   1      38.293  29.728  28.519  1.00  0.00     0.014 A 
ATOM     36  C   UNL A   1      38.150  28.029  30.245  1.00  0.00     0.014 A 
ATOM     37  C   UNL A   1      39.511  29.187  28.109  1.00  0.00     0.010 A 
ATOM     38  C   UNL A   1      39.403  27.559  29.897  1.00  0.00     0.010 A 
ATOM     39  C   UNL A   1      40.099  28.131  28.829  1.00  0.00    -0.014 A 
BRANCH  39  40
ATOM     40  C   UNL A   1      41.486  27.743  28.533  1.00  0.00     0.031 A 
ATOM     41  C   UNL A   1      41.674  26.494  27.732  1.00  0.00     0.074 A 
ATOM     42  C   UNL A   1      42.581  28.497  28.767  1.00  0.00     0.049 A 
ATOM     43  N   UNL A   1      42.220  25.387  28.117  1.00  0.00    -0.248 NA
ATOM     44  C   UNL A   1      41.131  26.438  26.367  1.00  0.00     0.031 C 
ATOM     45  C   UNL A   1      42.659  29.865  29.283  1.00  0.00     0.029 A 
ATOM     46  N   UNL A   1      43.885  28.205  28.482  1.00  0.00    -0.354 N 
ATOM     47  C   UNL A   1      42.269  24.551  27.004  1.00  0.00     0.074 A 
ATOM     48  C   UNL A   1      41.468  25.199  25.996  1.00  0.00     0.031 C 
ATOM     49  C   UNL A   1      43.894  30.362  29.060  1.00  0.00     0.029 A 
ATOM     50  C   UNL A   1      44.739  29.296  28.555  1.00  0.00     0.049 A 
ATOM     51  H   UNL A   1      44.192  27.299  28.246  1.00  0.00     0.167 HD
ATOM     52  C   UNL A   1      43.098  23.467  26.957  1.00  0.00     0.034 A 
ATOM     53  C   UNL A   1      46.055  29.341  28.235  1.00  0.00     0.034 A 
ATOM     54  C   UNL A   1      43.605  23.140  28.270  1.00  0.00     0.049 A 
ATOM     55  C   UNL A   1      46.587  27.966  28.366  1.00  0.00     0.074 A 
ATOM     56  C   UNL A   1      43.027  22.811  29.482  1.00  0.00     0.029 A 
ATOM     57  N   UNL A   1      44.906  23.469  28.570  1.00  0.00    -0.354 N 
ATOM     58  N   UNL A   1      46.667  27.337  29.505  1.00  0.00    -0.248 NA
ATOM     59  C   UNL A   1      46.642  27.114  27.189  1.00  0.00     0.031 C 
ATOM     60  C   UNL A   1      43.831  23.466  30.460  1.00  0.00     0.029 A 
ATOM     61  C   UNL A   1      44.881  24.098  29.791  1.00  0.00     0.049 A 
ATOM     62  H   UNL A   1      45.702  23.289  28.018  1.00  0.00     0.167 HD
ATOM     63  C   UNL A   1      46.333  26.025  29.215  1.00  0.00     0.074 A 
ATOM     64  C   UNL A   1      46.460  25.921  27.764  1.00  0.00     0.031 C 
ATOM     65  C   UNL A   1      45.717  25.231  30.140  1.00  0.00     0.034 A 
BRANCH  52  66
ATOM     66  C   UNL A   1      43.700  22.849  25.712  1.00  0.00     0.023 A 
ATOM     67  C   UNL A   1      43.710  21.440  25.620  1.00  0.00     0.031 A 
ATOM     68  C   UNL A   1      44.498  23.529  24.768  1.00  0.00     0.131 A 
ATOM     69  C   UNL A   1      44.546  20.774  24.705  1.00  0.00     0.055 A 
ATOM     70  C   UNL A   1      45.273  22.863  23.809  1.00  0.00     0.041 A 
ATOM     71  F   UNL A   1      44.646  24.858  24.778  1.00  0.00    -0.206 F 
ATOM     72  C   UNL A   1      45.326  21.479  23.794  1.00  0.00     0.022 A 
BRANCH  69  73
ATOM     73  S   UNL A   1      44.742  18.978  24.859  1.00  0.00     0.124 S 
ATOM     74  O   UNL A   1      44.891  18.576  23.465  1.00  0.00    -0.237 OA
ATOM     75  O   UNL A   1      45.938  18.876  25.691  1.00  0.00    -0.237 OA
ATOM     76  O   UNL A   1      43.500  18.555  25.499  1.00  0.00    -0.744 OA
ENDBRANCH  69  73
ENDBRANCH  52  66
BRANCH  53  77
ATOM     77  C   UNL A   1      46.808  30.482  27.665  1.00  0.00     0.023 A 
ATOM     78  C   UNL A   1      46.179  31.536  26.976  1.00  0.00     0.031 A 
ATOM     79  C   UNL A   1      48.169  30.661  28.003  1.00  0.00     0.131 A 
ATOM     80  C   UNL A   1      46.905  32.703  26.653  1.00  0.00     0.055 A 
ATOM     81  C   UNL A   1      48.887  31.810  27.669  1.00  0.00     0.041 A 
ATOM     82  F   UNL A   1      48.824  29.755  28.748  1.00  0.00    -0.206 F 
ATOM     83  C   UNL A   1      48.252  32.844  26.998  1.00  0.00     0.022 A 
BRANCH  80  84
ATOM     84  S   UNL A   1      46.057  34.118  25.884  1.00  0.00     0.124 S 
ATOM     85  O   UNL A   1      45.036  33.464  25.073  1.00  0.00    -0.237 OA
ATOM     86  O   UNL A   1      45.584  34.870  27.041  1.00  0.00    -0.237 OA
ATOM     87  O   UNL A   1      47.120  34.778  25.123  1.00  0.00    -0.744 OA
ENDBRANCH  80  84
ENDBRANCH  53  77
BRANCH  65  88
ATOM     88  C   UNL A   1      45.679  25.694  31.584  1.00  0.00     0.023 A 
ATOM     89  C   UNL A   1      46.740  25.532  32.504  1.00  0.00     0.031 A 
ATOM     90  C   UNL A   1      44.562  26.436  32.007  1.00  0.00     0.131 A 
ATOM     91  C   UNL A   1      46.648  26.084  33.795  1.00  0.00     0.055 A 
ATOM     92  C   UNL A   1      44.483  27.001  33.279  1.00  0.00     0.041 A 
ATOM     93  F   UNL A   1      43.533  26.656  31.170  1.00  0.00    -0.206 F 
ATOM     94  C   UNL A   1      45.524  26.820  34.183  1.00  0.00     0.022 A 
BRANCH  91  95
ATOM     95  S   UNL A   1      47.990  25.838  35.001  1.00  0.00     0.124 S 
ATOM     96  O   UNL A   1      49.124  25.439  34.178  1.00  0.00    -0.237 OA
ATOM     97  O   UNL A   1      48.090  27.150  35.636  1.00  0.00    -0.237 OA
ATOM     98  O   UNL A   1      47.471  24.782  35.875  1.00  0.00    -0.744 OA
ENDBRANCH  91  95
ENDBRANCH  65  88
ENDBRANCH  39  40
ENDBRANCH  31  34
ENDBRANCH  29  30
ENDBRANCH  28  29
ENDBRANCH   1  28
TORSDOF 17
ENDMDL
MODEL 2
REMARK VINA RESULT:     -12.5      1.592      2.166
REMARK SMILES Cc1nccn1CCC[NH+]1CCC2(CC1)[C@@H](C(=O)NCCCNC(=O)c1ccc(-c3c4nc(c(-c5cc(S(=O)(=O)[O-])ccc5F)c5ccc([nH]5)c(-c5cc(S(=O)(=O)[O-])ccc5F)c5nc(c(-c6cc(S(=O)(=O)[O-])ccc6F)c6ccc3[nH]6)C=C5)C=C4)cc1)CC(=O)N2C
REMARK SMILES IDX 20 1 19 2 17 3 18 4 16 6 10 7 11 8 15 9 12 11 14 12 13 13
REMARK SMILES IDX 92 14 89 15 90 16 93 17 91 18 9 19 8 20 7 21 6 22 1 23 2 24
REMARK SMILES IDX 3 25 4 26 5 27 21 28 22 29 23 30 24 31 25 33 26 34 27 35
REMARK SMILES IDX 88 36 28 37 87 38 29 39 30 40 31 41 81 42 32 43 86 44 80 45
REMARK SMILES IDX 82 46 33 47 85 48 79 49 78 50 34 52 66 53 46 54 65 55 47 56
REMARK SMILES IDX 50 57 64 58 83 59 48 60 49 61 63 63 84 64 51 65 35 66 36 67
REMARK SMILES IDX 44 68 37 69 43 70 45 71 42 72 38 73 39 74 40 75 41 76 67 77
REMARK SMILES IDX 68 78 76 79 69 80 75 81 77 82 74 83 70 84 71 85 72 86 73 87
REMARK SMILES IDX 52 88 53 89 61 90 54 91 60 92 62 93 59 94 55 95 56 96 57 97
REMARK SMILES IDX 58 98
REMARK H PARENT 19 5 10 10 23 32 82 51 50 62
REMARK Flexibility Score: inf
ROOT
ATOM      1  C   UNL A   1      34.198  28.871  26.858  1.00  0.00     0.117 C 
ENDROOT
BRANCH   1   2
ATOM      2  N   UNL A   1      34.226  28.978  25.406  1.00  0.00    -0.356 N 
ATOM      3  C   UNL A   1      33.208  28.956  24.485  1.00  0.00     0.226 C 
ATOM      4  O   UNL A   1      33.494  29.291  23.339  1.00  0.00    -0.275 OA
ATOM      5  H   UNL A   1      35.125  29.084  25.020  1.00  0.00     0.163 HD
BRANCH   3   6
ATOM      6  C   UNL A   1      31.810  28.512  24.925  1.00  0.00     0.114 C 
ATOM      7  N   UNL A   1      31.857  24.142  25.731  1.00  0.00    -0.335 N 
ATOM      8  C   UNL A   1      30.815  24.977  26.340  1.00  0.00     0.264 C 
ATOM      9  C   UNL A   1      32.083  24.550  24.335  1.00  0.00     0.264 C 
ATOM     10  H   UNL A   1      31.519  23.179  25.718  1.00  0.00     0.348 HD
ATOM     11  C   UNL A   1      31.049  26.484  26.215  1.00  0.00     0.091 C 
ATOM     12  C   UNL A   1      32.389  26.041  24.146  1.00  0.00     0.091 C 
ATOM     13  C   UNL A   1      31.356  26.998  24.778  1.00  0.00     0.065 C 
ATOM     14  N   UNL A   1      30.120  27.110  23.959  1.00  0.00    -0.339 N 
ATOM     15  C   UNL A   1      30.759  29.348  24.190  1.00  0.00     0.116 C 
ATOM     16  C   UNL A   1      29.784  28.398  23.601  1.00  0.00     0.223 C 
ATOM     17  C   UNL A   1      29.397  26.019  23.336  1.00  0.00     0.147 C 
ATOM     18  O   UNL A   1      28.834  28.742  22.914  1.00  0.00    -0.275 OA
BRANCH   7  19
ATOM     19  C   UNL A   1      33.092  24.084  26.532  1.00  0.00     0.264 C 
BRANCH  19  20
ATOM     20  C   UNL A   1      34.201  23.275  25.839  1.00  0.00     0.083 C 
BRANCH  20  21
ATOM     21  C   UNL A   1      34.417  21.838  26.316  1.00  0.00     0.129 C 
BRANCH  21  22
ATOM     22  N   UNL A   1      33.907  20.791  25.447  1.00  0.00    -0.335 N 
ATOM     23  C   UNL A   1      36.119  19.668  24.889  1.00  0.00     0.087 C 
ATOM     24  C   UNL A   1      34.639  19.775  24.865  1.00  0.00     0.105 A 
ATOM     25  N   UNL A   1      33.841  18.894  24.296  1.00  0.00    -0.242 NA
ATOM     26  C   UNL A   1      32.573  19.371  24.459  1.00  0.00     0.131 A 
ATOM     27  C   UNL A   1      32.591  20.551  25.158  1.00  0.00     0.107 A 
ENDBRANCH  21  22
ENDBRANCH  20  21
ENDBRANCH  19  20
ENDBRANCH   7  19
ENDBRANCH   3   6
ENDBRANCH   1   2
BRANCH   1  28
ATOM     28  C   UNL A   1      34.192  30.210  27.588  1.00  0.00     0.042 C 
BRANCH  28  29
ATOM     29  C   UNL A   1      35.558  30.614  28.118  1.00  0.00     0.118 C 
BRANCH  29  30
ATOM     30  N   UNL A   1      35.626  30.630  29.577  1.00  0.00    -0.352 N 
ATOM     31  C   UNL A   1      36.467  29.886  30.384  1.00  0.00     0.251 C 
ATOM     32  H   UNL A   1      35.004  31.239  30.037  1.00  0.00     0.163 HD
ATOM     33  O   UNL A   1      36.251  29.777  31.579  1.00  0.00    -0.269 OA
BRANCH  31  34
ATOM     34  C   UNL A   1      37.595  29.186  29.739  1.00  0.00     0.039 A 
ATOM     35  C   UNL A   1      38.164  29.710  28.580  1.00  0.00     0.014 A 
ATOM     36  C   UNL A   1      38.163  28.087  30.384  1.00  0.00     0.014 A 
ATOM     37  C   UNL A   1      39.384  29.197  28.140  1.00  0.00     0.010 A 
ATOM     38  C   UNL A   1      39.418  27.650  30.001  1.00  0.00     0.010 A 
ATOM     39  C   UNL A   1      40.043  28.198  28.879  1.00  0.00    -0.014 A 
BRANCH  39  40
ATOM     40  C   UNL A   1      41.431  27.849  28.538  1.00  0.00     0.031 A 
ATOM     41  C   UNL A   1      41.631  26.590  27.759  1.00  0.00     0.074 A 
ATOM     42  C   UNL A   1      42.508  28.644  28.715  1.00  0.00     0.049 A 
ATOM     43  N   UNL A   1      42.228  25.510  28.146  1.00  0.00    -0.248 NA
ATOM     44  C   UNL A   1      41.040  26.484  26.417  1.00  0.00     0.031 C 
ATOM     45  C   UNL A   1      42.558  30.026  29.198  1.00  0.00     0.029 A 
ATOM     46  N   UNL A   1      43.810  28.389  28.386  1.00  0.00    -0.354 N 
ATOM     47  C   UNL A   1      42.264  24.651  27.050  1.00  0.00     0.074 A 
ATOM     48  C   UNL A   1      41.404  25.250  26.059  1.00  0.00     0.031 C 
ATOM     49  C   UNL A   1      43.767  30.558  28.917  1.00  0.00     0.029 A 
ATOM     50  C   UNL A   1      44.628  29.509  28.403  1.00  0.00     0.049 A 
ATOM     51  H   UNL A   1      44.138  27.489  28.159  1.00  0.00     0.167 HD
ATOM     52  C   UNL A   1      43.127  23.594  26.994  1.00  0.00     0.034 A 
ATOM     53  C   UNL A   1      45.929  29.591  28.033  1.00  0.00     0.034 A 
ATOM     54  C   UNL A   1      43.693  23.314  28.294  1.00  0.00     0.049 A 
ATOM     55  C   UNL A   1      46.512  28.237  28.173  1.00  0.00     0.074 A 
ATOM     56  C   UNL A   1      43.172  22.994  29.534  1.00  0.00     0.029 A 
ATOM     57  N   UNL A   1      44.993  23.693  28.538  1.00  0.00    -0.354 N 
ATOM     58  N   UNL A   1      46.655  27.637  29.321  1.00  0.00    -0.248 NA
ATOM     59  C   UNL A   1      46.552  27.361  27.013  1.00  0.00     0.031 C 
ATOM     60  C   UNL A   1      43.990  23.698  30.467  1.00  0.00     0.029 A 
ATOM     61  C   UNL A   1      44.992  24.348  29.745  1.00  0.00     0.049 A 
ATOM     62  H   UNL A   1      45.773  23.527  27.959  1.00  0.00     0.167 HD
ATOM     63  C   UNL A   1      46.355  26.309  29.072  1.00  0.00     0.074 A 
ATOM     64  C   UNL A   1      46.432  26.176  27.620  1.00  0.00     0.031 C 
ATOM     65  C   UNL A   1      45.802  25.515  30.038  1.00  0.00     0.034 A 
BRANCH  52  66
ATOM     66  C   UNL A   1      43.702  22.969  25.741  1.00  0.00     0.023 A 
ATOM     67  C   UNL A   1      43.616  21.565  25.611  1.00  0.00     0.031 A 
ATOM     68  C   UNL A   1      44.559  23.615  24.826  1.00  0.00     0.131 A 
ATOM     69  C   UNL A   1      44.417  20.867  24.690  1.00  0.00     0.055 A 
ATOM     70  C   UNL A   1      45.300  22.922  23.860  1.00  0.00     0.041 A 
ATOM     71  F   UNL A   1      44.799  24.930  24.874  1.00  0.00    -0.206 F 
ATOM     72  C   UNL A   1      45.257  21.539  23.808  1.00  0.00     0.022 A 
BRANCH  69  73
ATOM     73  S   UNL A   1      44.487  19.058  24.798  1.00  0.00     0.124 S 
ATOM     74  O   UNL A   1      43.162  18.742  25.321  1.00  0.00    -0.237 OA
ATOM     75  O   UNL A   1      44.738  18.683  23.410  1.00  0.00    -0.237 OA
ATOM     76  O   UNL A   1      45.593  18.815  25.720  1.00  0.00    -0.744 OA
ENDBRANCH  69  73
ENDBRANCH  52  66
BRANCH  53  77
ATOM     77  C   UNL A   1      46.621  30.743  27.411  1.00  0.00     0.023 A 
ATOM     78  C   UNL A   1      45.926  31.809  26.811  1.00  0.00     0.031 A 
ATOM     79  C   UNL A   1      48.010  30.914  27.609  1.00  0.00     0.131 A 
ATOM     80  C   UNL A   1      46.617  32.983  26.437  1.00  0.00     0.055 A 
ATOM     81  C   UNL A   1      48.691  32.070  27.224  1.00  0.00     0.041 A 
ATOM     82  F   UNL A   1      48.737  29.994  28.265  1.00  0.00    -0.206 F 
ATOM     83  C   UNL A   1      47.993  33.117  26.643  1.00  0.00     0.022 A 
BRANCH  80  84
ATOM     84  S   UNL A   1      45.696  34.413  25.787  1.00  0.00     0.124 S 
ATOM     85  O   UNL A   1      46.764  35.363  25.498  1.00  0.00    -0.237 OA
ATOM     86  O   UNL A   1      45.004  33.845  24.636  1.00  0.00    -0.237 OA
ATOM     87  O   UNL A   1      44.821  34.786  26.900  1.00  0.00    -0.744 OA
ENDBRANCH  80  84
ENDBRANCH  53  77
BRANCH  65  88
ATOM     88  C   UNL A   1      45.802  26.010  31.471  1.00  0.00     0.023 A 
ATOM     89  C   UNL A   1      44.663  26.504  32.146  1.00  0.00     0.031 A 
ATOM     90  C   UNL A   1      46.984  25.861  32.218  1.00  0.00     0.131 A 
ATOM     91  C   UNL A   1      44.740  26.848  33.509  1.00  0.00     0.055 A 
ATOM     92  C   UNL A   1      47.053  26.181  33.573  1.00  0.00     0.041 A 
ATOM     93  F   UNL A   1      48.094  25.365  31.645  1.00  0.00    -0.206 F 
ATOM     94  C   UNL A   1      45.932  26.684  34.224  1.00  0.00     0.022 A 
BRANCH  91  95
ATOM     95  S   UNL A   1      43.290  27.531  34.373  1.00  0.00     0.124 S 
ATOM     96  O   UNL A   1      42.679  28.406  33.380  1.00  0.00    -0.237 OA
ATOM     97  O   UNL A   1      42.534  26.330  34.719  1.00  0.00    -0.237 OA
ATOM     98  O   UNL A   1      43.876  28.228  35.520  1.00  0.00    -0.744 OA
ENDBRANCH  91  95
ENDBRANCH  65  88
ENDBRANCH  39  40
ENDBRANCH  31  34
ENDBRANCH  29  30
ENDBRANCH  28  29
ENDBRANCH   1  28
TORSDOF 17
ENDMDL
MODEL 3
REMARK VINA RESULT:     -12.4      2.543      7.085
REMARK SMILES Cc1nccn1CCC[NH+]1CCC2(CC1)[C@@H](C(=O)NCCCNC(=O)c1ccc(-c3c4nc(c(-c5cc(S(=O)(=O)[O-])ccc5F)c5ccc([nH]5)c(-c5cc(S(=O)(=O)[O-])ccc5F)c5nc(c(-c6cc(S(=O)(=O)[O-])ccc6F)c6ccc3[nH]6)C=C5)C=C4)cc1)CC(=O)N2C
REMARK SMILES IDX 20 1 19 2 17 3 18 4 16 6 10 7 11 8 15 9 12 11 14 12 13 13
REMARK SMILES IDX 92 14 89 15 90 16 93 17 91 18 9 19 8 20 7 21 6 22 1 23 2 24
REMARK SMILES IDX 3 25 4 26 5 27 21 28 22 29 23 30 24 31 25 33 26 34 27 35
REMARK SMILES IDX 88 36 28 37 87 38 29 39 30 40 31 41 81 42 32 43 86 44 80 45
REMARK SMILES IDX 82 46 33 47 85 48 79 49 78 50 34 52 66 53 46 54 65 55 47 56
REMARK SMILES IDX 50 57 64 58 83 59 48 60 49 61 63 63 84 64 51 65 35 66 36 67
REMARK SMILES IDX 44 68 37 69 43 70 45 71 42 72 38 73 39 74 40 75 41 76 67 77
REMARK SMILES IDX 68 78 76 79 69 80 75 81 77 82 74 83 70 84 71 85 72 86 73 87
REMARK SMILES IDX 52 88 53 89 61 90 54 91 60 92 62 93 59 94 55 95 56 96 57 97
REMARK SMILES IDX 58 98
REMARK H PARENT 19 5 10 10 23 32 82 51 50 62
REMARK Flexibility Score: inf
ROOT
ATOM      1  C   UNL A   1      34.050  29.336  26.724  1.00  0.00     0.117 C 
ENDROOT
BRANCH   1   2
ATOM      2  N   UNL A   1      34.107  29.312  25.269  1.00  0.00    -0.356 N 
ATOM      3  C   UNL A   1      33.137  29.041  24.337  1.00  0.00     0.226 C 
ATOM      4  O   UNL A   1      33.402  29.311  23.170  1.00  0.00    -0.275 OA
ATOM      5  H   UNL A   1      34.990  29.527  24.890  1.00  0.00     0.163 HD
BRANCH   3   6
ATOM      6  C   UNL A   1      31.813  28.419  24.794  1.00  0.00     0.114 C 
ATOM      7  N   UNL A   1      32.465  24.118  25.701  1.00  0.00    -0.335 N 
ATOM      8  C   UNL A   1      31.319  24.814  26.295  1.00  0.00     0.264 C 
ATOM      9  C   UNL A   1      32.631  24.520  24.296  1.00  0.00     0.264 C 
ATOM     10  H   UNL A   1      32.264  23.117  25.712  1.00  0.00     0.348 HD
ATOM     11  C   UNL A   1      31.342  26.337  26.134  1.00  0.00     0.091 C 
ATOM     12  C   UNL A   1      32.727  26.034  24.070  1.00  0.00     0.091 C 
ATOM     13  C   UNL A   1      31.573  26.853  24.684  1.00  0.00     0.065 C 
ATOM     14  N   UNL A   1      30.332  26.775  23.869  1.00  0.00    -0.339 N 
ATOM     15  C   UNL A   1      30.656  29.084  24.045  1.00  0.00     0.116 C 
ATOM     16  C   UNL A   1      29.821  27.995  23.483  1.00  0.00     0.223 C 
ATOM     17  C   UNL A   1      29.767  25.579  23.275  1.00  0.00     0.147 C 
ATOM     18  O   UNL A   1      28.831  28.188  22.793  1.00  0.00    -0.275 OA
BRANCH   7  19
ATOM     19  C   UNL A   1      33.698  24.250  26.498  1.00  0.00     0.264 C 
BRANCH  19  20
ATOM     20  C   UNL A   1      34.838  23.368  25.962  1.00  0.00     0.083 C 
BRANCH  20  21
ATOM     21  C   UNL A   1      34.949  21.951  26.530  1.00  0.00     0.129 C 
BRANCH  21  22
ATOM     22  N   UNL A   1      34.386  20.889  25.717  1.00  0.00    -0.335 N 
ATOM     23  C   UNL A   1      36.558  19.945  24.791  1.00  0.00     0.087 C 
ATOM     24  C   UNL A   1      35.088  19.942  24.997  1.00  0.00     0.105 A 
ATOM     25  N   UNL A   1      34.276  19.016  24.530  1.00  0.00    -0.242 NA
ATOM     26  C   UNL A   1      33.018  19.393  24.900  1.00  0.00     0.131 A 
ATOM     27  C   UNL A   1      33.061  20.557  25.625  1.00  0.00     0.107 A 
ENDBRANCH  21  22
ENDBRANCH  20  21
ENDBRANCH  19  20
ENDBRANCH   7  19
ENDBRANCH   3   6
ENDBRANCH   1   2
BRANCH   1  28
ATOM     28  C   UNL A   1      33.315  30.539  27.306  1.00  0.00     0.042 C 
BRANCH  28  29
ATOM     29  C   UNL A   1      34.181  31.785  27.404  1.00  0.00     0.118 C 
BRANCH  29  30
ATOM     30  N   UNL A   1      34.180  32.381  28.737  1.00  0.00    -0.352 N 
ATOM     31  C   UNL A   1      35.036  32.092  29.784  1.00  0.00     0.251 C 
ATOM     32  H   UNL A   1      33.493  33.065  28.910  1.00  0.00     0.163 HD
ATOM     33  O   UNL A   1      34.773  32.446  30.921  1.00  0.00    -0.269 OA
BRANCH  31  34
ATOM     34  C   UNL A   1      36.242  31.297  29.485  1.00  0.00     0.039 A 
ATOM     35  C   UNL A   1      37.473  31.933  29.335  1.00  0.00     0.014 A 
ATOM     36  C   UNL A   1      36.151  29.905  29.498  1.00  0.00     0.014 A 
ATOM     37  C   UNL A   1      38.632  31.159  29.322  1.00  0.00     0.010 A 
ATOM     38  C   UNL A   1      37.307  29.150  29.584  1.00  0.00     0.010 A 
ATOM     39  C   UNL A   1      38.558  29.765  29.499  1.00  0.00    -0.014 A 
BRANCH  39  40
ATOM     40  C   UNL A   1      39.795  29.003  29.730  1.00  0.00     0.031 A 
ATOM     41  C   UNL A   1      40.178  28.768  31.156  1.00  0.00     0.074 A 
ATOM     42  C   UNL A   1      40.510  28.358  28.785  1.00  0.00     0.049 A 
ATOM     43  N   UNL A   1      41.213  29.230  31.780  1.00  0.00    -0.248 NA
ATOM     44  C   UNL A   1      39.274  27.990  32.015  1.00  0.00     0.031 C 
ATOM     45  C   UNL A   1      40.210  28.194  27.361  1.00  0.00     0.029 A 
ATOM     46  N   UNL A   1      41.642  27.608  28.945  1.00  0.00    -0.354 N 
ATOM     47  C   UNL A   1      41.208  28.659  33.051  1.00  0.00     0.074 A 
ATOM     48  C   UNL A   1      39.925  28.014  33.182  1.00  0.00     0.031 C 
ATOM     49  C   UNL A   1      40.991  27.222  26.844  1.00  0.00     0.029 A 
ATOM     50  C   UNL A   1      41.962  26.825  27.846  1.00  0.00     0.049 A 
ATOM     51  H   UNL A   1      42.182  27.624  29.768  1.00  0.00     0.167 HD
ATOM     52  C   UNL A   1      42.328  28.634  33.831  1.00  0.00     0.034 A 
ATOM     53  C   UNL A   1      42.959  25.912  27.741  1.00  0.00     0.034 A 
ATOM     54  C   UNL A   1      43.336  29.538  33.324  1.00  0.00     0.049 A 
ATOM     55  C   UNL A   1      44.001  26.285  28.723  1.00  0.00     0.074 A 
ATOM     56  C   UNL A   1      43.385  30.895  33.067  1.00  0.00     0.029 A 
ATOM     57  N   UNL A   1      44.418  29.007  32.662  1.00  0.00    -0.354 N 
ATOM     58  N   UNL A   1      44.706  27.379  28.637  1.00  0.00    -0.248 NA
ATOM     59  C   UNL A   1      43.986  25.668  30.040  1.00  0.00     0.031 C 
ATOM     60  C   UNL A   1      44.144  31.011  31.865  1.00  0.00     0.029 A 
ATOM     61  C   UNL A   1      44.563  29.730  31.503  1.00  0.00     0.049 A 
ATOM     62  H   UNL A   1      44.981  28.255  32.959  1.00  0.00     0.167 HD
ATOM     63  C   UNL A   1      44.841  27.823  29.941  1.00  0.00     0.074 A 
ATOM     64  C   UNL A   1      44.499  26.667  30.765  1.00  0.00     0.031 C 
ATOM     65  C   UNL A   1      44.946  29.155  30.227  1.00  0.00     0.034 A 
BRANCH  52  66
ATOM     66  C   UNL A   1      42.664  27.606  34.890  1.00  0.00     0.023 A 
ATOM     67  C   UNL A   1      43.428  26.485  34.496  1.00  0.00     0.031 A 
ATOM     68  C   UNL A   1      42.057  27.515  36.161  1.00  0.00     0.131 A 
ATOM     69  C   UNL A   1      43.485  25.325  35.289  1.00  0.00     0.055 A 
ATOM     70  C   UNL A   1      42.177  26.385  36.980  1.00  0.00     0.041 A 
ATOM     71  F   UNL A   1      41.244  28.464  36.637  1.00  0.00    -0.206 F 
ATOM     72  C   UNL A   1      42.866  25.270  36.534  1.00  0.00     0.022 A 
BRANCH  69  73
ATOM     73  S   UNL A   1      44.216  23.825  34.579  1.00  0.00     0.124 S 
ATOM     74  O   UNL A   1      44.828  24.343  33.360  1.00  0.00    -0.237 OA
ATOM     75  O   UNL A   1      45.134  23.408  35.635  1.00  0.00    -0.237 OA
ATOM     76  O   UNL A   1      43.064  22.951  34.373  1.00  0.00    -0.744 OA
ENDBRANCH  69  73
ENDBRANCH  52  66
BRANCH  53  77
ATOM     77  C   UNL A   1      42.956  24.657  26.955  1.00  0.00     0.023 A 
ATOM     78  C   UNL A   1      42.089  23.586  27.243  1.00  0.00     0.031 A 
ATOM     79  C   UNL A   1      43.673  24.592  25.739  1.00  0.00     0.131 A 
ATOM     80  C   UNL A   1      41.966  22.512  26.334  1.00  0.00     0.055 A 
ATOM     81  C   UNL A   1      43.559  23.520  24.851  1.00  0.00     0.041 A 
ATOM     82  F   UNL A   1      44.445  25.613  25.333  1.00  0.00    -0.206 F 
ATOM     83  C   UNL A   1      42.694  22.477  25.143  1.00  0.00     0.022 A 
BRANCH  80  84
ATOM     84  S   UNL A   1      40.745  21.197  26.641  1.00  0.00     0.124 S 
ATOM     85  O   UNL A   1      40.643  21.202  28.096  1.00  0.00    -0.237 OA
ATOM     86  O   UNL A   1      39.578  21.672  25.907  1.00  0.00    -0.237 OA
ATOM     87  O   UNL A   1      41.379  20.007  26.071  1.00  0.00    -0.744 OA
ENDBRANCH  80  84
ENDBRANCH  53  77
BRANCH  65  88
ATOM     88  C   UNL A   1      45.220  30.122  29.092  1.00  0.00     0.023 A 
ATOM     89  C   UNL A   1      46.510  30.528  28.682  1.00  0.00     0.031 A 
ATOM     90  C   UNL A   1      44.128  30.555  28.319  1.00  0.00     0.131 A 
ATOM     91  C   UNL A   1      46.668  31.354  27.553  1.00  0.00     0.055 A 
ATOM     92  C   UNL A   1      44.288  31.354  27.187  1.00  0.00     0.041 A 
ATOM     93  F   UNL A   1      42.877  30.177  28.633  1.00  0.00    -0.206 F 
ATOM     94  C   UNL A   1      45.560  31.764  26.804  1.00  0.00     0.022 A 
BRANCH  91  95
ATOM     95  S   UNL A   1      48.322  31.922  27.048  1.00  0.00     0.124 S 
ATOM     96  O   UNL A   1      48.045  33.014  26.123  1.00  0.00    -0.237 OA
ATOM     97  O   UNL A   1      48.928  32.302  28.322  1.00  0.00    -0.237 OA
ATOM     98  O   UNL A   1      48.914  30.734  26.428  1.00  0.00    -0.744 OA
ENDBRANCH  91  95
ENDBRANCH  65  88
ENDBRANCH  39  40
ENDBRANCH  31  34
ENDBRANCH  29  30
ENDBRANCH  28  29
ENDBRANCH   1  28
TORSDOF 17
ENDMDL
