MODEL 1
REMARK VINA RESULT:     -13.6      0.000      0.000
REMARK SMILES CCOC(=O)c1c(NC(=O)[C@@H]2[C@@H](C(=O)NCCCNC(=O)c3ccc(-c4c5nc(c(-c6cc(S(=O)(=O)[O-])ccc6F)c6ccc([nH]6)c(-c6cc(S(=O)(=O)[O-])ccc6F)c6nc(c(-c7cc(S(=O)(=O)[O-])ccc7F)c7ccc4[nH]7)C=C6)C=C5)cc3)[C@@H]3C=C[C@H]2CC3)sc2c1CCC2
REMARK SMILES IDX 16 1 15 2 13 3 14 4 12 6 11 7 88 8 85 9 87 10 89 11 86 12
REMARK SMILES IDX 90 13 9 14 8 15 10 17 7 18 6 19 93 20 91 21 92 22 94 23
REMARK SMILES IDX 96 24 95 25 4 26 5 27 3 28 2 29 1 30 17 31 18 32 19 33 20 34
REMARK SMILES IDX 21 36 22 37 23 38 84 39 24 40 83 41 25 42 26 43 27 44 77 45
REMARK SMILES IDX 28 46 82 47 76 48 78 49 29 50 81 51 75 52 74 53 30 55 62 56
REMARK SMILES IDX 42 57 61 58 43 59 46 60 60 61 79 62 44 63 45 64 59 66 80 67
REMARK SMILES IDX 47 68 31 69 32 70 40 71 33 72 39 73 41 74 38 75 34 76 35 77
REMARK SMILES IDX 36 78 37 79 63 80 64 81 72 82 65 83 71 84 73 85 70 86 66 87
REMARK SMILES IDX 67 88 68 89 69 90 48 91 49 92 57 93 50 94 56 95 58 96 55 97
REMARK SMILES IDX 51 98 52 99 53 100 54 101
REMARK H PARENT 15 5 8 16 19 35 78 54 46 65
REMARK Flexibility Score: inf
ROOT
ATOM      1  C   UNL A   1      34.307  27.791  26.103  1.00  0.00     0.117 C 
ENDROOT
BRANCH   1   2
ATOM      2  N   UNL A   1      33.556  26.565  26.362  1.00  0.00    -0.356 N 
ATOM      3  C   UNL A   1      32.414  26.016  25.872  1.00  0.00     0.224 C 
ATOM      4  O   UNL A   1      31.789  25.315  26.680  1.00  0.00    -0.275 OA
ATOM      5  H   UNL A   1      33.976  26.005  27.055  1.00  0.00     0.163 HD
BRANCH   3   6
ATOM      6  C   UNL A   1      31.851  26.157  24.442  1.00  0.00     0.098 C 
ATOM      7  C   UNL A   1      32.839  26.503  23.302  1.00  0.00     0.099 C 
ATOM      8  C   UNL A   1      32.305  27.854  22.675  1.00  0.00     0.025 C 
ATOM      9  C   UNL A   1      30.592  27.071  24.449  1.00  0.00     0.025 C 
ATOM     10  C   UNL A   1      30.919  27.548  22.118  1.00  0.00    -0.027 C 
ATOM     11  C   UNL A   1      32.081  28.951  23.753  1.00  0.00     0.009 C 
ATOM     12  C   UNL A   1      30.041  27.110  23.035  1.00  0.00    -0.027 C 
ATOM     13  C   UNL A   1      30.999  28.511  24.760  1.00  0.00     0.009 C 
BRANCH   7  14
ATOM     14  C   UNL A   1      33.137  25.530  22.118  1.00  0.00     0.229 C 
ATOM     15  N   UNL A   1      33.379  24.193  22.117  1.00  0.00    -0.317 N 
ATOM     16  H   UNL A   1      33.590  23.837  21.224  1.00  0.00     0.170 HD
ATOM     17  O   UNL A   1      33.207  26.032  20.977  1.00  0.00    -0.274 OA
BRANCH  15  18
ATOM     18  C   UNL A   1      33.388  23.236  23.099  1.00  0.00     0.110 A 
ATOM     19  C   UNL A   1      34.484  22.758  23.827  1.00  0.00     0.098 A 
ATOM     20  C   UNL A   1      34.127  21.472  24.322  1.00  0.00    -0.017 A 
ATOM     21  S   UNL A   1      31.937  22.612  23.744  1.00  0.00    -0.122 S 
ATOM     22  C   UNL A   1      32.783  21.242  24.197  1.00  0.00     0.011 A 
ATOM     23  C   UNL A   1      34.791  20.294  24.934  1.00  0.00     0.038 C 
ATOM     24  C   UNL A   1      32.342  19.874  24.540  1.00  0.00     0.047 C 
ATOM     25  C   UNL A   1      33.718  19.169  24.744  1.00  0.00     0.010 C 
BRANCH  19  26
ATOM     26  C   UNL A   1      35.755  23.475  23.892  1.00  0.00     0.341 C 
ATOM     27  O   UNL A   1      36.564  23.432  22.997  1.00  0.00    -0.246 OA
BRANCH  26  28
ATOM     28  O   UNL A   1      35.902  24.212  25.040  1.00  0.00    -0.462 OA
BRANCH  28  29
ATOM     29  C   UNL A   1      36.636  23.584  26.105  1.00  0.00     0.230 C 
ATOM     30  C   UNL A   1      38.119  23.927  26.147  1.00  0.00     0.049 C 
ENDBRANCH  28  29
ENDBRANCH  26  28
ENDBRANCH  19  26
ENDBRANCH  15  18
ENDBRANCH   7  14
ENDBRANCH   3   6
ENDBRANCH   1   2
BRANCH   1  31
ATOM     31  C   UNL A   1      34.185  28.787  27.262  1.00  0.00     0.042 C 
BRANCH  31  32
ATOM     32  C   UNL A   1      35.471  29.524  27.559  1.00  0.00     0.118 C 
BRANCH  32  33
ATOM     33  N   UNL A   1      35.612  29.867  28.971  1.00  0.00    -0.352 N 
ATOM     34  C   UNL A   1      36.575  29.385  29.841  1.00  0.00     0.251 C 
ATOM     35  H   UNL A   1      34.958  30.503  29.341  1.00  0.00     0.163 HD
ATOM     36  O   UNL A   1      36.375  29.378  31.049  1.00  0.00    -0.269 OA
BRANCH  34  37
ATOM     37  C   UNL A   1      37.818  28.846  29.257  1.00  0.00     0.039 A 
ATOM     38  C   UNL A   1      38.390  29.411  28.120  1.00  0.00     0.014 A 
ATOM     39  C   UNL A   1      38.474  27.837  29.956  1.00  0.00     0.014 A 
ATOM     40  C   UNL A   1      39.679  29.019  27.762  1.00  0.00     0.010 A 
ATOM     41  C   UNL A   1      39.808  27.605  29.717  1.00  0.00     0.010 A 
ATOM     42  C   UNL A   1      40.412  28.145  28.591  1.00  0.00    -0.014 A 
BRANCH  42  43
ATOM     43  C   UNL A   1      41.822  27.862  28.313  1.00  0.00     0.031 A 
ATOM     44  C   UNL A   1      42.082  26.620  27.540  1.00  0.00     0.074 A 
ATOM     45  C   UNL A   1      42.864  28.666  28.622  1.00  0.00     0.049 A 
ATOM     46  N   UNL A   1      42.487  25.491  28.016  1.00  0.00    -0.248 NA
ATOM     47  C   UNL A   1      41.711  26.566  26.120  1.00  0.00     0.031 C 
ATOM     48  C   UNL A   1      42.861  30.030  29.161  1.00  0.00     0.029 A 
ATOM     49  N   UNL A   1      44.196  28.421  28.450  1.00  0.00    -0.354 N 
ATOM     50  C   UNL A   1      42.651  24.643  26.930  1.00  0.00     0.074 A 
ATOM     51  C   UNL A   1      41.986  25.290  25.830  1.00  0.00     0.031 C 
ATOM     52  C   UNL A   1      44.098  30.566  29.070  1.00  0.00     0.029 A 
ATOM     53  C   UNL A   1      45.016  29.521  28.661  1.00  0.00     0.049 A 
ATOM     54  H   UNL A   1      44.546  27.535  28.198  1.00  0.00     0.167 HD
ATOM     55  C   UNL A   1      43.505  23.583  26.998  1.00  0.00     0.034 A 
ATOM     56  C   UNL A   1      46.368  29.581  28.565  1.00  0.00     0.034 A 
ATOM     57  C   UNL A   1      43.861  23.291  28.372  1.00  0.00     0.049 A 
ATOM     58  C   UNL A   1      46.869  28.208  28.807  1.00  0.00     0.074 A 
ATOM     59  C   UNL A   1      43.137  22.982  29.510  1.00  0.00     0.029 A 
ATOM     60  N   UNL A   1      45.092  23.706  28.831  1.00  0.00    -0.354 N 
ATOM     61  N   UNL A   1      46.741  27.597  29.953  1.00  0.00    -0.248 NA
ATOM     62  C   UNL A   1      47.081  27.336  27.664  1.00  0.00     0.031 C 
ATOM     63  C   UNL A   1      43.765  23.725  30.555  1.00  0.00     0.029 A 
ATOM     64  C   UNL A   1      44.883  24.368  30.019  1.00  0.00     0.049 A 
ATOM     65  H   UNL A   1      45.960  23.557  28.390  1.00  0.00     0.167 HD
ATOM     66  C   UNL A   1      46.410  26.291  29.630  1.00  0.00     0.074 A 
ATOM     67  C   UNL A   1      46.743  26.164  28.212  1.00  0.00     0.031 C 
ATOM     68  C   UNL A   1      45.651  25.518  30.464  1.00  0.00     0.034 A 
BRANCH  55  69
ATOM     69  C   UNL A   1      44.286  23.020  25.829  1.00  0.00     0.023 A 
ATOM     70  C   UNL A   1      44.232  21.628  25.621  1.00  0.00     0.031 A 
ATOM     71  C   UNL A   1      45.278  23.709  25.095  1.00  0.00     0.131 A 
ATOM     72  C   UNL A   1      45.181  20.977  24.813  1.00  0.00     0.055 A 
ATOM     73  C   UNL A   1      46.176  23.067  24.237  1.00  0.00     0.041 A 
ATOM     74  F   UNL A   1      45.500  25.021  25.231  1.00  0.00    -0.206 F 
ATOM     75  C   UNL A   1      46.154  21.689  24.117  1.00  0.00     0.022 A 
BRANCH  72  76
ATOM     76  S   UNL A   1      45.238  19.167  24.838  1.00  0.00     0.124 S 
ATOM     77  O   UNL A   1      44.141  18.851  25.746  1.00  0.00    -0.237 OA
ATOM     78  O   UNL A   1      45.025  18.841  23.432  1.00  0.00    -0.237 OA
ATOM     79  O   UNL A   1      46.575  18.878  25.351  1.00  0.00    -0.744 OA
ENDBRANCH  72  76
ENDBRANCH  55  69
BRANCH  56  80
ATOM     80  C   UNL A   1      47.173  30.688  27.989  1.00  0.00     0.023 A 
ATOM     81  C   UNL A   1      46.609  31.711  27.201  1.00  0.00     0.031 A 
ATOM     82  C   UNL A   1      48.503  30.881  28.429  1.00  0.00     0.131 A 
ATOM     83  C   UNL A   1      47.362  32.868  26.896  1.00  0.00     0.055 A 
ATOM     84  C   UNL A   1      49.242  32.024  28.124  1.00  0.00     0.041 A 
ATOM     85  F   UNL A   1      49.099  30.000  29.248  1.00  0.00    -0.206 F 
ATOM     86  C   UNL A   1      48.669  33.031  27.364  1.00  0.00     0.022 A 
BRANCH  83  87
ATOM     87  S   UNL A   1      46.607  34.239  25.962  1.00  0.00     0.124 S 
ATOM     88  O   UNL A   1      46.261  35.180  27.021  1.00  0.00    -0.237 OA
ATOM     89  O   UNL A   1      47.685  34.637  25.065  1.00  0.00    -0.237 OA
ATOM     90  O   UNL A   1      45.463  33.611  25.300  1.00  0.00    -0.744 OA
ENDBRANCH  83  87
ENDBRANCH  56  80
BRANCH  68  91
ATOM     91  C   UNL A   1      45.418  25.998  31.889  1.00  0.00     0.023 A 
ATOM     92  C   UNL A   1      44.241  26.632  32.353  1.00  0.00     0.031 A 
ATOM     93  C   UNL A   1      46.407  25.696  32.843  1.00  0.00     0.131 A 
ATOM     94  C   UNL A   1      44.097  26.949  33.720  1.00  0.00     0.055 A 
ATOM     95  C   UNL A   1      46.252  25.989  34.198  1.00  0.00     0.041 A 
ATOM     96  F   UNL A   1      47.541  25.075  32.477  1.00  0.00    -0.206 F 
ATOM     97  C   UNL A   1      45.098  26.624  34.641  1.00  0.00     0.022 A 
BRANCH  94  98
ATOM     98  S   UNL A   1      42.611  27.814  34.327  1.00  0.00     0.124 S 
ATOM     99  O   UNL A   1      42.036  26.877  35.285  1.00  0.00    -0.237 OA
ATOM    100  O   UNL A   1      43.165  29.042  34.891  1.00  0.00    -0.237 OA
ATOM    101  O   UNL A   1      41.812  28.011  33.116  1.00  0.00    -0.744 OA
ENDBRANCH  94  98
ENDBRANCH  68  91
ENDBRANCH  42  43
ENDBRANCH  34  37
ENDBRANCH  32  33
ENDBRANCH  31  32
ENDBRANCH   1  31
TORSDOF 18
ENDMDL
MODEL 2
REMARK VINA RESULT:     -13.2      2.637      7.237
REMARK SMILES CCOC(=O)c1c(NC(=O)[C@@H]2[C@@H](C(=O)NCCCNC(=O)c3ccc(-c4c5nc(c(-c6cc(S(=O)(=O)[O-])ccc6F)c6ccc([nH]6)c(-c6cc(S(=O)(=O)[O-])ccc6F)c6nc(c(-c7cc(S(=O)(=O)[O-])ccc7F)c7ccc4[nH]7)C=C6)C=C5)cc3)[C@@H]3C=C[C@H]2CC3)sc2c1CCC2
REMARK SMILES IDX 16 1 15 2 13 3 14 4 12 6 11 7 88 8 85 9 87 10 89 11 86 12
REMARK SMILES IDX 90 13 9 14 8 15 10 17 7 18 6 19 93 20 91 21 92 22 94 23
REMARK SMILES IDX 96 24 95 25 4 26 5 27 3 28 2 29 1 30 17 31 18 32 19 33 20 34
REMARK SMILES IDX 21 36 22 37 23 38 84 39 24 40 83 41 25 42 26 43 27 44 77 45
REMARK SMILES IDX 28 46 82 47 76 48 78 49 29 50 81 51 75 52 74 53 30 55 62 56
REMARK SMILES IDX 42 57 61 58 43 59 46 60 60 61 79 62 44 63 45 64 59 66 80 67
REMARK SMILES IDX 47 68 31 69 32 70 40 71 33 72 39 73 41 74 38 75 34 76 35 77
REMARK SMILES IDX 36 78 37 79 63 80 64 81 72 82 65 83 71 84 73 85 70 86 66 87
REMARK SMILES IDX 67 88 68 89 69 90 48 91 49 92 57 93 50 94 56 95 58 96 55 97
REMARK SMILES IDX 51 98 52 99 53 100 54 101
REMARK H PARENT 15 5 8 16 19 35 78 54 46 65
REMARK Flexibility Score: inf
ROOT
ATOM      1  C   UNL A   1      31.962  30.420  25.779  1.00  0.00     0.117 C 
ENDROOT
BRANCH   1   2
ATOM      2  N   UNL A   1      32.698  29.690  24.750  1.00  0.00    -0.356 N 
ATOM      3  C   UNL A   1      32.846  28.380  24.421  1.00  0.00     0.224 C 
ATOM      4  O   UNL A   1      33.938  28.094  23.910  1.00  0.00    -0.275 OA
ATOM      5  H   UNL A   1      33.207  30.287  24.155  1.00  0.00     0.163 HD
BRANCH   3   6
ATOM      6  C   UNL A   1      31.806  27.252  24.595  1.00  0.00     0.098 C 
ATOM      7  C   UNL A   1      32.311  25.788  24.569  1.00  0.00     0.099 C 
ATOM      8  C   UNL A   1      31.530  25.093  23.382  1.00  0.00     0.025 C 
ATOM      9  C   UNL A   1      30.592  27.490  23.652  1.00  0.00     0.025 C 
ATOM     10  C   UNL A   1      30.052  25.152  23.750  1.00  0.00    -0.027 C 
ATOM     11  C   UNL A   1      31.653  25.892  22.054  1.00  0.00     0.009 C 
ATOM     12  C   UNL A   1      29.576  26.396  23.923  1.00  0.00    -0.027 C 
ATOM     13  C   UNL A   1      31.019  27.290  22.198  1.00  0.00     0.009 C 
BRANCH   7  14
ATOM     14  C   UNL A   1      32.213  24.839  25.805  1.00  0.00     0.229 C 
ATOM     15  N   UNL A   1      32.850  23.667  26.066  1.00  0.00    -0.317 N 
ATOM     16  H   UNL A   1      32.558  23.246  26.907  1.00  0.00     0.170 HD
ATOM     17  O   UNL A   1      31.405  25.157  26.700  1.00  0.00    -0.274 OA
BRANCH  15  18
ATOM     18  C   UNL A   1      33.814  22.949  25.406  1.00  0.00     0.110 A 
ATOM     19  C   UNL A   1      33.761  21.614  24.991  1.00  0.00     0.098 A 
ATOM     20  C   UNL A   1      35.105  21.171  24.839  1.00  0.00    -0.017 A 
ATOM     21  S   UNL A   1      35.211  23.704  24.783  1.00  0.00    -0.122 S 
ATOM     22  C   UNL A   1      35.984  22.222  24.850  1.00  0.00     0.011 A 
ATOM     23  C   UNL A   1      35.842  19.892  24.677  1.00  0.00     0.038 C 
ATOM     24  C   UNL A   1      37.414  21.850  24.855  1.00  0.00     0.047 C 
ATOM     25  C   UNL A   1      37.309  20.304  25.038  1.00  0.00     0.010 C 
BRANCH  19  26
ATOM     26  C   UNL A   1      32.506  20.873  24.889  1.00  0.00     0.341 C 
ATOM     27  O   UNL A   1      31.576  21.080  25.630  1.00  0.00    -0.246 OA
BRANCH  26  28
ATOM     28  O   UNL A   1      32.495  19.967  23.859  1.00  0.00    -0.462 OA
BRANCH  28  29
ATOM     29  C   UNL A   1      32.422  18.581  24.238  1.00  0.00     0.230 C 
ATOM     30  C   UNL A   1      33.258  17.640  23.380  1.00  0.00     0.049 C 
ENDBRANCH  28  29
ENDBRANCH  26  28
ENDBRANCH  19  26
ENDBRANCH  15  18
ENDBRANCH   7  14
ENDBRANCH   3   6
ENDBRANCH   1   2
BRANCH   1  31
ATOM     31  C   UNL A   1      32.557  30.191  27.174  1.00  0.00     0.042 C 
BRANCH  31  32
ATOM     32  C   UNL A   1      33.964  30.724  27.320  1.00  0.00     0.118 C 
BRANCH  32  33
ATOM     33  N   UNL A   1      34.067  31.777  28.326  1.00  0.00    -0.352 N 
ATOM     34  C   UNL A   1      35.028  31.873  29.318  1.00  0.00     0.251 C 
ATOM     35  H   UNL A   1      33.386  32.487  28.297  1.00  0.00     0.163 HD
ATOM     36  O   UNL A   1      34.805  32.509  30.341  1.00  0.00    -0.269 OA
BRANCH  34  37
ATOM     37  C   UNL A   1      36.299  31.153  29.115  1.00  0.00     0.039 A 
ATOM     38  C   UNL A   1      37.514  31.829  29.053  1.00  0.00     0.014 A 
ATOM     39  C   UNL A   1      36.259  29.762  29.118  1.00  0.00     0.014 A 
ATOM     40  C   UNL A   1      38.691  31.084  29.104  1.00  0.00     0.010 A 
ATOM     41  C   UNL A   1      37.409  29.052  29.367  1.00  0.00     0.010 A 
ATOM     42  C   UNL A   1      38.640  29.689  29.309  1.00  0.00    -0.014 A 
BRANCH  42  43
ATOM     43  C   UNL A   1      39.869  28.923  29.533  1.00  0.00     0.031 A 
ATOM     44  C   UNL A   1      40.222  28.687  30.956  1.00  0.00     0.074 A 
ATOM     45  C   UNL A   1      40.633  28.359  28.571  1.00  0.00     0.049 A 
ATOM     46  N   UNL A   1      41.111  29.324  31.641  1.00  0.00    -0.248 NA
ATOM     47  C   UNL A   1      39.408  27.762  31.756  1.00  0.00     0.031 C 
ATOM     48  C   UNL A   1      40.383  28.241  27.130  1.00  0.00     0.029 A 
ATOM     49  N   UNL A   1      41.818  27.698  28.717  1.00  0.00    -0.354 N 
ATOM     50  C   UNL A   1      41.142  28.729  32.895  1.00  0.00     0.074 A 
ATOM     51  C   UNL A   1      39.956  27.914  32.965  1.00  0.00     0.031 C 
ATOM     52  C   UNL A   1      41.262  27.377  26.577  1.00  0.00     0.029 A 
ATOM     53  C   UNL A   1      42.258  27.042  27.576  1.00  0.00     0.049 A 
ATOM     54  H   UNL A   1      42.321  27.689  29.564  1.00  0.00     0.167 HD
ATOM     55  C   UNL A   1      42.257  28.805  33.675  1.00  0.00     0.034 A 
ATOM     56  C   UNL A   1      43.389  26.309  27.420  1.00  0.00     0.034 A 
ATOM     57  C   UNL A   1      43.153  29.839  33.198  1.00  0.00     0.049 A 
ATOM     58  C   UNL A   1      44.358  26.813  28.421  1.00  0.00     0.074 A 
ATOM     59  C   UNL A   1      43.024  31.198  32.974  1.00  0.00     0.029 A 
ATOM     60  N   UNL A   1      44.262  29.460  32.473  1.00  0.00    -0.354 N 
ATOM     61  N   UNL A   1      44.852  28.021  28.386  1.00  0.00    -0.248 NA
ATOM     62  C   UNL A   1      44.417  26.161  29.718  1.00  0.00     0.031 C 
ATOM     63  C   UNL A   1      43.707  31.433  31.743  1.00  0.00     0.029 A 
ATOM     64  C   UNL A   1      44.289  30.230  31.333  1.00  0.00     0.049 A 
ATOM     65  H   UNL A   1      44.914  28.765  32.724  1.00  0.00     0.167 HD
ATOM     66  C   UNL A   1      44.868  28.442  29.706  1.00  0.00     0.074 A 
ATOM     67  C   UNL A   1      44.695  27.218  30.488  1.00  0.00     0.031 C 
ATOM     68  C   UNL A   1      44.750  29.763  30.037  1.00  0.00     0.034 A 
BRANCH  55  69
ATOM     69  C   UNL A   1      42.706  27.743  34.655  1.00  0.00     0.023 A 
ATOM     70  C   UNL A   1      43.421  26.644  34.140  1.00  0.00     0.031 A 
ATOM     71  C   UNL A   1      42.246  27.603  35.984  1.00  0.00     0.131 A 
ATOM     72  C   UNL A   1      43.565  25.458  34.883  1.00  0.00     0.055 A 
ATOM     73  C   UNL A   1      42.451  26.448  36.745  1.00  0.00     0.041 A 
ATOM     74  F   UNL A   1      41.496  28.529  36.593  1.00  0.00    -0.206 F 
ATOM     75  C   UNL A   1      43.084  25.353  36.185  1.00  0.00     0.022 A 
BRANCH  72  76
ATOM     76  S   UNL A   1      44.223  23.993  34.046  1.00  0.00     0.124 S 
ATOM     77  O   UNL A   1      45.366  23.661  34.888  1.00  0.00    -0.237 OA
ATOM     78  O   UNL A   1      43.088  23.077  34.109  1.00  0.00    -0.237 OA
ATOM     79  O   UNL A   1      44.553  24.485  32.711  1.00  0.00    -0.744 OA
ENDBRANCH  72  76
ENDBRANCH  55  69
BRANCH  56  80
ATOM     80  C   UNL A   1      43.532  25.038  26.668  1.00  0.00     0.023 A 
ATOM     81  C   UNL A   1      42.833  23.864  27.014  1.00  0.00     0.031 A 
ATOM     82  C   UNL A   1      44.193  25.040  25.418  1.00  0.00     0.131 A 
ATOM     83  C   UNL A   1      42.805  22.766  26.125  1.00  0.00     0.055 A 
ATOM     84  C   UNL A   1      44.164  23.953  24.544  1.00  0.00     0.041 A 
ATOM     85  F   UNL A   1      44.820  26.138  24.966  1.00  0.00    -0.206 F 
ATOM     86  C   UNL A   1      43.458  22.813  24.889  1.00  0.00     0.022 A 
BRANCH  83  87
ATOM     87  S   UNL A   1      41.823  21.283  26.521  1.00  0.00     0.124 S 
ATOM     88  O   UNL A   1      42.189  21.032  27.910  1.00  0.00    -0.237 OA
ATOM     89  O   UNL A   1      40.458  21.738  26.280  1.00  0.00    -0.237 OA
ATOM     90  O   UNL A   1      42.310  20.286  25.568  1.00  0.00    -0.744 OA
ENDBRANCH  83  87
ENDBRANCH  56  80
BRANCH  68  91
ATOM     91  C   UNL A   1      44.899  30.804  28.938  1.00  0.00     0.023 A 
ATOM     92  C   UNL A   1      46.125  31.364  28.507  1.00  0.00     0.031 A 
ATOM     93  C   UNL A   1      43.741  31.163  28.224  1.00  0.00     0.131 A 
ATOM     94  C   UNL A   1      46.154  32.253  27.412  1.00  0.00     0.055 A 
ATOM     95  C   UNL A   1      43.776  32.023  27.126  1.00  0.00     0.041 A 
ATOM     96  F   UNL A   1      42.545  30.652  28.564  1.00  0.00    -0.206 F 
ATOM     97  C   UNL A   1      44.983  32.577  26.720  1.00  0.00     0.022 A 
BRANCH  94  98
ATOM     98  S   UNL A   1      47.716  33.025  26.876  1.00  0.00     0.124 S 
ATOM     99  O   UNL A   1      48.163  33.753  28.058  1.00  0.00    -0.237 OA
ATOM    100  O   UNL A   1      48.527  31.872  26.493  1.00  0.00    -0.237 OA
ATOM    101  O   UNL A   1      47.309  33.877  25.756  1.00  0.00    -0.744 OA
ENDBRANCH  94  98
ENDBRANCH  68  91
ENDBRANCH  42  43
ENDBRANCH  34  37
ENDBRANCH  32  33
ENDBRANCH  31  32
ENDBRANCH   1  31
TORSDOF 18
ENDMDL
MODEL 3
REMARK VINA RESULT:     -12.9      1.224      2.161
REMARK SMILES CCOC(=O)c1c(NC(=O)[C@@H]2[C@@H](C(=O)NCCCNC(=O)c3ccc(-c4c5nc(c(-c6cc(S(=O)(=O)[O-])ccc6F)c6ccc([nH]6)c(-c6cc(S(=O)(=O)[O-])ccc6F)c6nc(c(-c7cc(S(=O)(=O)[O-])ccc7F)c7ccc4[nH]7)C=C6)C=C5)cc3)[C@@H]3C=C[C@H]2CC3)sc2c1CCC2
REMARK SMILES IDX 16 1 15 2 13 3 14 4 12 6 11 7 88 8 85 9 87 10 89 11 86 12
REMARK SMILES IDX 90 13 9 14 8 15 10 17 7 18 6 19 93 20 91 21 92 22 94 23
REMARK SMILES IDX 96 24 95 25 4 26 5 27 3 28 2 29 1 30 17 31 18 32 19 33 20 34
REMARK SMILES IDX 21 36 22 37 23 38 84 39 24 40 83 41 25 42 26 43 27 44 77 45
REMARK SMILES IDX 28 46 82 47 76 48 78 49 29 50 81 51 75 52 74 53 30 55 62 56
REMARK SMILES IDX 42 57 61 58 43 59 46 60 60 61 79 62 44 63 45 64 59 66 80 67
REMARK SMILES IDX 47 68 31 69 32 70 40 71 33 72 39 73 41 74 38 75 34 76 35 77
REMARK SMILES IDX 36 78 37 79 63 80 64 81 72 82 65 83 71 84 73 85 70 86 66 87
REMARK SMILES IDX 67 88 68 89 69 90 48 91 49 92 57 93 50 94 56 95 58 96 55 97
REMARK SMILES IDX 51 98 52 99 53 100 54 101
REMARK H PARENT 15 5 8 16 19 35 78 54 46 65
REMARK Flexibility Score: inf
ROOT
ATOM      1  C   UNL A   1      33.271  29.042  26.945  1.00  0.00     0.117 C 
ENDROOT
BRANCH   1   2
ATOM      2  N   UNL A   1      32.775  29.341  25.604  1.00  0.00    -0.356 N 
ATOM      3  C   UNL A   1      32.300  28.601  24.568  1.00  0.00     0.224 C 
ATOM      4  O   UNL A   1      32.519  29.079  23.447  1.00  0.00    -0.275 OA
ATOM      5  H   UNL A   1      32.787  30.305  25.403  1.00  0.00     0.163 HD
BRANCH   3   6
ATOM      6  C   UNL A   1      31.517  27.273  24.653  1.00  0.00     0.098 C 
ATOM      7  C   UNL A   1      32.326  25.954  24.710  1.00  0.00     0.099 C 
ATOM      8  C   UNL A   1      31.847  25.111  23.459  1.00  0.00     0.025 C 
ATOM      9  C   UNL A   1      30.389  27.245  23.582  1.00  0.00     0.025 C 
ATOM     10  C   UNL A   1      30.360  24.846  23.667  1.00  0.00    -0.027 C 
ATOM     11  C   UNL A   1      31.937  25.922  22.137  1.00  0.00     0.009 C 
ATOM     12  C   UNL A   1      29.611  25.955  23.764  1.00  0.00    -0.027 C 
ATOM     13  C   UNL A   1      31.004  27.149  22.186  1.00  0.00     0.009 C 
BRANCH   7  14
ATOM     14  C   UNL A   1      32.303  25.001  25.946  1.00  0.00     0.229 C 
ATOM     15  N   UNL A   1      33.090  23.936  26.250  1.00  0.00    -0.317 N 
ATOM     16  H   UNL A   1      32.818  23.477  27.078  1.00  0.00     0.170 HD
ATOM     17  O   UNL A   1      31.410  25.198  26.795  1.00  0.00    -0.274 OA
BRANCH  15  18
ATOM     18  C   UNL A   1      34.183  23.368  25.647  1.00  0.00     0.110 A 
ATOM     19  C   UNL A   1      34.241  22.174  24.919  1.00  0.00     0.098 A 
ATOM     20  C   UNL A   1      35.596  21.737  24.943  1.00  0.00    -0.017 A 
ATOM     21  S   UNL A   1      35.665  24.204  25.526  1.00  0.00    -0.122 S 
ATOM     22  C   UNL A   1      36.434  22.725  25.389  1.00  0.00     0.011 A 
ATOM     23  C   UNL A   1      36.374  20.512  24.630  1.00  0.00     0.038 C 
ATOM     24  C   UNL A   1      37.838  22.316  25.596  1.00  0.00     0.047 C 
ATOM     25  C   UNL A   1      37.727  20.776  25.373  1.00  0.00     0.010 C 
BRANCH  19  26
ATOM     26  C   UNL A   1      33.048  21.521  24.386  1.00  0.00     0.341 C 
ATOM     27  O   UNL A   1      32.717  21.633  23.230  1.00  0.00    -0.246 OA
BRANCH  26  28
ATOM     28  O   UNL A   1      32.388  20.758  25.315  1.00  0.00    -0.462 OA
BRANCH  28  29
ATOM     29  C   UNL A   1      32.905  19.433  25.528  1.00  0.00     0.230 C 
ATOM     30  C   UNL A   1      32.558  18.429  24.438  1.00  0.00     0.049 C 
ENDBRANCH  28  29
ENDBRANCH  26  28
ENDBRANCH  19  26
ENDBRANCH  15  18
ENDBRANCH   7  14
ENDBRANCH   3   6
ENDBRANCH   1   2
BRANCH   1  31
ATOM     31  C   UNL A   1      34.141  30.179  27.495  1.00  0.00     0.042 C 
BRANCH  31  32
ATOM     32  C   UNL A   1      35.494  29.718  27.982  1.00  0.00     0.118 C 
BRANCH  32  33
ATOM     33  N   UNL A   1      35.702  29.977  29.404  1.00  0.00    -0.352 N 
ATOM     34  C   UNL A   1      36.697  29.437  30.201  1.00  0.00     0.251 C 
ATOM     35  H   UNL A   1      35.072  30.596  29.839  1.00  0.00     0.163 HD
ATOM     36  O   UNL A   1      36.551  29.361  31.415  1.00  0.00    -0.269 OA
BRANCH  34  37
ATOM     37  C   UNL A   1      37.907  28.923  29.532  1.00  0.00     0.039 A 
ATOM     38  C   UNL A   1      38.487  29.600  28.462  1.00  0.00     0.014 A 
ATOM     39  C   UNL A   1      38.528  27.809  30.089  1.00  0.00     0.014 A 
ATOM     40  C   UNL A   1      39.753  29.202  28.034  1.00  0.00     0.010 A 
ATOM     41  C   UNL A   1      39.846  27.552  29.798  1.00  0.00     0.010 A 
ATOM     42  C   UNL A   1      40.458  28.202  28.735  1.00  0.00    -0.014 A 
BRANCH  42  43
ATOM     43  C   UNL A   1      41.851  27.897  28.398  1.00  0.00     0.031 A 
ATOM     44  C   UNL A   1      42.058  26.653  27.613  1.00  0.00     0.074 A 
ATOM     45  C   UNL A   1      42.918  28.683  28.664  1.00  0.00     0.049 A 
ATOM     46  N   UNL A   1      42.464  25.517  28.070  1.00  0.00    -0.248 NA
ATOM     47  C   UNL A   1      41.627  26.608  26.209  1.00  0.00     0.031 C 
ATOM     48  C   UNL A   1      42.960  30.046  29.205  1.00  0.00     0.029 A 
ATOM     49  N   UNL A   1      44.237  28.417  28.437  1.00  0.00    -0.354 N 
ATOM     50  C   UNL A   1      42.569  24.668  26.977  1.00  0.00     0.074 A 
ATOM     51  C   UNL A   1      41.868  25.329  25.906  1.00  0.00     0.031 C 
ATOM     52  C   UNL A   1      44.200  30.562  29.063  1.00  0.00     0.029 A 
ATOM     53  C   UNL A   1      45.083  29.503  28.614  1.00  0.00     0.049 A 
ATOM     54  H   UNL A   1      44.562  27.527  28.168  1.00  0.00     0.167 HD
ATOM     55  C   UNL A   1      43.407  23.594  27.006  1.00  0.00     0.034 A 
ATOM     56  C   UNL A   1      46.431  29.542  28.462  1.00  0.00     0.034 A 
ATOM     57  C   UNL A   1      43.816  23.293  28.364  1.00  0.00     0.049 A 
ATOM     58  C   UNL A   1      46.919  28.161  28.680  1.00  0.00     0.074 A 
ATOM     59  C   UNL A   1      43.135  22.993  29.531  1.00  0.00     0.029 A 
ATOM     60  N   UNL A   1      45.072  23.688  28.772  1.00  0.00    -0.354 N 
ATOM     61  N   UNL A   1      46.829  27.549  29.830  1.00  0.00    -0.248 NA
ATOM     62  C   UNL A   1      47.068  27.287  27.528  1.00  0.00     0.031 C 
ATOM     63  C   UNL A   1      43.818  23.724  30.550  1.00  0.00     0.029 A 
ATOM     64  C   UNL A   1      44.923  24.350  29.969  1.00  0.00     0.049 A 
ATOM     65  H   UNL A   1      45.918  23.526  28.295  1.00  0.00     0.167 HD
ATOM     66  C   UNL A   1      46.464  26.250  29.519  1.00  0.00     0.074 A 
ATOM     67  C   UNL A   1      46.735  26.120  28.088  1.00  0.00     0.031 C 
ATOM     68  C   UNL A   1      45.728  25.487  30.383  1.00  0.00     0.034 A 
BRANCH  55  69
ATOM     69  C   UNL A   1      44.129  23.022  25.806  1.00  0.00     0.023 A 
ATOM     70  C   UNL A   1      43.900  21.667  25.493  1.00  0.00     0.031 A 
ATOM     71  C   UNL A   1      45.215  23.628  25.133  1.00  0.00     0.131 A 
ATOM     72  C   UNL A   1      44.770  20.960  24.646  1.00  0.00     0.055 A 
ATOM     73  C   UNL A   1      46.037  22.938  24.237  1.00  0.00     0.041 A 
ATOM     74  F   UNL A   1      45.603  24.886  25.369  1.00  0.00    -0.206 F 
ATOM     75  C   UNL A   1      45.839  21.587  24.013  1.00  0.00     0.022 A 
BRANCH  72  76
ATOM     76  S   UNL A   1      44.591  19.161  24.536  1.00  0.00     0.124 S 
ATOM     77  O   UNL A   1      43.194  18.980  24.912  1.00  0.00    -0.237 OA
ATOM     78  O   UNL A   1      44.920  18.912  23.136  1.00  0.00    -0.237 OA
ATOM     79  O   UNL A   1      45.567  18.664  25.504  1.00  0.00    -0.744 OA
ENDBRANCH  72  76
ENDBRANCH  55  69
BRANCH  56  80
ATOM     80  C   UNL A   1      47.228  30.637  27.855  1.00  0.00     0.023 A 
ATOM     81  C   UNL A   1      46.643  31.699  27.136  1.00  0.00     0.031 A 
ATOM     82  C   UNL A   1      48.593  30.775  28.198  1.00  0.00     0.131 A 
ATOM     83  C   UNL A   1      47.411  32.838  26.804  1.00  0.00     0.055 A 
ATOM     84  C   UNL A   1      49.347  31.901  27.866  1.00  0.00     0.041 A 
ATOM     85  F   UNL A   1      49.218  29.853  28.948  1.00  0.00    -0.206 F 
ATOM     86  C   UNL A   1      48.754  32.946  27.176  1.00  0.00     0.022 A 
BRANCH  83  87
ATOM     87  S   UNL A   1      46.637  34.258  25.963  1.00  0.00     0.124 S 
ATOM     88  O   UNL A   1      46.363  35.162  27.073  1.00  0.00    -0.237 OA
ATOM     89  O   UNL A   1      47.677  34.672  25.028  1.00  0.00    -0.237 OA
ATOM     90  O   UNL A   1      45.450  33.677  25.336  1.00  0.00    -0.744 OA
ENDBRANCH  83  87
ENDBRANCH  56  80
BRANCH  68  91
ATOM     91  C   UNL A   1      45.563  25.967  31.817  1.00  0.00     0.023 A 
ATOM     92  C   UNL A   1      44.388  26.546  32.352  1.00  0.00     0.031 A 
ATOM     93  C   UNL A   1      46.625  25.725  32.707  1.00  0.00     0.131 A 
ATOM     94  C   UNL A   1      44.316  26.867  33.724  1.00  0.00     0.055 A 
ATOM     95  C   UNL A   1      46.542  26.021  34.068  1.00  0.00     0.041 A 
ATOM     96  F   UNL A   1      47.763  25.157  32.272  1.00  0.00    -0.206 F 
ATOM     97  C   UNL A   1      45.388  26.601  34.580  1.00  0.00     0.022 A 
BRANCH  94  98
ATOM     98  S   UNL A   1      42.830  27.661  34.421  1.00  0.00     0.124 S 
ATOM     99  O   UNL A   1      42.216  28.312  33.270  1.00  0.00    -0.237 OA
ATOM    100  O   UNL A   1      42.096  26.528  34.980  1.00  0.00    -0.237 OA
ATOM    101  O   UNL A   1      43.373  28.582  35.422  1.00  0.00    -0.744 OA
ENDBRANCH  94  98
ENDBRANCH  68  91
ENDBRANCH  42  43
ENDBRANCH  34  37
ENDBRANCH  32  33
ENDBRANCH  31  32
ENDBRANCH   1  31
TORSDOF 18
ENDMDL
