MODEL 1
REMARK VINA RESULT:     -13.6      0.000      0.000
REMARK SMILES Cc1nn(CC(=O)NCCCNC(=O)c2ccc(-c3c4nc(c(-c5cc(S(=O)(=O)[O-])ccc5F)c5ccc([nH]5)c(-c5cc(S(=O)(=O)[O-])ccc5F)c5nc(c(-c6cc(S(=O)(=O)[O-])ccc6F)c6ccc3[nH]6)C=C5)C=C4)cc2)c(C)c1NS(=O)(=O)c1cccc2cccnc12
REMARK SMILES IDX 9 1 8 2 6 3 7 4 5 6 4 7 1 8 2 9 3 10 80 11 78 12 79 13 81 14
REMARK SMILES IDX 82 16 83 17 84 18 85 19 86 20 94 21 87 22 89 23 93 24 88 25
REMARK SMILES IDX 90 26 92 27 91 28 10 29 11 30 12 31 13 32 14 34 15 35 16 36
REMARK SMILES IDX 77 37 17 38 76 39 18 40 19 41 20 42 70 43 21 44 75 45 69 46
REMARK SMILES IDX 71 47 22 48 74 49 68 50 67 51 23 53 55 54 35 55 54 56 36 57
REMARK SMILES IDX 39 58 53 59 72 60 37 61 38 62 52 64 73 65 40 66 24 67 25 68
REMARK SMILES IDX 33 69 26 70 32 71 34 72 31 73 27 74 28 75 29 76 30 77 56 78
REMARK SMILES IDX 57 79 65 80 58 81 64 82 66 83 63 84 59 85 60 86 61 87 62 88
REMARK SMILES IDX 41 89 42 90 50 91 43 92 49 93 51 94 48 95 44 96 45 97 46 98
REMARK SMILES IDX 47 99
REMARK H PARENT 8 5 81 15 12 33 71 52 39 63
REMARK Flexibility Score: inf
ROOT
ATOM      1  C   UNL A   1      33.298  29.580  26.216  1.00  0.00     0.117 C 
ENDROOT
BRANCH   1   2
ATOM      2  N   UNL A   1      33.642  29.150  24.859  1.00  0.00    -0.354 N 
ATOM      3  C   UNL A   1      33.025  28.870  23.686  1.00  0.00     0.241 C 
ATOM      4  O   UNL A   1      33.719  29.107  22.681  1.00  0.00    -0.273 OA
ATOM      5  H   UNL A   1      34.615  29.031  24.772  1.00  0.00     0.163 HD
BRANCH   3   6
ATOM      6  C   UNL A   1      31.609  28.413  23.436  1.00  0.00     0.244 C 
BRANCH   6   7
ATOM      7  N   UNL A   1      31.384  26.992  23.371  1.00  0.00    -0.258 N 
ATOM      8  C   UNL A   1      32.508  23.764  22.601  1.00  0.00     0.071 C 
ATOM      9  C   UNL A   1      31.840  24.966  23.158  1.00  0.00     0.084 A 
ATOM     10  N   UNL A   1      32.228  26.173  22.721  1.00  0.00    -0.175 NA
ATOM     11  C   UNL A   1      30.756  25.091  24.093  1.00  0.00     0.093 A 
ATOM     12  C   UNL A   1      30.246  26.316  23.741  1.00  0.00     0.060 A 
ATOM     13  C   UNL A   1      28.873  26.841  23.616  1.00  0.00     0.069 C 
BRANCH  11  14
ATOM     14  N   UNL A   1      30.252  24.095  24.921  1.00  0.00    -0.276 N 
ATOM     15  H   UNL A   1      29.409  23.685  24.623  1.00  0.00     0.180 HD
BRANCH  14  16
ATOM     16  S   UNL A   1      30.888  23.485  26.370  1.00  0.00     0.264 S 
ATOM     17  O   UNL A   1      31.106  24.714  27.124  1.00  0.00    -0.201 OA
ATOM     18  O   UNL A   1      29.924  22.534  26.882  1.00  0.00    -0.201 OA
BRANCH  16  19
ATOM     19  C   UNL A   1      32.484  22.689  26.300  1.00  0.00     0.114 A 
ATOM     20  C   UNL A   1      33.495  23.348  27.036  1.00  0.00     0.024 A 
ATOM     21  C   UNL A   1      32.779  21.455  25.696  1.00  0.00     0.091 A 
ATOM     22  C   UNL A   1      34.818  22.936  26.988  1.00  0.00     0.002 A 
ATOM     23  C   UNL A   1      34.166  21.189  25.483  1.00  0.00     0.002 A 
ATOM     24  N   UNL A   1      31.903  20.480  25.356  1.00  0.00    -0.255 NA
ATOM     25  C   UNL A   1      35.165  21.925  26.117  1.00  0.00     0.010 A 
ATOM     26  C   UNL A   1      34.576  20.132  24.665  1.00  0.00     0.012 A 
ATOM     27  C   UNL A   1      32.404  19.318  24.842  1.00  0.00     0.112 A 
ATOM     28  C   UNL A   1      33.672  19.153  24.341  1.00  0.00     0.021 A 
ENDBRANCH  16  19
ENDBRANCH  14  16
ENDBRANCH  11  14
ENDBRANCH   6   7
ENDBRANCH   3   6
ENDBRANCH   1   2
BRANCH   1  29
ATOM     29  C   UNL A   1      34.052  29.086  27.447  1.00  0.00     0.042 C 
BRANCH  29  30
ATOM     30  C   UNL A   1      35.341  29.887  27.776  1.00  0.00     0.118 C 
BRANCH  30  31
ATOM     31  N   UNL A   1      35.630  30.170  29.203  1.00  0.00    -0.352 N 
ATOM     32  C   UNL A   1      36.571  29.528  30.021  1.00  0.00     0.251 C 
ATOM     33  H   UNL A   1      35.102  30.887  29.623  1.00  0.00     0.163 HD
ATOM     34  O   UNL A   1      36.450  29.481  31.248  1.00  0.00    -0.269 OA
BRANCH  32  35
ATOM     35  C   UNL A   1      37.779  28.990  29.372  1.00  0.00     0.039 A 
ATOM     36  C   UNL A   1      38.460  29.532  28.272  1.00  0.00     0.014 A 
ATOM     37  C   UNL A   1      38.307  27.928  30.076  1.00  0.00     0.014 A 
ATOM     38  C   UNL A   1      39.738  29.037  27.969  1.00  0.00     0.010 A 
ATOM     39  C   UNL A   1      39.643  27.727  30.000  1.00  0.00     0.010 A 
ATOM     40  C   UNL A   1      40.325  28.136  28.864  1.00  0.00    -0.014 A 
BRANCH  40  41
ATOM     41  C   UNL A   1      41.689  27.622  28.821  1.00  0.00     0.031 A 
ATOM     42  C   UNL A   1      41.836  26.378  28.016  1.00  0.00     0.074 A 
ATOM     43  C   UNL A   1      42.721  28.473  29.060  1.00  0.00     0.049 A 
ATOM     44  N   UNL A   1      42.094  25.184  28.437  1.00  0.00    -0.248 NA
ATOM     45  C   UNL A   1      41.454  26.418  26.590  1.00  0.00     0.031 C 
ATOM     46  C   UNL A   1      42.665  29.886  29.480  1.00  0.00     0.029 A 
ATOM     47  N   UNL A   1      44.046  28.315  28.815  1.00  0.00    -0.354 N 
ATOM     48  C   UNL A   1      42.199  24.401  27.290  1.00  0.00     0.074 A 
ATOM     49  C   UNL A   1      41.500  25.124  26.268  1.00  0.00     0.031 C 
ATOM     50  C   UNL A   1      43.846  30.496  29.225  1.00  0.00     0.029 A 
ATOM     51  C   UNL A   1      44.801  29.490  28.797  1.00  0.00     0.049 A 
ATOM     52  H   UNL A   1      44.449  27.430  28.662  1.00  0.00     0.167 HD
ATOM     53  C   UNL A   1      43.121  23.400  27.197  1.00  0.00     0.034 A 
ATOM     54  C   UNL A   1      46.111  29.624  28.443  1.00  0.00     0.034 A 
ATOM     55  C   UNL A   1      43.723  23.148  28.490  1.00  0.00     0.049 A 
ATOM     56  C   UNL A   1      46.696  28.259  28.533  1.00  0.00     0.074 A 
ATOM     57  C   UNL A   1      43.231  22.806  29.735  1.00  0.00     0.029 A 
ATOM     58  N   UNL A   1      44.971  23.690  28.726  1.00  0.00    -0.354 N 
ATOM     59  N   UNL A   1      46.771  27.593  29.656  1.00  0.00    -0.248 NA
ATOM     60  C   UNL A   1      46.673  27.433  27.332  1.00  0.00     0.031 C 
ATOM     61  C   UNL A   1      43.947  23.639  30.646  1.00  0.00     0.029 A 
ATOM     62  C   UNL A   1      44.920  24.347  29.934  1.00  0.00     0.049 A 
ATOM     63  H   UNL A   1      45.755  23.619  28.136  1.00  0.00     0.167 HD
ATOM     64  C   UNL A   1      46.356  26.305  29.344  1.00  0.00     0.074 A 
ATOM     65  C   UNL A   1      46.398  26.243  27.880  1.00  0.00     0.031 C 
ATOM     66  C   UNL A   1      45.712  25.522  30.263  1.00  0.00     0.034 A 
BRANCH  53  67
ATOM     67  C   UNL A   1      43.772  22.908  25.917  1.00  0.00     0.023 A 
ATOM     68  C   UNL A   1      43.713  21.523  25.662  1.00  0.00     0.031 A 
ATOM     69  C   UNL A   1      44.651  23.640  25.085  1.00  0.00     0.131 A 
ATOM     70  C   UNL A   1      44.555  20.920  24.712  1.00  0.00     0.055 A 
ATOM     71  C   UNL A   1      45.438  23.045  24.094  1.00  0.00     0.041 A 
ATOM     72  F   UNL A   1      44.876  24.949  25.232  1.00  0.00    -0.206 F 
ATOM     73  C   UNL A   1      45.420  21.673  23.924  1.00  0.00     0.022 A 
BRANCH  70  74
ATOM     74  S   UNL A   1      44.631  19.112  24.651  1.00  0.00     0.124 S 
ATOM     75  O   UNL A   1      45.722  18.830  25.579  1.00  0.00    -0.237 OA
ATOM     76  O   UNL A   1      43.292  18.742  25.099  1.00  0.00    -0.237 OA
ATOM     77  O   UNL A   1      44.919  18.832  23.247  1.00  0.00    -0.744 OA
ENDBRANCH  70  74
ENDBRANCH  53  67
BRANCH  54  78
ATOM     78  C   UNL A   1      46.748  30.759  27.700  1.00  0.00     0.023 A 
ATOM     79  C   UNL A   1      46.029  31.762  27.008  1.00  0.00     0.031 A 
ATOM     80  C   UNL A   1      48.133  30.992  27.875  1.00  0.00     0.131 A 
ATOM     81  C   UNL A   1      46.694  32.921  26.525  1.00  0.00     0.055 A 
ATOM     82  C   UNL A   1      48.781  32.138  27.402  1.00  0.00     0.041 A 
ATOM     83  F   UNL A   1      48.892  30.142  28.585  1.00  0.00    -0.206 F 
ATOM     84  C   UNL A   1      48.063  33.113  26.731  1.00  0.00     0.022 A 
BRANCH  81  85
ATOM     85  S   UNL A   1      45.776  34.249  25.665  1.00  0.00     0.124 S 
ATOM     86  O   UNL A   1      45.251  35.037  26.775  1.00  0.00    -0.237 OA
ATOM     87  O   UNL A   1      46.817  34.879  24.859  1.00  0.00    -0.237 OA
ATOM     88  O   UNL A   1      44.762  33.527  24.894  1.00  0.00    -0.744 OA
ENDBRANCH  81  85
ENDBRANCH  54  78
BRANCH  66  89
ATOM     89  C   UNL A   1      45.649  26.004  31.707  1.00  0.00     0.023 A 
ATOM     90  C   UNL A   1      44.510  26.562  32.340  1.00  0.00     0.031 A 
ATOM     91  C   UNL A   1      46.773  25.753  32.512  1.00  0.00     0.131 A 
ATOM     92  C   UNL A   1      44.533  26.852  33.721  1.00  0.00     0.055 A 
ATOM     93  C   UNL A   1      46.786  26.020  33.881  1.00  0.00     0.041 A 
ATOM     94  F   UNL A   1      47.876  25.198  31.983  1.00  0.00    -0.206 F 
ATOM     95  C   UNL A   1      45.668  26.577  34.490  1.00  0.00     0.022 A 
BRANCH  92  96
ATOM     96  S   UNL A   1      43.095  27.615  34.549  1.00  0.00     0.124 S 
ATOM     97  O   UNL A   1      42.623  28.596  33.579  1.00  0.00    -0.237 OA
ATOM     98  O   UNL A   1      42.217  26.471  34.782  1.00  0.00    -0.237 OA
ATOM     99  O   UNL A   1      43.670  28.193  35.766  1.00  0.00    -0.744 OA
ENDBRANCH  92  96
ENDBRANCH  66  89
ENDBRANCH  40  41
ENDBRANCH  32  35
ENDBRANCH  30  31
ENDBRANCH  29  30
ENDBRANCH   1  29
TORSDOF 17
ENDMDL
MODEL 2
REMARK VINA RESULT:     -13.5      0.970      1.555
REMARK SMILES Cc1nn(CC(=O)NCCCNC(=O)c2ccc(-c3c4nc(c(-c5cc(S(=O)(=O)[O-])ccc5F)c5ccc([nH]5)c(-c5cc(S(=O)(=O)[O-])ccc5F)c5nc(c(-c6cc(S(=O)(=O)[O-])ccc6F)c6ccc3[nH]6)C=C5)C=C4)cc2)c(C)c1NS(=O)(=O)c1cccc2cccnc12
REMARK SMILES IDX 9 1 8 2 6 3 7 4 5 6 4 7 1 8 2 9 3 10 80 11 78 12 79 13 81 14
REMARK SMILES IDX 82 16 83 17 84 18 85 19 86 20 94 21 87 22 89 23 93 24 88 25
REMARK SMILES IDX 90 26 92 27 91 28 10 29 11 30 12 31 13 32 14 34 15 35 16 36
REMARK SMILES IDX 77 37 17 38 76 39 18 40 19 41 20 42 70 43 21 44 75 45 69 46
REMARK SMILES IDX 71 47 22 48 74 49 68 50 67 51 23 53 55 54 35 55 54 56 36 57
REMARK SMILES IDX 39 58 53 59 72 60 37 61 38 62 52 64 73 65 40 66 24 67 25 68
REMARK SMILES IDX 33 69 26 70 32 71 34 72 31 73 27 74 28 75 29 76 30 77 56 78
REMARK SMILES IDX 57 79 65 80 58 81 64 82 66 83 63 84 59 85 60 86 61 87 62 88
REMARK SMILES IDX 41 89 42 90 50 91 43 92 49 93 51 94 48 95 44 96 45 97 46 98
REMARK SMILES IDX 47 99
REMARK H PARENT 8 5 81 15 12 33 71 52 39 63
REMARK Flexibility Score: inf
ROOT
ATOM      1  C   UNL A   1      33.443  28.798  25.393  1.00  0.00     0.117 C 
ENDROOT
BRANCH   1   2
ATOM      2  N   UNL A   1      32.324  29.549  24.821  1.00  0.00    -0.354 N 
ATOM      3  C   UNL A   1      31.267  29.345  23.999  1.00  0.00     0.241 C 
ATOM      4  O   UNL A   1      30.287  30.072  24.245  1.00  0.00    -0.273 OA
ATOM      5  H   UNL A   1      32.346  30.485  25.126  1.00  0.00     0.163 HD
BRANCH   3   6
ATOM      6  C   UNL A   1      31.084  28.312  22.915  1.00  0.00     0.244 C 
BRANCH   6   7
ATOM      7  N   UNL A   1      31.466  26.960  23.231  1.00  0.00    -0.258 N 
ATOM      8  C   UNL A   1      33.413  24.118  22.592  1.00  0.00     0.071 C 
ATOM      9  C   UNL A   1      32.595  25.204  23.185  1.00  0.00     0.084 A 
ATOM     10  N   UNL A   1      32.230  26.230  22.401  1.00  0.00    -0.175 NA
ATOM     11  C   UNL A   1      32.040  25.353  24.502  1.00  0.00     0.093 A 
ATOM     12  C   UNL A   1      30.973  26.176  24.246  1.00  0.00     0.060 A 
ATOM     13  C   UNL A   1      29.587  26.220  24.749  1.00  0.00     0.069 C 
BRANCH  11  14
ATOM     14  N   UNL A   1      32.382  24.624  25.635  1.00  0.00    -0.276 N 
ATOM     15  H   UNL A   1      32.945  25.098  26.289  1.00  0.00     0.180 HD
BRANCH  14  16
ATOM     16  S   UNL A   1      31.967  23.032  26.049  1.00  0.00     0.264 S 
ATOM     17  O   UNL A   1      32.236  23.033  27.482  1.00  0.00    -0.201 OA
ATOM     18  O   UNL A   1      30.602  22.830  25.613  1.00  0.00    -0.201 OA
BRANCH  16  19
ATOM     19  C   UNL A   1      32.973  21.718  25.384  1.00  0.00     0.114 A 
ATOM     20  C   UNL A   1      32.238  20.623  24.873  1.00  0.00     0.024 A 
ATOM     21  C   UNL A   1      34.370  21.729  25.226  1.00  0.00     0.091 A 
ATOM     22  C   UNL A   1      32.862  19.466  24.435  1.00  0.00     0.002 A 
ATOM     23  C   UNL A   1      34.974  20.458  24.984  1.00  0.00     0.002 A 
ATOM     24  N   UNL A   1      35.183  22.812  25.217  1.00  0.00    -0.255 NA
ATOM     25  C   UNL A   1      34.226  19.347  24.601  1.00  0.00     0.010 A 
ATOM     26  C   UNL A   1      36.359  20.295  25.070  1.00  0.00     0.012 A 
ATOM     27  C   UNL A   1      36.513  22.613  24.975  1.00  0.00     0.112 A 
ATOM     28  C   UNL A   1      37.162  21.406  25.052  1.00  0.00     0.021 A 
ENDBRANCH  16  19
ENDBRANCH  14  16
ENDBRANCH  11  14
ENDBRANCH   6   7
ENDBRANCH   3   6
ENDBRANCH   1   2
BRANCH   1  29
ATOM     29  C   UNL A   1      33.784  28.842  26.879  1.00  0.00     0.042 C 
BRANCH  29  30
ATOM     30  C   UNL A   1      35.233  29.306  27.194  1.00  0.00     0.118 C 
BRANCH  30  31
ATOM     31  N   UNL A   1      35.486  29.922  28.519  1.00  0.00    -0.352 N 
ATOM     32  C   UNL A   1      36.479  29.567  29.443  1.00  0.00     0.251 C 
ATOM     33  H   UNL A   1      34.890  30.660  28.779  1.00  0.00     0.163 HD
ATOM     34  O   UNL A   1      36.357  29.779  30.652  1.00  0.00    -0.269 OA
BRANCH  32  35
ATOM     35  C   UNL A   1      37.736  29.014  28.909  1.00  0.00     0.039 A 
ATOM     36  C   UNL A   1      38.503  29.527  27.852  1.00  0.00     0.014 A 
ATOM     37  C   UNL A   1      38.207  27.974  29.683  1.00  0.00     0.014 A 
ATOM     38  C   UNL A   1      39.801  29.029  27.668  1.00  0.00     0.010 A 
ATOM     39  C   UNL A   1      39.545  27.776  29.720  1.00  0.00     0.010 A 
ATOM     40  C   UNL A   1      40.315  28.155  28.632  1.00  0.00    -0.014 A 
BRANCH  40  41
ATOM     41  C   UNL A   1      41.680  27.645  28.714  1.00  0.00     0.031 A 
ATOM     42  C   UNL A   1      41.911  26.419  27.902  1.00  0.00     0.074 A 
ATOM     43  C   UNL A   1      42.679  28.493  29.073  1.00  0.00     0.049 A 
ATOM     44  N   UNL A   1      42.130  25.217  28.321  1.00  0.00    -0.248 NA
ATOM     45  C   UNL A   1      41.672  26.490  26.445  1.00  0.00     0.031 C 
ATOM     46  C   UNL A   1      42.576  29.897  29.516  1.00  0.00     0.029 A 
ATOM     47  N   UNL A   1      44.023  28.343  28.958  1.00  0.00    -0.354 N 
ATOM     48  C   UNL A   1      42.352  24.460  27.173  1.00  0.00     0.074 A 
ATOM     49  C   UNL A   1      41.755  25.203  26.102  1.00  0.00     0.031 C 
ATOM     50  C   UNL A   1      43.774  30.514  29.393  1.00  0.00     0.029 A 
ATOM     51  C   UNL A   1      44.771  29.520  29.039  1.00  0.00     0.049 A 
ATOM     52  H   UNL A   1      44.442  27.462  28.826  1.00  0.00     0.167 HD
ATOM     53  C   UNL A   1      43.283  23.462  27.150  1.00  0.00     0.034 A 
ATOM     54  C   UNL A   1      46.109  29.664  28.821  1.00  0.00     0.034 A 
ATOM     55  C   UNL A   1      43.755  23.183  28.491  1.00  0.00     0.049 A 
ATOM     56  C   UNL A   1      46.688  28.298  28.939  1.00  0.00     0.074 A 
ATOM     57  C   UNL A   1      43.143  22.814  29.674  1.00  0.00     0.029 A 
ATOM     58  N   UNL A   1      44.971  23.723  28.862  1.00  0.00    -0.354 N 
ATOM     59  N   UNL A   1      46.654  27.607  30.049  1.00  0.00    -0.248 NA
ATOM     60  C   UNL A   1      46.788  27.499  27.725  1.00  0.00     0.031 C 
ATOM     61  C   UNL A   1      43.762  23.628  30.669  1.00  0.00     0.029 A 
ATOM     62  C   UNL A   1      44.797  24.353  30.072  1.00  0.00     0.049 A 
ATOM     63  H   UNL A   1      45.810  23.666  28.351  1.00  0.00     0.167 HD
ATOM     64  C   UNL A   1      46.277  26.326  29.670  1.00  0.00     0.074 A 
ATOM     65  C   UNL A   1      46.465  26.296  28.217  1.00  0.00     0.031 C 
ATOM     66  C   UNL A   1      45.547  25.522  30.504  1.00  0.00     0.034 A 
BRANCH  53  67
ATOM     67  C   UNL A   1      44.060  22.999  25.931  1.00  0.00     0.023 A 
ATOM     68  C   UNL A   1      44.087  21.613  25.680  1.00  0.00     0.031 A 
ATOM     69  C   UNL A   1      44.969  23.771  25.170  1.00  0.00     0.131 A 
ATOM     70  C   UNL A   1      45.032  21.049  24.806  1.00  0.00     0.055 A 
ATOM     71  C   UNL A   1      45.863  23.212  24.251  1.00  0.00     0.041 A 
ATOM     72  F   UNL A   1      45.119  25.089  25.328  1.00  0.00    -0.206 F 
ATOM     73  C   UNL A   1      45.923  21.840  24.088  1.00  0.00     0.022 A 
BRANCH  70  74
ATOM     74  S   UNL A   1      45.197  19.246  24.762  1.00  0.00     0.124 S 
ATOM     75  O   UNL A   1      45.116  18.977  23.330  1.00  0.00    -0.237 OA
ATOM     76  O   UNL A   1      46.504  19.051  25.381  1.00  0.00    -0.237 OA
ATOM     77  O   UNL A   1      44.058  18.782  25.549  1.00  0.00    -0.744 OA
ENDBRANCH  70  74
ENDBRANCH  53  67
BRANCH  54  78
ATOM     78  C   UNL A   1      46.812  30.816  28.170  1.00  0.00     0.023 A 
ATOM     79  C   UNL A   1      46.181  31.759  27.323  1.00  0.00     0.031 A 
ATOM     80  C   UNL A   1      48.127  31.132  28.587  1.00  0.00     0.131 A 
ATOM     81  C   UNL A   1      46.863  32.942  26.931  1.00  0.00     0.055 A 
ATOM     82  C   UNL A   1      48.789  32.303  28.203  1.00  0.00     0.041 A 
ATOM     83  F   UNL A   1      48.784  30.345  29.454  1.00  0.00    -0.206 F 
ATOM     84  C   UNL A   1      48.158  33.218  27.378  1.00  0.00     0.022 A 
BRANCH  81  85
ATOM     85  S   UNL A   1      46.052  34.195  25.873  1.00  0.00     0.124 S 
ATOM     86  O   UNL A   1      45.048  33.406  25.167  1.00  0.00    -0.237 OA
ATOM     87  O   UNL A   1      45.551  35.156  26.850  1.00  0.00    -0.237 OA
ATOM     88  O   UNL A   1      47.140  34.694  25.030  1.00  0.00    -0.744 OA
ENDBRANCH  81  85
ENDBRANCH  54  78
BRANCH  66  89
ATOM     89  C   UNL A   1      45.340  25.972  31.945  1.00  0.00     0.023 A 
ATOM     90  C   UNL A   1      44.168  26.588  32.454  1.00  0.00     0.031 A 
ATOM     91  C   UNL A   1      46.340  25.630  32.869  1.00  0.00     0.131 A 
ATOM     92  C   UNL A   1      44.042  26.842  33.836  1.00  0.00     0.055 A 
ATOM     93  C   UNL A   1      46.203  25.864  34.238  1.00  0.00     0.041 A 
ATOM     94  F   UNL A   1      47.463  25.019  32.458  1.00  0.00    -0.206 F 
ATOM     95  C   UNL A   1      45.055  26.476  34.726  1.00  0.00     0.022 A 
BRANCH  92  96
ATOM     96  S   UNL A   1      42.563  27.676  34.510  1.00  0.00     0.124 S 
ATOM     97  O   UNL A   1      43.112  28.616  35.480  1.00  0.00    -0.237 OA
ATOM     98  O   UNL A   1      41.959  28.267  33.318  1.00  0.00    -0.237 OA
ATOM     99  O   UNL A   1      41.791  26.579  35.098  1.00  0.00    -0.744 OA
ENDBRANCH  92  96
ENDBRANCH  66  89
ENDBRANCH  40  41
ENDBRANCH  32  35
ENDBRANCH  30  31
ENDBRANCH  29  30
ENDBRANCH   1  29
TORSDOF 17
ENDMDL
MODEL 3
REMARK VINA RESULT:     -13.2      4.298     10.147
REMARK SMILES Cc1nn(CC(=O)NCCCNC(=O)c2ccc(-c3c4nc(c(-c5cc(S(=O)(=O)[O-])ccc5F)c5ccc([nH]5)c(-c5cc(S(=O)(=O)[O-])ccc5F)c5nc(c(-c6cc(S(=O)(=O)[O-])ccc6F)c6ccc3[nH]6)C=C5)C=C4)cc2)c(C)c1NS(=O)(=O)c1cccc2cccnc12
REMARK SMILES IDX 9 1 8 2 6 3 7 4 5 6 4 7 1 8 2 9 3 10 80 11 78 12 79 13 81 14
REMARK SMILES IDX 82 16 83 17 84 18 85 19 86 20 94 21 87 22 89 23 93 24 88 25
REMARK SMILES IDX 90 26 92 27 91 28 10 29 11 30 12 31 13 32 14 34 15 35 16 36
REMARK SMILES IDX 77 37 17 38 76 39 18 40 19 41 20 42 70 43 21 44 75 45 69 46
REMARK SMILES IDX 71 47 22 48 74 49 68 50 67 51 23 53 55 54 35 55 54 56 36 57
REMARK SMILES IDX 39 58 53 59 72 60 37 61 38 62 52 64 73 65 40 66 24 67 25 68
REMARK SMILES IDX 33 69 26 70 32 71 34 72 31 73 27 74 28 75 29 76 30 77 56 78
REMARK SMILES IDX 57 79 65 80 58 81 64 82 66 83 63 84 59 85 60 86 61 87 62 88
REMARK SMILES IDX 41 89 42 90 50 91 43 92 49 93 51 94 48 95 44 96 45 97 46 98
REMARK SMILES IDX 47 99
REMARK H PARENT 8 5 81 15 12 33 71 52 39 63
REMARK Flexibility Score: inf
ROOT
ATOM      1  C   UNL A   1      36.287  23.270  26.143  1.00  0.00     0.117 C 
ENDROOT
BRANCH   1   2
ATOM      2  N   UNL A   1      36.199  21.824  25.929  1.00  0.00    -0.354 N 
ATOM      3  C   UNL A   1      35.332  20.913  25.425  1.00  0.00     0.241 C 
ATOM      4  O   UNL A   1      35.882  19.916  24.923  1.00  0.00    -0.273 OA
ATOM      5  H   UNL A   1      37.018  21.379  26.247  1.00  0.00     0.163 HD
BRANCH   3   6
ATOM      6  C   UNL A   1      33.830  20.989  25.304  1.00  0.00     0.244 C 
BRANCH   6   7
ATOM      7  N   UNL A   1      33.281  22.195  24.742  1.00  0.00    -0.258 N 
ATOM      8  C   UNL A   1      32.931  24.418  22.056  1.00  0.00     0.071 C 
ATOM      9  C   UNL A   1      32.767  23.591  23.277  1.00  0.00     0.084 A 
ATOM     10  N   UNL A   1      33.716  22.690  23.571  1.00  0.00    -0.175 NA
ATOM     11  C   UNL A   1      31.753  23.607  24.295  1.00  0.00     0.093 A 
ATOM     12  C   UNL A   1      32.444  23.091  25.362  1.00  0.00     0.060 A 
ATOM     13  C   UNL A   1      32.475  23.419  26.800  1.00  0.00     0.069 C 
BRANCH  11  14
ATOM     14  N   UNL A   1      30.513  24.232  24.223  1.00  0.00    -0.276 N 
ATOM     15  H   UNL A   1      29.793  23.696  23.821  1.00  0.00     0.180 HD
BRANCH  14  16
ATOM     16  S   UNL A   1      30.068  25.788  24.732  1.00  0.00     0.264 S 
ATOM     17  O   UNL A   1      28.972  26.082  23.817  1.00  0.00    -0.201 OA
ATOM     18  O   UNL A   1      29.770  25.697  26.145  1.00  0.00    -0.201 OA
BRANCH  16  19
ATOM     19  C   UNL A   1      31.248  27.104  24.488  1.00  0.00     0.114 A 
ATOM     20  C   UNL A   1      31.280  27.620  23.171  1.00  0.00     0.024 A 
ATOM     21  C   UNL A   1      32.032  27.722  25.478  1.00  0.00     0.091 A 
ATOM     22  C   UNL A   1      32.223  28.556  22.778  1.00  0.00     0.002 A 
ATOM     23  C   UNL A   1      33.124  28.507  24.998  1.00  0.00     0.002 A 
ATOM     24  N   UNL A   1      31.826  27.700  26.815  1.00  0.00    -0.255 NA
ATOM     25  C   UNL A   1      33.215  28.910  23.668  1.00  0.00     0.010 A 
ATOM     26  C   UNL A   1      34.123  28.952  25.868  1.00  0.00     0.012 A 
ATOM     27  C   UNL A   1      32.668  28.429  27.606  1.00  0.00     0.112 A 
ATOM     28  C   UNL A   1      33.888  28.928  27.219  1.00  0.00     0.021 A 
ENDBRANCH  16  19
ENDBRANCH  14  16
ENDBRANCH  11  14
ENDBRANCH   6   7
ENDBRANCH   3   6
ENDBRANCH   1   2
BRANCH   1  29
ATOM     29  C   UNL A   1      37.526  24.079  25.775  1.00  0.00     0.042 C 
BRANCH  29  30
ATOM     30  C   UNL A   1      38.788  23.740  26.615  1.00  0.00     0.118 C 
BRANCH  30  31
ATOM     31  N   UNL A   1      40.104  24.175  26.085  1.00  0.00    -0.352 N 
ATOM     32  C   UNL A   1      40.600  25.485  26.020  1.00  0.00     0.251 C 
ATOM     33  H   UNL A   1      40.693  23.466  25.742  1.00  0.00     0.163 HD
ATOM     34  O   UNL A   1      41.449  25.824  25.191  1.00  0.00    -0.269 OA
BRANCH  32  35
ATOM     35  C   UNL A   1      40.146  26.435  27.050  1.00  0.00     0.039 A 
ATOM     36  C   UNL A   1      39.660  26.127  28.329  1.00  0.00     0.014 A 
ATOM     37  C   UNL A   1      40.398  27.742  26.687  1.00  0.00     0.014 A 
ATOM     38  C   UNL A   1      39.537  27.166  29.263  1.00  0.00     0.010 A 
ATOM     39  C   UNL A   1      40.617  28.637  27.678  1.00  0.00     0.010 A 
ATOM     40  C   UNL A   1      40.041  28.425  28.920  1.00  0.00    -0.014 A 
BRANCH  40  41
ATOM     41  C   UNL A   1      40.151  29.591  29.789  1.00  0.00     0.031 A 
ATOM     42  C   UNL A   1      38.856  30.280  30.036  1.00  0.00     0.074 A 
ATOM     43  C   UNL A   1      41.210  29.682  30.637  1.00  0.00     0.049 A 
ATOM     44  N   UNL A   1      38.479  31.442  29.615  1.00  0.00    -0.248 NA
ATOM     45  C   UNL A   1      37.760  29.508  30.659  1.00  0.00     0.031 C 
ATOM     46  C   UNL A   1      42.378  28.787  30.744  1.00  0.00     0.029 A 
ATOM     47  N   UNL A   1      41.393  30.497  31.706  1.00  0.00    -0.354 N 
ATOM     48  C   UNL A   1      37.223  31.652  30.179  1.00  0.00     0.074 A 
ATOM     49  C   UNL A   1      36.733  30.347  30.518  1.00  0.00     0.031 C 
ATOM     50  C   UNL A   1      42.991  28.962  31.938  1.00  0.00     0.029 A 
ATOM     51  C   UNL A   1      42.383  30.097  32.607  1.00  0.00     0.049 A 
ATOM     52  H   UNL A   1      40.864  31.316  31.838  1.00  0.00     0.167 HD
ATOM     53  C   UNL A   1      36.839  32.886  30.617  1.00  0.00     0.034 A 
ATOM     54  C   UNL A   1      42.670  30.654  33.818  1.00  0.00     0.034 A 
ATOM     55  C   UNL A   1      37.782  33.892  30.175  1.00  0.00     0.049 A 
ATOM     56  C   UNL A   1      42.068  32.015  33.791  1.00  0.00     0.074 A 
ATOM     57  C   UNL A   1      38.262  34.294  28.943  1.00  0.00     0.029 A 
ATOM     58  N   UNL A   1      38.717  34.332  31.092  1.00  0.00    -0.354 N 
ATOM     59  N   UNL A   1      42.450  32.943  32.953  1.00  0.00    -0.248 NA
ATOM     60  C   UNL A   1      40.704  32.159  34.283  1.00  0.00     0.031 C 
ATOM     61  C   UNL A   1      39.666  34.453  29.138  1.00  0.00     0.029 A 
ATOM     62  C   UNL A   1      39.953  34.268  30.493  1.00  0.00     0.049 A 
ATOM     63  H   UNL A   1      38.531  34.638  32.009  1.00  0.00     0.167 HD
ATOM     64  C   UNL A   1      41.276  33.506  32.472  1.00  0.00     0.074 A 
ATOM     65  C   UNL A   1      40.236  33.047  33.397  1.00  0.00     0.031 C 
ATOM     66  C   UNL A   1      41.197  34.015  31.204  1.00  0.00     0.034 A 
BRANCH  53  67
ATOM     67  C   UNL A   1      35.862  33.164  31.744  1.00  0.00     0.023 A 
ATOM     68  C   UNL A   1      34.762  33.994  31.445  1.00  0.00     0.031 A 
ATOM     69  C   UNL A   1      36.066  32.900  33.118  1.00  0.00     0.131 A 
ATOM     70  C   UNL A   1      34.000  34.588  32.465  1.00  0.00     0.055 A 
ATOM     71  C   UNL A   1      35.263  33.440  34.128  1.00  0.00     0.041 A 
ATOM     72  F   UNL A   1      37.097  32.186  33.580  1.00  0.00    -0.206 F 
ATOM     73  C   UNL A   1      34.242  34.317  33.808  1.00  0.00     0.022 A 
BRANCH  70  74
ATOM     74  S   UNL A   1      32.799  35.866  32.011  1.00  0.00     0.124 S 
ATOM     75  O   UNL A   1      32.932  35.893  30.558  1.00  0.00    -0.237 OA
ATOM     76  O   UNL A   1      31.557  35.308  32.536  1.00  0.00    -0.237 OA
ATOM     77  O   UNL A   1      33.291  37.054  32.704  1.00  0.00    -0.744 OA
ENDBRANCH  70  74
ENDBRANCH  53  67
BRANCH  54  78
ATOM     78  C   UNL A   1      43.092  29.952  35.072  1.00  0.00     0.023 A 
ATOM     79  C   UNL A   1      42.580  28.702  35.497  1.00  0.00     0.031 A 
ATOM     80  C   UNL A   1      44.225  30.432  35.772  1.00  0.00     0.131 A 
ATOM     81  C   UNL A   1      43.192  28.002  36.571  1.00  0.00     0.055 A 
ATOM     82  C   UNL A   1      44.826  29.734  36.824  1.00  0.00     0.041 A 
ATOM     83  F   UNL A   1      44.836  31.567  35.397  1.00  0.00    -0.206 F 
ATOM     84  C   UNL A   1      44.317  28.511  37.225  1.00  0.00     0.022 A 
BRANCH  81  85
ATOM     85  S   UNL A   1      42.573  26.366  37.108  1.00  0.00     0.124 S 
ATOM     86  O   UNL A   1      41.126  26.536  37.026  1.00  0.00    -0.237 OA
ATOM     87  O   UNL A   1      43.177  25.466  36.132  1.00  0.00    -0.237 OA
ATOM     88  O   UNL A   1      43.095  26.228  38.469  1.00  0.00    -0.744 OA
ENDBRANCH  81  85
ENDBRANCH  54  78
BRANCH  66  89
ATOM     89  C   UNL A   1      42.483  34.154  30.399  1.00  0.00     0.023 A 
ATOM     90  C   UNL A   1      42.935  33.247  29.407  1.00  0.00     0.031 A 
ATOM     91  C   UNL A   1      43.211  35.345  30.561  1.00  0.00     0.131 A 
ATOM     92  C   UNL A   1      44.078  33.549  28.635  1.00  0.00     0.055 A 
ATOM     93  C   UNL A   1      44.327  35.649  29.782  1.00  0.00     0.041 A 
ATOM     94  F   UNL A   1      42.821  36.261  31.463  1.00  0.00    -0.206 F 
ATOM     95  C   UNL A   1      44.768  34.750  28.819  1.00  0.00     0.022 A 
BRANCH  92  96
ATOM     96  S   UNL A   1      44.707  32.375  27.384  1.00  0.00     0.124 S 
ATOM     97  O   UNL A   1      46.136  32.311  27.665  1.00  0.00    -0.237 OA
ATOM     98  O   UNL A   1      43.944  31.164  27.672  1.00  0.00    -0.237 OA
ATOM     99  O   UNL A   1      44.366  33.017  26.113  1.00  0.00    -0.744 OA
ENDBRANCH  92  96
ENDBRANCH  66  89
ENDBRANCH  40  41
ENDBRANCH  32  35
ENDBRANCH  30  31
ENDBRANCH  29  30
ENDBRANCH   1  29
TORSDOF 17
ENDMDL
