MODEL 1
REMARK VINA RESULT:     -13.2      0.000      0.000
REMARK SMILES Cc1cc(F)c([C@@](C)(C(=O)NCCCNC(=O)c2ccc(-c3c4nc(c(-c5cc(S(=O)(=O)[O-])ccc5F)c5ccc([nH]5)c(-c5cc(S(=O)(=O)[O-])ccc5F)c5nc(c(-c6cc(S(=O)(=O)[O-])ccc6F)c6ccc3[nH]6)C=C5)C=C4)cc2)[NH+]2CC[NH2+]CC2)cc1F
REMARK SMILES IDX 14 1 13 2 12 3 11 4 9 5 10 6 7 8 8 9 6 10 1 11 2 12 3 13
REMARK SMILES IDX 88 14 4 15 87 16 89 17 5 18 81 19 82 20 86 21 83 23 85 24
REMARK SMILES IDX 84 25 15 28 16 29 17 31 18 32 19 33 80 34 20 35 79 36 21 37
REMARK SMILES IDX 22 38 23 39 73 40 24 41 78 42 72 43 74 44 25 45 77 46 71 47
REMARK SMILES IDX 70 48 26 50 58 51 38 52 57 53 39 54 42 55 56 56 75 57 40 58
REMARK SMILES IDX 41 59 55 61 76 62 43 63 27 64 28 65 36 66 29 67 35 68 37 69
REMARK SMILES IDX 34 70 30 71 31 72 32 73 33 74 59 75 60 76 68 77 61 78 67 79
REMARK SMILES IDX 69 80 66 81 62 82 63 83 64 84 65 85 44 86 45 87 53 88 46 89
REMARK SMILES IDX 52 90 54 91 51 92 47 93 48 94 49 95 50 96
REMARK H PARENT 11 7 81 22 84 26 84 27 15 30 74 49 42 60
REMARK Flexibility Score: inf
ROOT
ATOM      1  C   UNL A   1      37.424  22.184  25.373  1.00  0.00     0.118 C 
ENDROOT
BRANCH   1   2
ATOM      2  C   UNL A   1      36.898  21.916  23.973  1.00  0.00     0.042 C 
BRANCH   2   3
ATOM      3  C   UNL A   1      35.961  23.009  23.470  1.00  0.00     0.118 C 
BRANCH   3   4
ATOM      4  N   UNL A   1      35.204  23.574  24.561  1.00  0.00    -0.350 N 
ATOM      5  C   UNL A   1      33.973  23.420  25.093  1.00  0.00     0.286 C 
ATOM      6  O   UNL A   1      33.881  24.135  26.112  1.00  0.00    -0.267 OA
ATOM      7  H   UNL A   1      35.725  24.253  25.048  1.00  0.00     0.163 HD
BRANCH   5   8
ATOM      8  C   UNL A   1      32.774  22.391  24.678  1.00  0.00     0.203 C 
ATOM      9  C   UNL A   1      31.751  22.487  25.831  1.00  0.00     0.096 C 
BRANCH   8  10
ATOM     10  C   UNL A   1      33.123  20.885  24.436  1.00  0.00     0.060 A 
ATOM     11  C   UNL A   1      34.087  16.768  23.267  1.00  0.00     0.047 C 
ATOM     12  C   UNL A   1      33.750  18.152  23.714  1.00  0.00    -0.012 A 
ATOM     13  C   UNL A   1      34.474  18.833  24.688  1.00  0.00     0.046 A 
ATOM     14  C   UNL A   1      32.612  18.772  23.247  1.00  0.00     0.126 A 
ATOM     15  C   UNL A   1      34.113  20.141  25.072  1.00  0.00     0.133 A 
ATOM     16  C   UNL A   1      32.311  20.083  23.616  1.00  0.00     0.053 A 
ATOM     17  F   UNL A   1      31.767  18.123  22.435  1.00  0.00    -0.207 F 
ATOM     18  F   UNL A   1      34.678  20.582  26.193  1.00  0.00    -0.206 F 
ENDBRANCH   8  10
BRANCH   8  19
ATOM     19  N   UNL A   1      32.212  22.988  23.409  1.00  0.00    -0.309 N 
ATOM     20  C   UNL A   1      30.913  23.670  23.434  1.00  0.00     0.325 C 
ATOM     21  C   UNL A   1      32.934  23.174  22.166  1.00  0.00     0.325 C 
ATOM     22  H   UNL A   1      32.288  21.970  23.417  1.00  0.00     0.349 HD
ATOM     23  C   UNL A   1      30.965  25.155  23.028  1.00  0.00     0.322 C 
ATOM     24  C   UNL A   1      32.945  24.638  21.639  1.00  0.00     0.322 C 
ATOM     25  N   UNL A   1      31.742  25.466  21.821  1.00  0.00    -0.337 N 
ATOM     26  H   UNL A   1      32.032  26.443  21.871  1.00  0.00     0.346 HD
ATOM     27  H   UNL A   1      31.133  25.273  21.026  1.00  0.00     0.346 HD
ENDBRANCH   8  19
ENDBRANCH   5   8
ENDBRANCH   3   4
ENDBRANCH   2   3
ENDBRANCH   1   2
BRANCH   1  28
ATOM     28  N   UNL A   1      38.384  21.168  25.793  1.00  0.00    -0.352 N 
ATOM     29  C   UNL A   1      39.625  21.308  26.367  1.00  0.00     0.251 C 
ATOM     30  H   UNL A   1      38.100  20.239  25.641  1.00  0.00     0.163 HD
ATOM     31  O   UNL A   1      40.387  20.340  26.392  1.00  0.00    -0.269 OA
BRANCH  29  32
ATOM     32  C   UNL A   1      40.052  22.610  26.923  1.00  0.00     0.039 A 
ATOM     33  C   UNL A   1      39.496  23.797  26.451  1.00  0.00     0.014 A 
ATOM     34  C   UNL A   1      41.020  22.654  27.931  1.00  0.00     0.014 A 
ATOM     35  C   UNL A   1      40.059  25.013  26.808  1.00  0.00     0.010 A 
ATOM     36  C   UNL A   1      41.486  23.889  28.397  1.00  0.00     0.010 A 
ATOM     37  C   UNL A   1      41.052  25.080  27.797  1.00  0.00    -0.014 A 
BRANCH  37  38
ATOM     38  C   UNL A   1      41.593  26.414  28.182  1.00  0.00     0.031 A 
ATOM     39  C   UNL A   1      42.981  26.837  27.781  1.00  0.00     0.074 A 
ATOM     40  C   UNL A   1      40.789  27.275  28.840  1.00  0.00     0.049 A 
ATOM     41  N   UNL A   1      43.578  27.983  27.981  1.00  0.00    -0.248 NA
ATOM     42  C   UNL A   1      43.812  25.849  27.076  1.00  0.00     0.031 C 
ATOM     43  C   UNL A   1      39.427  26.970  29.283  1.00  0.00     0.029 A 
ATOM     44  N   UNL A   1      40.971  28.583  29.215  1.00  0.00    -0.354 N 
ATOM     45  C   UNL A   1      44.856  27.850  27.448  1.00  0.00     0.074 A 
ATOM     46  C   UNL A   1      44.964  26.496  26.954  1.00  0.00     0.031 C 
ATOM     47  C   UNL A   1      38.870  28.076  29.792  1.00  0.00     0.029 A 
ATOM     48  C   UNL A   1      39.861  29.146  29.804  1.00  0.00     0.049 A 
ATOM     49  H   UNL A   1      41.814  29.071  29.077  1.00  0.00     0.167 HD
ATOM     50  C   UNL A   1      45.837  28.780  27.361  1.00  0.00     0.034 A 
ATOM     51  C   UNL A   1      39.658  30.380  30.309  1.00  0.00     0.034 A 
ATOM     52  C   UNL A   1      45.700  30.133  27.839  1.00  0.00     0.049 A 
ATOM     53  C   UNL A   1      40.772  31.388  30.216  1.00  0.00     0.074 A 
ATOM     54  C   UNL A   1      46.628  31.158  27.774  1.00  0.00     0.029 A 
ATOM     55  N   UNL A   1      44.573  30.656  28.458  1.00  0.00    -0.354 N 
ATOM     56  N   UNL A   1      41.956  31.256  29.668  1.00  0.00    -0.248 NA
ATOM     57  C   UNL A   1      40.526  32.713  30.800  1.00  0.00     0.031 C 
ATOM     58  C   UNL A   1      46.096  32.271  28.422  1.00  0.00     0.029 A 
ATOM     59  C   UNL A   1      44.795  31.980  28.805  1.00  0.00     0.049 A 
ATOM     60  H   UNL A   1      43.740  30.160  28.627  1.00  0.00     0.167 HD
ATOM     61  C   UNL A   1      42.589  32.486  29.818  1.00  0.00     0.074 A 
ATOM     62  C   UNL A   1      41.641  33.358  30.481  1.00  0.00     0.031 C 
ATOM     63  C   UNL A   1      43.841  32.854  29.447  1.00  0.00     0.034 A 
BRANCH  50  64
ATOM     64  C   UNL A   1      47.153  28.395  26.723  1.00  0.00     0.023 A 
ATOM     65  C   UNL A   1      47.252  28.300  25.321  1.00  0.00     0.031 A 
ATOM     66  C   UNL A   1      48.256  27.986  27.493  1.00  0.00     0.131 A 
ATOM     67  C   UNL A   1      48.407  27.765  24.737  1.00  0.00     0.055 A 
ATOM     68  C   UNL A   1      49.426  27.503  26.903  1.00  0.00     0.041 A 
ATOM     69  F   UNL A   1      48.217  28.053  28.834  1.00  0.00    -0.206 F 
ATOM     70  C   UNL A   1      49.498  27.376  25.520  1.00  0.00     0.022 A 
BRANCH  67  71
ATOM     71  S   UNL A   1      48.505  27.477  22.949  1.00  0.00     0.124 S 
ATOM     72  O   UNL A   1      47.350  28.228  22.461  1.00  0.00    -0.237 OA
ATOM     73  O   UNL A   1      49.806  28.050  22.619  1.00  0.00    -0.237 OA
ATOM     74  O   UNL A   1      48.402  26.028  22.820  1.00  0.00    -0.744 OA
ENDBRANCH  67  71
ENDBRANCH  50  64
BRANCH  51  75
ATOM     75  C   UNL A   1      38.326  30.714  30.899  1.00  0.00     0.023 A 
ATOM     76  C   UNL A   1      37.330  31.336  30.122  1.00  0.00     0.031 A 
ATOM     77  C   UNL A   1      38.073  30.533  32.268  1.00  0.00     0.131 A 
ATOM     78  C   UNL A   1      36.172  31.831  30.735  1.00  0.00     0.055 A 
ATOM     79  C   UNL A   1      36.880  30.949  32.860  1.00  0.00     0.041 A 
ATOM     80  F   UNL A   1      38.996  29.959  33.058  1.00  0.00    -0.206 F 
ATOM     81  C   UNL A   1      35.930  31.623  32.096  1.00  0.00     0.022 A 
BRANCH  78  82
ATOM     82  S   UNL A   1      35.023  32.896  29.821  1.00  0.00     0.124 S 
ATOM     83  O   UNL A   1      35.918  33.904  29.264  1.00  0.00    -0.237 OA
ATOM     84  O   UNL A   1      34.451  31.957  28.858  1.00  0.00    -0.237 OA
ATOM     85  O   UNL A   1      34.100  33.368  30.847  1.00  0.00    -0.744 OA
ENDBRANCH  78  82
ENDBRANCH  51  75
BRANCH  63  86
ATOM     86  C   UNL A   1      44.288  34.273  29.715  1.00  0.00     0.023 A 
ATOM     87  C   UNL A   1      44.116  35.258  28.722  1.00  0.00     0.031 A 
ATOM     88  C   UNL A   1      45.018  34.614  30.865  1.00  0.00     0.131 A 
ATOM     89  C   UNL A   1      44.705  36.518  28.877  1.00  0.00     0.055 A 
ATOM     90  C   UNL A   1      45.553  35.891  31.044  1.00  0.00     0.041 A 
ATOM     91  F   UNL A   1      45.227  33.708  31.835  1.00  0.00    -0.206 F 
ATOM     92  C   UNL A   1      45.411  36.845  30.039  1.00  0.00     0.022 A 
BRANCH  89  93
ATOM     93  S   UNL A   1      44.672  37.739  27.535  1.00  0.00     0.124 S 
ATOM     94  O   UNL A   1      43.381  37.462  26.908  1.00  0.00    -0.237 OA
ATOM     95  O   UNL A   1      44.752  39.000  28.266  1.00  0.00    -0.237 OA
ATOM     96  O   UNL A   1      45.840  37.406  26.727  1.00  0.00    -0.744 OA
ENDBRANCH  89  93
ENDBRANCH  63  86
ENDBRANCH  37  38
ENDBRANCH  29  32
ENDBRANCH   1  28
TORSDOF 15
ENDMDL
MODEL 2
REMARK VINA RESULT:     -13.1      2.082      3.443
REMARK SMILES Cc1cc(F)c([C@@](C)(C(=O)NCCCNC(=O)c2ccc(-c3c4nc(c(-c5cc(S(=O)(=O)[O-])ccc5F)c5ccc([nH]5)c(-c5cc(S(=O)(=O)[O-])ccc5F)c5nc(c(-c6cc(S(=O)(=O)[O-])ccc6F)c6ccc3[nH]6)C=C5)C=C4)cc2)[NH+]2CC[NH2+]CC2)cc1F
REMARK SMILES IDX 14 1 13 2 12 3 11 4 9 5 10 6 7 8 8 9 6 10 1 11 2 12 3 13
REMARK SMILES IDX 88 14 4 15 87 16 89 17 5 18 81 19 82 20 86 21 83 23 85 24
REMARK SMILES IDX 84 25 15 28 16 29 17 31 18 32 19 33 80 34 20 35 79 36 21 37
REMARK SMILES IDX 22 38 23 39 73 40 24 41 78 42 72 43 74 44 25 45 77 46 71 47
REMARK SMILES IDX 70 48 26 50 58 51 38 52 57 53 39 54 42 55 56 56 75 57 40 58
REMARK SMILES IDX 41 59 55 61 76 62 43 63 27 64 28 65 36 66 29 67 35 68 37 69
REMARK SMILES IDX 34 70 30 71 31 72 32 73 33 74 59 75 60 76 68 77 61 78 67 79
REMARK SMILES IDX 69 80 66 81 62 82 63 83 64 84 65 85 44 86 45 87 53 88 46 89
REMARK SMILES IDX 52 90 54 91 51 92 47 93 48 94 49 95 50 96
REMARK H PARENT 11 7 81 22 84 26 84 27 15 30 74 49 42 60
REMARK Flexibility Score: inf
ROOT
ATOM      1  C   UNL A   1      36.553  22.004  25.481  1.00  0.00     0.118 C 
ENDROOT
BRANCH   1   2
ATOM      2  C   UNL A   1      35.266  21.640  26.201  1.00  0.00     0.042 C 
BRANCH   2   3
ATOM      3  C   UNL A   1      34.020  21.903  25.363  1.00  0.00     0.118 C 
BRANCH   3   4
ATOM      4  N   UNL A   1      33.099  22.759  26.073  1.00  0.00    -0.350 N 
ATOM      5  C   UNL A   1      32.741  24.060  26.049  1.00  0.00     0.286 C 
ATOM      6  O   UNL A   1      31.807  24.237  26.858  1.00  0.00    -0.267 OA
ATOM      7  H   UNL A   1      32.598  22.259  26.758  1.00  0.00     0.163 HD
BRANCH   5   8
ATOM      8  C   UNL A   1      33.242  25.266  25.067  1.00  0.00     0.203 C 
ATOM      9  C   UNL A   1      34.777  25.105  24.991  1.00  0.00     0.096 C 
BRANCH   8  10
ATOM     10  C   UNL A   1      32.907  26.743  25.457  1.00  0.00     0.060 A 
ATOM     11  C   UNL A   1      32.115  30.767  27.015  1.00  0.00     0.047 C 
ATOM     12  C   UNL A   1      32.358  29.411  26.442  1.00  0.00    -0.012 A 
ATOM     13  C   UNL A   1      33.071  29.200  25.265  1.00  0.00     0.046 A 
ATOM     14  C   UNL A   1      31.770  28.303  27.012  1.00  0.00     0.126 A 
ATOM     15  C   UNL A   1      33.273  27.896  24.767  1.00  0.00     0.133 A 
ATOM     16  C   UNL A   1      32.028  27.024  26.518  1.00  0.00     0.053 A 
ATOM     17  F   UNL A   1      30.931  28.434  28.048  1.00  0.00    -0.207 F 
ATOM     18  F   UNL A   1      33.705  27.826  23.511  1.00  0.00    -0.206 F 
ENDBRANCH   8  10
BRANCH   8  19
ATOM     19  N   UNL A   1      32.600  24.938  23.739  1.00  0.00    -0.309 N 
ATOM     20  C   UNL A   1      31.183  25.245  23.516  1.00  0.00     0.325 C 
ATOM     21  C   UNL A   1      33.300  24.547  22.532  1.00  0.00     0.325 C 
ATOM     22  H   UNL A   1      32.898  24.133  24.292  1.00  0.00     0.349 HD
ATOM     23  C   UNL A   1      30.919  26.235  22.365  1.00  0.00     0.322 C 
ATOM     24  C   UNL A   1      33.005  25.445  21.296  1.00  0.00     0.322 C 
ATOM     25  N   UNL A   1      31.644  25.977  21.114  1.00  0.00    -0.337 N 
ATOM     26  H   UNL A   1      31.711  26.854  20.597  1.00  0.00     0.346 HD
ATOM     27  H   UNL A   1      31.116  25.260  20.615  1.00  0.00     0.346 HD
ENDBRANCH   8  19
ENDBRANCH   5   8
ENDBRANCH   3   4
ENDBRANCH   2   3
ENDBRANCH   1   2
BRANCH   1  28
ATOM     28  N   UNL A   1      37.558  20.953  25.605  1.00  0.00    -0.352 N 
ATOM     29  C   UNL A   1      38.890  21.036  25.931  1.00  0.00     0.251 C 
ATOM     30  H   UNL A   1      37.230  20.042  25.426  1.00  0.00     0.163 HD
ATOM     31  O   UNL A   1      39.623  20.069  25.714  1.00  0.00    -0.269 OA
BRANCH  29  32
ATOM     32  C   UNL A   1      39.443  22.278  26.511  1.00  0.00     0.039 A 
ATOM     33  C   UNL A   1      38.959  23.522  26.113  1.00  0.00     0.014 A 
ATOM     34  C   UNL A   1      40.461  22.208  27.468  1.00  0.00     0.014 A 
ATOM     35  C   UNL A   1      39.632  24.676  26.483  1.00  0.00     0.010 A 
ATOM     36  C   UNL A   1      41.044  23.384  27.953  1.00  0.00     0.010 A 
ATOM     37  C   UNL A   1      40.675  24.628  27.421  1.00  0.00    -0.014 A 
BRANCH  37  38
ATOM     38  C   UNL A   1      41.336  25.900  27.826  1.00  0.00     0.031 A 
ATOM     39  C   UNL A   1      42.729  26.236  27.362  1.00  0.00     0.074 A 
ATOM     40  C   UNL A   1      40.637  26.790  28.561  1.00  0.00     0.049 A 
ATOM     41  N   UNL A   1      43.422  27.325  27.572  1.00  0.00    -0.248 NA
ATOM     42  C   UNL A   1      43.443  25.220  26.573  1.00  0.00     0.031 C 
ATOM     43  C   UNL A   1      39.282  26.568  29.069  1.00  0.00     0.029 A 
ATOM     44  N   UNL A   1      40.939  28.064  28.975  1.00  0.00    -0.354 N 
ATOM     45  C   UNL A   1      44.655  27.120  26.961  1.00  0.00     0.074 A 
ATOM     46  C   UNL A   1      44.633  25.784  26.410  1.00  0.00     0.031 C 
ATOM     47  C   UNL A   1      38.840  27.690  29.651  1.00  0.00     0.029 A 
ATOM     48  C   UNL A   1      39.909  28.683  29.647  1.00  0.00     0.049 A 
ATOM     49  H   UNL A   1      41.809  28.493  28.807  1.00  0.00     0.167 HD
ATOM     50  C   UNL A   1      45.699  27.977  26.853  1.00  0.00     0.034 A 
ATOM     51  C   UNL A   1      39.829  29.905  30.210  1.00  0.00     0.034 A 
ATOM     52  C   UNL A   1      45.692  29.315  27.390  1.00  0.00     0.049 A 
ATOM     53  C   UNL A   1      41.010  30.831  30.092  1.00  0.00     0.074 A 
ATOM     54  C   UNL A   1      46.691  30.270  27.312  1.00  0.00     0.029 A 
ATOM     55  N   UNL A   1      44.644  29.894  28.093  1.00  0.00    -0.354 N 
ATOM     56  N   UNL A   1      42.150  30.635  29.473  1.00  0.00    -0.248 NA
ATOM     57  C   UNL A   1      40.899  32.144  30.740  1.00  0.00     0.031 C 
ATOM     58  C   UNL A   1      46.281  31.391  28.031  1.00  0.00     0.029 A 
ATOM     59  C   UNL A   1      44.985  31.181  28.477  1.00  0.00     0.049 A 
ATOM     60  H   UNL A   1      43.785  29.455  28.289  1.00  0.00     0.167 HD
ATOM     61  C   UNL A   1      42.881  31.807  29.633  1.00  0.00     0.074 A 
ATOM     62  C   UNL A   1      42.041  32.718  30.382  1.00  0.00     0.031 C 
ATOM     63  C   UNL A   1      44.136  32.096  29.205  1.00  0.00     0.034 A 
BRANCH  50  64
ATOM     64  C   UNL A   1      46.945  27.523  26.127  1.00  0.00     0.023 A 
ATOM     65  C   UNL A   1      47.144  27.886  24.781  1.00  0.00     0.031 A 
ATOM     66  C   UNL A   1      47.854  26.623  26.711  1.00  0.00     0.131 A 
ATOM     67  C   UNL A   1      48.195  27.318  24.052  1.00  0.00     0.055 A 
ATOM     68  C   UNL A   1      48.932  26.099  25.994  1.00  0.00     0.041 A 
ATOM     69  F   UNL A   1      47.712  26.240  27.991  1.00  0.00    -0.206 F 
ATOM     70  C   UNL A   1      49.096  26.434  24.654  1.00  0.00     0.022 A 
BRANCH  67  71
ATOM     71  S   UNL A   1      48.384  27.636  22.276  1.00  0.00     0.124 S 
ATOM     72  O   UNL A   1      47.161  28.375  21.973  1.00  0.00    -0.237 OA
ATOM     73  O   UNL A   1      49.614  28.422  22.237  1.00  0.00    -0.237 OA
ATOM     74  O   UNL A   1      48.466  26.304  21.687  1.00  0.00    -0.744 OA
ENDBRANCH  67  71
ENDBRANCH  50  64
BRANCH  51  75
ATOM     75  C   UNL A   1      38.561  30.312  30.888  1.00  0.00     0.023 A 
ATOM     76  C   UNL A   1      37.533  30.953  30.168  1.00  0.00     0.031 A 
ATOM     77  C   UNL A   1      38.406  30.180  32.277  1.00  0.00     0.131 A 
ATOM     78  C   UNL A   1      36.447  31.514  30.851  1.00  0.00     0.055 A 
ATOM     79  C   UNL A   1      37.279  30.663  32.943  1.00  0.00     0.041 A 
ATOM     80  F   UNL A   1      39.363  29.591  33.012  1.00  0.00    -0.206 F 
ATOM     81  C   UNL A   1      36.301  31.355  32.232  1.00  0.00     0.022 A 
BRANCH  78  82
ATOM     82  S   UNL A   1      35.275  32.600  29.992  1.00  0.00     0.124 S 
ATOM     83  O   UNL A   1      36.120  33.731  29.624  1.00  0.00    -0.237 OA
ATOM     84  O   UNL A   1      34.838  31.751  28.887  1.00  0.00    -0.237 OA
ATOM     85  O   UNL A   1      34.256  32.873  31.001  1.00  0.00    -0.744 OA
ENDBRANCH  78  82
ENDBRANCH  51  75
BRANCH  63  86
ATOM     86  C   UNL A   1      44.705  33.465  29.501  1.00  0.00     0.023 A 
ATOM     87  C   UNL A   1      44.460  34.530  28.611  1.00  0.00     0.031 A 
ATOM     88  C   UNL A   1      45.606  33.680  30.557  1.00  0.00     0.131 A 
ATOM     89  C   UNL A   1      45.143  35.741  28.765  1.00  0.00     0.055 A 
ATOM     90  C   UNL A   1      46.239  34.910  30.744  1.00  0.00     0.041 A 
ATOM     91  F   UNL A   1      45.888  32.694  31.425  1.00  0.00    -0.206 F 
ATOM     92  C   UNL A   1      46.022  35.942  29.835  1.00  0.00     0.022 A 
BRANCH  89  93
ATOM     93  S   UNL A   1      45.003  37.059  27.526  1.00  0.00     0.124 S 
ATOM     94  O   UNL A   1      45.055  38.260  28.356  1.00  0.00    -0.237 OA
ATOM     95  O   UNL A   1      46.180  36.825  26.694  1.00  0.00    -0.237 OA
ATOM     96  O   UNL A   1      43.718  36.803  26.883  1.00  0.00    -0.744 OA
ENDBRANCH  89  93
ENDBRANCH  63  86
ENDBRANCH  37  38
ENDBRANCH  29  32
ENDBRANCH   1  28
TORSDOF 15
ENDMDL
MODEL 3
REMARK VINA RESULT:     -13.1      5.186     10.020
REMARK SMILES Cc1cc(F)c([C@@](C)(C(=O)NCCCNC(=O)c2ccc(-c3c4nc(c(-c5cc(S(=O)(=O)[O-])ccc5F)c5ccc([nH]5)c(-c5cc(S(=O)(=O)[O-])ccc5F)c5nc(c(-c6cc(S(=O)(=O)[O-])ccc6F)c6ccc3[nH]6)C=C5)C=C4)cc2)[NH+]2CC[NH2+]CC2)cc1F
REMARK SMILES IDX 14 1 13 2 12 3 11 4 9 5 10 6 7 8 8 9 6 10 1 11 2 12 3 13
REMARK SMILES IDX 88 14 4 15 87 16 89 17 5 18 81 19 82 20 86 21 83 23 85 24
REMARK SMILES IDX 84 25 15 28 16 29 17 31 18 32 19 33 80 34 20 35 79 36 21 37
REMARK SMILES IDX 22 38 23 39 73 40 24 41 78 42 72 43 74 44 25 45 77 46 71 47
REMARK SMILES IDX 70 48 26 50 58 51 38 52 57 53 39 54 42 55 56 56 75 57 40 58
REMARK SMILES IDX 41 59 55 61 76 62 43 63 27 64 28 65 36 66 29 67 35 68 37 69
REMARK SMILES IDX 34 70 30 71 31 72 32 73 33 74 59 75 60 76 68 77 61 78 67 79
REMARK SMILES IDX 69 80 66 81 62 82 63 83 64 84 65 85 44 86 45 87 53 88 46 89
REMARK SMILES IDX 52 90 54 91 51 92 47 93 48 94 49 95 50 96
REMARK H PARENT 11 7 81 22 84 26 84 27 15 30 74 49 42 60
REMARK Flexibility Score: inf
ROOT
ATOM      1  C   UNL A   1      32.751  30.187  26.408  1.00  0.00     0.118 C 
ENDROOT
BRANCH   1   2
ATOM      2  C   UNL A   1      31.786  29.349  27.230  1.00  0.00     0.042 C 
BRANCH   2   3
ATOM      3  C   UNL A   1      32.254  27.910  27.412  1.00  0.00     0.118 C 
BRANCH   3   4
ATOM      4  N   UNL A   1      31.171  26.987  27.174  1.00  0.00    -0.350 N 
ATOM      5  C   UNL A   1      30.700  26.262  26.136  1.00  0.00     0.286 C 
ATOM      6  O   UNL A   1      29.752  25.555  26.535  1.00  0.00    -0.267 OA
ATOM      7  H   UNL A   1      30.630  26.849  27.985  1.00  0.00     0.163 HD
BRANCH   5   8
ATOM      8  C   UNL A   1      31.278  26.114  24.616  1.00  0.00     0.203 C 
ATOM      9  C   UNL A   1      30.102  25.533  23.799  1.00  0.00     0.096 C 
BRANCH   8  10
ATOM     10  C   UNL A   1      32.546  25.231  24.374  1.00  0.00     0.060 A 
ATOM     11  C   UNL A   1      36.147  22.988  23.254  1.00  0.00     0.047 C 
ATOM     12  C   UNL A   1      34.914  23.717  23.674  1.00  0.00    -0.012 A 
ATOM     13  C   UNL A   1      34.775  24.318  24.922  1.00  0.00     0.046 A 
ATOM     14  C   UNL A   1      33.801  23.720  22.862  1.00  0.00     0.126 A 
ATOM     15  C   UNL A   1      33.587  24.996  25.268  1.00  0.00     0.133 A 
ATOM     16  C   UNL A   1      32.659  24.438  23.218  1.00  0.00     0.053 A 
ATOM     17  F   UNL A   1      33.791  23.024  21.718  1.00  0.00    -0.207 F 
ATOM     18  F   UNL A   1      33.447  25.276  26.561  1.00  0.00    -0.206 F 
ENDBRANCH   8  10
BRANCH   8  19
ATOM     19  N   UNL A   1      31.569  27.538  24.202  1.00  0.00    -0.309 N 
ATOM     20  C   UNL A   1      32.937  27.932  23.850  1.00  0.00     0.325 C 
ATOM     21  C   UNL A   1      30.580  28.547  23.877  1.00  0.00     0.325 C 
ATOM     22  H   UNL A   1      31.274  27.416  25.170  1.00  0.00     0.349 HD
ATOM     23  C   UNL A   1      33.103  28.442  22.406  1.00  0.00     0.322 C 
ATOM     24  C   UNL A   1      30.743  29.181  22.467  1.00  0.00     0.322 C 
ATOM     25  N   UNL A   1      32.101  29.413  21.946  1.00  0.00    -0.337 N 
ATOM     26  H   UNL A   1      32.063  29.374  20.927  1.00  0.00     0.346 HD
ATOM     27  H   UNL A   1      32.396  30.324  22.299  1.00  0.00     0.346 HD
ENDBRANCH   8  19
ENDBRANCH   5   8
ENDBRANCH   3   4
ENDBRANCH   2   3
ENDBRANCH   1   2
BRANCH   1  28
ATOM     28  N   UNL A   1      32.635  31.608  26.722  1.00  0.00    -0.352 N 
ATOM     29  C   UNL A   1      33.412  32.400  27.533  1.00  0.00     0.251 C 
ATOM     30  H   UNL A   1      31.884  32.070  26.286  1.00  0.00     0.163 HD
ATOM     31  O   UNL A   1      32.987  33.504  27.878  1.00  0.00    -0.269 OA
BRANCH  29  32
ATOM     32  C   UNL A   1      34.729  31.925  28.007  1.00  0.00     0.039 A 
ATOM     33  C   UNL A   1      34.889  30.615  28.455  1.00  0.00     0.014 A 
ATOM     34  C   UNL A   1      35.825  32.793  28.007  1.00  0.00     0.014 A 
ATOM     35  C   UNL A   1      36.056  30.246  29.107  1.00  0.00     0.010 A 
ATOM     36  C   UNL A   1      37.050  32.370  28.536  1.00  0.00     0.010 A 
ATOM     37  C   UNL A   1      37.160  31.111  29.146  1.00  0.00    -0.014 A 
BRANCH  37  38
ATOM     38  C   UNL A   1      38.409  30.653  29.815  1.00  0.00     0.031 A 
ATOM     39  C   UNL A   1      38.726  31.056  31.231  1.00  0.00     0.074 A 
ATOM     40  C   UNL A   1      39.226  29.804  29.156  1.00  0.00     0.049 A 
ATOM     41  N   UNL A   1      39.737  30.693  31.979  1.00  0.00    -0.248 NA
ATOM     42  C   UNL A   1      37.804  31.992  31.891  1.00  0.00     0.031 C 
ATOM     43  C   UNL A   1      39.018  29.350  27.780  1.00  0.00     0.029 A 
ATOM     44  N   UNL A   1      40.359  29.140  29.554  1.00  0.00    -0.354 N 
ATOM     45  C   UNL A   1      39.584  31.369  33.185  1.00  0.00     0.074 A 
ATOM     46  C   UNL A   1      38.407  32.198  33.055  1.00  0.00     0.031 C 
ATOM     47  C   UNL A   1      39.938  28.426  27.476  1.00  0.00     0.029 A 
ATOM     48  C   UNL A   1      40.862  28.287  28.597  1.00  0.00     0.049 A 
ATOM     49  H   UNL A   1      40.774  29.263  30.439  1.00  0.00     0.167 HD
ATOM     50  C   UNL A   1      40.344  31.286  34.303  1.00  0.00     0.034 A 
ATOM     51  C   UNL A   1      41.948  27.488  28.608  1.00  0.00     0.034 A 
ATOM     52  C   UNL A   1      41.501  30.434  34.421  1.00  0.00     0.049 A 
ATOM     53  C   UNL A   1      42.786  27.429  29.856  1.00  0.00     0.074 A 
ATOM     54  C   UNL A   1      42.324  30.260  35.521  1.00  0.00     0.029 A 
ATOM     55  N   UNL A   1      41.998  29.610  33.420  1.00  0.00    -0.354 N 
ATOM     56  N   UNL A   1      42.600  28.042  31.001  1.00  0.00    -0.248 NA
ATOM     57  C   UNL A   1      43.977  26.570  29.823  1.00  0.00     0.031 C 
ATOM     58  C   UNL A   1      43.358  29.397  35.161  1.00  0.00     0.029 A 
ATOM     59  C   UNL A   1      43.130  28.949  33.869  1.00  0.00     0.049 A 
ATOM     60  H   UNL A   1      41.603  29.510  32.523  1.00  0.00     0.167 HD
ATOM     61  C   UNL A   1      43.633  27.623  31.834  1.00  0.00     0.074 A 
ATOM     62  C   UNL A   1      44.423  26.681  31.068  1.00  0.00     0.031 C 
ATOM     63  C   UNL A   1      43.904  27.993  33.111  1.00  0.00     0.034 A 
BRANCH  50  64
ATOM     64  C   UNL A   1      39.968  32.122  35.506  1.00  0.00     0.023 A 
ATOM     65  C   UNL A   1      39.078  31.606  36.468  1.00  0.00     0.031 A 
ATOM     66  C   UNL A   1      40.368  33.464  35.627  1.00  0.00     0.131 A 
ATOM     67  C   UNL A   1      38.582  32.438  37.479  1.00  0.00     0.055 A 
ATOM     68  C   UNL A   1      39.911  34.276  36.668  1.00  0.00     0.041 A 
ATOM     69  F   UNL A   1      41.214  34.010  34.737  1.00  0.00    -0.206 F 
ATOM     70  C   UNL A   1      39.002  33.768  37.590  1.00  0.00     0.022 A 
BRANCH  67  71
ATOM     71  S   UNL A   1      37.313  31.855  38.636  1.00  0.00     0.124 S 
ATOM     72  O   UNL A   1      36.217  32.785  38.369  1.00  0.00    -0.237 OA
ATOM     73  O   UNL A   1      37.093  30.486  38.181  1.00  0.00    -0.237 OA
ATOM     74  O   UNL A   1      37.939  31.994  39.945  1.00  0.00    -0.744 OA
ENDBRANCH  67  71
ENDBRANCH  50  64
BRANCH  51  75
ATOM     75  C   UNL A   1      42.254  26.660  27.401  1.00  0.00     0.023 A 
ATOM     76  C   UNL A   1      41.843  25.315  27.328  1.00  0.00     0.031 A 
ATOM     77  C   UNL A   1      43.060  27.158  26.365  1.00  0.00     0.131 A 
ATOM     78  C   UNL A   1      42.313  24.496  26.295  1.00  0.00     0.055 A 
ATOM     79  C   UNL A   1      43.454  26.361  25.289  1.00  0.00     0.041 A 
ATOM     80  F   UNL A   1      43.492  28.429  26.394  1.00  0.00    -0.206 F 
ATOM     81  C   UNL A   1      43.098  25.015  25.262  1.00  0.00     0.022 A 
BRANCH  78  82
ATOM     82  S   UNL A   1      42.051  22.701  26.343  1.00  0.00     0.124 S 
ATOM     83  O   UNL A   1      42.899  22.299  27.460  1.00  0.00    -0.237 OA
ATOM     84  O   UNL A   1      40.611  22.618  26.581  1.00  0.00    -0.237 OA
ATOM     85  O   UNL A   1      42.486  22.254  25.024  1.00  0.00    -0.744 OA
ENDBRANCH  78  82
ENDBRANCH  51  75
BRANCH  63  86
ATOM     86  C   UNL A   1      45.095  27.374  33.807  1.00  0.00     0.023 A 
ATOM     87  C   UNL A   1      44.911  26.249  34.636  1.00  0.00     0.031 A 
ATOM     88  C   UNL A   1      46.363  27.978  33.783  1.00  0.00     0.131 A 
ATOM     89  C   UNL A   1      45.962  25.794  35.440  1.00  0.00     0.055 A 
ATOM     90  C   UNL A   1      47.426  27.484  34.540  1.00  0.00     0.041 A 
ATOM     91  F   UNL A   1      46.588  29.063  33.024  1.00  0.00    -0.206 F 
ATOM     92  C   UNL A   1      47.223  26.397  35.387  1.00  0.00     0.022 A 
BRANCH  89  93
ATOM     93  S   UNL A   1      45.704  24.478  36.662  1.00  0.00     0.124 S 
ATOM     94  O   UNL A   1      45.207  23.386  35.828  1.00  0.00    -0.237 OA
ATOM     95  O   UNL A   1      47.048  24.290  37.200  1.00  0.00    -0.237 OA
ATOM     96  O   UNL A   1      44.730  25.045  37.589  1.00  0.00    -0.744 OA
ENDBRANCH  89  93
ENDBRANCH  63  86
ENDBRANCH  37  38
ENDBRANCH  29  32
ENDBRANCH   1  28
TORSDOF 15
ENDMDL
