MODEL 1
REMARK VINA RESULT:     -12.9      0.000      0.000
REMARK SMILES Cc1ccc(-c2c[nH]c(=O)cc2C(=O)NCCCNC(=O)c2ccc(-c3c4nc(c(-c5cc(S(=O)(=O)[O-])ccc5F)c5ccc([nH]5)c(-c5cc(S(=O)(=O)[O-])ccc5F)c5nc(c(-c6cc(S(=O)(=O)[O-])ccc6F)c6ccc3[nH]6)C=C5)C=C4)cc2)cc1Cl
REMARK SMILES IDX 18 1 17 2 16 3 15 4 13 5 14 6 12 8 6 9 7 10 8 11 11 12 9 13
REMARK SMILES IDX 10 15 5 16 1 17 2 18 3 19 86 20 4 21 85 22 87 23 19 24 20 25
REMARK SMILES IDX 21 27 22 28 23 29 84 30 24 31 83 32 25 33 26 34 27 35 77 36
REMARK SMILES IDX 28 37 82 38 76 39 78 40 29 41 81 42 75 43 74 44 30 46 62 47
REMARK SMILES IDX 42 48 61 49 43 50 46 51 60 52 79 53 44 54 45 55 59 57 80 58
REMARK SMILES IDX 47 59 31 60 32 61 40 62 33 63 39 64 41 65 38 66 34 67 35 68
REMARK SMILES IDX 36 69 37 70 63 71 64 72 72 73 65 74 71 75 73 76 70 77 66 78
REMARK SMILES IDX 67 79 68 80 69 81 48 82 49 83 57 84 50 85 56 86 58 87 55 88
REMARK SMILES IDX 51 89 52 90 53 91 54 92
REMARK H PARENT 15 7 8 14 19 26 78 45 46 56
REMARK Flexibility Score: inf
ROOT
ATOM      1  C   UNL A   1      37.539  21.165  24.705  1.00  0.00     0.118 C 
ENDROOT
BRANCH   1   2
ATOM      2  C   UNL A   1      36.100  21.214  25.224  1.00  0.00     0.042 C 
BRANCH   2   3
ATOM      3  C   UNL A   1      35.690  22.594  25.736  1.00  0.00     0.118 C 
BRANCH   3   4
ATOM      4  N   UNL A   1      35.398  23.491  24.632  1.00  0.00    -0.352 N 
ATOM      5  C   UNL A   1      34.355  24.270  24.253  1.00  0.00     0.252 C 
ATOM      6  O   UNL A   1      34.555  24.872  23.195  1.00  0.00    -0.269 OA
ATOM      7  H   UNL A   1      36.148  23.547  23.998  1.00  0.00     0.163 HD
BRANCH   5   8
ATOM      8  C   UNL A   1      33.076  24.466  25.037  1.00  0.00     0.054 A 
ATOM      9  C   UNL A   1      32.011  23.428  24.995  1.00  0.00     0.011 A 
ATOM     10  C   UNL A   1      30.835  23.678  25.607  1.00  0.00     0.095 A 
ATOM     11  N   UNL A   1      30.615  24.849  26.276  1.00  0.00    -0.328 N 
ATOM     12  C   UNL A   1      32.878  25.548  25.812  1.00  0.00     0.086 A 
ATOM     13  C   UNL A   1      31.564  25.818  26.440  1.00  0.00     0.248 A 
ATOM     14  H   UNL A   1      29.723  25.002  26.662  1.00  0.00     0.169 HD
ATOM     15  O   UNL A   1      31.351  26.858  27.045  1.00  0.00    -0.270 OA
BRANCH   9  16
ATOM     16  C   UNL A   1      32.133  22.069  24.417  1.00  0.00    -0.015 A 
ATOM     17  C   UNL A   1      32.381  18.123  22.656  1.00  0.00     0.046 C 
ATOM     18  C   UNL A   1      32.323  19.485  23.285  1.00  0.00    -0.032 A 
ATOM     19  C   UNL A   1      32.140  20.610  22.470  1.00  0.00     0.005 A 
ATOM     20  C   UNL A   1      32.441  19.674  24.671  1.00  0.00     0.044 A 
ATOM     21  C   UNL A   1      32.064  21.889  23.029  1.00  0.00     0.009 A 
ATOM     22  C   UNL A   1      32.337  20.951  25.233  1.00  0.00     0.029 A 
ATOM     23  Cl  UNL A   1      32.724  18.345  25.740  1.00  0.00    -0.084 Cl
ENDBRANCH   9  16
ENDBRANCH   5   8
ENDBRANCH   3   4
ENDBRANCH   2   3
ENDBRANCH   1   2
BRANCH   1  24
ATOM     24  N   UNL A   1      38.360  20.231  25.466  1.00  0.00    -0.352 N 
ATOM     25  C   UNL A   1      39.542  20.430  26.134  1.00  0.00     0.251 C 
ATOM     26  H   UNL A   1      38.011  19.312  25.507  1.00  0.00     0.163 HD
ATOM     27  O   UNL A   1      40.216  19.455  26.455  1.00  0.00    -0.269 OA
BRANCH  25  28
ATOM     28  C   UNL A   1      40.001  21.795  26.465  1.00  0.00     0.039 A 
ATOM     29  C   UNL A   1      41.080  21.956  27.337  1.00  0.00     0.014 A 
ATOM     30  C   UNL A   1      39.336  22.918  25.963  1.00  0.00     0.014 A 
ATOM     31  C   UNL A   1      41.528  23.239  27.661  1.00  0.00     0.010 A 
ATOM     32  C   UNL A   1      39.831  24.194  26.224  1.00  0.00     0.010 A 
ATOM     33  C   UNL A   1      40.929  24.369  27.079  1.00  0.00    -0.014 A 
BRANCH  33  34
ATOM     34  C   UNL A   1      41.439  25.739  27.353  1.00  0.00     0.031 A 
ATOM     35  C   UNL A   1      42.777  26.169  26.811  1.00  0.00     0.074 A 
ATOM     36  C   UNL A   1      40.724  26.567  28.140  1.00  0.00     0.049 A 
ATOM     37  N   UNL A   1      43.423  27.291  26.999  1.00  0.00    -0.248 NA
ATOM     38  C   UNL A   1      43.496  25.201  25.966  1.00  0.00     0.031 C 
ATOM     39  C   UNL A   1      39.430  26.247  28.748  1.00  0.00     0.029 A 
ATOM     40  N   UNL A   1      40.981  27.845  28.572  1.00  0.00    -0.354 N 
ATOM     41  C   UNL A   1      44.628  27.157  26.319  1.00  0.00     0.074 A 
ATOM     42  C   UNL A   1      44.644  25.827  25.751  1.00  0.00     0.031 C 
ATOM     43  C   UNL A   1      38.993  27.309  29.444  1.00  0.00     0.029 A 
ATOM     44  C   UNL A   1      39.997  28.364  29.384  1.00  0.00     0.049 A 
ATOM     45  H   UNL A   1      41.793  28.343  28.324  1.00  0.00     0.167 HD
ATOM     46  C   UNL A   1      45.621  28.069  26.170  1.00  0.00     0.034 A 
ATOM     47  C   UNL A   1      39.923  29.551  30.020  1.00  0.00     0.034 A 
ATOM     48  C   UNL A   1      45.576  29.400  26.723  1.00  0.00     0.049 A 
ATOM     49  C   UNL A   1      41.060  30.531  29.860  1.00  0.00     0.074 A 
ATOM     50  C   UNL A   1      46.491  30.427  26.567  1.00  0.00     0.029 A 
ATOM     51  N   UNL A   1      44.570  29.888  27.547  1.00  0.00    -0.354 N 
ATOM     52  N   UNL A   1      42.161  30.412  29.154  1.00  0.00    -0.248 NA
ATOM     53  C   UNL A   1      40.938  31.810  30.571  1.00  0.00     0.031 C 
ATOM     54  C   UNL A   1      46.084  31.500  27.365  1.00  0.00     0.029 A 
ATOM     55  C   UNL A   1      44.867  31.183  27.943  1.00  0.00     0.049 A 
ATOM     56  H   UNL A   1      43.764  29.387  27.812  1.00  0.00     0.167 HD
ATOM     57  C   UNL A   1      42.840  31.619  29.305  1.00  0.00     0.074 A 
ATOM     58  C   UNL A   1      42.016  32.455  30.151  1.00  0.00     0.031 C 
ATOM     59  C   UNL A   1      44.034  32.005  28.787  1.00  0.00     0.034 A 
BRANCH  46  60
ATOM     60  C   UNL A   1      46.858  27.651  25.408  1.00  0.00     0.023 A 
ATOM     61  C   UNL A   1      47.048  27.983  24.055  1.00  0.00     0.031 A 
ATOM     62  C   UNL A   1      47.872  26.925  26.057  1.00  0.00     0.131 A 
ATOM     63  C   UNL A   1      48.199  27.545  23.383  1.00  0.00     0.055 A 
ATOM     64  C   UNL A   1      49.050  26.559  25.403  1.00  0.00     0.041 A 
ATOM     65  F   UNL A   1      47.736  26.559  27.341  1.00  0.00    -0.206 F 
ATOM     66  C   UNL A   1      49.215  26.859  24.055  1.00  0.00     0.022 A 
BRANCH  63  67
ATOM     67  S   UNL A   1      48.302  27.781  21.588  1.00  0.00     0.124 S 
ATOM     68  O   UNL A   1      46.963  28.277  21.279  1.00  0.00    -0.237 OA
ATOM     69  O   UNL A   1      49.386  28.748  21.458  1.00  0.00    -0.237 OA
ATOM     70  O   UNL A   1      48.595  26.442  21.081  1.00  0.00    -0.744 OA
ENDBRANCH  63  67
ENDBRANCH  46  60
BRANCH  47  71
ATOM     71  C   UNL A   1      38.750  29.891  30.881  1.00  0.00     0.023 A 
ATOM     72  C   UNL A   1      37.680  30.644  30.372  1.00  0.00     0.031 A 
ATOM     73  C   UNL A   1      38.717  29.544  32.244  1.00  0.00     0.131 A 
ATOM     74  C   UNL A   1      36.666  31.092  31.232  1.00  0.00     0.055 A 
ATOM     75  C   UNL A   1      37.668  29.931  33.080  1.00  0.00     0.041 A 
ATOM     76  F   UNL A   1      39.713  28.826  32.787  1.00  0.00    -0.206 F 
ATOM     77  C   UNL A   1      36.643  30.728  32.580  1.00  0.00     0.022 A 
BRANCH  74  78
ATOM     78  S   UNL A   1      35.450  32.277  30.591  1.00  0.00     0.124 S 
ATOM     79  O   UNL A   1      36.249  33.494  30.494  1.00  0.00    -0.237 OA
ATOM     80  O   UNL A   1      35.064  31.660  29.327  1.00  0.00    -0.237 OA
ATOM     81  O   UNL A   1      34.413  32.290  31.621  1.00  0.00    -0.744 OA
ENDBRANCH  74  78
ENDBRANCH  47  71
BRANCH  59  82
ATOM     82  C   UNL A   1      44.486  33.417  29.078  1.00  0.00     0.023 A 
ATOM     83  C   UNL A   1      44.047  34.510  28.314  1.00  0.00     0.031 A 
ATOM     84  C   UNL A   1      45.383  33.665  30.132  1.00  0.00     0.131 A 
ATOM     85  C   UNL A   1      44.553  35.792  28.574  1.00  0.00     0.055 A 
ATOM     86  C   UNL A   1      45.827  34.952  30.433  1.00  0.00     0.041 A 
ATOM     87  F   UNL A   1      45.840  32.657  30.894  1.00  0.00    -0.206 F 
ATOM     88  C   UNL A   1      45.424  36.024  29.642  1.00  0.00     0.022 A 
BRANCH  85  89
ATOM     89  S   UNL A   1      44.139  37.141  27.433  1.00  0.00     0.124 S 
ATOM     90  O   UNL A   1      45.433  37.430  26.823  1.00  0.00    -0.237 OA
ATOM     91  O   UNL A   1      43.148  36.518  26.561  1.00  0.00    -0.237 OA
ATOM     92  O   UNL A   1      43.619  38.187  28.312  1.00  0.00    -0.744 OA
ENDBRANCH  85  89
ENDBRANCH  59  82
ENDBRANCH  33  34
ENDBRANCH  25  28
ENDBRANCH   1  24
TORSDOF 14
ENDMDL
MODEL 2
REMARK VINA RESULT:     -12.8      4.853      9.603
REMARK SMILES Cc1ccc(-c2c[nH]c(=O)cc2C(=O)NCCCNC(=O)c2ccc(-c3c4nc(c(-c5cc(S(=O)(=O)[O-])ccc5F)c5ccc([nH]5)c(-c5cc(S(=O)(=O)[O-])ccc5F)c5nc(c(-c6cc(S(=O)(=O)[O-])ccc6F)c6ccc3[nH]6)C=C5)C=C4)cc2)cc1Cl
REMARK SMILES IDX 18 1 17 2 16 3 15 4 13 5 14 6 12 8 6 9 7 10 8 11 11 12 9 13
REMARK SMILES IDX 10 15 5 16 1 17 2 18 3 19 86 20 4 21 85 22 87 23 19 24 20 25
REMARK SMILES IDX 21 27 22 28 23 29 84 30 24 31 83 32 25 33 26 34 27 35 77 36
REMARK SMILES IDX 28 37 82 38 76 39 78 40 29 41 81 42 75 43 74 44 30 46 62 47
REMARK SMILES IDX 42 48 61 49 43 50 46 51 60 52 79 53 44 54 45 55 59 57 80 58
REMARK SMILES IDX 47 59 31 60 32 61 40 62 33 63 39 64 41 65 38 66 34 67 35 68
REMARK SMILES IDX 36 69 37 70 63 71 64 72 72 73 65 74 71 75 73 76 70 77 66 78
REMARK SMILES IDX 67 79 68 80 69 81 48 82 49 83 57 84 50 85 56 86 58 87 55 88
REMARK SMILES IDX 51 89 52 90 53 91 54 92
REMARK H PARENT 15 7 8 14 19 26 78 45 46 56
REMARK Flexibility Score: inf
ROOT
ATOM      1  C   UNL A   1      33.887  29.165  26.231  1.00  0.00     0.118 C 
ENDROOT
BRANCH   1   2
ATOM      2  C   UNL A   1      33.261  28.159  27.200  1.00  0.00     0.042 C 
BRANCH   2   3
ATOM      3  C   UNL A   1      31.742  28.294  27.313  1.00  0.00     0.118 C 
BRANCH   3   4
ATOM      4  N   UNL A   1      31.090  27.019  27.079  1.00  0.00    -0.352 N 
ATOM      5  C   UNL A   1      30.715  26.294  25.997  1.00  0.00     0.252 C 
ATOM      6  O   UNL A   1      30.160  25.232  26.288  1.00  0.00    -0.269 OA
ATOM      7  H   UNL A   1      30.863  26.564  27.922  1.00  0.00     0.163 HD
BRANCH   5   8
ATOM      8  C   UNL A   1      30.977  26.672  24.555  1.00  0.00     0.054 A 
ATOM      9  C   UNL A   1      32.170  26.131  23.849  1.00  0.00     0.011 A 
ATOM     10  C   UNL A   1      32.445  26.573  22.605  1.00  0.00     0.095 A 
ATOM     11  N   UNL A   1      31.643  27.485  21.979  1.00  0.00    -0.328 N 
ATOM     12  C   UNL A   1      30.137  27.465  23.865  1.00  0.00     0.086 A 
ATOM     13  C   UNL A   1      30.482  27.968  22.515  1.00  0.00     0.248 A 
ATOM     14  H   UNL A   1      31.916  27.812  21.092  1.00  0.00     0.169 HD
ATOM     15  O   UNL A   1      29.774  28.780  21.940  1.00  0.00    -0.270 OA
BRANCH   9  16
ATOM     16  C   UNL A   1      33.067  25.059  24.339  1.00  0.00    -0.015 A 
ATOM     17  C   UNL A   1      35.791  21.991  25.720  1.00  0.00     0.046 C 
ATOM     18  C   UNL A   1      34.821  23.038  25.254  1.00  0.00    -0.032 A 
ATOM     19  C   UNL A   1      35.103  24.390  25.492  1.00  0.00     0.005 A 
ATOM     20  C   UNL A   1      33.634  22.710  24.581  1.00  0.00     0.044 A 
ATOM     21  C   UNL A   1      34.227  25.387  25.054  1.00  0.00     0.009 A 
ATOM     22  C   UNL A   1      32.771  23.709  24.119  1.00  0.00     0.029 A 
ATOM     23  Cl  UNL A   1      33.185  21.064  24.298  1.00  0.00    -0.084 Cl
ENDBRANCH   9  16
ENDBRANCH   5   8
ENDBRANCH   3   4
ENDBRANCH   2   3
ENDBRANCH   1   2
BRANCH   1  24
ATOM     24  N   UNL A   1      33.735  30.538  26.698  1.00  0.00    -0.352 N 
ATOM     25  C   UNL A   1      34.394  31.215  27.693  1.00  0.00     0.251 C 
ATOM     26  H   UNL A   1      33.048  31.062  26.225  1.00  0.00     0.163 HD
ATOM     27  O   UNL A   1      33.913  32.259  28.123  1.00  0.00    -0.269 OA
BRANCH  25  28
ATOM     28  C   UNL A   1      35.666  30.699  28.241  1.00  0.00     0.039 A 
ATOM     29  C   UNL A   1      35.630  29.794  29.304  1.00  0.00     0.014 A 
ATOM     30  C   UNL A   1      36.895  31.145  27.745  1.00  0.00     0.014 A 
ATOM     31  C   UNL A   1      36.823  29.295  29.833  1.00  0.00     0.010 A 
ATOM     32  C   UNL A   1      38.080  30.589  28.221  1.00  0.00     0.010 A 
ATOM     33  C   UNL A   1      38.058  29.662  29.273  1.00  0.00    -0.014 A 
BRANCH  33  34
ATOM     34  C   UNL A   1      39.334  29.084  29.774  1.00  0.00     0.031 A 
ATOM     35  C   UNL A   1      40.053  29.728  30.930  1.00  0.00     0.074 A 
ATOM     36  C   UNL A   1      39.870  28.018  29.146  1.00  0.00     0.049 A 
ATOM     37  N   UNL A   1      41.207  29.416  31.462  1.00  0.00    -0.248 NA
ATOM     38  C   UNL A   1      39.402  30.891  31.554  1.00  0.00     0.031 C 
ATOM     39  C   UNL A   1      39.278  27.331  27.995  1.00  0.00     0.029 A 
ATOM     40  N   UNL A   1      41.033  27.326  29.378  1.00  0.00    -0.354 N 
ATOM     41  C   UNL A   1      41.431  30.354  32.465  1.00  0.00     0.074 A 
ATOM     42  C   UNL A   1      40.315  31.273  32.436  1.00  0.00     0.031 C 
ATOM     43  C   UNL A   1      40.063  26.299  27.645  1.00  0.00     0.029 A 
ATOM     44  C   UNL A   1      41.242  26.284  28.503  1.00  0.00     0.049 A 
ATOM     45  H   UNL A   1      41.659  27.555  30.103  1.00  0.00     0.167 HD
ATOM     46  C   UNL A   1      42.466  30.428  33.338  1.00  0.00     0.034 A 
ATOM     47  C   UNL A   1      42.276  25.424  28.396  1.00  0.00     0.034 A 
ATOM     48  C   UNL A   1      43.557  29.486  33.367  1.00  0.00     0.049 A 
ATOM     49  C   UNL A   1      43.428  25.553  29.363  1.00  0.00     0.074 A 
ATOM     50  C   UNL A   1      44.615  29.424  34.258  1.00  0.00     0.029 A 
ATOM     51  N   UNL A   1      43.742  28.450  32.460  1.00  0.00    -0.354 N 
ATOM     52  N   UNL A   1      43.587  26.405  30.350  1.00  0.00    -0.248 NA
ATOM     53  C   UNL A   1      44.533  24.598  29.210  1.00  0.00     0.031 C 
ATOM     54  C   UNL A   1      45.481  28.409  33.840  1.00  0.00     0.029 A 
ATOM     55  C   UNL A   1      44.918  27.774  32.745  1.00  0.00     0.049 A 
ATOM     56  H   UNL A   1      43.127  28.229  31.723  1.00  0.00     0.167 HD
ATOM     57  C   UNL A   1      44.791  26.057  30.959  1.00  0.00     0.074 A 
ATOM     58  C   UNL A   1      45.303  24.910  30.240  1.00  0.00     0.031 C 
ATOM     59  C   UNL A   1      45.416  26.630  32.019  1.00  0.00     0.034 A 
BRANCH  46  60
ATOM     60  C   UNL A   1      42.490  31.582  34.313  1.00  0.00     0.023 A 
ATOM     61  C   UNL A   1      41.825  31.528  35.550  1.00  0.00     0.031 A 
ATOM     62  C   UNL A   1      43.210  32.751  34.002  1.00  0.00     0.131 A 
ATOM     63  C   UNL A   1      41.851  32.639  36.407  1.00  0.00     0.055 A 
ATOM     64  C   UNL A   1      43.295  33.822  34.893  1.00  0.00     0.041 A 
ATOM     65  F   UNL A   1      43.845  32.869  32.826  1.00  0.00    -0.206 F 
ATOM     66  C   UNL A   1      42.605  33.775  36.100  1.00  0.00     0.022 A 
BRANCH  63  67
ATOM     67  S   UNL A   1      40.791  32.628  37.878  1.00  0.00     0.124 S 
ATOM     68  O   UNL A   1      41.627  31.911  38.838  1.00  0.00    -0.237 OA
ATOM     69  O   UNL A   1      40.596  34.050  38.138  1.00  0.00    -0.237 OA
ATOM     70  O   UNL A   1      39.599  31.905  37.438  1.00  0.00    -0.744 OA
ENDBRANCH  63  67
ENDBRANCH  46  60
BRANCH  47  71
ATOM     71  C   UNL A   1      42.296  24.372  27.335  1.00  0.00     0.023 A 
ATOM     72  C   UNL A   1      41.635  23.148  27.526  1.00  0.00     0.031 A 
ATOM     73  C   UNL A   1      43.042  24.537  26.154  1.00  0.00     0.131 A 
ATOM     74  C   UNL A   1      41.797  22.112  26.594  1.00  0.00     0.055 A 
ATOM     75  C   UNL A   1      43.139  23.528  25.194  1.00  0.00     0.041 A 
ATOM     76  F   UNL A   1      43.695  25.686  25.917  1.00  0.00    -0.206 F 
ATOM     77  C   UNL A   1      42.532  22.298  25.421  1.00  0.00     0.022 A 
BRANCH  74  78
ATOM     78  S   UNL A   1      41.147  20.468  27.008  1.00  0.00     0.124 S 
ATOM     79  O   UNL A   1      42.290  19.615  26.699  1.00  0.00    -0.237 OA
ATOM     80  O   UNL A   1      40.822  20.619  28.421  1.00  0.00    -0.237 OA
ATOM     81  O   UNL A   1      39.999  20.322  26.116  1.00  0.00    -0.744 OA
ENDBRANCH  74  78
ENDBRANCH  47  71
BRANCH  59  82
ATOM     82  C   UNL A   1      46.693  25.981  32.499  1.00  0.00     0.023 A 
ATOM     83  C   UNL A   1      47.935  26.253  31.902  1.00  0.00     0.031 A 
ATOM     84  C   UNL A   1      46.659  25.064  33.565  1.00  0.00     0.131 A 
ATOM     85  C   UNL A   1      49.082  25.570  32.333  1.00  0.00     0.055 A 
ATOM     86  C   UNL A   1      47.814  24.442  34.037  1.00  0.00     0.041 A 
ATOM     87  F   UNL A   1      45.499  24.762  34.171  1.00  0.00    -0.206 F 
ATOM     88  C   UNL A   1      49.033  24.682  33.411  1.00  0.00     0.022 A 
BRANCH  85  89
ATOM     89  S   UNL A   1      50.623  25.780  31.399  1.00  0.00     0.124 S 
ATOM     90  O   UNL A   1      50.128  25.989  30.042  1.00  0.00    -0.237 OA
ATOM     91  O   UNL A   1      51.223  26.943  32.045  1.00  0.00    -0.237 OA
ATOM     92  O   UNL A   1      51.330  24.518  31.615  1.00  0.00    -0.744 OA
ENDBRANCH  85  89
ENDBRANCH  59  82
ENDBRANCH  33  34
ENDBRANCH  25  28
ENDBRANCH   1  24
TORSDOF 14
ENDMDL
MODEL 3
REMARK VINA RESULT:     -12.8      5.052      9.818
REMARK SMILES Cc1ccc(-c2c[nH]c(=O)cc2C(=O)NCCCNC(=O)c2ccc(-c3c4nc(c(-c5cc(S(=O)(=O)[O-])ccc5F)c5ccc([nH]5)c(-c5cc(S(=O)(=O)[O-])ccc5F)c5nc(c(-c6cc(S(=O)(=O)[O-])ccc6F)c6ccc3[nH]6)C=C5)C=C4)cc2)cc1Cl
REMARK SMILES IDX 18 1 17 2 16 3 15 4 13 5 14 6 12 8 6 9 7 10 8 11 11 12 9 13
REMARK SMILES IDX 10 15 5 16 1 17 2 18 3 19 86 20 4 21 85 22 87 23 19 24 20 25
REMARK SMILES IDX 21 27 22 28 23 29 84 30 24 31 83 32 25 33 26 34 27 35 77 36
REMARK SMILES IDX 28 37 82 38 76 39 78 40 29 41 81 42 75 43 74 44 30 46 62 47
REMARK SMILES IDX 42 48 61 49 43 50 46 51 60 52 79 53 44 54 45 55 59 57 80 58
REMARK SMILES IDX 47 59 31 60 32 61 40 62 33 63 39 64 41 65 38 66 34 67 35 68
REMARK SMILES IDX 36 69 37 70 63 71 64 72 72 73 65 74 71 75 73 76 70 77 66 78
REMARK SMILES IDX 67 79 68 80 69 81 48 82 49 83 57 84 50 85 56 86 58 87 55 88
REMARK SMILES IDX 51 89 52 90 53 91 54 92
REMARK H PARENT 15 7 8 14 19 26 78 45 46 56
REMARK Flexibility Score: inf
ROOT
ATOM      1  C   UNL A   1      33.879  29.178  26.122  1.00  0.00     0.118 C 
ENDROOT
BRANCH   1   2
ATOM      2  C   UNL A   1      33.316  28.125  27.079  1.00  0.00     0.042 C 
BRANCH   2   3
ATOM      3  C   UNL A   1      31.815  28.273  27.323  1.00  0.00     0.118 C 
BRANCH   3   4
ATOM      4  N   UNL A   1      31.126  27.015  27.097  1.00  0.00    -0.352 N 
ATOM      5  C   UNL A   1      30.718  26.301  26.020  1.00  0.00     0.252 C 
ATOM      6  O   UNL A   1      30.139  25.253  26.318  1.00  0.00    -0.269 OA
ATOM      7  H   UNL A   1      30.898  26.566  27.943  1.00  0.00     0.163 HD
BRANCH   5   8
ATOM      8  C   UNL A   1      30.971  26.673  24.575  1.00  0.00     0.054 A 
ATOM      9  C   UNL A   1      32.157  26.125  23.862  1.00  0.00     0.011 A 
ATOM     10  C   UNL A   1      32.425  26.561  22.614  1.00  0.00     0.095 A 
ATOM     11  N   UNL A   1      31.622  27.475  21.992  1.00  0.00    -0.328 N 
ATOM     12  C   UNL A   1      30.130  27.468  23.889  1.00  0.00     0.086 A 
ATOM     13  C   UNL A   1      30.468  27.965  22.535  1.00  0.00     0.248 A 
ATOM     14  H   UNL A   1      31.890  27.798  21.102  1.00  0.00     0.169 HD
ATOM     15  O   UNL A   1      29.759  28.778  21.962  1.00  0.00    -0.270 OA
BRANCH   9  16
ATOM     16  C   UNL A   1      33.053  25.050  24.349  1.00  0.00    -0.015 A 
ATOM     17  C   UNL A   1      35.773  21.974  25.719  1.00  0.00     0.046 C 
ATOM     18  C   UNL A   1      34.804  23.024  25.258  1.00  0.00    -0.032 A 
ATOM     19  C   UNL A   1      35.094  24.375  25.489  1.00  0.00     0.005 A 
ATOM     20  C   UNL A   1      33.610  22.699  24.594  1.00  0.00     0.044 A 
ATOM     21  C   UNL A   1      34.219  25.375  25.055  1.00  0.00     0.009 A 
ATOM     22  C   UNL A   1      32.748  23.701  24.135  1.00  0.00     0.029 A 
ATOM     23  Cl  UNL A   1      33.152  21.055  24.319  1.00  0.00    -0.084 Cl
ENDBRANCH   9  16
ENDBRANCH   5   8
ENDBRANCH   3   4
ENDBRANCH   2   3
ENDBRANCH   1   2
BRANCH   1  24
ATOM     24  N   UNL A   1      33.693  30.531  26.632  1.00  0.00    -0.352 N 
ATOM     25  C   UNL A   1      34.318  31.184  27.664  1.00  0.00     0.251 C 
ATOM     26  H   UNL A   1      33.009  31.059  26.162  1.00  0.00     0.163 HD
ATOM     27  O   UNL A   1      33.810  32.205  28.118  1.00  0.00    -0.269 OA
BRANCH  25  28
ATOM     28  C   UNL A   1      35.587  30.671  28.223  1.00  0.00     0.039 A 
ATOM     29  C   UNL A   1      35.545  29.808  29.321  1.00  0.00     0.014 A 
ATOM     30  C   UNL A   1      36.818  31.080  27.703  1.00  0.00     0.014 A 
ATOM     31  C   UNL A   1      36.734  29.312  29.861  1.00  0.00     0.010 A 
ATOM     32  C   UNL A   1      37.999  30.525  28.192  1.00  0.00     0.010 A 
ATOM     33  C   UNL A   1      37.971  29.639  29.279  1.00  0.00    -0.014 A 
BRANCH  33  34
ATOM     34  C   UNL A   1      39.241  29.062  29.793  1.00  0.00     0.031 A 
ATOM     35  C   UNL A   1      39.925  29.681  30.984  1.00  0.00     0.074 A 
ATOM     36  C   UNL A   1      39.804  28.021  29.149  1.00  0.00     0.049 A 
ATOM     37  N   UNL A   1      41.070  29.368  31.534  1.00  0.00    -0.248 NA
ATOM     38  C   UNL A   1      39.246  30.819  31.625  1.00  0.00     0.031 C 
ATOM     39  C   UNL A   1      39.248  27.359  27.965  1.00  0.00     0.029 A 
ATOM     40  N   UNL A   1      40.970  27.336  29.388  1.00  0.00    -0.354 N 
ATOM     41  C   UNL A   1      41.259  30.279  32.568  1.00  0.00     0.074 A 
ATOM     42  C   UNL A   1      40.133  31.186  32.538  1.00  0.00     0.031 C 
ATOM     43  C   UNL A   1      40.054  26.347  27.605  1.00  0.00     0.029 A 
ATOM     44  C   UNL A   1      41.213  26.321  28.490  1.00  0.00     0.049 A 
ATOM     45  H   UNL A   1      41.576  27.551  30.134  1.00  0.00     0.167 HD
ATOM     46  C   UNL A   1      42.272  30.340  33.467  1.00  0.00     0.034 A 
ATOM     47  C   UNL A   1      42.259  25.476  28.383  1.00  0.00     0.034 A 
ATOM     48  C   UNL A   1      43.375  29.411  33.495  1.00  0.00     0.049 A 
ATOM     49  C   UNL A   1      43.386  25.591  29.381  1.00  0.00     0.074 A 
ATOM     50  C   UNL A   1      44.412  29.335  34.409  1.00  0.00     0.029 A 
ATOM     51  N   UNL A   1      43.593  28.403  32.565  1.00  0.00    -0.354 N 
ATOM     52  N   UNL A   1      43.512  26.417  30.395  1.00  0.00    -0.248 NA
ATOM     53  C   UNL A   1      44.506  24.654  29.227  1.00  0.00     0.031 C 
ATOM     54  C   UNL A   1      45.299  28.343  33.983  1.00  0.00     0.029 A 
ATOM     55  C   UNL A   1      44.770  27.732  32.858  1.00  0.00     0.049 A 
ATOM     56  H   UNL A   1      42.998  28.195  31.807  1.00  0.00     0.167 HD
ATOM     57  C   UNL A   1      44.706  26.066  31.022  1.00  0.00     0.074 A 
ATOM     58  C   UNL A   1      45.248  24.945  30.284  1.00  0.00     0.031 C 
ATOM     59  C   UNL A   1      45.299  26.615  32.113  1.00  0.00     0.034 A 
BRANCH  46  60
ATOM     60  C   UNL A   1      42.259  31.467  34.474  1.00  0.00     0.023 A 
ATOM     61  C   UNL A   1      41.351  31.499  35.546  1.00  0.00     0.031 A 
ATOM     62  C   UNL A   1      43.190  32.517  34.367  1.00  0.00     0.131 A 
ATOM     63  C   UNL A   1      41.358  32.584  36.436  1.00  0.00     0.055 A 
ATOM     64  C   UNL A   1      43.242  33.553  35.301  1.00  0.00     0.041 A 
ATOM     65  F   UNL A   1      44.066  32.552  33.351  1.00  0.00    -0.206 F 
ATOM     66  C   UNL A   1      42.316  33.597  36.338  1.00  0.00     0.022 A 
BRANCH  63  67
ATOM     67  S   UNL A   1      40.025  32.715  37.658  1.00  0.00     0.124 S 
ATOM     68  O   UNL A   1      39.533  34.069  37.413  1.00  0.00    -0.237 OA
ATOM     69  O   UNL A   1      39.130  31.632  37.267  1.00  0.00    -0.237 OA
ATOM     70  O   UNL A   1      40.709  32.530  38.936  1.00  0.00    -0.744 OA
ENDBRANCH  63  67
ENDBRANCH  46  60
BRANCH  47  71
ATOM     71  C   UNL A   1      42.316  24.455  27.294  1.00  0.00     0.023 A 
ATOM     72  C   UNL A   1      41.550  23.281  27.370  1.00  0.00     0.031 A 
ATOM     73  C   UNL A   1      43.197  24.594  26.207  1.00  0.00     0.131 A 
ATOM     74  C   UNL A   1      41.734  22.261  26.425  1.00  0.00     0.055 A 
ATOM     75  C   UNL A   1      43.324  23.606  25.228  1.00  0.00     0.041 A 
ATOM     76  F   UNL A   1      43.956  25.694  26.082  1.00  0.00    -0.206 F 
ATOM     77  C   UNL A   1      42.605  22.421  25.345  1.00  0.00     0.022 A 
BRANCH  74  78
ATOM     78  S   UNL A   1      40.923  20.663  26.709  1.00  0.00     0.124 S 
ATOM     79  O   UNL A   1      39.634  20.868  26.056  1.00  0.00    -0.237 OA
ATOM     80  O   UNL A   1      41.837  19.739  26.047  1.00  0.00    -0.237 OA
ATOM     81  O   UNL A   1      40.877  20.559  28.165  1.00  0.00    -0.744 OA
ENDBRANCH  74  78
ENDBRANCH  47  71
BRANCH  59  82
ATOM     82  C   UNL A   1      46.572  25.968  32.604  1.00  0.00     0.023 A 
ATOM     83  C   UNL A   1      46.560  24.915  33.533  1.00  0.00     0.031 A 
ATOM     84  C   UNL A   1      47.818  26.427  32.140  1.00  0.00     0.131 A 
ATOM     85  C   UNL A   1      47.771  24.396  34.016  1.00  0.00     0.055 A 
ATOM     86  C   UNL A   1      49.017  25.858  32.569  1.00  0.00     0.041 A 
ATOM     87  F   UNL A   1      47.891  27.434  31.254  1.00  0.00    -0.206 F 
ATOM     88  C   UNL A   1      48.999  24.847  33.524  1.00  0.00     0.022 A 
BRANCH  85  89
ATOM     89  S   UNL A   1      47.723  23.193  35.373  1.00  0.00     0.124 S 
ATOM     90  O   UNL A   1      49.069  22.629  35.326  1.00  0.00    -0.237 OA
ATOM     91  O   UNL A   1      47.427  24.037  36.527  1.00  0.00    -0.237 OA
ATOM     92  O   UNL A   1      46.652  22.278  34.984  1.00  0.00    -0.744 OA
ENDBRANCH  85  89
ENDBRANCH  59  82
ENDBRANCH  33  34
ENDBRANCH  25  28
ENDBRANCH   1  24
TORSDOF 14
ENDMDL
