MODEL 1
REMARK VINA RESULT:     -12.9      0.000      0.000
REMARK SMILES Cc1n[nH]c2c1[C@@]1(C(=O)N([C@@H](C)C(=O)NCCCNC(=O)c3ccc(-c4c5nc(c(-c6cc(S(=O)(=O)[O-])ccc6F)c6ccc([nH]6)c(-c6cc(S(=O)(=O)[O-])ccc6F)c6nc(c(-c7cc(S(=O)(=O)[O-])ccc7F)c7ccc4[nH]7)C=C6)C=C5)cc3)c3ccccc31)C(C#N)=C(N)O2
REMARK SMILES IDX 17 1 16 2 15 3 13 4 14 5 11 7 12 8 10 9 1 10 2 11 3 12 6 13
REMARK SMILES IDX 4 14 5 15 7 16 96 18 8 19 90 20 91 21 94 22 9 23 85 24 89 25
REMARK SMILES IDX 86 26 88 27 87 28 92 29 93 30 95 31 18 34 19 35 20 36 21 38
REMARK SMILES IDX 22 39 23 40 84 41 24 42 83 43 25 44 26 45 27 46 77 47 28 48
REMARK SMILES IDX 82 49 76 50 78 51 29 52 81 53 75 54 74 55 30 57 62 58 42 59
REMARK SMILES IDX 61 60 43 61 46 62 60 63 79 64 44 65 45 66 59 68 80 69 47 70
REMARK SMILES IDX 31 71 32 72 40 73 33 74 39 75 41 76 38 77 34 78 35 79 36 80
REMARK SMILES IDX 37 81 63 82 64 83 72 84 65 85 71 86 73 87 70 88 66 89 67 90
REMARK SMILES IDX 68 91 69 92 48 93 49 94 57 95 50 96 56 97 58 98 55 99 51 100
REMARK SMILES IDX 52 101 53 102 54 103
REMARK H PARENT 15 6 4 17 95 32 95 33 19 37 78 56 46 67
REMARK Flexibility Score: inf
ROOT
ATOM      1  C   UNL A   1      33.589  31.261  27.762  1.00  0.00     0.042 C 
ENDROOT
BRANCH   1   2
ATOM      2  C   UNL A   1      33.877  30.059  26.853  1.00  0.00     0.117 C 
BRANCH   2   3
ATOM      3  N   UNL A   1      32.871  29.865  25.816  1.00  0.00    -0.354 N 
ATOM      4  C   UNL A   1      32.762  29.025  24.753  1.00  0.00     0.242 C 
ATOM      5  O   UNL A   1      31.692  29.096  24.127  1.00  0.00    -0.273 OA
ATOM      6  H   UNL A   1      32.104  30.476  25.905  1.00  0.00     0.163 HD
BRANCH   4   7
ATOM      7  C   UNL A   1      33.850  28.043  24.247  1.00  0.00     0.176 C 
ATOM      8  C   UNL A   1      34.453  28.357  22.883  1.00  0.00     0.042 C 
BRANCH   7   9
ATOM      9  N   UNL A   1      33.477  26.647  24.440  1.00  0.00    -0.298 N 
ATOM     10  C   UNL A   1      29.807  25.906  25.444  1.00  0.00     0.069 C 
ATOM     11  C   UNL A   1      30.361  24.690  26.088  1.00  0.00     0.068 A 
ATOM     12  N   UNL A   1      29.555  23.957  26.870  1.00  0.00    -0.177 NA
ATOM     13  C   UNL A   1      31.678  24.164  26.069  1.00  0.00     0.063 A 
ATOM     14  N   UNL A   1      30.364  23.028  27.423  1.00  0.00    -0.246 N 
ATOM     15  C   UNL A   1      31.644  23.134  26.974  1.00  0.00     0.222 A 
ATOM     16  C   UNL A   1      32.982  24.576  25.475  1.00  0.00     0.149 C 
ATOM     17  H   UNL A   1      30.063  22.353  28.074  1.00  0.00     0.193 HD
ATOM     18  O   UNL A   1      32.664  22.409  27.415  1.00  0.00    -0.422 OA
ATOM     19  C   UNL A   1      33.173  26.083  25.677  1.00  0.00     0.248 C 
ATOM     20  C   UNL A   1      32.874  24.476  23.978  1.00  0.00     0.002 A 
ATOM     21  C   UNL A   1      34.152  23.773  26.058  1.00  0.00     0.114 C 
ATOM     22  C   UNL A   1      33.946  22.766  26.957  1.00  0.00     0.208 C 
ATOM     23  O   UNL A   1      33.004  26.688  26.731  1.00  0.00    -0.273 OA
ATOM     24  C   UNL A   1      33.233  25.709  23.413  1.00  0.00     0.050 A 
ATOM     25  C   UNL A   1      32.515  23.391  23.187  1.00  0.00     0.008 A 
ATOM     26  C   UNL A   1      33.239  25.880  22.040  1.00  0.00     0.027 A 
ATOM     27  C   UNL A   1      32.499  23.563  21.805  1.00  0.00     0.001 A 
ATOM     28  C   UNL A   1      32.862  24.796  21.237  1.00  0.00     0.002 A 
BRANCH  21  29
ATOM     29  C   UNL A   1      35.586  24.033  25.629  1.00  0.00     0.102 C 
ATOM     30  N   UNL A   1      36.776  24.248  25.273  1.00  0.00    -0.193 NA
ENDBRANCH  21  29
BRANCH  22  31
ATOM     31  N   UNL A   1      34.920  21.986  27.509  1.00  0.00    -0.369 N 
ATOM     32  H   UNL A   1      35.840  22.031  27.164  1.00  0.00     0.159 HD
ATOM     33  H   UNL A   1      34.701  21.380  28.253  1.00  0.00     0.159 HD
ENDBRANCH  22  31
ENDBRANCH   7   9
ENDBRANCH   4   7
ENDBRANCH   2   3
ENDBRANCH   1   2
BRANCH   1  34
ATOM     34  C   UNL A   1      34.543  32.436  27.619  1.00  0.00     0.118 C 
BRANCH  34  35
ATOM     35  N   UNL A   1      34.861  33.069  28.877  1.00  0.00    -0.352 N 
ATOM     36  C   UNL A   1      35.845  32.923  29.815  1.00  0.00     0.251 C 
ATOM     37  H   UNL A   1      34.215  33.773  29.117  1.00  0.00     0.163 HD
ATOM     38  O   UNL A   1      35.762  33.696  30.775  1.00  0.00    -0.269 OA
BRANCH  36  39
ATOM     39  C   UNL A   1      36.955  31.922  29.788  1.00  0.00     0.039 A 
ATOM     40  C   UNL A   1      36.847  30.558  29.507  1.00  0.00     0.014 A 
ATOM     41  C   UNL A   1      38.236  32.434  30.084  1.00  0.00     0.014 A 
ATOM     42  C   UNL A   1      37.973  29.726  29.574  1.00  0.00     0.010 A 
ATOM     43  C   UNL A   1      39.361  31.612  30.135  1.00  0.00     0.010 A 
ATOM     44  C   UNL A   1      39.227  30.245  29.910  1.00  0.00    -0.014 A 
BRANCH  44  45
ATOM     45  C   UNL A   1      40.381  29.339  29.965  1.00  0.00     0.031 A 
ATOM     46  C   UNL A   1      40.794  28.849  31.315  1.00  0.00     0.074 A 
ATOM     47  C   UNL A   1      40.965  28.804  28.872  1.00  0.00     0.049 A 
ATOM     48  N   UNL A   1      41.932  28.989  31.920  1.00  0.00    -0.248 NA
ATOM     49  C   UNL A   1      39.782  28.143  32.114  1.00  0.00     0.031 C 
ATOM     50  C   UNL A   1      40.482  28.836  27.489  1.00  0.00     0.029 A 
ATOM     51  N   UNL A   1      42.068  28.001  28.797  1.00  0.00    -0.354 N 
ATOM     52  C   UNL A   1      41.839  28.269  33.117  1.00  0.00     0.074 A 
ATOM     53  C   UNL A   1      40.461  27.859  33.227  1.00  0.00     0.031 C 
ATOM     54  C   UNL A   1      41.146  27.907  26.766  1.00  0.00     0.029 A 
ATOM     55  C   UNL A   1      42.197  27.332  27.590  1.00  0.00     0.049 A 
ATOM     56  H   UNL A   1      42.713  27.906  29.535  1.00  0.00     0.167 HD
ATOM     57  C   UNL A   1      42.931  27.944  33.873  1.00  0.00     0.034 A 
ATOM     58  C   UNL A   1      43.052  26.321  27.305  1.00  0.00     0.034 A 
ATOM     59  C   UNL A   1      44.096  28.668  33.453  1.00  0.00     0.049 A 
ATOM     60  C   UNL A   1      44.129  26.297  28.320  1.00  0.00     0.074 A 
ATOM     61  C   UNL A   1      44.475  29.994  33.442  1.00  0.00     0.029 A 
ATOM     62  N   UNL A   1      45.011  28.006  32.674  1.00  0.00    -0.354 N 
ATOM     63  N   UNL A   1      45.083  27.178  28.418  1.00  0.00    -0.248 NA
ATOM     64  C   UNL A   1      43.940  25.448  29.485  1.00  0.00     0.031 C 
ATOM     65  C   UNL A   1      45.308  30.129  32.298  1.00  0.00     0.029 A 
ATOM     66  C   UNL A   1      45.414  28.873  31.694  1.00  0.00     0.049 A 
ATOM     67  H   UNL A   1      45.320  27.079  32.797  1.00  0.00     0.167 HD
ATOM     68  C   UNL A   1      45.302  27.301  29.780  1.00  0.00     0.074 A 
ATOM     69  C   UNL A   1      44.678  26.121  30.371  1.00  0.00     0.031 C 
ATOM     70  C   UNL A   1      45.714  28.481  30.330  1.00  0.00     0.034 A 
BRANCH  57  71
ATOM     71  C   UNL A   1      43.032  26.783  34.840  1.00  0.00     0.023 A 
ATOM     72  C   UNL A   1      43.778  25.623  34.571  1.00  0.00     0.031 A 
ATOM     73  C   UNL A   1      42.548  26.906  36.164  1.00  0.00     0.131 A 
ATOM     74  C   UNL A   1      44.008  24.652  35.558  1.00  0.00     0.055 A 
ATOM     75  C   UNL A   1      42.835  25.970  37.167  1.00  0.00     0.041 A 
ATOM     76  F   UNL A   1      41.824  27.970  36.543  1.00  0.00    -0.206 F 
ATOM     77  C   UNL A   1      43.568  24.833  36.866  1.00  0.00     0.022 A 
BRANCH  74  78
ATOM     78  S   UNL A   1      44.895  23.124  35.153  1.00  0.00     0.124 S 
ATOM     79  O   UNL A   1      45.976  23.618  34.309  1.00  0.00    -0.237 OA
ATOM     80  O   UNL A   1      45.291  22.650  36.477  1.00  0.00    -0.237 OA
ATOM     81  O   UNL A   1      43.883  22.311  34.485  1.00  0.00    -0.744 OA
ENDBRANCH  74  78
ENDBRANCH  57  71
BRANCH  58  82
ATOM     82  C   UNL A   1      42.777  25.144  26.452  1.00  0.00     0.023 A 
ATOM     83  C   UNL A   1      41.802  24.212  26.853  1.00  0.00     0.031 A 
ATOM     84  C   UNL A   1      43.658  24.762  25.428  1.00  0.00     0.131 A 
ATOM     85  C   UNL A   1      41.758  22.936  26.276  1.00  0.00     0.055 A 
ATOM     86  C   UNL A   1      43.604  23.493  24.841  1.00  0.00     0.041 A 
ATOM     87  F   UNL A   1      44.631  25.593  25.022  1.00  0.00    -0.206 F 
ATOM     88  C   UNL A   1      42.658  22.568  25.275  1.00  0.00     0.022 A 
BRANCH  85  89
ATOM     89  S   UNL A   1      40.573  21.703  26.876  1.00  0.00     0.124 S 
ATOM     90  O   UNL A   1      39.297  22.253  26.426  1.00  0.00    -0.237 OA
ATOM     91  O   UNL A   1      41.019  20.501  26.180  1.00  0.00    -0.237 OA
ATOM     92  O   UNL A   1      40.772  21.712  28.322  1.00  0.00    -0.744 OA
ENDBRANCH  85  89
ENDBRANCH  58  82
BRANCH  70  93
ATOM     93  C   UNL A   1      46.247  29.577  29.434  1.00  0.00     0.023 A 
ATOM     94  C   UNL A   1      45.298  30.338  28.725  1.00  0.00     0.031 A 
ATOM     95  C   UNL A   1      47.600  29.732  29.077  1.00  0.00     0.131 A 
ATOM     96  C   UNL A   1      45.697  31.168  27.671  1.00  0.00     0.055 A 
ATOM     97  C   UNL A   1      48.001  30.631  28.084  1.00  0.00     0.041 A 
ATOM     98  F   UNL A   1      48.560  28.957  29.600  1.00  0.00    -0.206 F 
ATOM     99  C   UNL A   1      47.048  31.339  27.361  1.00  0.00     0.022 A 
BRANCH  96 100
ATOM    100  S   UNL A   1      44.462  31.874  26.549  1.00  0.00     0.124 S 
ATOM    101  O   UNL A   1      45.249  32.141  25.349  1.00  0.00    -0.237 OA
ATOM    102  O   UNL A   1      43.490  30.786  26.438  1.00  0.00    -0.237 OA
ATOM    103  O   UNL A   1      43.976  33.056  27.256  1.00  0.00    -0.744 OA
ENDBRANCH  96 100
ENDBRANCH  70  93
ENDBRANCH  44  45
ENDBRANCH  36  39
ENDBRANCH  34  35
ENDBRANCH   1  34
TORSDOF 16
ENDMDL
MODEL 2
REMARK VINA RESULT:     -12.9      3.255      8.813
REMARK SMILES Cc1n[nH]c2c1[C@@]1(C(=O)N([C@@H](C)C(=O)NCCCNC(=O)c3ccc(-c4c5nc(c(-c6cc(S(=O)(=O)[O-])ccc6F)c6ccc([nH]6)c(-c6cc(S(=O)(=O)[O-])ccc6F)c6nc(c(-c7cc(S(=O)(=O)[O-])ccc7F)c7ccc4[nH]7)C=C6)C=C5)cc3)c3ccccc31)C(C#N)=C(N)O2
REMARK SMILES IDX 17 1 16 2 15 3 13 4 14 5 11 7 12 8 10 9 1 10 2 11 3 12 6 13
REMARK SMILES IDX 4 14 5 15 7 16 96 18 8 19 90 20 91 21 94 22 9 23 85 24 89 25
REMARK SMILES IDX 86 26 88 27 87 28 92 29 93 30 95 31 18 34 19 35 20 36 21 38
REMARK SMILES IDX 22 39 23 40 84 41 24 42 83 43 25 44 26 45 27 46 77 47 28 48
REMARK SMILES IDX 82 49 76 50 78 51 29 52 81 53 75 54 74 55 30 57 62 58 42 59
REMARK SMILES IDX 61 60 43 61 46 62 60 63 79 64 44 65 45 66 59 68 80 69 47 70
REMARK SMILES IDX 31 71 32 72 40 73 33 74 39 75 41 76 38 77 34 78 35 79 36 80
REMARK SMILES IDX 37 81 63 82 64 83 72 84 65 85 71 86 73 87 70 88 66 89 67 90
REMARK SMILES IDX 68 91 69 92 48 93 49 94 57 95 50 96 56 97 58 98 55 99 51 100
REMARK SMILES IDX 52 101 53 102 54 103
REMARK H PARENT 15 6 4 17 95 32 95 33 19 37 78 56 46 67
REMARK Flexibility Score: inf
ROOT
ATOM      1  C   UNL A   1      38.799  21.307  25.729  1.00  0.00     0.042 C 
ENDROOT
BRANCH   1   2
ATOM      2  C   UNL A   1      37.604  22.251  25.538  1.00  0.00     0.117 C 
BRANCH   2   3
ATOM      3  N   UNL A   1      36.327  21.555  25.454  1.00  0.00    -0.354 N 
ATOM      4  C   UNL A   1      35.053  21.876  25.806  1.00  0.00     0.242 C 
ATOM      5  O   UNL A   1      34.189  21.040  25.494  1.00  0.00    -0.273 OA
ATOM      6  H   UNL A   1      36.402  20.658  25.056  1.00  0.00     0.163 HD
BRANCH   4   7
ATOM      7  C   UNL A   1      34.609  23.143  26.581  1.00  0.00     0.176 C 
ATOM      8  C   UNL A   1      34.059  22.911  27.983  1.00  0.00     0.042 C 
BRANCH   7   9
ATOM      9  N   UNL A   1      33.818  24.052  25.760  1.00  0.00    -0.298 N 
ATOM     10  C   UNL A   1      32.979  22.919  22.149  1.00  0.00     0.069 C 
ATOM     11  C   UNL A   1      32.923  24.368  21.841  1.00  0.00     0.068 A 
ATOM     12  N   UNL A   1      32.824  24.746  20.559  1.00  0.00    -0.177 NA
ATOM     13  C   UNL A   1      33.016  25.491  22.704  1.00  0.00     0.063 A 
ATOM     14  N   UNL A   1      32.948  26.091  20.586  1.00  0.00    -0.246 N 
ATOM     15  C   UNL A   1      33.078  26.566  21.854  1.00  0.00     0.222 A 
ATOM     16  C   UNL A   1      33.223  25.698  24.165  1.00  0.00     0.149 C 
ATOM     17  H   UNL A   1      32.945  26.660  19.782  1.00  0.00     0.193 HD
ATOM     18  O   UNL A   1      33.304  27.835  22.169  1.00  0.00    -0.422 OA
ATOM     19  C   UNL A   1      34.317  24.744  24.658  1.00  0.00     0.248 C 
ATOM     20  C   UNL A   1      32.012  25.183  24.894  1.00  0.00     0.002 A 
ATOM     21  C   UNL A   1      33.557  27.159  24.491  1.00  0.00     0.114 C 
ATOM     22  C   UNL A   1      33.574  28.118  23.520  1.00  0.00     0.208 C 
ATOM     23  O   UNL A   1      35.405  24.568  24.119  1.00  0.00    -0.273 OA
ATOM     24  C   UNL A   1      32.425  24.257  25.864  1.00  0.00     0.050 A 
ATOM     25  C   UNL A   1      30.673  25.518  24.732  1.00  0.00     0.008 A 
ATOM     26  C   UNL A   1      31.502  23.647  26.693  1.00  0.00     0.027 A 
ATOM     27  C   UNL A   1      29.736  24.891  25.551  1.00  0.00     0.001 A 
ATOM     28  C   UNL A   1      30.148  23.966  26.525  1.00  0.00     0.002 A 
BRANCH  21  29
ATOM     29  C   UNL A   1      33.840  27.611  25.914  1.00  0.00     0.102 C 
ATOM     30  N   UNL A   1      34.075  27.987  27.094  1.00  0.00    -0.193 NA
ENDBRANCH  21  29
BRANCH  22  31
ATOM     31  N   UNL A   1      33.836  29.442  23.720  1.00  0.00    -0.369 N 
ATOM     32  H   UNL A   1      34.745  29.733  23.962  1.00  0.00     0.159 HD
ATOM     33  H   UNL A   1      33.116  30.107  23.621  1.00  0.00     0.159 HD
ENDBRANCH  22  31
ENDBRANCH   7   9
ENDBRANCH   4   7
ENDBRANCH   2   3
ENDBRANCH   1   2
BRANCH   1  34
ATOM     34  C   UNL A   1      39.926  21.843  26.599  1.00  0.00     0.118 C 
BRANCH  34  35
ATOM     35  N   UNL A   1      41.140  22.105  25.862  1.00  0.00    -0.352 N 
ATOM     36  C   UNL A   1      42.062  23.114  25.841  1.00  0.00     0.251 C 
ATOM     37  H   UNL A   1      41.352  21.387  25.221  1.00  0.00     0.163 HD
ATOM     38  O   UNL A   1      42.994  22.944  25.048  1.00  0.00    -0.269 OA
BRANCH  36  39
ATOM     39  C   UNL A   1      42.023  24.370  26.650  1.00  0.00     0.039 A 
ATOM     40  C   UNL A   1      42.753  24.644  27.809  1.00  0.00     0.014 A 
ATOM     41  C   UNL A   1      41.145  25.366  26.174  1.00  0.00     0.014 A 
ATOM     42  C   UNL A   1      42.571  25.851  28.497  1.00  0.00     0.010 A 
ATOM     43  C   UNL A   1      40.973  26.575  26.848  1.00  0.00     0.010 A 
ATOM     44  C   UNL A   1      41.665  26.810  28.031  1.00  0.00    -0.014 A 
BRANCH  44  45
ATOM     45  C   UNL A   1      41.507  28.062  28.781  1.00  0.00     0.031 A 
ATOM     46  C   UNL A   1      42.444  29.177  28.443  1.00  0.00     0.074 A 
ATOM     47  C   UNL A   1      40.476  28.310  29.615  1.00  0.00     0.049 A 
ATOM     48  N   UNL A   1      43.284  29.796  29.212  1.00  0.00    -0.248 NA
ATOM     49  C   UNL A   1      42.476  29.631  27.046  1.00  0.00     0.031 C 
ATOM     50  C   UNL A   1      39.252  27.523  29.790  1.00  0.00     0.029 A 
ATOM     51  N   UNL A   1      40.255  29.405  30.402  1.00  0.00    -0.354 N 
ATOM     52  C   UNL A   1      43.853  30.817  28.441  1.00  0.00     0.074 A 
ATOM     53  C   UNL A   1      43.394  30.598  27.093  1.00  0.00     0.031 C 
ATOM     54  C   UNL A   1      38.331  28.272  30.437  1.00  0.00     0.029 A 
ATOM     55  C   UNL A   1      38.950  29.519  30.856  1.00  0.00     0.049 A 
ATOM     56  H   UNL A   1      40.959  30.055  30.626  1.00  0.00     0.167 HD
ATOM     57  C   UNL A   1      44.558  31.853  28.988  1.00  0.00     0.034 A 
ATOM     58  C   UNL A   1      38.388  30.591  31.463  1.00  0.00     0.034 A 
ATOM     59  C   UNL A   1      44.882  31.602  30.363  1.00  0.00     0.049 A 
ATOM     60  C   UNL A   1      39.459  31.481  31.963  1.00  0.00     0.074 A 
ATOM     61  C   UNL A   1      45.667  30.689  31.034  1.00  0.00     0.029 A 
ATOM     62  N   UNL A   1      44.118  32.220  31.320  1.00  0.00    -0.354 N 
ATOM     63  N   UNL A   1      40.236  31.219  32.975  1.00  0.00    -0.248 NA
ATOM     64  C   UNL A   1      39.912  32.552  31.089  1.00  0.00     0.031 C 
ATOM     65  C   UNL A   1      45.010  30.481  32.278  1.00  0.00     0.029 A 
ATOM     66  C   UNL A   1      43.878  31.301  32.306  1.00  0.00     0.049 A 
ATOM     67  H   UNL A   1      43.801  33.152  31.302  1.00  0.00     0.167 HD
ATOM     68  C   UNL A   1      41.462  31.758  32.620  1.00  0.00     0.074 A 
ATOM     69  C   UNL A   1      41.166  32.681  31.527  1.00  0.00     0.031 C 
ATOM     70  C   UNL A   1      42.634  31.202  33.045  1.00  0.00     0.034 A 
BRANCH  57  71
ATOM     71  C   UNL A   1      44.753  33.222  28.371  1.00  0.00     0.023 A 
ATOM     72  C   UNL A   1      45.940  33.611  27.728  1.00  0.00     0.031 A 
ATOM     73  C   UNL A   1      43.660  34.108  28.226  1.00  0.00     0.131 A 
ATOM     74  C   UNL A   1      46.024  34.811  27.004  1.00  0.00     0.055 A 
ATOM     75  C   UNL A   1      43.724  35.271  27.447  1.00  0.00     0.041 A 
ATOM     76  F   UNL A   1      42.472  33.845  28.793  1.00  0.00    -0.206 F 
ATOM     77  C   UNL A   1      44.912  35.630  26.831  1.00  0.00     0.022 A 
BRANCH  74  78
ATOM     78  S   UNL A   1      47.597  35.329  26.264  1.00  0.00     0.124 S 
ATOM     79  O   UNL A   1      47.403  36.767  26.124  1.00  0.00    -0.237 OA
ATOM     80  O   UNL A   1      48.556  34.915  27.286  1.00  0.00    -0.237 OA
ATOM     81  O   UNL A   1      47.653  34.566  25.020  1.00  0.00    -0.744 OA
ENDBRANCH  74  78
ENDBRANCH  57  71
BRANCH  58  82
ATOM     82  C   UNL A   1      37.004  31.084  31.286  1.00  0.00     0.023 A 
ATOM     83  C   UNL A   1      36.527  31.355  29.990  1.00  0.00     0.031 A 
ATOM     84  C   UNL A   1      36.261  31.581  32.369  1.00  0.00     0.131 A 
ATOM     85  C   UNL A   1      35.379  32.137  29.804  1.00  0.00     0.055 A 
ATOM     86  C   UNL A   1      35.106  32.348  32.183  1.00  0.00     0.041 A 
ATOM     87  F   UNL A   1      36.680  31.384  33.628  1.00  0.00    -0.206 F 
ATOM     88  C   UNL A   1      34.668  32.641  30.894  1.00  0.00     0.022 A 
BRANCH  85  89
ATOM     89  S   UNL A   1      34.834  32.577  28.132  1.00  0.00     0.124 S 
ATOM     90  O   UNL A   1      34.515  31.273  27.556  1.00  0.00    -0.237 OA
ATOM     91  O   UNL A   1      33.691  33.438  28.410  1.00  0.00    -0.237 OA
ATOM     92  O   UNL A   1      36.002  33.236  27.555  1.00  0.00    -0.744 OA
ENDBRANCH  85  89
ENDBRANCH  58  82
BRANCH  70  93
ATOM     93  C   UNL A   1      42.615  30.187  34.166  1.00  0.00     0.023 A 
ATOM     94  C   UNL A   1      43.172  30.588  35.396  1.00  0.00     0.031 A 
ATOM     95  C   UNL A   1      42.311  28.822  34.006  1.00  0.00     0.131 A 
ATOM     96  C   UNL A   1      43.457  29.642  36.388  1.00  0.00     0.055 A 
ATOM     97  C   UNL A   1      42.515  27.896  35.034  1.00  0.00     0.041 A 
ATOM     98  F   UNL A   1      41.905  28.325  32.830  1.00  0.00    -0.206 F 
ATOM     99  C   UNL A   1      43.109  28.299  36.225  1.00  0.00     0.022 A 
BRANCH  96 100
ATOM    100  S   UNL A   1      44.475  30.097  37.817  1.00  0.00     0.124 S 
ATOM    101  O   UNL A   1      45.630  30.729  37.186  1.00  0.00    -0.237 OA
ATOM    102  O   UNL A   1      43.586  30.996  38.553  1.00  0.00    -0.237 OA
ATOM    103  O   UNL A   1      44.742  28.825  38.482  1.00  0.00    -0.744 OA
ENDBRANCH  96 100
ENDBRANCH  70  93
ENDBRANCH  44  45
ENDBRANCH  36  39
ENDBRANCH  34  35
ENDBRANCH   1  34
TORSDOF 16
ENDMDL
MODEL 3
REMARK VINA RESULT:     -12.8      1.441      1.774
REMARK SMILES Cc1n[nH]c2c1[C@@]1(C(=O)N([C@@H](C)C(=O)NCCCNC(=O)c3ccc(-c4c5nc(c(-c6cc(S(=O)(=O)[O-])ccc6F)c6ccc([nH]6)c(-c6cc(S(=O)(=O)[O-])ccc6F)c6nc(c(-c7cc(S(=O)(=O)[O-])ccc7F)c7ccc4[nH]7)C=C6)C=C5)cc3)c3ccccc31)C(C#N)=C(N)O2
REMARK SMILES IDX 17 1 16 2 15 3 13 4 14 5 11 7 12 8 10 9 1 10 2 11 3 12 6 13
REMARK SMILES IDX 4 14 5 15 7 16 96 18 8 19 90 20 91 21 94 22 9 23 85 24 89 25
REMARK SMILES IDX 86 26 88 27 87 28 92 29 93 30 95 31 18 34 19 35 20 36 21 38
REMARK SMILES IDX 22 39 23 40 84 41 24 42 83 43 25 44 26 45 27 46 77 47 28 48
REMARK SMILES IDX 82 49 76 50 78 51 29 52 81 53 75 54 74 55 30 57 62 58 42 59
REMARK SMILES IDX 61 60 43 61 46 62 60 63 79 64 44 65 45 66 59 68 80 69 47 70
REMARK SMILES IDX 31 71 32 72 40 73 33 74 39 75 41 76 38 77 34 78 35 79 36 80
REMARK SMILES IDX 37 81 63 82 64 83 72 84 65 85 71 86 73 87 70 88 66 89 67 90
REMARK SMILES IDX 68 91 69 92 48 93 49 94 57 95 50 96 56 97 58 98 55 99 51 100
REMARK SMILES IDX 52 101 53 102 54 103
REMARK H PARENT 15 6 4 17 95 32 95 33 19 37 78 56 46 67
REMARK Flexibility Score: inf
ROOT
ATOM      1  C   UNL A   1      33.843  30.076  27.229  1.00  0.00     0.042 C 
ENDROOT
BRANCH   1   2
ATOM      2  C   UNL A   1      32.365  29.701  27.055  1.00  0.00     0.117 C 
BRANCH   2   3
ATOM      3  N   UNL A   1      31.937  29.676  25.662  1.00  0.00    -0.354 N 
ATOM      4  C   UNL A   1      32.358  29.003  24.558  1.00  0.00     0.242 C 
ATOM      5  O   UNL A   1      31.677  29.179  23.535  1.00  0.00    -0.273 OA
ATOM      6  H   UNL A   1      31.178  30.276  25.480  1.00  0.00     0.163 HD
BRANCH   4   7
ATOM      7  C   UNL A   1      33.610  28.093  24.463  1.00  0.00     0.176 C 
ATOM      8  C   UNL A   1      34.580  28.404  23.329  1.00  0.00     0.042 C 
BRANCH   7   9
ATOM      9  N   UNL A   1      33.287  26.680  24.616  1.00  0.00    -0.298 N 
ATOM     10  C   UNL A   1      29.629  25.776  25.525  1.00  0.00     0.069 C 
ATOM     11  C   UNL A   1      30.216  24.568  26.153  1.00  0.00     0.068 A 
ATOM     12  N   UNL A   1      29.423  23.787  26.901  1.00  0.00    -0.177 NA
ATOM     13  C   UNL A   1      31.553  24.093  26.150  1.00  0.00     0.063 A 
ATOM     14  N   UNL A   1      30.256  22.876  27.450  1.00  0.00    -0.246 N 
ATOM     15  C   UNL A   1      31.540  23.041  27.030  1.00  0.00     0.222 A 
ATOM     16  C   UNL A   1      32.852  24.567  25.594  1.00  0.00     0.149 C 
ATOM     17  H   UNL A   1      29.968  22.175  28.079  1.00  0.00     0.193 HD
ATOM     18  O   UNL A   1      32.578  22.345  27.476  1.00  0.00    -0.422 OA
ATOM     19  C   UNL A   1      32.980  26.075  25.834  1.00  0.00     0.248 C 
ATOM     20  C   UNL A   1      32.778  24.499  24.092  1.00  0.00     0.002 A 
ATOM     21  C   UNL A   1      34.039  23.797  26.182  1.00  0.00     0.114 C 
ATOM     22  C   UNL A   1      33.853  22.761  27.053  1.00  0.00     0.208 C 
ATOM     23  O   UNL A   1      32.766  26.649  26.897  1.00  0.00    -0.273 OA
ATOM     24  C   UNL A   1      33.100  25.758  23.563  1.00  0.00     0.050 A 
ATOM     25  C   UNL A   1      32.476  23.420  23.270  1.00  0.00     0.008 A 
ATOM     26  C   UNL A   1      33.128  25.961  22.195  1.00  0.00     0.027 A 
ATOM     27  C   UNL A   1      32.482  23.624  21.891  1.00  0.00     0.001 A 
ATOM     28  C   UNL A   1      32.808  24.882  21.359  1.00  0.00     0.002 A 
BRANCH  21  29
ATOM     29  C   UNL A   1      35.470  24.120  25.789  1.00  0.00     0.102 C 
ATOM     30  N   UNL A   1      36.659  24.389  25.463  1.00  0.00    -0.193 NA
ENDBRANCH  21  29
BRANCH  22  31
ATOM     31  N   UNL A   1      34.845  22.006  27.608  1.00  0.00    -0.369 N 
ATOM     32  H   UNL A   1      35.511  22.425  28.200  1.00  0.00     0.159 HD
ATOM     33  H   UNL A   1      34.895  21.042  27.416  1.00  0.00     0.159 HD
ENDBRANCH  22  31
ENDBRANCH   7   9
ENDBRANCH   4   7
ENDBRANCH   2   3
ENDBRANCH   1   2
BRANCH   1  34
ATOM     34  C   UNL A   1      34.128  31.560  27.404  1.00  0.00     0.118 C 
BRANCH  34  35
ATOM     35  N   UNL A   1      34.087  31.990  28.782  1.00  0.00    -0.352 N 
ATOM     36  C   UNL A   1      34.957  31.948  29.836  1.00  0.00     0.251 C 
ATOM     37  H   UNL A   1      33.230  32.413  29.018  1.00  0.00     0.163 HD
ATOM     38  O   UNL A   1      34.528  32.453  30.879  1.00  0.00    -0.269 OA
BRANCH  36  39
ATOM     39  C   UNL A   1      36.321  31.338  29.838  1.00  0.00     0.039 A 
ATOM     40  C   UNL A   1      37.540  32.011  29.723  1.00  0.00     0.014 A 
ATOM     41  C   UNL A   1      36.354  29.934  29.968  1.00  0.00     0.014 A 
ATOM     42  C   UNL A   1      38.746  31.298  29.684  1.00  0.00     0.010 A 
ATOM     43  C   UNL A   1      37.554  29.223  29.945  1.00  0.00     0.010 A 
ATOM     44  C   UNL A   1      38.755  29.902  29.772  1.00  0.00    -0.014 A 
BRANCH  44  45
ATOM     45  C   UNL A   1      40.041  29.195  29.731  1.00  0.00     0.031 A 
ATOM     46  C   UNL A   1      40.695  28.900  31.042  1.00  0.00     0.074 A 
ATOM     47  C   UNL A   1      40.564  28.660  28.608  1.00  0.00     0.049 A 
ATOM     48  N   UNL A   1      41.860  29.270  31.472  1.00  0.00    -0.248 NA
ATOM     49  C   UNL A   1      39.923  28.122  32.021  1.00  0.00     0.031 C 
ATOM     50  C   UNL A   1      39.914  28.489  27.306  1.00  0.00     0.029 A 
ATOM     51  N   UNL A   1      41.768  28.034  28.438  1.00  0.00    -0.354 N 
ATOM     52  C   UNL A   1      42.039  28.657  32.718  1.00  0.00     0.074 A 
ATOM     53  C   UNL A   1      40.774  28.051  33.046  1.00  0.00     0.031 C 
ATOM     54  C   UNL A   1      40.627  27.613  26.565  1.00  0.00     0.029 A 
ATOM     55  C   UNL A   1      41.854  27.286  27.274  1.00  0.00     0.049 A 
ATOM     56  H   UNL A   1      42.506  28.109  29.084  1.00  0.00     0.167 HD
ATOM     57  C   UNL A   1      43.256  28.577  33.337  1.00  0.00     0.034 A 
ATOM     58  C   UNL A   1      42.823  26.399  26.945  1.00  0.00     0.034 A 
ATOM     59  C   UNL A   1      44.223  29.432  32.711  1.00  0.00     0.049 A 
ATOM     60  C   UNL A   1      44.007  26.635  27.800  1.00  0.00     0.074 A 
ATOM     61  C   UNL A   1      44.372  30.794  32.554  1.00  0.00     0.029 A 
ATOM     62  N   UNL A   1      45.130  28.852  31.861  1.00  0.00    -0.354 N 
ATOM     63  N   UNL A   1      44.806  27.659  27.703  1.00  0.00    -0.248 NA
ATOM     64  C   UNL A   1      44.109  25.878  29.038  1.00  0.00     0.031 C 
ATOM     65  C   UNL A   1      45.021  30.952  31.299  1.00  0.00     0.029 A 
ATOM     66  C   UNL A   1      45.258  29.677  30.776  1.00  0.00     0.049 A 
ATOM     67  H   UNL A   1      45.602  28.000  32.004  1.00  0.00     0.167 HD
ATOM     68  C   UNL A   1      45.170  27.939  29.011  1.00  0.00     0.074 A 
ATOM     69  C   UNL A   1      44.830  26.735  29.763  1.00  0.00     0.031 C 
ATOM     70  C   UNL A   1      45.446  29.213  29.415  1.00  0.00     0.034 A 
BRANCH  57  71
ATOM     71  C   UNL A   1      43.669  27.539  34.360  1.00  0.00     0.023 A 
ATOM     72  C   UNL A   1      43.654  26.158  34.101  1.00  0.00     0.031 A 
ATOM     73  C   UNL A   1      44.300  27.929  35.565  1.00  0.00     0.131 A 
ATOM     74  C   UNL A   1      44.218  25.237  34.996  1.00  0.00     0.055 A 
ATOM     75  C   UNL A   1      44.923  27.015  36.425  1.00  0.00     0.041 A 
ATOM     76  F   UNL A   1      44.379  29.220  35.921  1.00  0.00    -0.206 F 
ATOM     77  C   UNL A   1      44.884  25.659  36.144  1.00  0.00     0.022 A 
BRANCH  74  78
ATOM     78  S   UNL A   1      44.099  23.456  34.678  1.00  0.00     0.124 S 
ATOM     79  O   UNL A   1      44.852  22.900  35.796  1.00  0.00    -0.237 OA
ATOM     80  O   UNL A   1      42.654  23.242  34.719  1.00  0.00    -0.237 OA
ATOM     81  O   UNL A   1      44.708  23.306  33.359  1.00  0.00    -0.744 OA
ENDBRANCH  74  78
ENDBRANCH  57  71
BRANCH  58  82
ATOM     82  C   UNL A   1      42.643  25.120  26.223  1.00  0.00     0.023 A 
ATOM     83  C   UNL A   1      41.672  24.204  26.669  1.00  0.00     0.031 A 
ATOM     84  C   UNL A   1      43.603  24.655  25.310  1.00  0.00     0.131 A 
ATOM     85  C   UNL A   1      41.707  22.869  26.247  1.00  0.00     0.055 A 
ATOM     86  C   UNL A   1      43.628  23.325  24.876  1.00  0.00     0.041 A 
ATOM     87  F   UNL A   1      44.575  25.470  24.871  1.00  0.00    -0.206 F 
ATOM     88  C   UNL A   1      42.684  22.421  25.357  1.00  0.00     0.022 A 
BRANCH  85  89
ATOM     89  S   UNL A   1      40.522  21.669  26.912  1.00  0.00     0.124 S 
ATOM     90  O   UNL A   1      40.842  20.462  26.154  1.00  0.00    -0.237 OA
ATOM     91  O   UNL A   1      40.890  21.641  28.323  1.00  0.00    -0.237 OA
ATOM     92  O   UNL A   1      39.225  22.265  26.605  1.00  0.00    -0.744 OA
ENDBRANCH  85  89
ENDBRANCH  58  82
BRANCH  70  93
ATOM     93  C   UNL A   1      45.673  30.293  28.379  1.00  0.00     0.023 A 
ATOM     94  C   UNL A   1      46.997  30.740  28.206  1.00  0.00     0.031 A 
ATOM     95  C   UNL A   1      44.650  31.038  27.762  1.00  0.00     0.131 A 
ATOM     96  C   UNL A   1      47.261  31.915  27.492  1.00  0.00     0.055 A 
ATOM     97  C   UNL A   1      44.929  32.160  26.974  1.00  0.00     0.041 A 
ATOM     98  F   UNL A   1      43.355  30.770  27.978  1.00  0.00    -0.206 F 
ATOM     99  C   UNL A   1      46.237  32.615  26.852  1.00  0.00     0.022 A 
BRANCH  96 100
ATOM    100  S   UNL A   1      48.908  32.670  27.557  1.00  0.00     0.124 S 
ATOM    101  O   UNL A   1      48.596  34.072  27.823  1.00  0.00    -0.237 OA
ATOM    102  O   UNL A   1      49.535  31.943  28.660  1.00  0.00    -0.237 OA
ATOM    103  O   UNL A   1      49.477  32.393  26.242  1.00  0.00    -0.744 OA
ENDBRANCH  96 100
ENDBRANCH  70  93
ENDBRANCH  44  45
ENDBRANCH  36  39
ENDBRANCH  34  35
ENDBRANCH   1  34
TORSDOF 16
ENDMDL
