MODEL 1
REMARK VINA RESULT:     -14.0      0.000      0.000
REMARK SMILES Cc1nc2sc3c(c2c2nc(CCC(=O)NCCCNC(=O)c4ccc(-c5c6nc(c(-c7cc(S(=O)(=O)[O-])ccc7F)c7ccc([nH]7)c(-c7cc(S(=O)(=O)[O-])ccc7F)c7nc(c(-c8cc(S(=O)(=O)[O-])ccc8F)c8ccc5[nH]8)C=C7)C=C6)cc4)nn12)[C@@H](C)CCC3
REMARK SMILES IDX 18 1 17 2 16 3 14 4 15 5 13 7 12 8 11 9 1 10 2 11 3 12 87 13
REMARK SMILES IDX 4 14 9 15 86 16 5 17 8 18 10 19 6 20 7 21 92 22 88 23 91 24
REMARK SMILES IDX 89 25 90 26 19 27 20 28 21 29 22 31 23 32 24 33 85 34 25 35
REMARK SMILES IDX 84 36 26 37 27 38 28 39 78 40 29 41 83 42 77 43 79 44 30 45
REMARK SMILES IDX 82 46 76 47 75 48 31 50 63 51 43 52 62 53 44 54 47 55 61 56
REMARK SMILES IDX 80 57 45 58 46 59 60 61 81 62 48 63 32 64 33 65 41 66 34 67
REMARK SMILES IDX 40 68 42 69 39 70 35 71 36 72 37 73 38 74 64 75 65 76 73 77
REMARK SMILES IDX 66 78 72 79 74 80 71 81 67 82 68 83 69 84 70 85 49 86 50 87
REMARK SMILES IDX 58 88 51 89 57 90 59 91 56 92 52 93 53 94 54 95 55 96
REMARK H PARENT 16 6 20 30 79 49 47 60
REMARK Flexibility Score: inf
ROOT
ATOM      1  C   UNL A   1      41.638  19.580  26.463  1.00  0.00     0.042 C 
ENDROOT
BRANCH   1   2
ATOM      2  C   UNL A   1      41.813  21.127  26.056  1.00  0.00     0.117 C 
BRANCH   2   3
ATOM      3  N   UNL A   1      40.686  22.078  26.042  1.00  0.00    -0.356 N 
ATOM      4  C   UNL A   1      39.311  21.991  25.957  1.00  0.00     0.220 C 
ATOM      5  O   UNL A   1      38.656  22.965  26.352  1.00  0.00    -0.275 OA
ATOM      6  H   UNL A   1      40.991  23.012  26.113  1.00  0.00     0.163 HD
BRANCH   4   7
ATOM      7  C   UNL A   1      38.531  20.780  25.456  1.00  0.00     0.108 C 
BRANCH   7   8
ATOM      8  C   UNL A   1      37.367  21.131  24.506  1.00  0.00     0.089 C 
BRANCH   8   9
ATOM      9  C   UNL A   1      36.083  20.889  25.184  1.00  0.00     0.152 A 
ATOM     10  C   UNL A   1      32.850  18.470  24.288  1.00  0.00     0.090 C 
ATOM     11  C   UNL A   1      32.845  19.791  24.994  1.00  0.00     0.131 A 
ATOM     12  N   UNL A   1      31.744  20.446  25.233  1.00  0.00    -0.222 NA
ATOM     13  N   UNL A   1      34.096  20.343  25.287  1.00  0.00    -0.199 N 
ATOM     14  C   UNL A   1      31.921  21.757  25.607  1.00  0.00     0.129 A 
ATOM     15  C   UNL A   1      34.254  21.613  25.790  1.00  0.00     0.168 A 
ATOM     16  N   UNL A   1      35.284  19.854  24.876  1.00  0.00    -0.150 NA
ATOM     17  S   UNL A   1      30.634  22.807  25.600  1.00  0.00    -0.120 S 
ATOM     18  C   UNL A   1      33.079  22.481  25.865  1.00  0.00     0.060 A 
ATOM     19  N   UNL A   1      35.513  21.916  25.866  1.00  0.00    -0.211 NA
ATOM     20  C   UNL A   1      31.635  24.174  25.493  1.00  0.00     0.011 A 
ATOM     21  C   UNL A   1      32.927  23.918  25.892  1.00  0.00    -0.018 A 
ATOM     22  C   UNL A   1      31.245  25.478  24.892  1.00  0.00     0.047 C 
ATOM     23  C   UNL A   1      33.875  25.117  26.065  1.00  0.00     0.018 C 
ATOM     24  C   UNL A   1      31.862  26.616  25.609  1.00  0.00     0.006 C 
ATOM     25  C   UNL A   1      35.193  24.988  25.362  1.00  0.00     0.013 C 
ATOM     26  C   UNL A   1      33.340  26.468  25.487  1.00  0.00     0.008 C 
ENDBRANCH   8   9
ENDBRANCH   7   8
ENDBRANCH   4   7
ENDBRANCH   2   3
ENDBRANCH   1   2
BRANCH   1  27
ATOM     27  C   UNL A   1      42.709  18.462  26.067  1.00  0.00     0.118 C 
BRANCH  27  28
ATOM     28  N   UNL A   1      43.821  18.752  24.967  1.00  0.00    -0.352 N 
ATOM     29  C   UNL A   1      44.840  19.661  24.465  1.00  0.00     0.251 C 
ATOM     30  H   UNL A   1      43.818  17.978  24.359  1.00  0.00     0.163 HD
ATOM     31  O   UNL A   1      45.659  19.105  23.713  1.00  0.00    -0.269 OA
BRANCH  29  32
ATOM     32  C   UNL A   1      45.134  21.175  24.675  1.00  0.00     0.039 A 
ATOM     33  C   UNL A   1      46.079  21.682  25.584  1.00  0.00     0.014 A 
ATOM     34  C   UNL A   1      44.570  22.203  23.916  1.00  0.00     0.014 A 
ATOM     35  C   UNL A   1      45.978  23.022  26.127  1.00  0.00     0.010 A 
ATOM     36  C   UNL A   1      44.381  23.504  24.499  1.00  0.00     0.010 A 
ATOM     37  C   UNL A   1      44.935  23.870  25.756  1.00  0.00    -0.014 A 
BRANCH  37  38
ATOM     38  C   UNL A   1      44.386  25.067  26.556  1.00  0.00     0.031 A 
ATOM     39  C   UNL A   1      45.204  26.292  26.347  1.00  0.00     0.074 A 
ATOM     40  C   UNL A   1      43.250  25.353  27.290  1.00  0.00     0.049 A 
ATOM     41  N   UNL A   1      46.332  26.497  26.937  1.00  0.00    -0.248 NA
ATOM     42  C   UNL A   1      44.902  27.270  25.288  1.00  0.00     0.031 C 
ATOM     43  C   UNL A   1      42.031  24.567  27.537  1.00  0.00     0.029 A 
ATOM     44  N   UNL A   1      42.904  26.542  27.936  1.00  0.00    -0.354 N 
ATOM     45  C   UNL A   1      46.735  27.758  26.550  1.00  0.00     0.074 A 
ATOM     46  C   UNL A   1      46.002  28.034  25.340  1.00  0.00     0.031 C 
ATOM     47  C   UNL A   1      41.034  25.343  28.054  1.00  0.00     0.029 A 
ATOM     48  C   UNL A   1      41.580  26.640  28.420  1.00  0.00     0.049 A 
ATOM     49  H   UNL A   1      43.550  27.276  28.049  1.00  0.00     0.167 HD
ATOM     50  C   UNL A   1      47.426  28.558  27.408  1.00  0.00     0.034 A 
ATOM     51  C   UNL A   1      41.023  27.612  29.221  1.00  0.00     0.034 A 
ATOM     52  C   UNL A   1      47.693  27.861  28.660  1.00  0.00     0.049 A 
ATOM     53  C   UNL A   1      42.142  28.125  30.036  1.00  0.00     0.074 A 
ATOM     54  C   UNL A   1      48.281  26.657  29.006  1.00  0.00     0.029 A 
ATOM     55  N   UNL A   1      46.909  28.196  29.746  1.00  0.00    -0.354 N 
ATOM     56  N   UNL A   1      42.794  27.398  30.896  1.00  0.00    -0.248 NA
ATOM     57  C   UNL A   1      42.801  29.343  29.610  1.00  0.00     0.031 C 
ATOM     58  C   UNL A   1      47.425  26.098  30.008  1.00  0.00     0.029 A 
ATOM     59  C   UNL A   1      46.428  27.029  30.295  1.00  0.00     0.049 A 
ATOM     60  H   UNL A   1      46.726  29.108  30.070  1.00  0.00     0.167 HD
ATOM     61  C   UNL A   1      44.109  27.785  30.728  1.00  0.00     0.074 A 
ATOM     62  C   UNL A   1      44.038  29.064  30.022  1.00  0.00     0.031 C 
ATOM     63  C   UNL A   1      45.125  26.896  30.921  1.00  0.00     0.034 A 
BRANCH  50  64
ATOM     64  C   UNL A   1      47.575  30.054  27.295  1.00  0.00     0.023 A 
ATOM     65  C   UNL A   1      46.408  30.801  27.050  1.00  0.00     0.031 A 
ATOM     66  C   UNL A   1      48.790  30.768  27.217  1.00  0.00     0.131 A 
ATOM     67  C   UNL A   1      46.476  32.158  26.697  1.00  0.00     0.055 A 
ATOM     68  C   UNL A   1      48.851  32.135  26.932  1.00  0.00     0.041 A 
ATOM     69  F   UNL A   1      49.985  30.175  27.314  1.00  0.00    -0.206 F 
ATOM     70  C   UNL A   1      47.692  32.835  26.647  1.00  0.00     0.022 A 
BRANCH  67  71
ATOM     71  S   UNL A   1      44.956  32.996  26.186  1.00  0.00     0.124 S 
ATOM     72  O   UNL A   1      44.597  33.722  27.409  1.00  0.00    -0.237 OA
ATOM     73  O   UNL A   1      45.419  33.813  25.073  1.00  0.00    -0.237 OA
ATOM     74  O   UNL A   1      44.065  31.900  25.831  1.00  0.00    -0.744 OA
ENDBRANCH  67  71
ENDBRANCH  50  64
BRANCH  51  75
ATOM     75  C   UNL A   1      39.676  28.283  29.327  1.00  0.00     0.023 A 
ATOM     76  C   UNL A   1      39.019  28.509  30.576  1.00  0.00     0.031 A 
ATOM     77  C   UNL A   1      39.188  29.028  28.239  1.00  0.00     0.131 A 
ATOM     78  C   UNL A   1      37.972  29.462  30.699  1.00  0.00     0.055 A 
ATOM     79  C   UNL A   1      38.159  29.977  28.367  1.00  0.00     0.041 A 
ATOM     80  F   UNL A   1      39.771  28.933  27.034  1.00  0.00    -0.206 F 
ATOM     81  C   UNL A   1      37.560  30.211  29.599  1.00  0.00     0.022 A 
BRANCH  78  82
ATOM     82  S   UNL A   1      37.219  29.873  32.322  1.00  0.00     0.124 S 
ATOM     83  O   UNL A   1      38.147  30.857  32.856  1.00  0.00    -0.237 OA
ATOM     84  O   UNL A   1      35.892  30.370  31.947  1.00  0.00    -0.237 OA
ATOM     85  O   UNL A   1      37.205  28.592  33.024  1.00  0.00    -0.744 OA
ENDBRANCH  78  82
ENDBRANCH  51  75
BRANCH  63  86
ATOM     86  C   UNL A   1      44.820  25.605  31.668  1.00  0.00     0.023 A 
ATOM     87  C   UNL A   1      44.690  25.467  33.071  1.00  0.00     0.031 A 
ATOM     88  C   UNL A   1      44.572  24.464  30.884  1.00  0.00     0.131 A 
ATOM     89  C   UNL A   1      44.326  24.225  33.635  1.00  0.00     0.055 A 
ATOM     90  C   UNL A   1      44.196  23.243  31.442  1.00  0.00     0.041 A 
ATOM     91  F   UNL A   1      44.670  24.525  29.546  1.00  0.00    -0.206 F 
ATOM     92  C   UNL A   1      44.075  23.117  32.821  1.00  0.00     0.022 A 
BRANCH  89  93
ATOM     93  S   UNL A   1      44.164  24.031  35.443  1.00  0.00     0.124 S 
ATOM     94  O   UNL A   1      44.430  22.614  35.660  1.00  0.00    -0.237 OA
ATOM     95  O   UNL A   1      45.172  24.955  35.958  1.00  0.00    -0.237 OA
ATOM     96  O   UNL A   1      42.781  24.437  35.708  1.00  0.00    -0.744 OA
ENDBRANCH  89  93
ENDBRANCH  63  86
ENDBRANCH  37  38
ENDBRANCH  29  32
ENDBRANCH  27  28
ENDBRANCH   1  27
TORSDOF 15
ENDMDL
MODEL 2
REMARK VINA RESULT:     -13.5      2.846      8.234
REMARK SMILES Cc1nc2sc3c(c2c2nc(CCC(=O)NCCCNC(=O)c4ccc(-c5c6nc(c(-c7cc(S(=O)(=O)[O-])ccc7F)c7ccc([nH]7)c(-c7cc(S(=O)(=O)[O-])ccc7F)c7nc(c(-c8cc(S(=O)(=O)[O-])ccc8F)c8ccc5[nH]8)C=C7)C=C6)cc4)nn12)[C@@H](C)CCC3
REMARK SMILES IDX 18 1 17 2 16 3 14 4 15 5 13 7 12 8 11 9 1 10 2 11 3 12 87 13
REMARK SMILES IDX 4 14 9 15 86 16 5 17 8 18 10 19 6 20 7 21 92 22 88 23 91 24
REMARK SMILES IDX 89 25 90 26 19 27 20 28 21 29 22 31 23 32 24 33 85 34 25 35
REMARK SMILES IDX 84 36 26 37 27 38 28 39 78 40 29 41 83 42 77 43 79 44 30 45
REMARK SMILES IDX 82 46 76 47 75 48 31 50 63 51 43 52 62 53 44 54 47 55 61 56
REMARK SMILES IDX 80 57 45 58 46 59 60 61 81 62 48 63 32 64 33 65 41 66 34 67
REMARK SMILES IDX 40 68 42 69 39 70 35 71 36 72 37 73 38 74 64 75 65 76 73 77
REMARK SMILES IDX 66 78 72 79 74 80 71 81 67 82 68 83 69 84 70 85 49 86 50 87
REMARK SMILES IDX 58 88 51 89 57 90 59 91 56 92 52 93 53 94 54 95 55 96
REMARK H PARENT 16 6 20 30 79 49 47 60
REMARK Flexibility Score: inf
ROOT
ATOM      1  C   UNL A   1      34.944  31.880  27.989  1.00  0.00     0.042 C 
ENDROOT
BRANCH   1   2
ATOM      2  C   UNL A   1      34.519  30.437  27.417  1.00  0.00     0.117 C 
BRANCH   2   3
ATOM      3  N   UNL A   1      33.712  30.274  26.193  1.00  0.00    -0.356 N 
ATOM      4  C   UNL A   1      33.098  29.225  25.539  1.00  0.00     0.220 C 
ATOM      5  O   UNL A   1      32.192  29.507  24.742  1.00  0.00    -0.275 OA
ATOM      6  H   UNL A   1      33.576  31.129  25.725  1.00  0.00     0.163 HD
BRANCH   4   7
ATOM      7  C   UNL A   1      33.413  27.748  25.746  1.00  0.00     0.108 C 
BRANCH   7   8
ATOM      8  C   UNL A   1      32.415  27.015  26.666  1.00  0.00     0.089 C 
BRANCH   8   9
ATOM      9  C   UNL A   1      31.920  25.802  25.995  1.00  0.00     0.152 A 
ATOM     10  C   UNL A   1      29.350  22.788  27.187  1.00  0.00     0.090 C 
ATOM     11  C   UNL A   1      30.521  22.687  26.257  1.00  0.00     0.131 A 
ATOM     12  N   UNL A   1      30.999  21.540  25.866  1.00  0.00    -0.222 NA
ATOM     13  N   UNL A   1      31.148  23.889  25.918  1.00  0.00    -0.199 N 
ATOM     14  C   UNL A   1      32.237  21.603  25.272  1.00  0.00     0.129 A 
ATOM     15  C   UNL A   1      32.323  23.945  25.203  1.00  0.00     0.168 A 
ATOM     16  N   UNL A   1      30.871  25.097  26.452  1.00  0.00    -0.150 NA
ATOM     17  S   UNL A   1      33.125  20.217  25.045  1.00  0.00    -0.120 S 
ATOM     18  C   UNL A   1      33.029  22.693  24.932  1.00  0.00     0.060 A 
ATOM     19  N   UNL A   1      32.744  25.169  25.121  1.00  0.00    -0.211 NA
ATOM     20  C   UNL A   1      34.592  21.066  24.944  1.00  0.00     0.011 A 
ATOM     21  C   UNL A   1      34.415  22.397  24.644  1.00  0.00    -0.018 A 
ATOM     22  C   UNL A   1      35.929  20.512  25.289  1.00  0.00     0.047 C 
ATOM     23  C   UNL A   1      35.662  23.226  24.296  1.00  0.00     0.018 C 
ATOM     24  C   UNL A   1      36.987  21.049  24.404  1.00  0.00     0.006 C 
ATOM     25  C   UNL A   1      35.803  24.509  25.059  1.00  0.00     0.013 C 
ATOM     26  C   UNL A   1      37.026  22.525  24.605  1.00  0.00     0.008 C 
ENDBRANCH   8   9
ENDBRANCH   7   8
ENDBRANCH   4   7
ENDBRANCH   2   3
ENDBRANCH   1   2
BRANCH   1  27
ATOM     27  C   UNL A   1      35.705  32.060  29.384  1.00  0.00     0.118 C 
BRANCH  27  28
ATOM     28  N   UNL A   1      35.946  30.817  30.347  1.00  0.00    -0.352 N 
ATOM     29  C   UNL A   1      36.753  29.647  30.658  1.00  0.00     0.251 C 
ATOM     30  H   UNL A   1      35.239  30.855  31.031  1.00  0.00     0.163 HD
ATOM     31  O   UNL A   1      36.616  29.262  31.832  1.00  0.00    -0.269 OA
BRANCH  29  32
ATOM     32  C   UNL A   1      37.759  28.782  29.845  1.00  0.00     0.039 A 
ATOM     33  C   UNL A   1      38.386  27.623  30.335  1.00  0.00     0.014 A 
ATOM     34  C   UNL A   1      38.081  28.995  28.502  1.00  0.00     0.014 A 
ATOM     35  C   UNL A   1      39.648  27.150  29.801  1.00  0.00     0.010 A 
ATOM     36  C   UNL A   1      39.376  28.614  28.007  1.00  0.00     0.010 A 
ATOM     37  C   UNL A   1      40.288  27.829  28.764  1.00  0.00    -0.014 A 
BRANCH  37  38
ATOM     38  C   UNL A   1      41.791  27.795  28.424  1.00  0.00     0.031 A 
ATOM     39  C   UNL A   1      42.123  26.671  27.509  1.00  0.00     0.074 A 
ATOM     40  C   UNL A   1      42.886  28.618  28.611  1.00  0.00     0.049 A 
ATOM     41  N   UNL A   1      42.251  25.451  27.906  1.00  0.00    -0.248 NA
ATOM     42  C   UNL A   1      42.120  26.819  26.043  1.00  0.00     0.031 C 
ATOM     43  C   UNL A   1      43.000  29.962  29.199  1.00  0.00     0.029 A 
ATOM     44  N   UNL A   1      44.204  28.426  28.191  1.00  0.00    -0.354 N 
ATOM     45  C   UNL A   1      42.633  24.731  26.794  1.00  0.00     0.074 A 
ATOM     46  C   UNL A   1      42.240  25.539  25.667  1.00  0.00     0.031 C 
ATOM     47  C   UNL A   1      44.204  30.533  28.906  1.00  0.00     0.029 A 
ATOM     48  C   UNL A   1      45.076  29.532  28.312  1.00  0.00     0.049 A 
ATOM     49  H   UNL A   1      44.510  27.564  27.827  1.00  0.00     0.167 HD
ATOM     50  C   UNL A   1      43.478  23.669  26.913  1.00  0.00     0.034 A 
ATOM     51  C   UNL A   1      46.440  29.579  28.131  1.00  0.00     0.034 A 
ATOM     52  C   UNL A   1      43.804  23.425  28.313  1.00  0.00     0.049 A 
ATOM     53  C   UNL A   1      46.920  28.225  28.469  1.00  0.00     0.074 A 
ATOM     54  C   UNL A   1      43.071  23.215  29.468  1.00  0.00     0.029 A 
ATOM     55  N   UNL A   1      45.044  23.841  28.752  1.00  0.00    -0.354 N 
ATOM     56  N   UNL A   1      46.818  27.705  29.657  1.00  0.00    -0.248 NA
ATOM     57  C   UNL A   1      47.157  27.289  27.388  1.00  0.00     0.031 C 
ATOM     58  C   UNL A   1      43.716  24.011  30.469  1.00  0.00     0.029 A 
ATOM     59  C   UNL A   1      44.860  24.572  29.903  1.00  0.00     0.049 A 
ATOM     60  H   UNL A   1      45.908  23.649  28.319  1.00  0.00     0.167 HD
ATOM     61  C   UNL A   1      46.471  26.390  29.416  1.00  0.00     0.074 A 
ATOM     62  C   UNL A   1      46.817  26.161  28.014  1.00  0.00     0.031 C 
ATOM     63  C   UNL A   1      45.677  25.708  30.290  1.00  0.00     0.034 A 
BRANCH  50  64
ATOM     64  C   UNL A   1      44.290  23.056  25.800  1.00  0.00     0.023 A 
ATOM     65  C   UNL A   1      44.109  21.683  25.553  1.00  0.00     0.031 A 
ATOM     66  C   UNL A   1      45.353  23.672  25.106  1.00  0.00     0.131 A 
ATOM     67  C   UNL A   1      44.981  20.978  24.707  1.00  0.00     0.055 A 
ATOM     68  C   UNL A   1      46.177  22.982  24.213  1.00  0.00     0.041 A 
ATOM     69  F   UNL A   1      45.718  24.941  25.321  1.00  0.00    -0.206 F 
ATOM     70  C   UNL A   1      46.009  21.622  24.025  1.00  0.00     0.022 A 
BRANCH  67  71
ATOM     71  S   UNL A   1      44.821  19.178  24.607  1.00  0.00     0.124 S 
ATOM     72  O   UNL A   1      43.366  19.017  24.526  1.00  0.00    -0.237 OA
ATOM     73  O   UNL A   1      45.564  18.874  23.393  1.00  0.00    -0.237 OA
ATOM     74  O   UNL A   1      45.429  18.713  25.846  1.00  0.00    -0.744 OA
ENDBRANCH  67  71
ENDBRANCH  50  64
BRANCH  51  75
ATOM     75  C   UNL A   1      47.422  30.584  27.582  1.00  0.00     0.023 A 
ATOM     76  C   UNL A   1      47.015  31.753  26.866  1.00  0.00     0.031 A 
ATOM     77  C   UNL A   1      48.742  30.595  28.065  1.00  0.00     0.131 A 
ATOM     78  C   UNL A   1      47.890  32.861  26.701  1.00  0.00     0.055 A 
ATOM     79  C   UNL A   1      49.600  31.697  27.909  1.00  0.00     0.041 A 
ATOM     80  F   UNL A   1      49.206  29.571  28.799  1.00  0.00    -0.206 F 
ATOM     81  C   UNL A   1      49.173  32.841  27.244  1.00  0.00     0.022 A 
BRANCH  78  82
ATOM     82  S   UNL A   1      47.338  34.426  25.916  1.00  0.00     0.124 S 
ATOM     83  O   UNL A   1      47.304  35.345  27.043  1.00  0.00    -0.237 OA
ATOM     84  O   UNL A   1      48.378  34.669  24.912  1.00  0.00    -0.237 OA
ATOM     85  O   UNL A   1      46.032  34.083  25.359  1.00  0.00    -0.744 OA
ENDBRANCH  78  82
ENDBRANCH  51  75
BRANCH  63  86
ATOM     86  C   UNL A   1      45.487  26.282  31.687  1.00  0.00     0.023 A 
ATOM     87  C   UNL A   1      44.377  27.042  32.130  1.00  0.00     0.031 A 
ATOM     88  C   UNL A   1      46.469  25.964  32.641  1.00  0.00     0.131 A 
ATOM     89  C   UNL A   1      44.285  27.452  33.478  1.00  0.00     0.055 A 
ATOM     90  C   UNL A   1      46.368  26.354  33.976  1.00  0.00     0.041 A 
ATOM     91  F   UNL A   1      47.545  25.239  32.292  1.00  0.00    -0.206 F 
ATOM     92  C   UNL A   1      45.277  27.103  34.400  1.00  0.00     0.022 A 
BRANCH  89  93
ATOM     93  S   UNL A   1      42.864  28.440  34.060  1.00  0.00     0.124 S 
ATOM     94  O   UNL A   1      41.817  27.446  34.260  1.00  0.00    -0.237 OA
ATOM     95  O   UNL A   1      43.385  29.070  35.271  1.00  0.00    -0.237 OA
ATOM     96  O   UNL A   1      42.617  29.368  32.953  1.00  0.00    -0.744 OA
ENDBRANCH  89  93
ENDBRANCH  63  86
ENDBRANCH  37  38
ENDBRANCH  29  32
ENDBRANCH  27  28
ENDBRANCH   1  27
TORSDOF 15
ENDMDL
MODEL 3
REMARK VINA RESULT:     -13.3      5.142      9.330
REMARK SMILES Cc1nc2sc3c(c2c2nc(CCC(=O)NCCCNC(=O)c4ccc(-c5c6nc(c(-c7cc(S(=O)(=O)[O-])ccc7F)c7ccc([nH]7)c(-c7cc(S(=O)(=O)[O-])ccc7F)c7nc(c(-c8cc(S(=O)(=O)[O-])ccc8F)c8ccc5[nH]8)C=C7)C=C6)cc4)nn12)[C@@H](C)CCC3
REMARK SMILES IDX 18 1 17 2 16 3 14 4 15 5 13 7 12 8 11 9 1 10 2 11 3 12 87 13
REMARK SMILES IDX 4 14 9 15 86 16 5 17 8 18 10 19 6 20 7 21 92 22 88 23 91 24
REMARK SMILES IDX 89 25 90 26 19 27 20 28 21 29 22 31 23 32 24 33 85 34 25 35
REMARK SMILES IDX 84 36 26 37 27 38 28 39 78 40 29 41 83 42 77 43 79 44 30 45
REMARK SMILES IDX 82 46 76 47 75 48 31 50 63 51 43 52 62 53 44 54 47 55 61 56
REMARK SMILES IDX 80 57 45 58 46 59 60 61 81 62 48 63 32 64 33 65 41 66 34 67
REMARK SMILES IDX 40 68 42 69 39 70 35 71 36 72 37 73 38 74 64 75 65 76 73 77
REMARK SMILES IDX 66 78 72 79 74 80 71 81 67 82 68 83 69 84 70 85 49 86 50 87
REMARK SMILES IDX 58 88 51 89 57 90 59 91 56 92 52 93 53 94 54 95 55 96
REMARK H PARENT 16 6 20 30 79 49 47 60
REMARK Flexibility Score: inf
ROOT
ATOM      1  C   UNL A   1      39.485  21.627  26.070  1.00  0.00     0.042 C 
ENDROOT
BRANCH   1   2
ATOM      2  C   UNL A   1      38.007  21.677  25.436  1.00  0.00     0.117 C 
BRANCH   2   3
ATOM      3  N   UNL A   1      36.822  22.087  26.212  1.00  0.00    -0.356 N 
ATOM      4  C   UNL A   1      35.756  22.943  26.024  1.00  0.00     0.220 C 
ATOM      5  O   UNL A   1      34.751  22.760  26.725  1.00  0.00    -0.275 OA
ATOM      6  H   UNL A   1      36.780  21.635  27.087  1.00  0.00     0.163 HD
BRANCH   4   7
ATOM      7  C   UNL A   1      35.697  24.068  24.996  1.00  0.00     0.108 C 
BRANCH   7   8
ATOM      8  C   UNL A   1      35.373  23.594  23.564  1.00  0.00     0.089 C 
BRANCH   8   9
ATOM      9  C   UNL A   1      34.023  24.041  23.186  1.00  0.00     0.152 A 
ATOM     10  C   UNL A   1      32.429  25.474  19.649  1.00  0.00     0.090 C 
ATOM     11  C   UNL A   1      32.031  25.829  21.050  1.00  0.00     0.131 A 
ATOM     12  N   UNL A   1      31.238  26.829  21.314  1.00  0.00    -0.222 NA
ATOM     13  N   UNL A   1      32.646  25.099  22.071  1.00  0.00    -0.199 N 
ATOM     14  C   UNL A   1      31.211  27.210  22.634  1.00  0.00     0.129 A 
ATOM     15  C   UNL A   1      32.501  25.410  23.404  1.00  0.00     0.168 A 
ATOM     16  N   UNL A   1      33.645  24.208  21.908  1.00  0.00    -0.150 NA
ATOM     17  S   UNL A   1      30.540  28.667  23.067  1.00  0.00    -0.120 S 
ATOM     18  C   UNL A   1      31.814  26.653  23.755  1.00  0.00     0.060 A 
ATOM     19  N   UNL A   1      33.259  24.649  24.131  1.00  0.00    -0.211 NA
ATOM     20  C   UNL A   1      31.403  28.733  24.528  1.00  0.00     0.011 A 
ATOM     21  C   UNL A   1      31.866  27.499  24.926  1.00  0.00    -0.018 A 
ATOM     22  C   UNL A   1      31.778  29.980  25.247  1.00  0.00     0.047 C 
ATOM     23  C   UNL A   1      32.459  27.379  26.340  1.00  0.00     0.018 C 
ATOM     24  C   UNL A   1      31.737  29.796  26.715  1.00  0.00     0.006 C 
ATOM     25  C   UNL A   1      33.808  26.727  26.406  1.00  0.00     0.013 C 
ATOM     26  C   UNL A   1      32.732  28.741  27.058  1.00  0.00     0.008 C 
ENDBRANCH   8   9
ENDBRANCH   7   8
ENDBRANCH   4   7
ENDBRANCH   2   3
ENDBRANCH   1   2
BRANCH   1  27
ATOM     27  C   UNL A   1      40.034  22.757  27.059  1.00  0.00     0.118 C 
BRANCH  27  28
ATOM     28  N   UNL A   1      40.570  24.144  26.493  1.00  0.00    -0.352 N 
ATOM     29  C   UNL A   1      40.681  25.582  26.680  1.00  0.00     0.251 C 
ATOM     30  H   UNL A   1      41.026  23.940  25.645  1.00  0.00     0.163 HD
ATOM     31  O   UNL A   1      41.591  26.091  26.004  1.00  0.00    -0.269 OA
BRANCH  29  32
ATOM     32  C   UNL A   1      39.915  26.620  27.553  1.00  0.00     0.039 A 
ATOM     33  C   UNL A   1      39.611  27.930  27.145  1.00  0.00     0.014 A 
ATOM     34  C   UNL A   1      39.353  26.341  28.801  1.00  0.00     0.014 A 
ATOM     35  C   UNL A   1      39.385  28.997  28.099  1.00  0.00     0.010 A 
ATOM     36  C   UNL A   1      39.226  27.388  29.779  1.00  0.00     0.010 A 
ATOM     37  C   UNL A   1      39.451  28.758  29.472  1.00  0.00    -0.014 A 
BRANCH  37  38
ATOM     38  C   UNL A   1      39.737  29.791  30.579  1.00  0.00     0.031 A 
ATOM     39  C   UNL A   1      38.503  30.507  30.998  1.00  0.00     0.074 A 
ATOM     40  C   UNL A   1      40.801  30.122  31.398  1.00  0.00     0.049 A 
ATOM     41  N   UNL A   1      37.982  31.472  30.320  1.00  0.00    -0.248 NA
ATOM     42  C   UNL A   1      37.652  30.033  32.103  1.00  0.00     0.031 C 
ATOM     43  C   UNL A   1      42.129  29.510  31.559  1.00  0.00     0.029 A 
ATOM     44  N   UNL A   1      40.864  31.099  32.395  1.00  0.00    -0.354 N 
ATOM     45  C   UNL A   1      36.910  31.919  31.064  1.00  0.00     0.074 A 
ATOM     46  C   UNL A   1      36.587  30.830  31.951  1.00  0.00     0.031 C 
ATOM     47  C   UNL A   1      42.749  29.955  32.690  1.00  0.00     0.029 A 
ATOM     48  C   UNL A   1      41.997  31.071  33.240  1.00  0.00     0.049 A 
ATOM     49  H   UNL A   1      40.155  31.773  32.504  1.00  0.00     0.167 HD
ATOM     50  C   UNL A   1      36.569  33.238  31.065  1.00  0.00     0.034 A 
ATOM     51  C   UNL A   1      42.391  31.993  34.183  1.00  0.00     0.034 A 
ATOM     52  C   UNL A   1      37.426  33.992  30.158  1.00  0.00     0.049 A 
ATOM     53  C   UNL A   1      41.866  33.285  33.702  1.00  0.00     0.074 A 
ATOM     54  C   UNL A   1      37.775  33.886  28.823  1.00  0.00     0.029 A 
ATOM     55  N   UNL A   1      38.429  34.751  30.726  1.00  0.00    -0.354 N 
ATOM     56  N   UNL A   1      42.249  33.846  32.592  1.00  0.00    -0.248 NA
ATOM     57  C   UNL A   1      40.618  33.770  34.256  1.00  0.00     0.031 C 
ATOM     58  C   UNL A   1      39.187  34.115  28.787  1.00  0.00     0.029 A 
ATOM     59  C   UNL A   1      39.604  34.452  30.074  1.00  0.00     0.049 A 
ATOM     60  H   UNL A   1      38.323  35.392  31.466  1.00  0.00     0.167 HD
ATOM     61  C   UNL A   1      41.083  34.359  32.059  1.00  0.00     0.074 A 
ATOM     62  C   UNL A   1      40.142  34.394  33.178  1.00  0.00     0.031 C 
ATOM     63  C   UNL A   1      40.910  34.434  30.708  1.00  0.00     0.034 A 
BRANCH  50  64
ATOM     64  C   UNL A   1      35.720  33.930  32.100  1.00  0.00     0.023 A 
ATOM     65  C   UNL A   1      34.648  34.713  31.635  1.00  0.00     0.031 A 
ATOM     66  C   UNL A   1      36.004  34.032  33.479  1.00  0.00     0.131 A 
ATOM     67  C   UNL A   1      33.953  35.578  32.497  1.00  0.00     0.055 A 
ATOM     68  C   UNL A   1      35.268  34.842  34.348  1.00  0.00     0.041 A 
ATOM     69  F   UNL A   1      37.060  33.438  34.046  1.00  0.00    -0.206 F 
ATOM     70  C   UNL A   1      34.249  35.640  33.856  1.00  0.00     0.022 A 
BRANCH  67  71
ATOM     71  S   UNL A   1      32.734  36.711  31.788  1.00  0.00     0.124 S 
ATOM     72  O   UNL A   1      31.499  36.250  32.430  1.00  0.00    -0.237 OA
ATOM     73  O   UNL A   1      33.234  38.007  32.224  1.00  0.00    -0.237 OA
ATOM     74  O   UNL A   1      32.823  36.455  30.357  1.00  0.00    -0.744 OA
ENDBRANCH  67  71
ENDBRANCH  50  64
BRANCH  51  75
ATOM     75  C   UNL A   1      43.061  31.935  35.534  1.00  0.00     0.023 A 
ATOM     76  C   UNL A   1      44.260  32.654  35.836  1.00  0.00     0.031 A 
ATOM     77  C   UNL A   1      42.337  31.465  36.644  1.00  0.00     0.131 A 
ATOM     78  C   UNL A   1      44.655  32.903  37.178  1.00  0.00     0.055 A 
ATOM     79  C   UNL A   1      42.726  31.723  37.970  1.00  0.00     0.041 A 
ATOM     80  F   UNL A   1      41.168  30.828  36.474  1.00  0.00    -0.206 F 
ATOM     81  C   UNL A   1      43.874  32.457  38.243  1.00  0.00     0.022 A 
BRANCH  78  82
ATOM     82  S   UNL A   1      46.108  33.948  37.584  1.00  0.00     0.124 S 
ATOM     83  O   UNL A   1      45.647  35.278  37.218  1.00  0.00    -0.237 OA
ATOM     84  O   UNL A   1      46.296  33.700  39.017  1.00  0.00    -0.237 OA
ATOM     85  O   UNL A   1      47.166  33.405  36.736  1.00  0.00    -0.744 OA
ENDBRANCH  78  82
ENDBRANCH  51  75
BRANCH  63  86
ATOM     86  C   UNL A   1      42.135  34.294  29.817  1.00  0.00     0.023 A 
ATOM     87  C   UNL A   1      42.712  33.076  29.381  1.00  0.00     0.031 A 
ATOM     88  C   UNL A   1      42.698  35.484  29.323  1.00  0.00     0.131 A 
ATOM     89  C   UNL A   1      43.806  33.083  28.489  1.00  0.00     0.055 A 
ATOM     90  C   UNL A   1      43.768  35.489  28.429  1.00  0.00     0.041 A 
ATOM     91  F   UNL A   1      42.197  36.675  29.690  1.00  0.00    -0.206 F 
ATOM     92  C   UNL A   1      44.329  34.288  28.010  1.00  0.00     0.022 A 
BRANCH  89  93
ATOM     93  S   UNL A   1      44.564  31.521  27.926  1.00  0.00     0.124 S 
ATOM     94  O   UNL A   1      44.132  31.412  26.538  1.00  0.00    -0.237 OA
ATOM     95  O   UNL A   1      45.990  31.762  28.133  1.00  0.00    -0.237 OA
ATOM     96  O   UNL A   1      43.985  30.517  28.823  1.00  0.00    -0.744 OA
ENDBRANCH  89  93
ENDBRANCH  63  86
ENDBRANCH  37  38
ENDBRANCH  29  32
ENDBRANCH  27  28
ENDBRANCH   1  27
TORSDOF 15
ENDMDL
