MODEL 1
REMARK VINA RESULT:     -12.5      0.000      0.000
REMARK SMILES O=C(CCc1ccccc1)Nc1ccccc1Oc1ccsc1C(=O)NCCCNC(=O)c1ccc(-c2c3nc(c(-c4cc(S(=O)(=O)[O-])ccc4F)c4ccc([nH]4)c(-c4cc(S(=O)(=O)[O-])ccc4F)c4nc(c(-c5cc(S(=O)(=O)[O-])ccc5F)c5ccc2[nH]5)C=C4)C=C3)cc1
REMARK SMILES IDX 24 1 25 2 26 3 23 5 19 6 20 7 21 8 22 9 18 10 17 11 12 12
REMARK SMILES IDX 13 13 14 14 16 15 15 16 11 17 1 18 2 19 3 21 4 22 5 23 6 24
REMARK SMILES IDX 10 25 7 26 9 27 8 28 27 29 28 30 29 31 30 32 31 33 32 35
REMARK SMILES IDX 33 36 34 37 95 38 35 39 94 40 36 41 37 42 38 43 88 44 39 45
REMARK SMILES IDX 93 46 87 47 89 48 40 49 92 50 86 51 85 52 41 54 73 55 53 56
REMARK SMILES IDX 72 57 54 58 57 59 71 60 90 61 55 62 56 63 70 65 91 66 58 67
REMARK SMILES IDX 42 68 43 69 51 70 44 71 50 72 52 73 49 74 45 75 46 76 47 77
REMARK SMILES IDX 48 78 74 79 75 80 83 81 76 82 82 83 84 84 81 85 77 86 78 87
REMARK SMILES IDX 79 88 80 89 59 90 60 91 68 92 61 93 67 94 69 95 66 96 62 97
REMARK SMILES IDX 63 98 64 99 65 100
REMARK H PARENT 26 4 11 20 30 34 89 53 57 64
REMARK Flexibility Score: inf
ROOT
ATOM      1  C   UNL A   1      33.955  28.894  25.822  1.00  0.00     0.265 C 
ATOM      2  O   UNL A   1      34.991  28.828  26.498  1.00  0.00    -0.268 OA
ATOM      3  N   UNL A   1      33.104  29.899  26.210  1.00  0.00    -0.351 N 
ATOM      4  H   UNL A   1      33.360  30.324  27.060  1.00  0.00     0.163 HD
ENDROOT
BRANCH   1   5
ATOM      5  C   UNL A   1      33.703  27.988  24.702  1.00  0.00     0.135 A 
ATOM      6  C   UNL A   1      33.586  26.611  24.581  1.00  0.00     0.151 A 
ATOM      7  C   UNL A   1      33.464  26.167  23.230  1.00  0.00     0.059 A 
ATOM      8  C   UNL A   1      33.510  27.213  22.338  1.00  0.00     0.069 A 
ATOM      9  S   UNL A   1      33.653  28.716  23.127  1.00  0.00    -0.135 S 
BRANCH   6  10
ATOM     10  O   UNL A   1      33.522  25.811  25.661  1.00  0.00    -0.453 OA
BRANCH  10  11
ATOM     11  C   UNL A   1      32.458  25.041  26.049  1.00  0.00     0.151 A 
ATOM     12  C   UNL A   1      31.098  25.319  25.889  1.00  0.00     0.084 A 
ATOM     13  C   UNL A   1      30.148  24.352  26.252  1.00  0.00     0.030 A 
ATOM     14  C   UNL A   1      30.547  23.094  26.705  1.00  0.00     0.002 A 
ATOM     15  C   UNL A   1      32.843  23.795  26.571  1.00  0.00     0.049 A 
ATOM     16  C   UNL A   1      31.898  22.818  26.877  1.00  0.00     0.004 A 
BRANCH  12  17
ATOM     17  N   UNL A   1      30.596  26.546  25.438  1.00  0.00    -0.323 N 
ATOM     18  O   UNL A   1      29.755  25.846  23.404  1.00  0.00    -0.275 OA
ATOM     19  C   UNL A   1      30.023  26.746  24.198  1.00  0.00     0.224 C 
ATOM     20  H   UNL A   1      30.656  27.318  26.045  1.00  0.00     0.170 HD
BRANCH  19  21
ATOM     21  C   UNL A   1      29.794  28.211  23.845  1.00  0.00     0.105 C 
BRANCH  21  22
ATOM     22  C   UNL A   1      28.565  28.517  22.987  1.00  0.00     0.045 C 
BRANCH  22  23
ATOM     23  C   UNL A   1      28.410  29.982  22.655  1.00  0.00    -0.048 A 
ATOM     24  C   UNL A   1      28.686  30.949  23.632  1.00  0.00     0.004 A 
ATOM     25  C   UNL A   1      28.135  30.398  21.342  1.00  0.00     0.004 A 
ATOM     26  C   UNL A   1      28.746  32.300  23.290  1.00  0.00     0.000 A 
ATOM     27  C   UNL A   1      28.202  31.750  21.002  1.00  0.00     0.000 A 
ATOM     28  C   UNL A   1      28.518  32.698  21.974  1.00  0.00     0.000 A 
ENDBRANCH  22  23
ENDBRANCH  21  22
ENDBRANCH  19  21
ENDBRANCH  12  17
ENDBRANCH  10  11
ENDBRANCH   6  10
ENDBRANCH   1   5
BRANCH   3  29
ATOM     29  C   UNL A   1      31.905  30.463  25.624  1.00  0.00     0.118 C 
BRANCH  29  30
ATOM     30  C   UNL A   1      31.407  31.678  26.407  1.00  0.00     0.042 C 
BRANCH  30  31
ATOM     31  C   UNL A   1      32.348  32.108  27.528  1.00  0.00     0.118 C 
BRANCH  31  32
ATOM     32  N   UNL A   1      32.461  33.561  27.581  1.00  0.00    -0.352 N 
ATOM     33  C   UNL A   1      33.169  34.372  28.433  1.00  0.00     0.251 C 
ATOM     34  H   UNL A   1      31.943  34.040  26.892  1.00  0.00     0.163 HD
ATOM     35  O   UNL A   1      32.816  35.543  28.559  1.00  0.00    -0.269 OA
BRANCH  33  36
ATOM     36  C   UNL A   1      34.347  33.871  29.182  1.00  0.00     0.039 A 
ATOM     37  C   UNL A   1      35.621  34.338  28.832  1.00  0.00     0.014 A 
ATOM     38  C   UNL A   1      34.224  32.872  30.150  1.00  0.00     0.014 A 
ATOM     39  C   UNL A   1      36.755  33.832  29.476  1.00  0.00     0.010 A 
ATOM     40  C   UNL A   1      35.346  32.431  30.848  1.00  0.00     0.010 A 
ATOM     41  C   UNL A   1      36.626  32.890  30.507  1.00  0.00    -0.014 A 
BRANCH  41  42
ATOM     42  C   UNL A   1      37.810  32.334  31.219  1.00  0.00     0.031 A 
ATOM     43  C   UNL A   1      38.586  31.198  30.605  1.00  0.00     0.074 A 
ATOM     44  C   UNL A   1      38.133  32.792  32.443  1.00  0.00     0.049 A 
ATOM     45  N   UNL A   1      39.543  30.469  31.121  1.00  0.00    -0.248 NA
ATOM     46  C   UNL A   1      38.206  30.805  29.239  1.00  0.00     0.031 C 
ATOM     47  C   UNL A   1      37.441  33.868  33.154  1.00  0.00     0.029 A 
ATOM     48  N   UNL A   1      39.115  32.398  33.318  1.00  0.00    -0.354 N 
ATOM     49  C   UNL A   1      39.856  29.513  30.158  1.00  0.00     0.074 A 
ATOM     50  C   UNL A   1      38.947  29.725  29.050  1.00  0.00     0.031 C 
ATOM     51  C   UNL A   1      38.027  34.058  34.346  1.00  0.00     0.029 A 
ATOM     52  C   UNL A   1      39.102  33.085  34.509  1.00  0.00     0.049 A 
ATOM     53  H   UNL A   1      39.768  31.690  33.111  1.00  0.00     0.167 HD
ATOM     54  C   UNL A   1      40.822  28.561  30.187  1.00  0.00     0.034 A 
ATOM     55  C   UNL A   1      39.856  32.933  35.616  1.00  0.00     0.034 A 
ATOM     56  C   UNL A   1      41.736  28.385  31.291  1.00  0.00     0.049 A 
ATOM     57  C   UNL A   1      40.920  31.865  35.630  1.00  0.00     0.074 A 
ATOM     58  C   UNL A   1      42.788  27.494  31.407  1.00  0.00     0.029 A 
ATOM     59  N   UNL A   1      41.706  29.117  32.471  1.00  0.00    -0.354 N 
ATOM     60  N   UNL A   1      41.223  30.989  34.700  1.00  0.00    -0.248 NA
ATOM     61  C   UNL A   1      41.749  31.773  36.838  1.00  0.00     0.031 C 
ATOM     62  C   UNL A   1      43.354  27.645  32.677  1.00  0.00     0.029 A 
ATOM     63  C   UNL A   1      42.705  28.681  33.329  1.00  0.00     0.049 A 
ATOM     64  H   UNL A   1      41.068  29.840  32.670  1.00  0.00     0.167 HD
ATOM     65  C   UNL A   1      42.301  30.262  35.201  1.00  0.00     0.074 A 
ATOM     66  C   UNL A   1      42.600  30.813  36.508  1.00  0.00     0.031 C 
ATOM     67  C   UNL A   1      42.984  29.237  34.632  1.00  0.00     0.034 A 
BRANCH  54  68
ATOM     68  C   UNL A   1      40.916  27.626  29.003  1.00  0.00     0.023 A 
ATOM     69  C   UNL A   1      41.906  27.777  28.017  1.00  0.00     0.031 A 
ATOM     70  C   UNL A   1      39.980  26.588  28.838  1.00  0.00     0.131 A 
ATOM     71  C   UNL A   1      41.890  26.964  26.874  1.00  0.00     0.055 A 
ATOM     72  C   UNL A   1      40.021  25.725  27.740  1.00  0.00     0.041 A 
ATOM     73  F   UNL A   1      39.000  26.403  29.735  1.00  0.00    -0.206 F 
ATOM     74  C   UNL A   1      40.970  25.921  26.741  1.00  0.00     0.022 A 
BRANCH  71  75
ATOM     75  S   UNL A   1      42.991  27.386  25.495  1.00  0.00     0.124 S 
ATOM     76  O   UNL A   1      42.188  28.365  24.767  1.00  0.00    -0.237 OA
ATOM     77  O   UNL A   1      44.168  27.906  26.180  1.00  0.00    -0.237 OA
ATOM     78  O   UNL A   1      43.181  26.110  24.806  1.00  0.00    -0.744 OA
ENDBRANCH  71  75
ENDBRANCH  54  68
BRANCH  55  79
ATOM     79  C   UNL A   1      39.630  33.801  36.807  1.00  0.00     0.023 A 
ATOM     80  C   UNL A   1      39.017  33.295  37.963  1.00  0.00     0.031 A 
ATOM     81  C   UNL A   1      39.997  35.159  36.796  1.00  0.00     0.131 A 
ATOM     82  C   UNL A   1      38.747  34.149  39.043  1.00  0.00     0.055 A 
ATOM     83  C   UNL A   1      39.773  35.992  37.893  1.00  0.00     0.041 A 
ATOM     84  F   UNL A   1      40.594  35.693  35.719  1.00  0.00    -0.206 F 
ATOM     85  C   UNL A   1      39.131  35.490  39.022  1.00  0.00     0.022 A 
BRANCH  82  86
ATOM     86  S   UNL A   1      37.811  33.494  40.453  1.00  0.00     0.124 S 
ATOM     87  O   UNL A   1      38.739  32.507  40.993  1.00  0.00    -0.237 OA
ATOM     88  O   UNL A   1      37.604  34.691  41.260  1.00  0.00    -0.237 OA
ATOM     89  O   UNL A   1      36.606  32.946  39.834  1.00  0.00    -0.744 OA
ENDBRANCH  82  86
ENDBRANCH  55  79
BRANCH  67  90
ATOM     90  C   UNL A   1      44.156  28.684  35.405  1.00  0.00     0.023 A 
ATOM     91  C   UNL A   1      44.000  27.656  36.351  1.00  0.00     0.031 A 
ATOM     92  C   UNL A   1      45.445  29.206  35.198  1.00  0.00     0.131 A 
ATOM     93  C   UNL A   1      45.107  27.218  37.095  1.00  0.00     0.055 A 
ATOM     94  C   UNL A   1      46.553  28.726  35.898  1.00  0.00     0.041 A 
ATOM     95  F   UNL A   1      45.649  30.190  34.308  1.00  0.00    -0.206 F 
ATOM     96  C   UNL A   1      46.384  27.736  36.862  1.00  0.00     0.022 A 
BRANCH  93  97
ATOM     97  S   UNL A   1      44.841  26.027  38.435  1.00  0.00     0.124 S 
ATOM     98  O   UNL A   1      44.086  24.976  37.762  1.00  0.00    -0.237 OA
ATOM     99  O   UNL A   1      46.206  25.683  38.823  1.00  0.00    -0.237 OA
ATOM    100  O   UNL A   1      44.090  26.791  39.429  1.00  0.00    -0.744 OA
ENDBRANCH  93  97
ENDBRANCH  67  90
ENDBRANCH  41  42
ENDBRANCH  33  36
ENDBRANCH  31  32
ENDBRANCH  30  31
ENDBRANCH  29  30
ENDBRANCH   3  29
TORSDOF 19
ENDMDL
MODEL 2
REMARK VINA RESULT:     -11.8      1.748      4.545
REMARK SMILES O=C(CCc1ccccc1)Nc1ccccc1Oc1ccsc1C(=O)NCCCNC(=O)c1ccc(-c2c3nc(c(-c4cc(S(=O)(=O)[O-])ccc4F)c4ccc([nH]4)c(-c4cc(S(=O)(=O)[O-])ccc4F)c4nc(c(-c5cc(S(=O)(=O)[O-])ccc5F)c5ccc2[nH]5)C=C4)C=C3)cc1
REMARK SMILES IDX 24 1 25 2 26 3 23 5 19 6 20 7 21 8 22 9 18 10 17 11 12 12
REMARK SMILES IDX 13 13 14 14 16 15 15 16 11 17 1 18 2 19 3 21 4 22 5 23 6 24
REMARK SMILES IDX 10 25 7 26 9 27 8 28 27 29 28 30 29 31 30 32 31 33 32 35
REMARK SMILES IDX 33 36 34 37 95 38 35 39 94 40 36 41 37 42 38 43 88 44 39 45
REMARK SMILES IDX 93 46 87 47 89 48 40 49 92 50 86 51 85 52 41 54 73 55 53 56
REMARK SMILES IDX 72 57 54 58 57 59 71 60 90 61 55 62 56 63 70 65 91 66 58 67
REMARK SMILES IDX 42 68 43 69 51 70 44 71 50 72 52 73 49 74 45 75 46 76 47 77
REMARK SMILES IDX 48 78 74 79 75 80 83 81 76 82 82 83 84 84 81 85 77 86 78 87
REMARK SMILES IDX 79 88 80 89 59 90 60 91 68 92 61 93 67 94 69 95 66 96 62 97
REMARK SMILES IDX 63 98 64 99 65 100
REMARK H PARENT 26 4 11 20 30 34 89 53 57 64
REMARK Flexibility Score: inf
ROOT
ATOM      1  C   UNL A   1      33.607  28.637  25.977  1.00  0.00     0.265 C 
ATOM      2  O   UNL A   1      34.520  28.402  26.781  1.00  0.00    -0.268 OA
ATOM      3  N   UNL A   1      32.735  29.610  26.399  1.00  0.00    -0.351 N 
ATOM      4  H   UNL A   1      32.865  29.872  27.339  1.00  0.00     0.163 HD
ENDROOT
BRANCH   1   5
ATOM      5  C   UNL A   1      33.510  27.946  24.692  1.00  0.00     0.135 A 
ATOM      6  C   UNL A   1      33.645  26.624  24.294  1.00  0.00     0.151 A 
ATOM      7  C   UNL A   1      33.589  26.447  22.878  1.00  0.00     0.059 A 
ATOM      8  C   UNL A   1      33.432  27.642  22.216  1.00  0.00     0.069 A 
ATOM      9  S   UNL A   1      33.309  28.956  23.295  1.00  0.00    -0.135 S 
BRANCH   6  10
ATOM     10  O   UNL A   1      33.740  25.624  25.190  1.00  0.00    -0.453 OA
BRANCH  10  11
ATOM     11  C   UNL A   1      32.861  24.587  25.358  1.00  0.00     0.151 A 
ATOM     12  C   UNL A   1      33.107  23.222  25.198  1.00  0.00     0.084 A 
ATOM     13  C   UNL A   1      32.106  22.296  25.525  1.00  0.00     0.030 A 
ATOM     14  C   UNL A   1      30.894  22.718  26.072  1.00  0.00     0.002 A 
ATOM     15  C   UNL A   1      31.610  25.002  25.845  1.00  0.00     0.049 A 
ATOM     16  C   UNL A   1      30.639  24.075  26.221  1.00  0.00     0.004 A 
BRANCH  12  17
ATOM     17  N   UNL A   1      34.291  22.696  24.664  1.00  0.00    -0.323 N 
ATOM     18  O   UNL A   1      35.676  23.061  26.475  1.00  0.00    -0.275 OA
ATOM     19  C   UNL A   1      35.512  22.715  25.307  1.00  0.00     0.224 C 
ATOM     20  H   UNL A   1      34.250  22.287  23.769  1.00  0.00     0.170 HD
BRANCH  19  21
ATOM     21  C   UNL A   1      36.690  22.321  24.422  1.00  0.00     0.105 C 
BRANCH  21  22
ATOM     22  C   UNL A   1      37.241  20.907  24.617  1.00  0.00     0.045 C 
BRANCH  22  23
ATOM     23  C   UNL A   1      38.486  20.859  25.470  1.00  0.00    -0.048 A 
ATOM     24  C   UNL A   1      39.245  19.681  25.526  1.00  0.00     0.004 A 
ATOM     25  C   UNL A   1      38.978  22.017  26.095  1.00  0.00     0.004 A 
ATOM     26  C   UNL A   1      40.497  19.677  26.141  1.00  0.00     0.000 A 
ATOM     27  C   UNL A   1      40.234  22.011  26.702  1.00  0.00     0.000 A 
ATOM     28  C   UNL A   1      40.997  20.844  26.715  1.00  0.00     0.000 A 
ENDBRANCH  22  23
ENDBRANCH  21  22
ENDBRANCH  19  21
ENDBRANCH  12  17
ENDBRANCH  10  11
ENDBRANCH   6  10
ENDBRANCH   1   5
BRANCH   3  29
ATOM     29  C   UNL A   1      31.662  30.330  25.744  1.00  0.00     0.118 C 
BRANCH  29  30
ATOM     30  C   UNL A   1      31.480  31.732  26.327  1.00  0.00     0.042 C 
BRANCH  30  31
ATOM     31  C   UNL A   1      32.554  32.114  27.341  1.00  0.00     0.118 C 
BRANCH  31  32
ATOM     32  N   UNL A   1      32.598  33.560  27.529  1.00  0.00    -0.352 N 
ATOM     33  C   UNL A   1      33.247  34.319  28.471  1.00  0.00     0.251 C 
ATOM     34  H   UNL A   1      32.076  34.077  26.872  1.00  0.00     0.163 HD
ATOM     35  O   UNL A   1      32.838  35.457  28.692  1.00  0.00    -0.269 OA
BRANCH  33  36
ATOM     36  C   UNL A   1      34.429  33.803  29.204  1.00  0.00     0.039 A 
ATOM     37  C   UNL A   1      35.708  34.184  28.780  1.00  0.00     0.014 A 
ATOM     38  C   UNL A   1      34.296  32.870  30.234  1.00  0.00     0.014 A 
ATOM     39  C   UNL A   1      36.842  33.660  29.410  1.00  0.00     0.010 A 
ATOM     40  C   UNL A   1      35.423  32.414  30.915  1.00  0.00     0.010 A 
ATOM     41  C   UNL A   1      36.709  32.787  30.500  1.00  0.00    -0.014 A 
BRANCH  41  42
ATOM     42  C   UNL A   1      37.892  32.214  31.199  1.00  0.00     0.031 A 
ATOM     43  C   UNL A   1      38.658  31.081  30.567  1.00  0.00     0.074 A 
ATOM     44  C   UNL A   1      38.223  32.654  32.428  1.00  0.00     0.049 A 
ATOM     45  N   UNL A   1      39.613  30.339  31.070  1.00  0.00    -0.248 NA
ATOM     46  C   UNL A   1      38.269  30.709  29.198  1.00  0.00     0.031 C 
ATOM     47  C   UNL A   1      37.541  33.726  33.155  1.00  0.00     0.029 A 
ATOM     48  N   UNL A   1      39.206  32.242  33.293  1.00  0.00    -0.354 N 
ATOM     49  C   UNL A   1      39.915  29.394  30.093  1.00  0.00     0.074 A 
ATOM     50  C   UNL A   1      39.003  29.626  28.993  1.00  0.00     0.031 C 
ATOM     51  C   UNL A   1      38.134  33.896  34.348  1.00  0.00     0.029 A 
ATOM     52  C   UNL A   1      39.203  32.914  34.494  1.00  0.00     0.049 A 
ATOM     53  H   UNL A   1      39.854  31.533  33.075  1.00  0.00     0.167 HD
ATOM     54  C   UNL A   1      40.875  28.435  30.106  1.00  0.00     0.034 A 
ATOM     55  C   UNL A   1      39.960  32.743  35.595  1.00  0.00     0.034 A 
ATOM     56  C   UNL A   1      41.792  28.239  31.203  1.00  0.00     0.049 A 
ATOM     57  C   UNL A   1      41.018  31.668  35.591  1.00  0.00     0.074 A 
ATOM     58  C   UNL A   1      42.839  27.339  31.304  1.00  0.00     0.029 A 
ATOM     59  N   UNL A   1      41.772  28.956  32.394  1.00  0.00    -0.354 N 
ATOM     60  N   UNL A   1      41.311  30.802  34.648  1.00  0.00    -0.248 NA
ATOM     61  C   UNL A   1      41.851  31.555  36.794  1.00  0.00     0.031 C 
ATOM     62  C   UNL A   1      43.411  27.470  32.573  1.00  0.00     0.029 A 
ATOM     63  C   UNL A   1      42.771  28.502  33.241  1.00  0.00     0.049 A 
ATOM     64  H   UNL A   1      41.139  29.680  32.605  1.00  0.00     0.167 HD
ATOM     65  C   UNL A   1      42.386  30.062  35.135  1.00  0.00     0.074 A 
ATOM     66  C   UNL A   1      42.694  30.593  36.448  1.00  0.00     0.031 C 
ATOM     67  C   UNL A   1      43.060  29.040  34.550  1.00  0.00     0.034 A 
BRANCH  54  68
ATOM     68  C   UNL A   1      40.957  27.515  28.910  1.00  0.00     0.023 A 
ATOM     69  C   UNL A   1      41.964  27.652  27.938  1.00  0.00     0.031 A 
ATOM     70  C   UNL A   1      39.995  26.506  28.718  1.00  0.00     0.131 A 
ATOM     71  C   UNL A   1      41.939  26.856  26.783  1.00  0.00     0.055 A 
ATOM     72  C   UNL A   1      40.026  25.659  27.608  1.00  0.00     0.041 A 
ATOM     73  F   UNL A   1      38.998  26.336  29.600  1.00  0.00    -0.206 F 
ATOM     74  C   UNL A   1      40.992  25.842  26.623  1.00  0.00     0.022 A 
BRANCH  71  75
ATOM     75  S   UNL A   1      43.069  27.266  25.425  1.00  0.00     0.124 S 
ATOM     76  O   UNL A   1      43.307  25.953  24.833  1.00  0.00    -0.237 OA
ATOM     77  O   UNL A   1      42.277  28.194  24.625  1.00  0.00    -0.237 OA
ATOM     78  O   UNL A   1      44.223  27.854  26.104  1.00  0.00    -0.744 OA
ENDBRANCH  71  75
ENDBRANCH  54  68
BRANCH  55  79
ATOM     79  C   UNL A   1      39.746  33.596  36.798  1.00  0.00     0.023 A 
ATOM     80  C   UNL A   1      39.172  33.069  37.965  1.00  0.00     0.031 A 
ATOM     81  C   UNL A   1      40.083  34.963  36.790  1.00  0.00     0.131 A 
ATOM     82  C   UNL A   1      38.909  33.908  39.058  1.00  0.00     0.055 A 
ATOM     83  C   UNL A   1      39.868  35.782  37.898  1.00  0.00     0.041 A 
ATOM     84  F   UNL A   1      40.643  35.517  35.703  1.00  0.00    -0.206 F 
ATOM     85  C   UNL A   1      39.265  35.258  39.038  1.00  0.00     0.022 A 
BRANCH  82  86
ATOM     86  S   UNL A   1      38.022  33.224  40.484  1.00  0.00     0.124 S 
ATOM     87  O   UNL A   1      38.604  31.890  40.585  1.00  0.00    -0.237 OA
ATOM     88  O   UNL A   1      38.378  34.163  41.541  1.00  0.00    -0.237 OA
ATOM     89  O   UNL A   1      36.623  33.264  40.064  1.00  0.00    -0.744 OA
ENDBRANCH  82  86
ENDBRANCH  55  79
BRANCH  67  90
ATOM     90  C   UNL A   1      44.231  28.469  35.311  1.00  0.00     0.023 A 
ATOM     91  C   UNL A   1      44.068  27.455  36.271  1.00  0.00     0.031 A 
ATOM     92  C   UNL A   1      45.528  28.960  35.079  1.00  0.00     0.131 A 
ATOM     93  C   UNL A   1      45.176  27.000  37.002  1.00  0.00     0.055 A 
ATOM     94  C   UNL A   1      46.636  28.463  35.766  1.00  0.00     0.041 A 
ATOM     95  F   UNL A   1      45.740  29.930  34.175  1.00  0.00    -0.206 F 
ATOM     96  C   UNL A   1      46.461  27.487  36.743  1.00  0.00     0.022 A 
BRANCH  93  97
ATOM     97  S   UNL A   1      44.905  25.829  38.359  1.00  0.00     0.124 S 
ATOM     98  O   UNL A   1      46.126  25.985  39.143  1.00  0.00    -0.237 OA
ATOM     99  O   UNL A   1      43.684  26.341  38.974  1.00  0.00    -0.237 OA
ATOM    100  O   UNL A   1      44.764  24.543  37.680  1.00  0.00    -0.744 OA
ENDBRANCH  93  97
ENDBRANCH  67  90
ENDBRANCH  41  42
ENDBRANCH  33  36
ENDBRANCH  31  32
ENDBRANCH  30  31
ENDBRANCH  29  30
ENDBRANCH   3  29
TORSDOF 19
ENDMDL
MODEL 3
REMARK VINA RESULT:     -11.1      2.950      8.973
REMARK SMILES O=C(CCc1ccccc1)Nc1ccccc1Oc1ccsc1C(=O)NCCCNC(=O)c1ccc(-c2c3nc(c(-c4cc(S(=O)(=O)[O-])ccc4F)c4ccc([nH]4)c(-c4cc(S(=O)(=O)[O-])ccc4F)c4nc(c(-c5cc(S(=O)(=O)[O-])ccc5F)c5ccc2[nH]5)C=C4)C=C3)cc1
REMARK SMILES IDX 24 1 25 2 26 3 23 5 19 6 20 7 21 8 22 9 18 10 17 11 12 12
REMARK SMILES IDX 13 13 14 14 16 15 15 16 11 17 1 18 2 19 3 21 4 22 5 23 6 24
REMARK SMILES IDX 10 25 7 26 9 27 8 28 27 29 28 30 29 31 30 32 31 33 32 35
REMARK SMILES IDX 33 36 34 37 95 38 35 39 94 40 36 41 37 42 38 43 88 44 39 45
REMARK SMILES IDX 93 46 87 47 89 48 40 49 92 50 86 51 85 52 41 54 73 55 53 56
REMARK SMILES IDX 72 57 54 58 57 59 71 60 90 61 55 62 56 63 70 65 91 66 58 67
REMARK SMILES IDX 42 68 43 69 51 70 44 71 50 72 52 73 49 74 45 75 46 76 47 77
REMARK SMILES IDX 48 78 74 79 75 80 83 81 76 82 82 83 84 84 81 85 77 86 78 87
REMARK SMILES IDX 79 88 80 89 59 90 60 91 68 92 61 93 67 94 69 95 66 96 62 97
REMARK SMILES IDX 63 98 64 99 65 100
REMARK H PARENT 26 4 11 20 30 34 89 53 57 64
REMARK Flexibility Score: inf
ROOT
ATOM      1  C   UNL A   1      30.750  26.167  24.537  1.00  0.00     0.265 C 
ATOM      2  O   UNL A   1      29.929  25.491  25.173  1.00  0.00    -0.268 OA
ATOM      3  N   UNL A   1      30.832  27.473  24.952  1.00  0.00    -0.351 N 
ATOM      4  H   UNL A   1      30.124  27.728  25.586  1.00  0.00     0.163 HD
ENDROOT
BRANCH   1   5
ATOM      5  C   UNL A   1      31.563  25.591  23.467  1.00  0.00     0.135 A 
ATOM      6  C   UNL A   1      32.513  24.581  23.412  1.00  0.00     0.151 A 
ATOM      7  C   UNL A   1      33.143  24.461  22.137  1.00  0.00     0.059 A 
ATOM      8  C   UNL A   1      32.678  25.397  21.243  1.00  0.00     0.069 A 
ATOM      9  S   UNL A   1      31.463  26.379  21.923  1.00  0.00    -0.135 S 
BRANCH   6  10
ATOM     10  O   UNL A   1      32.735  23.764  24.458  1.00  0.00    -0.453 OA
BRANCH  10  11
ATOM     11  C   UNL A   1      33.138  22.456  24.407  1.00  0.00     0.151 A 
ATOM     12  C   UNL A   1      34.341  21.914  24.865  1.00  0.00     0.084 A 
ATOM     13  C   UNL A   1      34.531  20.525  24.826  1.00  0.00     0.030 A 
ATOM     14  C   UNL A   1      33.510  19.676  24.399  1.00  0.00     0.002 A 
ATOM     15  C   UNL A   1      32.144  21.594  23.915  1.00  0.00     0.049 A 
ATOM     16  C   UNL A   1      32.317  20.211  23.931  1.00  0.00     0.004 A 
BRANCH  12  17
ATOM     17  N   UNL A   1      35.424  22.678  25.318  1.00  0.00    -0.323 N 
ATOM     18  O   UNL A   1      36.333  23.235  23.269  1.00  0.00    -0.275 OA
ATOM     19  C   UNL A   1      36.389  23.228  24.497  1.00  0.00     0.224 C 
ATOM     20  H   UNL A   1      35.503  22.833  26.287  1.00  0.00     0.170 HD
BRANCH  19  21
ATOM     21  C   UNL A   1      37.595  23.790  25.242  1.00  0.00     0.105 C 
BRANCH  21  22
ATOM     22  C   UNL A   1      38.430  22.784  26.036  1.00  0.00     0.045 C 
BRANCH  22  23
ATOM     23  C   UNL A   1      39.400  23.430  26.996  1.00  0.00    -0.048 A 
ATOM     24  C   UNL A   1      40.511  22.708  27.453  1.00  0.00     0.004 A 
ATOM     25  C   UNL A   1      39.288  24.791  27.326  1.00  0.00     0.004 A 
ATOM     26  C   UNL A   1      41.520  23.347  28.174  1.00  0.00     0.000 A 
ATOM     27  C   UNL A   1      40.302  25.428  28.042  1.00  0.00     0.000 A 
ATOM     28  C   UNL A   1      41.422  24.708  28.455  1.00  0.00     0.000 A 
ENDBRANCH  22  23
ENDBRANCH  21  22
ENDBRANCH  19  21
ENDBRANCH  12  17
ENDBRANCH  10  11
ENDBRANCH   6  10
ENDBRANCH   1   5
BRANCH   3  29
ATOM     29  C   UNL A   1      31.748  28.553  24.649  1.00  0.00     0.118 C 
BRANCH  29  30
ATOM     30  C   UNL A   1      33.203  28.081  24.647  1.00  0.00     0.042 C 
BRANCH  30  31
ATOM     31  C   UNL A   1      34.039  28.681  25.773  1.00  0.00     0.118 C 
BRANCH  31  32
ATOM     32  N   UNL A   1      33.579  30.026  26.100  1.00  0.00    -0.352 N 
ATOM     33  C   UNL A   1      33.920  30.859  27.136  1.00  0.00     0.251 C 
ATOM     34  H   UNL A   1      32.915  30.398  25.474  1.00  0.00     0.163 HD
ATOM     35  O   UNL A   1      33.141  31.758  27.447  1.00  0.00    -0.269 OA
BRANCH  33  36
ATOM     36  C   UNL A   1      35.202  30.707  27.866  1.00  0.00     0.039 A 
ATOM     37  C   UNL A   1      36.073  31.801  27.942  1.00  0.00     0.014 A 
ATOM     38  C   UNL A   1      35.603  29.474  28.385  1.00  0.00     0.014 A 
ATOM     39  C   UNL A   1      37.318  31.667  28.566  1.00  0.00     0.010 A 
ATOM     40  C   UNL A   1      36.806  29.363  29.078  1.00  0.00     0.010 A 
ATOM     41  C   UNL A   1      37.687  30.451  29.161  1.00  0.00    -0.014 A 
BRANCH  41  42
ATOM     42  C   UNL A   1      39.000  30.272  29.838  1.00  0.00     0.031 A 
ATOM     43  C   UNL A   1      39.195  30.792  31.239  1.00  0.00     0.074 A 
ATOM     44  C   UNL A   1      40.031  29.721  29.171  1.00  0.00     0.049 A 
ATOM     45  N   UNL A   1      40.292  30.880  31.949  1.00  0.00    -0.248 NA
ATOM     46  C   UNL A   1      38.000  31.319  31.917  1.00  0.00     0.031 C 
ATOM     47  C   UNL A   1      39.973  29.205  27.802  1.00  0.00     0.029 A 
ATOM     48  N   UNL A   1      41.336  29.517  29.544  1.00  0.00    -0.354 N 
ATOM     49  C   UNL A   1      39.926  31.501  33.140  1.00  0.00     0.074 A 
ATOM     50  C   UNL A   1      38.516  31.815  33.031  1.00  0.00     0.031 C 
ATOM     51  C   UNL A   1      41.181  28.733  27.457  1.00  0.00     0.029 A 
ATOM     52  C   UNL A   1      42.113  28.958  28.557  1.00  0.00     0.049 A 
ATOM     53  H   UNL A   1      41.683  29.750  30.436  1.00  0.00     0.167 HD
ATOM     54  C   UNL A   1      40.690  31.767  34.230  1.00  0.00     0.034 A 
ATOM     55  C   UNL A   1      43.431  28.679  28.532  1.00  0.00     0.034 A 
ATOM     56  C   UNL A   1      42.087  31.421  34.329  1.00  0.00     0.049 A 
ATOM     57  C   UNL A   1      44.263  28.989  29.751  1.00  0.00     0.074 A 
ATOM     58  C   UNL A   1      42.945  31.590  35.402  1.00  0.00     0.029 A 
ATOM     59  N   UNL A   1      42.834  30.834  33.315  1.00  0.00    -0.354 N 
ATOM     60  N   UNL A   1      43.896  29.548  30.880  1.00  0.00    -0.248 NA
ATOM     61  C   UNL A   1      45.683  28.620  29.694  1.00  0.00     0.031 C 
ATOM     62  C   UNL A   1      44.220  31.162  35.017  1.00  0.00     0.029 A 
ATOM     63  C   UNL A   1      44.145  30.656  33.729  1.00  0.00     0.049 A 
ATOM     64  H   UNL A   1      42.483  30.581  32.430  1.00  0.00     0.167 HD
ATOM     65  C   UNL A   1      45.036  29.569  31.681  1.00  0.00     0.074 A 
ATOM     66  C   UNL A   1      46.096  28.954  30.907  1.00  0.00     0.031 C 
ATOM     67  C   UNL A   1      45.192  30.047  32.941  1.00  0.00     0.034 A 
BRANCH  54  68
ATOM     68  C   UNL A   1      40.031  32.490  35.383  1.00  0.00     0.023 A 
ATOM     69  C   UNL A   1      40.198  33.871  35.584  1.00  0.00     0.031 A 
ATOM     70  C   UNL A   1      39.252  31.782  36.316  1.00  0.00     0.131 A 
ATOM     71  C   UNL A   1      39.669  34.484  36.729  1.00  0.00     0.055 A 
ATOM     72  C   UNL A   1      38.655  32.415  37.410  1.00  0.00     0.041 A 
ATOM     73  F   UNL A   1      39.070  30.459  36.191  1.00  0.00    -0.206 F 
ATOM     74  C   UNL A   1      38.877  33.771  37.631  1.00  0.00     0.022 A 
BRANCH  71  75
ATOM     75  S   UNL A   1      40.160  36.190  37.103  1.00  0.00     0.124 S 
ATOM     76  O   UNL A   1      39.149  36.579  38.084  1.00  0.00    -0.237 OA
ATOM     77  O   UNL A   1      41.515  36.024  37.614  1.00  0.00    -0.237 OA
ATOM     78  O   UNL A   1      40.057  36.867  35.811  1.00  0.00    -0.744 OA
ENDBRANCH  71  75
ENDBRANCH  54  68
BRANCH  55  79
ATOM     79  C   UNL A   1      44.054  28.086  27.314  1.00  0.00     0.023 A 
ATOM     80  C   UNL A   1      43.844  26.740  26.979  1.00  0.00     0.031 A 
ATOM     81  C   UNL A   1      44.896  28.849  26.484  1.00  0.00     0.131 A 
ATOM     82  C   UNL A   1      44.502  26.183  25.871  1.00  0.00     0.055 A 
ATOM     83  C   UNL A   1      45.507  28.304  25.353  1.00  0.00     0.041 A 
ATOM     84  F   UNL A   1      45.125  30.144  26.754  1.00  0.00    -0.206 F 
ATOM     85  C   UNL A   1      45.322  26.959  25.049  1.00  0.00     0.022 A 
BRANCH  82  86
ATOM     86  S   UNL A   1      44.331  24.404  25.565  1.00  0.00     0.124 S 
ATOM     87  O   UNL A   1      44.649  23.845  26.874  1.00  0.00    -0.237 OA
ATOM     88  O   UNL A   1      42.938  24.303  25.143  1.00  0.00    -0.237 OA
ATOM     89  O   UNL A   1      45.317  24.144  24.518  1.00  0.00    -0.744 OA
ENDBRANCH  82  86
ENDBRANCH  55  79
BRANCH  67  90
ATOM     90  C   UNL A   1      46.549  29.872  33.576  1.00  0.00     0.023 A 
ATOM     91  C   UNL A   1      46.873  28.732  34.331  1.00  0.00     0.031 A 
ATOM     92  C   UNL A   1      47.528  30.871  33.430  1.00  0.00     0.131 A 
ATOM     93  C   UNL A   1      48.125  28.642  34.958  1.00  0.00     0.055 A 
ATOM     94  C   UNL A   1      48.793  30.750  34.006  1.00  0.00     0.041 A 
ATOM     95  F   UNL A   1      47.271  31.981  32.721  1.00  0.00    -0.206 F 
ATOM     96  C   UNL A   1      49.092  29.636  34.786  1.00  0.00     0.022 A 
BRANCH  93  97
ATOM     97  S   UNL A   1      48.443  27.250  36.076  1.00  0.00     0.124 S 
ATOM     98  O   UNL A   1      47.860  27.726  37.326  1.00  0.00    -0.237 OA
ATOM     99  O   UNL A   1      47.735  26.155  35.420  1.00  0.00    -0.237 OA
ATOM    100  O   UNL A   1      49.899  27.134  36.075  1.00  0.00    -0.744 OA
ENDBRANCH  93  97
ENDBRANCH  67  90
ENDBRANCH  41  42
ENDBRANCH  33  36
ENDBRANCH  31  32
ENDBRANCH  30  31
ENDBRANCH  29  30
ENDBRANCH   3  29
TORSDOF 19
ENDMDL
