MODEL 1
REMARK VINA RESULT:     -12.4      0.000      0.000
REMARK SMILES C[N@@H+](Cc1ncccc1C(=O)NCCCNC(=O)c1ccc(-c2c3nc(c(-c4cc(S(=O)(=O)[O-])ccc4F)c4ccc([nH]4)c(-c4cc(S(=O)(=O)[O-])ccc4F)c4nc(c(-c5cc(S(=O)(=O)[O-])ccc5F)c5ccc2[nH]5)C=C4)C=C3)cc1)C[C@@H]1CCN(c2ccccc2)C1
REMARK SMILES IDX 13 1 12 2 10 3 11 4 9 6 4 7 5 8 6 9 8 10 7 11 3 12 2 13 1 14
REMARK SMILES IDX 82 16 83 17 84 18 93 19 85 20 86 21 87 22 88 23 92 24 89 25
REMARK SMILES IDX 91 26 90 27 14 28 15 29 16 30 17 31 18 33 19 34 20 35 81 36
REMARK SMILES IDX 21 37 80 38 22 39 23 40 24 41 74 42 25 43 79 44 73 45 75 46
REMARK SMILES IDX 26 47 78 48 72 49 71 50 27 52 59 53 39 54 58 55 40 56 43 57
REMARK SMILES IDX 57 58 76 59 41 60 42 61 56 63 77 64 44 65 28 66 29 67 37 68
REMARK SMILES IDX 30 69 36 70 38 71 35 72 31 73 32 74 33 75 34 76 60 77 61 78
REMARK SMILES IDX 69 79 62 80 68 81 70 82 67 83 63 84 64 85 65 86 66 87 45 88
REMARK SMILES IDX 46 89 54 90 47 91 53 92 55 93 52 94 48 95 49 96 50 97 51 98
REMARK H PARENT 12 5 2 15 16 32 75 51 43 62
REMARK Flexibility Score: inf
ROOT
ATOM      1  C   UNL A   1      31.461  30.456  26.254  1.00  0.00     0.118 C 
ENDROOT
BRANCH   1   2
ATOM      2  N   UNL A   1      32.157  30.099  25.032  1.00  0.00    -0.352 N 
ATOM      3  C   UNL A   1      32.209  28.981  24.236  1.00  0.00     0.253 C 
ATOM      4  O   UNL A   1      32.970  29.084  23.274  1.00  0.00    -0.269 OA
ATOM      5  H   UNL A   1      32.724  30.829  24.694  1.00  0.00     0.163 HD
BRANCH   3   6
ATOM      6  C   UNL A   1      31.477  27.696  24.484  1.00  0.00     0.067 A 
ATOM      7  C   UNL A   1      32.042  26.662  25.255  1.00  0.00     0.107 A 
ATOM      8  N   UNL A   1      31.288  25.596  25.667  1.00  0.00    -0.254 NA
ATOM      9  C   UNL A   1      30.029  25.447  25.225  1.00  0.00     0.111 A 
ATOM     10  C   UNL A   1      30.158  27.486  24.047  1.00  0.00     0.017 A 
ATOM     11  C   UNL A   1      29.433  26.348  24.389  1.00  0.00     0.021 A 
BRANCH   7  12
ATOM     12  C   UNL A   1      33.511  26.528  25.652  1.00  0.00     0.320 C 
BRANCH  12  13
ATOM     13  N   UNL A   1      34.356  25.578  24.895  1.00  0.00    -0.332 N 
ATOM     14  C   UNL A   1      34.026  25.454  23.486  1.00  0.00     0.333 C 
ATOM     15  H   UNL A   1      35.238  26.088  24.940  1.00  0.00     0.348 HD
BRANCH  13  16
ATOM     16  C   UNL A   1      34.754  24.315  25.527  1.00  0.00     0.267 C 
BRANCH  16  17
ATOM     17  C   UNL A   1      33.953  23.033  25.241  1.00  0.00     0.065 C 
ATOM     18  C   UNL A   1      33.193  22.510  26.482  1.00  0.00     0.032 C 
ATOM     19  C   UNL A   1      34.828  21.848  24.791  1.00  0.00     0.126 C 
ATOM     20  C   UNL A   1      33.532  21.034  26.621  1.00  0.00     0.117 C 
ATOM     21  N   UNL A   1      34.149  20.691  25.357  1.00  0.00    -0.371 N 
BRANCH  21  22
ATOM     22  C   UNL A   1      33.847  19.569  24.633  1.00  0.00     0.037 A 
ATOM     23  C   UNL A   1      32.656  19.489  23.902  1.00  0.00     0.026 A 
ATOM     24  C   UNL A   1      34.709  18.463  24.577  1.00  0.00     0.026 A 
ATOM     25  C   UNL A   1      32.358  18.374  23.109  1.00  0.00     0.002 A 
ATOM     26  C   UNL A   1      34.409  17.336  23.805  1.00  0.00     0.002 A 
ATOM     27  C   UNL A   1      33.237  17.297  23.059  1.00  0.00     0.000 A 
ENDBRANCH  21  22
ENDBRANCH  16  17
ENDBRANCH  13  16
ENDBRANCH  12  13
ENDBRANCH   7  12
ENDBRANCH   3   6
ENDBRANCH   1   2
BRANCH   1  28
ATOM     28  C   UNL A   1      31.499  31.964  26.521  1.00  0.00     0.042 C 
BRANCH  28  29
ATOM     29  C   UNL A   1      32.751  32.428  27.257  1.00  0.00     0.118 C 
BRANCH  29  30
ATOM     30  N   UNL A   1      32.658  33.828  27.636  1.00  0.00    -0.352 N 
ATOM     31  C   UNL A   1      33.231  34.490  28.689  1.00  0.00     0.251 C 
ATOM     32  H   UNL A   1      32.098  34.385  27.046  1.00  0.00     0.163 HD
ATOM     33  O   UNL A   1      32.768  35.586  29.022  1.00  0.00    -0.269 OA
BRANCH  31  34
ATOM     34  C   UNL A   1      34.385  33.920  29.415  1.00  0.00     0.039 A 
ATOM     35  C   UNL A   1      35.679  34.272  29.016  1.00  0.00     0.014 A 
ATOM     36  C   UNL A   1      34.205  32.981  30.435  1.00  0.00     0.014 A 
ATOM     37  C   UNL A   1      36.786  33.708  29.655  1.00  0.00     0.010 A 
ATOM     38  C   UNL A   1      35.307  32.470  31.118  1.00  0.00     0.010 A 
ATOM     39  C   UNL A   1      36.608  32.814  30.724  1.00  0.00    -0.014 A 
BRANCH  39  40
ATOM     40  C   UNL A   1      37.769  32.201  31.418  1.00  0.00     0.031 A 
ATOM     41  C   UNL A   1      38.533  31.084  30.759  1.00  0.00     0.074 A 
ATOM     42  C   UNL A   1      38.092  32.606  32.661  1.00  0.00     0.049 A 
ATOM     43  N   UNL A   1      39.510  30.355  31.232  1.00  0.00    -0.248 NA
ATOM     44  C   UNL A   1      38.115  30.716  29.398  1.00  0.00     0.031 C 
ATOM     45  C   UNL A   1      37.398  33.654  33.413  1.00  0.00     0.029 A 
ATOM     46  N   UNL A   1      39.073  32.178  33.518  1.00  0.00    -0.354 N 
ATOM     47  C   UNL A   1      39.809  29.429  30.237  1.00  0.00     0.074 A 
ATOM     48  C   UNL A   1      38.872  29.657  29.158  1.00  0.00     0.031 C 
ATOM     49  C   UNL A   1      37.985  33.797  34.612  1.00  0.00     0.029 A 
ATOM     50  C   UNL A   1      39.068  32.826  34.732  1.00  0.00     0.049 A 
ATOM     51  H   UNL A   1      39.720  31.473  33.286  1.00  0.00     0.167 HD
ATOM     52  C   UNL A   1      40.787  28.488  30.221  1.00  0.00     0.034 A 
ATOM     53  C   UNL A   1      39.841  32.649  35.820  1.00  0.00     0.034 A 
ATOM     54  C   UNL A   1      41.725  28.292  31.299  1.00  0.00     0.049 A 
ATOM     55  C   UNL A   1      40.925  31.602  35.778  1.00  0.00     0.074 A 
ATOM     56  C   UNL A   1      42.793  27.415  31.368  1.00  0.00     0.029 A 
ATOM     57  N   UNL A   1      41.703  28.982  32.506  1.00  0.00    -0.354 N 
ATOM     58  N   UNL A   1      41.225  30.765  34.812  1.00  0.00    -0.248 NA
ATOM     59  C   UNL A   1      41.780  31.487  36.965  1.00  0.00     0.031 C 
ATOM     60  C   UNL A   1      43.378  27.532  32.633  1.00  0.00     0.029 A 
ATOM     61  C   UNL A   1      42.722  28.532  33.332  1.00  0.00     0.049 A 
ATOM     62  H   UNL A   1      41.058  29.688  32.739  1.00  0.00     0.167 HD
ATOM     63  C   UNL A   1      42.322  30.039  35.268  1.00  0.00     0.074 A 
ATOM     64  C   UNL A   1      42.638  30.551  36.586  1.00  0.00     0.031 C 
ATOM     65  C   UNL A   1      43.011  29.045  34.652  1.00  0.00     0.034 A 
BRANCH  52  66
ATOM     66  C   UNL A   1      40.864  27.586  29.010  1.00  0.00     0.023 A 
ATOM     67  C   UNL A   1      41.815  27.789  27.995  1.00  0.00     0.031 A 
ATOM     68  C   UNL A   1      39.954  26.525  28.853  1.00  0.00     0.131 A 
ATOM     69  C   UNL A   1      41.783  27.000  26.835  1.00  0.00     0.055 A 
ATOM     70  C   UNL A   1      39.980  25.690  27.734  1.00  0.00     0.041 A 
ATOM     71  F   UNL A   1      39.010  26.291  29.779  1.00  0.00    -0.206 F 
ATOM     72  C   UNL A   1      40.888  25.935  26.708  1.00  0.00     0.022 A 
BRANCH  69  73
ATOM     73  S   UNL A   1      42.832  27.476  25.434  1.00  0.00     0.124 S 
ATOM     74  O   UNL A   1      44.048  27.917  26.113  1.00  0.00    -0.237 OA
ATOM     75  O   UNL A   1      42.936  26.232  24.681  1.00  0.00    -0.237 OA
ATOM     76  O   UNL A   1      42.071  28.539  24.780  1.00  0.00    -0.744 OA
ENDBRANCH  69  73
ENDBRANCH  52  66
BRANCH  53  77
ATOM     77  C   UNL A   1      39.617  33.471  37.042  1.00  0.00     0.023 A 
ATOM     78  C   UNL A   1      40.387  34.617  37.292  1.00  0.00     0.031 A 
ATOM     79  C   UNL A   1      38.640  33.112  37.986  1.00  0.00     0.131 A 
ATOM     80  C   UNL A   1      40.195  35.343  38.478  1.00  0.00     0.055 A 
ATOM     81  C   UNL A   1      38.421  33.864  39.143  1.00  0.00     0.041 A 
ATOM     82  F   UNL A   1      37.869  32.031  37.788  1.00  0.00    -0.206 F 
ATOM     83  C   UNL A   1      39.208  34.981  39.398  1.00  0.00     0.022 A 
BRANCH  80  84
ATOM     84  S   UNL A   1      41.298  36.739  38.830  1.00  0.00     0.124 S 
ATOM     85  O   UNL A   1      42.075  36.229  39.954  1.00  0.00    -0.237 OA
ATOM     86  O   UNL A   1      42.014  36.883  37.567  1.00  0.00    -0.237 OA
ATOM     87  O   UNL A   1      40.377  37.828  39.149  1.00  0.00    -0.744 OA
ENDBRANCH  80  84
ENDBRANCH  53  77
BRANCH  65  88
ATOM     88  C   UNL A   1      44.197  28.479  35.390  1.00  0.00     0.023 A 
ATOM     89  C   UNL A   1      44.050  27.475  36.363  1.00  0.00     0.031 A 
ATOM     90  C   UNL A   1      45.490  28.960  35.124  1.00  0.00     0.131 A 
ATOM     91  C   UNL A   1      45.172  27.024  37.075  1.00  0.00     0.055 A 
ATOM     92  C   UNL A   1      46.610  28.467  35.794  1.00  0.00     0.041 A 
ATOM     93  F   UNL A   1      45.686  29.920  34.205  1.00  0.00    -0.206 F 
ATOM     94  C   UNL A   1      46.452  27.502  36.786  1.00  0.00     0.022 A 
BRANCH  91  95
ATOM     95  S   UNL A   1      44.923  25.866  38.448  1.00  0.00     0.124 S 
ATOM     96  O   UNL A   1      43.841  26.504  39.192  1.00  0.00    -0.237 OA
ATOM     97  O   UNL A   1      44.576  24.629  37.754  1.00  0.00    -0.237 OA
ATOM     98  O   UNL A   1      46.218  25.853  39.125  1.00  0.00    -0.744 OA
ENDBRANCH  91  95
ENDBRANCH  65  88
ENDBRANCH  39  40
ENDBRANCH  31  34
ENDBRANCH  29  30
ENDBRANCH  28  29
ENDBRANCH   1  28
TORSDOF 18
ENDMDL
MODEL 2
REMARK VINA RESULT:     -12.3      3.444      8.463
REMARK SMILES C[N@@H+](Cc1ncccc1C(=O)NCCCNC(=O)c1ccc(-c2c3nc(c(-c4cc(S(=O)(=O)[O-])ccc4F)c4ccc([nH]4)c(-c4cc(S(=O)(=O)[O-])ccc4F)c4nc(c(-c5cc(S(=O)(=O)[O-])ccc5F)c5ccc2[nH]5)C=C4)C=C3)cc1)C[C@@H]1CCN(c2ccccc2)C1
REMARK SMILES IDX 13 1 12 2 10 3 11 4 9 6 4 7 5 8 6 9 8 10 7 11 3 12 2 13 1 14
REMARK SMILES IDX 82 16 83 17 84 18 93 19 85 20 86 21 87 22 88 23 92 24 89 25
REMARK SMILES IDX 91 26 90 27 14 28 15 29 16 30 17 31 18 33 19 34 20 35 81 36
REMARK SMILES IDX 21 37 80 38 22 39 23 40 24 41 74 42 25 43 79 44 73 45 75 46
REMARK SMILES IDX 26 47 78 48 72 49 71 50 27 52 59 53 39 54 58 55 40 56 43 57
REMARK SMILES IDX 57 58 76 59 41 60 42 61 56 63 77 64 44 65 28 66 29 67 37 68
REMARK SMILES IDX 30 69 36 70 38 71 35 72 31 73 32 74 33 75 34 76 60 77 61 78
REMARK SMILES IDX 69 79 62 80 68 81 70 82 67 83 63 84 64 85 65 86 66 87 45 88
REMARK SMILES IDX 46 89 54 90 47 91 53 92 55 93 52 94 48 95 49 96 50 97 51 98
REMARK H PARENT 12 5 2 15 16 32 75 51 43 62
REMARK Flexibility Score: inf
ROOT
ATOM      1  C   UNL A   1      31.750  28.662  27.263  1.00  0.00     0.118 C 
ENDROOT
BRANCH   1   2
ATOM      2  N   UNL A   1      31.082  27.376  27.167  1.00  0.00    -0.352 N 
ATOM      3  C   UNL A   1      30.845  26.479  26.155  1.00  0.00     0.253 C 
ATOM      4  O   UNL A   1      30.197  25.492  26.500  1.00  0.00    -0.269 OA
ATOM      5  H   UNL A   1      30.714  27.077  28.030  1.00  0.00     0.163 HD
BRANCH   3   6
ATOM      6  C   UNL A   1      31.259  26.647  24.723  1.00  0.00     0.067 A 
ATOM      7  C   UNL A   1      32.506  26.186  24.257  1.00  0.00     0.107 A 
ATOM      8  N   UNL A   1      32.783  26.134  22.918  1.00  0.00    -0.254 NA
ATOM      9  C   UNL A   1      31.922  26.655  22.028  1.00  0.00     0.111 A 
ATOM     10  C   UNL A   1      30.399  27.183  23.750  1.00  0.00     0.017 A 
ATOM     11  C   UNL A   1      30.734  27.218  22.399  1.00  0.00     0.021 A 
BRANCH   7  12
ATOM     12  C   UNL A   1      33.701  25.782  25.119  1.00  0.00     0.320 C 
BRANCH  12  13
ATOM     13  N   UNL A   1      33.747  24.400  25.646  1.00  0.00    -0.332 N 
ATOM     14  C   UNL A   1      35.080  23.845  25.795  1.00  0.00     0.333 C 
ATOM     15  H   UNL A   1      33.404  24.584  26.589  1.00  0.00     0.348 HD
BRANCH  13  16
ATOM     16  C   UNL A   1      32.743  23.429  25.192  1.00  0.00     0.267 C 
BRANCH  16  17
ATOM     17  C   UNL A   1      33.197  22.065  24.642  1.00  0.00     0.065 C 
ATOM     18  C   UNL A   1      32.907  21.901  23.132  1.00  0.00     0.032 C 
ATOM     19  C   UNL A   1      32.491  20.868  25.307  1.00  0.00     0.126 C 
ATOM     20  C   UNL A   1      32.187  20.572  22.960  1.00  0.00     0.117 C 
ATOM     21  N   UNL A   1      32.378  19.899  24.227  1.00  0.00    -0.371 N 
BRANCH  21  22
ATOM     22  C   UNL A   1      32.750  18.587  24.353  1.00  0.00     0.037 A 
ATOM     23  C   UNL A   1      33.343  17.906  23.283  1.00  0.00     0.026 A 
ATOM     24  C   UNL A   1      32.572  17.872  25.547  1.00  0.00     0.026 A 
ATOM     25  C   UNL A   1      33.784  16.584  23.412  1.00  0.00     0.002 A 
ATOM     26  C   UNL A   1      32.990  16.544  25.679  1.00  0.00     0.002 A 
ATOM     27  C   UNL A   1      33.609  15.903  24.612  1.00  0.00     0.000 A 
ENDBRANCH  21  22
ENDBRANCH  16  17
ENDBRANCH  13  16
ENDBRANCH  12  13
ENDBRANCH   7  12
ENDBRANCH   3   6
ENDBRANCH   1   2
BRANCH   1  28
ATOM     28  C   UNL A   1      33.271  28.517  27.359  1.00  0.00     0.042 C 
BRANCH  28  29
ATOM     29  C   UNL A   1      34.040  29.501  26.483  1.00  0.00     0.118 C 
BRANCH  29  30
ATOM     30  N   UNL A   1      33.955  30.855  27.003  1.00  0.00    -0.352 N 
ATOM     31  C   UNL A   1      34.619  31.433  28.052  1.00  0.00     0.251 C 
ATOM     32  H   UNL A   1      33.325  31.446  26.530  1.00  0.00     0.163 HD
ATOM     33  O   UNL A   1      34.168  32.476  28.536  1.00  0.00    -0.269 OA
BRANCH  31  34
ATOM     34  C   UNL A   1      35.854  30.834  28.600  1.00  0.00     0.039 A 
ATOM     35  C   UNL A   1      37.090  31.236  28.083  1.00  0.00     0.014 A 
ATOM     36  C   UNL A   1      35.802  29.821  29.562  1.00  0.00     0.014 A 
ATOM     37  C   UNL A   1      38.269  30.649  28.550  1.00  0.00     0.010 A 
ATOM     38  C   UNL A   1      36.980  29.284  30.078  1.00  0.00     0.010 A 
ATOM     39  C   UNL A   1      38.223  29.679  29.564  1.00  0.00    -0.014 A 
BRANCH  39  40
ATOM     40  C   UNL A   1      39.462  29.040  30.077  1.00  0.00     0.031 A 
ATOM     41  C   UNL A   1      40.146  29.598  31.296  1.00  0.00     0.074 A 
ATOM     42  C   UNL A   1      40.002  28.002  29.409  1.00  0.00     0.049 A 
ATOM     43  N   UNL A   1      41.279  29.248  31.845  1.00  0.00    -0.248 NA
ATOM     44  C   UNL A   1      39.477  30.725  31.965  1.00  0.00     0.031 C 
ATOM     45  C   UNL A   1      39.447  27.402  28.193  1.00  0.00     0.029 A 
ATOM     46  N   UNL A   1      41.142  27.278  29.645  1.00  0.00    -0.354 N 
ATOM     47  C   UNL A   1      41.473  30.125  32.909  1.00  0.00     0.074 A 
ATOM     48  C   UNL A   1      40.363  31.054  32.892  1.00  0.00     0.031 C 
ATOM     49  C   UNL A   1      40.240  26.393  27.800  1.00  0.00     0.029 A 
ATOM     50  C   UNL A   1      41.379  26.298  28.709  1.00  0.00     0.049 A 
ATOM     51  H   UNL A   1      41.735  27.444  30.414  1.00  0.00     0.167 HD
ATOM     52  C   UNL A   1      42.475  30.140  33.824  1.00  0.00     0.034 A 
ATOM     53  C   UNL A   1      42.404  25.433  28.589  1.00  0.00     0.034 A 
ATOM     54  C   UNL A   1      43.561  29.189  33.835  1.00  0.00     0.049 A 
ATOM     55  C   UNL A   1      43.502  25.463  29.621  1.00  0.00     0.074 A 
ATOM     56  C   UNL A   1      44.594  29.068  34.747  1.00  0.00     0.029 A 
ATOM     57  N   UNL A   1      43.756  28.197  32.882  1.00  0.00    -0.354 N 
ATOM     58  N   UNL A   1      43.647  26.268  30.648  1.00  0.00    -0.248 NA
ATOM     59  C   UNL A   1      44.565  24.460  29.483  1.00  0.00     0.031 C 
ATOM     60  C   UNL A   1      45.445  28.045  34.314  1.00  0.00     0.029 A 
ATOM     61  C   UNL A   1      44.906  27.478  33.171  1.00  0.00     0.049 A 
ATOM     62  H   UNL A   1      43.164  28.028  32.114  1.00  0.00     0.167 HD
ATOM     63  C   UNL A   1      44.808  25.851  31.294  1.00  0.00     0.074 A 
ATOM     64  C   UNL A   1      45.311  24.715  30.549  1.00  0.00     0.031 C 
ATOM     65  C   UNL A   1      45.401  26.356  32.406  1.00  0.00     0.034 A 
BRANCH  52  66
ATOM     66  C   UNL A   1      42.451  31.236  34.865  1.00  0.00     0.023 A 
ATOM     67  C   UNL A   1      43.034  32.493  34.630  1.00  0.00     0.031 A 
ATOM     68  C   UNL A   1      41.863  31.010  36.123  1.00  0.00     0.131 A 
ATOM     69  C   UNL A   1      43.090  33.445  35.660  1.00  0.00     0.055 A 
ATOM     70  C   UNL A   1      41.849  31.991  37.116  1.00  0.00     0.041 A 
ATOM     71  F   UNL A   1      41.307  29.824  36.415  1.00  0.00    -0.206 F 
ATOM     72  C   UNL A   1      42.479  33.212  36.894  1.00  0.00     0.022 A 
BRANCH  69  73
ATOM     73  S   UNL A   1      44.096  34.933  35.411  1.00  0.00     0.124 S 
ATOM     74  O   UNL A   1      44.235  34.955  33.957  1.00  0.00    -0.237 OA
ATOM     75  O   UNL A   1      43.261  35.979  35.989  1.00  0.00    -0.237 OA
ATOM     76  O   UNL A   1      45.327  34.642  36.143  1.00  0.00    -0.744 OA
ENDBRANCH  69  73
ENDBRANCH  52  66
BRANCH  53  77
ATOM     77  C   UNL A   1      42.445  24.471  27.452  1.00  0.00     0.023 A 
ATOM     78  C   UNL A   1      41.674  23.299  27.469  1.00  0.00     0.031 A 
ATOM     79  C   UNL A   1      43.272  24.703  26.340  1.00  0.00     0.131 A 
ATOM     80  C   UNL A   1      41.773  22.381  26.411  1.00  0.00     0.055 A 
ATOM     81  C   UNL A   1      43.333  23.809  25.268  1.00  0.00     0.041 A 
ATOM     82  F   UNL A   1      44.021  25.815  26.270  1.00  0.00    -0.206 F 
ATOM     83  C   UNL A   1      42.588  22.636  25.306  1.00  0.00     0.022 A 
BRANCH  80  84
ATOM     84  S   UNL A   1      40.865  20.817  26.531  1.00  0.00     0.124 S 
ATOM     85  O   UNL A   1      40.884  20.570  27.968  1.00  0.00    -0.237 OA
ATOM     86  O   UNL A   1      39.571  21.174  25.958  1.00  0.00    -0.237 OA
ATOM     87  O   UNL A   1      41.666  19.896  25.727  1.00  0.00    -0.744 OA
ENDBRANCH  80  84
ENDBRANCH  53  77
BRANCH  65  88
ATOM     88  C   UNL A   1      46.640  25.651  32.897  1.00  0.00     0.023 A 
ATOM     89  C   UNL A   1      47.909  25.930  32.362  1.00  0.00     0.031 A 
ATOM     90  C   UNL A   1      46.544  24.678  33.907  1.00  0.00     0.131 A 
ATOM     91  C   UNL A   1      49.026  25.203  32.800  1.00  0.00     0.055 A 
ATOM     92  C   UNL A   1      47.667  23.998  34.379  1.00  0.00     0.041 A 
ATOM     93  F   UNL A   1      45.356  24.372  34.451  1.00  0.00    -0.206 F 
ATOM     94  C   UNL A   1      48.916  24.250  33.816  1.00  0.00     0.022 A 
BRANCH  91  95
ATOM     95  S   UNL A   1      50.614  25.456  31.961  1.00  0.00     0.124 S 
ATOM     96  O   UNL A   1      50.752  24.222  31.193  1.00  0.00    -0.237 OA
ATOM     97  O   UNL A   1      50.366  26.666  31.183  1.00  0.00    -0.237 OA
ATOM     98  O   UNL A   1      51.562  25.611  33.061  1.00  0.00    -0.744 OA
ENDBRANCH  91  95
ENDBRANCH  65  88
ENDBRANCH  39  40
ENDBRANCH  31  34
ENDBRANCH  29  30
ENDBRANCH  28  29
ENDBRANCH   1  28
TORSDOF 18
ENDMDL
MODEL 3
REMARK VINA RESULT:     -12.3      3.682      9.433
REMARK SMILES C[N@@H+](Cc1ncccc1C(=O)NCCCNC(=O)c1ccc(-c2c3nc(c(-c4cc(S(=O)(=O)[O-])ccc4F)c4ccc([nH]4)c(-c4cc(S(=O)(=O)[O-])ccc4F)c4nc(c(-c5cc(S(=O)(=O)[O-])ccc5F)c5ccc2[nH]5)C=C4)C=C3)cc1)C[C@@H]1CCN(c2ccccc2)C1
REMARK SMILES IDX 13 1 12 2 10 3 11 4 9 6 4 7 5 8 6 9 8 10 7 11 3 12 2 13 1 14
REMARK SMILES IDX 82 16 83 17 84 18 93 19 85 20 86 21 87 22 88 23 92 24 89 25
REMARK SMILES IDX 91 26 90 27 14 28 15 29 16 30 17 31 18 33 19 34 20 35 81 36
REMARK SMILES IDX 21 37 80 38 22 39 23 40 24 41 74 42 25 43 79 44 73 45 75 46
REMARK SMILES IDX 26 47 78 48 72 49 71 50 27 52 59 53 39 54 58 55 40 56 43 57
REMARK SMILES IDX 57 58 76 59 41 60 42 61 56 63 77 64 44 65 28 66 29 67 37 68
REMARK SMILES IDX 30 69 36 70 38 71 35 72 31 73 32 74 33 75 34 76 60 77 61 78
REMARK SMILES IDX 69 79 62 80 68 81 70 82 67 83 63 84 64 85 65 86 66 87 45 88
REMARK SMILES IDX 46 89 54 90 47 91 53 92 55 93 52 94 48 95 49 96 50 97 51 98
REMARK H PARENT 12 5 2 15 16 32 75 51 43 62
REMARK Flexibility Score: inf
ROOT
ATOM      1  C   UNL A   1      32.889  26.474  26.340  1.00  0.00     0.118 C 
ENDROOT
BRANCH   1   2
ATOM      2  N   UNL A   1      31.655  25.754  26.596  1.00  0.00    -0.352 N 
ATOM      3  C   UNL A   1      31.309  24.430  26.708  1.00  0.00     0.253 C 
ATOM      4  O   UNL A   1      30.110  24.239  26.909  1.00  0.00    -0.269 OA
ATOM      5  H   UNL A   1      30.886  26.357  26.718  1.00  0.00     0.163 HD
BRANCH   3   6
ATOM      6  C   UNL A   1      32.243  23.267  26.558  1.00  0.00     0.067 A 
ATOM      7  C   UNL A   1      32.424  22.620  25.320  1.00  0.00     0.107 A 
ATOM      8  N   UNL A   1      33.436  21.718  25.136  1.00  0.00    -0.254 NA
ATOM      9  C   UNL A   1      34.190  21.326  26.176  1.00  0.00     0.111 A 
ATOM     10  C   UNL A   1      33.057  22.816  27.611  1.00  0.00     0.017 A 
ATOM     11  C   UNL A   1      34.017  21.823  27.436  1.00  0.00     0.021 A 
BRANCH   7  12
ATOM     12  C   UNL A   1      31.523  22.749  24.092  1.00  0.00     0.320 C 
BRANCH  12  13
ATOM     13  N   UNL A   1      32.078  23.397  22.883  1.00  0.00    -0.332 N 
ATOM     14  C   UNL A   1      32.743  22.499  21.957  1.00  0.00     0.333 C 
ATOM     15  H   UNL A   1      31.200  23.671  22.440  1.00  0.00     0.348 HD
BRANCH  13  16
ATOM     16  C   UNL A   1      32.722  24.709  23.009  1.00  0.00     0.267 C 
BRANCH  16  17
ATOM     17  C   UNL A   1      32.056  25.949  22.386  1.00  0.00     0.065 C 
ATOM     18  C   UNL A   1      33.040  27.127  22.196  1.00  0.00     0.032 C 
ATOM     19  C   UNL A   1      30.914  26.529  23.241  1.00  0.00     0.126 C 
ATOM     20  C   UNL A   1      32.384  28.356  22.805  1.00  0.00     0.117 C 
ATOM     21  N   UNL A   1      31.004  27.962  23.001  1.00  0.00    -0.371 N 
BRANCH  21  22
ATOM     22  C   UNL A   1      29.927  28.737  22.663  1.00  0.00     0.037 A 
ATOM     23  C   UNL A   1      28.643  28.413  23.115  1.00  0.00     0.026 A 
ATOM     24  C   UNL A   1      30.056  29.886  21.868  1.00  0.00     0.026 A 
ATOM     25  C   UNL A   1      27.539  29.225  22.828  1.00  0.00     0.002 A 
ATOM     26  C   UNL A   1      28.956  30.693  21.558  1.00  0.00     0.002 A 
ATOM     27  C   UNL A   1      27.697  30.368  22.051  1.00  0.00     0.000 A 
ENDBRANCH  21  22
ENDBRANCH  16  17
ENDBRANCH  13  16
ENDBRANCH  12  13
ENDBRANCH   7  12
ENDBRANCH   3   6
ENDBRANCH   1   2
BRANCH   1  28
ATOM     28  C   UNL A   1      32.764  27.966  26.659  1.00  0.00     0.042 C 
BRANCH  28  29
ATOM     29  C   UNL A   1      33.900  28.814  26.096  1.00  0.00     0.118 C 
BRANCH  29  30
ATOM     30  N   UNL A   1      33.783  30.203  26.510  1.00  0.00    -0.352 N 
ATOM     31  C   UNL A   1      34.444  30.879  27.500  1.00  0.00     0.251 C 
ATOM     32  H   UNL A   1      33.130  30.737  26.002  1.00  0.00     0.163 HD
ATOM     33  O   UNL A   1      33.971  31.944  27.908  1.00  0.00    -0.269 OA
BRANCH  31  34
ATOM     34  C   UNL A   1      35.704  30.358  28.074  1.00  0.00     0.039 A 
ATOM     35  C   UNL A   1      36.890  30.503  27.347  1.00  0.00     0.014 A 
ATOM     36  C   UNL A   1      35.712  29.660  29.285  1.00  0.00     0.014 A 
ATOM     37  C   UNL A   1      38.084  29.976  27.846  1.00  0.00     0.010 A 
ATOM     38  C   UNL A   1      36.914  29.194  29.815  1.00  0.00     0.010 A 
ATOM     39  C   UNL A   1      38.108  29.332  29.093  1.00  0.00    -0.014 A 
BRANCH  39  40
ATOM     40  C   UNL A   1      39.365  28.763  29.644  1.00  0.00     0.031 A 
ATOM     41  C   UNL A   1      40.034  29.422  30.821  1.00  0.00     0.074 A 
ATOM     42  C   UNL A   1      39.931  27.698  29.047  1.00  0.00     0.049 A 
ATOM     43  N   UNL A   1      41.178  29.141  31.389  1.00  0.00    -0.248 NA
ATOM     44  C   UNL A   1      39.336  30.573  31.413  1.00  0.00     0.031 C 
ATOM     45  C   UNL A   1      39.392  27.001  27.876  1.00  0.00     0.029 A 
ATOM     46  N   UNL A   1      41.092  27.023  29.329  1.00  0.00    -0.354 N 
ATOM     47  C   UNL A   1      41.348  30.093  32.390  1.00  0.00     0.074 A 
ATOM     48  C   UNL A   1      40.214  30.988  32.313  1.00  0.00     0.031 C 
ATOM     49  C   UNL A   1      40.212  25.989  27.551  1.00  0.00     0.029 A 
ATOM     50  C   UNL A   1      41.354  25.988  28.460  1.00  0.00     0.049 A 
ATOM     51  H   UNL A   1      41.681  27.256  30.082  1.00  0.00     0.167 HD
ATOM     52  C   UNL A   1      42.351  30.198  33.298  1.00  0.00     0.034 A 
ATOM     53  C   UNL A   1      42.402  25.144  28.397  1.00  0.00     0.034 A 
ATOM     54  C   UNL A   1      43.462  29.281  33.371  1.00  0.00     0.049 A 
ATOM     55  C   UNL A   1      43.501  25.275  29.421  1.00  0.00     0.074 A 
ATOM     56  C   UNL A   1      44.500  29.250  34.286  1.00  0.00     0.029 A 
ATOM     57  N   UNL A   1      43.684  28.231  32.487  1.00  0.00    -0.354 N 
ATOM     58  N   UNL A   1      43.625  26.152  30.390  1.00  0.00    -0.248 NA
ATOM     59  C   UNL A   1      44.590  24.295  29.348  1.00  0.00     0.031 C 
ATOM     60  C   UNL A   1      45.378  28.223  33.921  1.00  0.00     0.029 A 
ATOM     61  C   UNL A   1      44.854  27.565  32.821  1.00  0.00     0.049 A 
ATOM     62  H   UNL A   1      43.095  27.994  31.734  1.00  0.00     0.167 HD
ATOM     63  C   UNL A   1      44.797  25.812  31.060  1.00  0.00     0.074 A 
ATOM     64  C   UNL A   1      45.331  24.641  30.392  1.00  0.00     0.031 C 
ATOM     65  C   UNL A   1      45.378  26.408  32.132  1.00  0.00     0.034 A 
BRANCH  52  66
ATOM     66  C   UNL A   1      42.298  31.362  34.262  1.00  0.00     0.023 A 
ATOM     67  C   UNL A   1      41.413  31.380  35.354  1.00  0.00     0.031 A 
ATOM     68  C   UNL A   1      43.125  32.484  34.068  1.00  0.00     0.131 A 
ATOM     69  C   UNL A   1      41.315  32.525  36.159  1.00  0.00     0.055 A 
ATOM     70  C   UNL A   1      43.081  33.587  34.923  1.00  0.00     0.041 A 
ATOM     71  F   UNL A   1      43.977  32.534  33.033  1.00  0.00    -0.206 F 
ATOM     72  C   UNL A   1      42.161  33.620  35.967  1.00  0.00     0.022 A 
BRANCH  69  73
ATOM     73  S   UNL A   1      39.969  32.620  37.370  1.00  0.00     0.124 S 
ATOM     74  O   UNL A   1      39.408  33.939  37.084  1.00  0.00    -0.237 OA
ATOM     75  O   UNL A   1      39.136  31.480  37.006  1.00  0.00    -0.237 OA
ATOM     76  O   UNL A   1      40.654  32.508  38.656  1.00  0.00    -0.744 OA
ENDBRANCH  69  73
ENDBRANCH  52  66
BRANCH  53  77
ATOM     77  C   UNL A   1      42.469  24.109  27.328  1.00  0.00     0.023 A 
ATOM     78  C   UNL A   1      41.681  22.950  27.395  1.00  0.00     0.031 A 
ATOM     79  C   UNL A   1      43.335  24.257  26.232  1.00  0.00     0.131 A 
ATOM     80  C   UNL A   1      41.803  21.963  26.404  1.00  0.00     0.055 A 
ATOM     81  C   UNL A   1      43.420  23.293  25.224  1.00  0.00     0.041 A 
ATOM     82  F   UNL A   1      44.102  25.353  26.115  1.00  0.00    -0.206 F 
ATOM     83  C   UNL A   1      42.658  22.133  25.314  1.00  0.00     0.022 A 
BRANCH  80  84
ATOM     84  S   UNL A   1      40.869  20.421  26.596  1.00  0.00     0.124 S 
ATOM     85  O   UNL A   1      39.572  20.786  26.038  1.00  0.00    -0.237 OA
ATOM     86  O   UNL A   1      41.666  19.485  25.810  1.00  0.00    -0.237 OA
ATOM     87  O   UNL A   1      40.887  20.190  28.039  1.00  0.00    -0.744 OA
ENDBRANCH  80  84
ENDBRANCH  53  77
BRANCH  65  88
ATOM     88  C   UNL A   1      46.636  25.772  32.667  1.00  0.00     0.023 A 
ATOM     89  C   UNL A   1      47.906  26.126  32.180  1.00  0.00     0.031 A 
ATOM     90  C   UNL A   1      46.560  24.788  33.668  1.00  0.00     0.131 A 
ATOM     91  C   UNL A   1      49.046  25.462  32.657  1.00  0.00     0.055 A 
ATOM     92  C   UNL A   1      47.702  24.171  34.179  1.00  0.00     0.041 A 
ATOM     93  F   UNL A   1      45.371  24.411  34.165  1.00  0.00    -0.206 F 
ATOM     94  C   UNL A   1      48.954  24.498  33.664  1.00  0.00     0.022 A 
BRANCH  91  95
ATOM     95  S   UNL A   1      50.647  25.812  31.879  1.00  0.00     0.124 S 
ATOM     96  O   UNL A   1      50.458  25.267  30.538  1.00  0.00    -0.237 OA
ATOM     97  O   UNL A   1      50.727  27.267  31.970  1.00  0.00    -0.237 OA
ATOM     98  O   UNL A   1      51.600  25.086  32.715  1.00  0.00    -0.744 OA
ENDBRANCH  91  95
ENDBRANCH  65  88
ENDBRANCH  39  40
ENDBRANCH  31  34
ENDBRANCH  29  30
ENDBRANCH  28  29
ENDBRANCH   1  28
TORSDOF 18
ENDMDL
