MODEL 1
REMARK VINA RESULT:     -12.8      0.000      0.000
REMARK SMILES Cn1cc(C(=O)NCCCNC(=O)c2ccc(-c3c4nc(c(-c5cc(S(=O)(=O)[O-])ccc5F)c5ccc([nH]5)c(-c5cc(S(=O)(=O)[O-])ccc5F)c5nc(c(-c6cc(S(=O)(=O)[O-])ccc6F)c6ccc3[nH]6)C=C5)C=C4)cc2)c(C(=O)Nc2ccc(-n3cncn3)cc2)n1
REMARK SMILES IDX 9 1 8 2 7 3 5 4 6 5 4 7 1 8 2 9 3 10 92 11 77 12 78 13 79 14
REMARK SMILES IDX 80 15 81 17 82 18 91 19 83 20 90 21 84 22 85 23 86 24 89 25
REMARK SMILES IDX 87 26 88 27 10 28 11 29 12 30 13 32 14 33 15 34 76 35 16 36
REMARK SMILES IDX 75 37 17 38 18 39 19 40 69 41 20 42 74 43 68 44 70 45 21 46
REMARK SMILES IDX 73 47 67 48 66 49 22 51 54 52 34 53 53 54 35 55 38 56 52 57
REMARK SMILES IDX 71 58 36 59 37 60 51 62 72 63 39 64 23 65 24 66 32 67 25 68
REMARK SMILES IDX 31 69 33 70 30 71 26 72 27 73 28 74 29 75 55 76 56 77 64 78
REMARK SMILES IDX 57 79 63 80 65 81 62 82 58 83 59 84 60 85 61 86 40 87 41 88
REMARK SMILES IDX 49 89 42 90 48 91 50 92 47 93 43 94 44 95 45 96 46 97
REMARK H PARENT 7 6 80 16 11 31 70 50 38 61
REMARK Flexibility Score: inf
ROOT
ATOM      1  C   UNL A   1      31.558  28.612  26.230  1.00  0.00     0.042 C 
ENDROOT
BRANCH   1   2
ATOM      2  C   UNL A   1      32.268  27.379  26.788  1.00  0.00     0.118 C 
BRANCH   2   3
ATOM      3  N   UNL A   1      31.489  26.152  26.823  1.00  0.00    -0.352 N 
ATOM      4  C   UNL A   1      31.778  24.848  26.500  1.00  0.00     0.255 C 
ATOM      5  O   UNL A   1      31.003  23.992  26.924  1.00  0.00    -0.269 OA
ATOM      6  H   UNL A   1      30.567  26.283  27.142  1.00  0.00     0.163 HD
BRANCH   4   7
ATOM      7  C   UNL A   1      32.927  24.483  25.683  1.00  0.00     0.090 A 
ATOM      8  C   UNL A   1      36.369  23.701  24.938  1.00  0.00     0.173 C 
ATOM      9  N   UNL A   1      34.954  23.984  24.975  1.00  0.00    -0.274 N 
ATOM     10  C   UNL A   1      34.273  24.616  25.970  1.00  0.00     0.123 A 
ATOM     11  N   UNL A   1      34.167  23.511  24.007  1.00  0.00    -0.167 NA
ATOM     12  C   UNL A   1      32.910  23.757  24.431  1.00  0.00     0.163 A 
BRANCH  12  13
ATOM     13  C   UNL A   1      31.778  23.177  23.675  1.00  0.00     0.276 C 
ATOM     14  O   UNL A   1      31.760  21.978  23.368  1.00  0.00    -0.267 OA
ATOM     15  N   UNL A   1      30.656  23.907  23.353  1.00  0.00    -0.321 N 
ATOM     16  H   UNL A   1      29.880  23.357  23.098  1.00  0.00     0.170 HD
BRANCH  15  17
ATOM     17  C   UNL A   1      30.410  25.282  23.320  1.00  0.00     0.041 A 
ATOM     18  C   UNL A   1      31.282  26.056  22.550  1.00  0.00     0.028 A 
ATOM     19  C   UNL A   1      29.357  25.895  23.998  1.00  0.00     0.028 A 
ATOM     20  C   UNL A   1      31.029  27.411  22.347  1.00  0.00     0.030 A 
ATOM     21  C   UNL A   1      29.131  27.269  23.846  1.00  0.00     0.030 A 
ATOM     22  C   UNL A   1      29.938  28.019  22.977  1.00  0.00     0.067 A 
BRANCH  22  23
ATOM     23  N   UNL A   1      29.627  29.367  22.665  1.00  0.00    -0.221 N 
ATOM     24  C   UNL A   1      29.224  30.374  23.502  1.00  0.00     0.225 A 
ATOM     25  N   UNL A   1      29.589  29.810  21.383  1.00  0.00    -0.155 NA
ATOM     26  N   UNL A   1      28.844  31.423  22.809  1.00  0.00    -0.223 NA
ATOM     27  C   UNL A   1      29.077  31.034  21.526  1.00  0.00     0.246 A 
ENDBRANCH  22  23
ENDBRANCH  15  17
ENDBRANCH  12  13
ENDBRANCH   4   7
ENDBRANCH   2   3
ENDBRANCH   1   2
BRANCH   1  28
ATOM     28  C   UNL A   1      32.468  29.661  25.584  1.00  0.00     0.118 C 
BRANCH  28  29
ATOM     29  N   UNL A   1      32.210  31.017  26.033  1.00  0.00    -0.352 N 
ATOM     30  C   UNL A   1      32.792  31.810  26.990  1.00  0.00     0.251 C 
ATOM     31  H   UNL A   1      31.469  31.456  25.556  1.00  0.00     0.163 HD
ATOM     32  O   UNL A   1      32.244  32.881  27.253  1.00  0.00    -0.269 OA
BRANCH  30  33
ATOM     33  C   UNL A   1      34.021  31.427  27.727  1.00  0.00     0.039 A 
ATOM     34  C   UNL A   1      34.972  32.424  27.986  1.00  0.00     0.014 A 
ATOM     35  C   UNL A   1      34.315  30.105  28.070  1.00  0.00     0.014 A 
ATOM     36  C   UNL A   1      36.173  32.113  28.634  1.00  0.00     0.010 A 
ATOM     37  C   UNL A   1      35.500  29.798  28.752  1.00  0.00     0.010 A 
ATOM     38  C   UNL A   1      36.437  30.800  29.047  1.00  0.00    -0.014 A 
BRANCH  38  39
ATOM     39  C   UNL A   1      37.670  30.465  29.806  1.00  0.00     0.031 A 
ATOM     40  C   UNL A   1      38.706  29.541  29.228  1.00  0.00     0.074 A 
ATOM     41  C   UNL A   1      37.829  30.947  31.055  1.00  0.00     0.049 A 
ATOM     42  N   UNL A   1      39.772  29.037  29.795  1.00  0.00    -0.248 NA
ATOM     43  C   UNL A   1      38.505  29.119  27.836  1.00  0.00     0.031 C 
ATOM     44  C   UNL A   1      36.892  31.839  31.741  1.00  0.00     0.029 A 
ATOM     45  N   UNL A   1      38.822  30.730  31.976  1.00  0.00    -0.354 N 
ATOM     46  C   UNL A   1      40.363  28.218  28.840  1.00  0.00     0.074 A 
ATOM     47  C   UNL A   1      39.523  28.287  27.658  1.00  0.00     0.031 C 
ATOM     48  C   UNL A   1      37.348  32.081  32.981  1.00  0.00     0.029 A 
ATOM     49  C   UNL A   1      38.587  31.338  33.187  1.00  0.00     0.049 A 
ATOM     50  H   UNL A   1      39.626  30.193  31.789  1.00  0.00     0.167 HD
ATOM     51  C   UNL A   1      41.495  27.476  28.934  1.00  0.00     0.034 A 
ATOM     52  C   UNL A   1      39.273  31.281  34.344  1.00  0.00     0.034 A 
ATOM     53  C   UNL A   1      42.339  27.419  30.103  1.00  0.00     0.049 A 
ATOM     54  C   UNL A   1      40.524  30.454  34.429  1.00  0.00     0.074 A 
ATOM     55  C   UNL A   1      43.532  26.736  30.278  1.00  0.00     0.029 A 
ATOM     56  N   UNL A   1      42.077  28.065  31.303  1.00  0.00    -0.354 N 
ATOM     57  N   UNL A   1      41.065  29.685  33.515  1.00  0.00    -0.248 NA
ATOM     58  C   UNL A   1      41.253  30.487  35.704  1.00  0.00     0.031 C 
ATOM     59  C   UNL A   1      43.971  26.939  31.593  1.00  0.00     0.029 A 
ATOM     60  C   UNL A   1      43.072  27.781  32.226  1.00  0.00     0.049 A 
ATOM     61  H   UNL A   1      41.297  28.641  31.474  1.00  0.00     0.167 HD
ATOM     62  C   UNL A   1      42.204  29.148  34.102  1.00  0.00     0.074 A 
ATOM     63  C   UNL A   1      42.274  29.682  35.448  1.00  0.00     0.031 C 
ATOM     64  C   UNL A   1      43.116  28.298  33.571  1.00  0.00     0.034 A 
BRANCH  51  65
ATOM     65  C   UNL A   1      41.857  26.628  27.745  1.00  0.00     0.023 A 
ATOM     66  C   UNL A   1      41.532  25.264  27.685  1.00  0.00     0.031 A 
ATOM     67  C   UNL A   1      42.564  27.192  26.668  1.00  0.00     0.131 A 
ATOM     68  C   UNL A   1      41.965  24.492  26.596  1.00  0.00     0.055 A 
ATOM     69  C   UNL A   1      42.943  26.431  25.562  1.00  0.00     0.041 A 
ATOM     70  F   UNL A   1      42.913  28.488  26.685  1.00  0.00    -0.206 F 
ATOM     71  C   UNL A   1      42.653  25.071  25.526  1.00  0.00     0.022 A 
BRANCH  68  72
ATOM     72  S   UNL A   1      41.707  22.697  26.644  1.00  0.00     0.124 S 
ATOM     73  O   UNL A   1      40.253  22.609  26.752  1.00  0.00    -0.237 OA
ATOM     74  O   UNL A   1      42.281  22.262  25.376  1.00  0.00    -0.237 OA
ATOM     75  O   UNL A   1      42.440  22.277  27.837  1.00  0.00    -0.744 OA
ENDBRANCH  68  72
ENDBRANCH  51  65
BRANCH  52  76
ATOM     76  C   UNL A   1      38.754  31.986  35.543  1.00  0.00     0.023 A 
ATOM     77  C   UNL A   1      38.151  31.281  36.593  1.00  0.00     0.031 A 
ATOM     78  C   UNL A   1      38.857  33.384  35.641  1.00  0.00     0.131 A 
ATOM     79  C   UNL A   1      37.653  31.985  37.701  1.00  0.00     0.055 A 
ATOM     80  C   UNL A   1      38.378  34.076  36.752  1.00  0.00     0.041 A 
ATOM     81  F   UNL A   1      39.442  34.090  34.660  1.00  0.00    -0.206 F 
ATOM     82  C   UNL A   1      37.766  33.376  37.788  1.00  0.00     0.022 A 
BRANCH  79  83
ATOM     83  S   UNL A   1      36.834  31.055  39.024  1.00  0.00     0.124 S 
ATOM     84  O   UNL A   1      36.736  29.723  38.438  1.00  0.00    -0.237 OA
ATOM     85  O   UNL A   1      37.780  31.202  40.126  1.00  0.00    -0.237 OA
ATOM     86  O   UNL A   1      35.566  31.758  39.198  1.00  0.00    -0.744 OA
ENDBRANCH  79  83
ENDBRANCH  52  76
BRANCH  64  87
ATOM     87  C   UNL A   1      44.276  27.923  34.450  1.00  0.00     0.023 A 
ATOM     88  C   UNL A   1      44.186  26.864  35.368  1.00  0.00     0.031 A 
ATOM     89  C   UNL A   1      45.474  28.655  34.384  1.00  0.00     0.131 A 
ATOM     90  C   UNL A   1      45.268  26.587  36.217  1.00  0.00     0.055 A 
ATOM     91  C   UNL A   1      46.557  28.355  35.210  1.00  0.00     0.041 A 
ATOM     92  F   UNL A   1      45.601  29.677  33.525  1.00  0.00    -0.206 F 
ATOM     93  C   UNL A   1      46.456  27.321  36.138  1.00  0.00     0.022 A 
BRANCH  90  94
ATOM     94  S   UNL A   1      45.092  25.278  37.461  1.00  0.00     0.124 S 
ATOM     95  O   UNL A   1      44.774  24.117  36.636  1.00  0.00    -0.237 OA
ATOM     96  O   UNL A   1      46.407  25.268  38.095  1.00  0.00    -0.237 OA
ATOM     97  O   UNL A   1      44.001  25.754  38.308  1.00  0.00    -0.744 OA
ENDBRANCH  90  94
ENDBRANCH  64  87
ENDBRANCH  38  39
ENDBRANCH  30  33
ENDBRANCH  28  29
ENDBRANCH   1  28
TORSDOF 16
ENDMDL
MODEL 2
REMARK VINA RESULT:     -12.7      1.929      3.990
REMARK SMILES Cn1cc(C(=O)NCCCNC(=O)c2ccc(-c3c4nc(c(-c5cc(S(=O)(=O)[O-])ccc5F)c5ccc([nH]5)c(-c5cc(S(=O)(=O)[O-])ccc5F)c5nc(c(-c6cc(S(=O)(=O)[O-])ccc6F)c6ccc3[nH]6)C=C5)C=C4)cc2)c(C(=O)Nc2ccc(-n3cncn3)cc2)n1
REMARK SMILES IDX 9 1 8 2 7 3 5 4 6 5 4 7 1 8 2 9 3 10 92 11 77 12 78 13 79 14
REMARK SMILES IDX 80 15 81 17 82 18 91 19 83 20 90 21 84 22 85 23 86 24 89 25
REMARK SMILES IDX 87 26 88 27 10 28 11 29 12 30 13 32 14 33 15 34 76 35 16 36
REMARK SMILES IDX 75 37 17 38 18 39 19 40 69 41 20 42 74 43 68 44 70 45 21 46
REMARK SMILES IDX 73 47 67 48 66 49 22 51 54 52 34 53 53 54 35 55 38 56 52 57
REMARK SMILES IDX 71 58 36 59 37 60 51 62 72 63 39 64 23 65 24 66 32 67 25 68
REMARK SMILES IDX 31 69 33 70 30 71 26 72 27 73 28 74 29 75 55 76 56 77 64 78
REMARK SMILES IDX 57 79 63 80 65 81 62 82 58 83 59 84 60 85 61 86 40 87 41 88
REMARK SMILES IDX 49 89 42 90 48 91 50 92 47 93 43 94 44 95 45 96 46 97
REMARK H PARENT 7 6 80 16 11 31 70 50 38 61
REMARK Flexibility Score: inf
ROOT
ATOM      1  C   UNL A   1      31.758  28.349  26.276  1.00  0.00     0.042 C 
ENDROOT
BRANCH   1   2
ATOM      2  C   UNL A   1      31.193  27.208  25.432  1.00  0.00     0.118 C 
BRANCH   2   3
ATOM      3  N   UNL A   1      30.979  25.946  26.120  1.00  0.00    -0.352 N 
ATOM      4  C   UNL A   1      31.781  24.854  26.349  1.00  0.00     0.255 C 
ATOM      5  O   UNL A   1      31.409  24.071  27.222  1.00  0.00    -0.269 OA
ATOM      6  H   UNL A   1      30.075  25.855  26.499  1.00  0.00     0.163 HD
BRANCH   4   7
ATOM      7  C   UNL A   1      33.001  24.611  25.593  1.00  0.00     0.090 A 
ATOM      8  C   UNL A   1      36.450  23.710  25.037  1.00  0.00     0.173 C 
ATOM      9  N   UNL A   1      35.066  24.117  24.999  1.00  0.00    -0.274 N 
ATOM     10  C   UNL A   1      34.303  24.518  26.052  1.00  0.00     0.123 A 
ATOM     11  N   UNL A   1      34.386  24.015  23.855  1.00  0.00    -0.167 NA
ATOM     12  C   UNL A   1      33.103  24.264  24.192  1.00  0.00     0.163 A 
BRANCH  12  13
ATOM     13  C   UNL A   1      32.046  24.035  23.181  1.00  0.00     0.276 C 
ATOM     14  O   UNL A   1      31.470  24.982  22.631  1.00  0.00    -0.267 OA
ATOM     15  N   UNL A   1      31.714  22.775  22.736  1.00  0.00    -0.321 N 
ATOM     16  H   UNL A   1      31.206  22.770  21.892  1.00  0.00     0.170 HD
BRANCH  15  17
ATOM     17  C   UNL A   1      31.961  21.502  23.255  1.00  0.00     0.041 A 
ATOM     18  C   UNL A   1      32.051  20.456  22.332  1.00  0.00     0.028 A 
ATOM     19  C   UNL A   1      32.123  21.240  24.615  1.00  0.00     0.028 A 
ATOM     20  C   UNL A   1      32.434  19.182  22.746  1.00  0.00     0.030 A 
ATOM     21  C   UNL A   1      32.450  19.947  25.045  1.00  0.00     0.030 A 
ATOM     22  C   UNL A   1      32.656  18.927  24.104  1.00  0.00     0.067 A 
BRANCH  22  23
ATOM     23  N   UNL A   1      33.160  17.660  24.492  1.00  0.00    -0.221 N 
ATOM     24  C   UNL A   1      34.256  16.987  24.019  1.00  0.00     0.225 A 
ATOM     25  N   UNL A   1      32.494  16.867  25.370  1.00  0.00    -0.155 NA
ATOM     26  N   UNL A   1      34.280  15.761  24.489  1.00  0.00    -0.223 NA
ATOM     27  C   UNL A   1      33.187  15.729  25.300  1.00  0.00     0.246 A 
ENDBRANCH  22  23
ENDBRANCH  15  17
ENDBRANCH  12  13
ENDBRANCH   4   7
ENDBRANCH   2   3
ENDBRANCH   1   2
BRANCH   1  28
ATOM     28  C   UNL A   1      32.496  29.441  25.499  1.00  0.00     0.118 C 
BRANCH  28  29
ATOM     29  N   UNL A   1      32.200  30.788  25.954  1.00  0.00    -0.352 N 
ATOM     30  C   UNL A   1      32.767  31.598  26.905  1.00  0.00     0.251 C 
ATOM     31  H   UNL A   1      31.438  31.202  25.487  1.00  0.00     0.163 HD
ATOM     32  O   UNL A   1      32.187  32.650  27.176  1.00  0.00    -0.269 OA
BRANCH  30  33
ATOM     33  C   UNL A   1      34.018  31.255  27.625  1.00  0.00     0.039 A 
ATOM     34  C   UNL A   1      34.974  32.265  27.801  1.00  0.00     0.014 A 
ATOM     35  C   UNL A   1      34.323  29.953  28.030  1.00  0.00     0.014 A 
ATOM     36  C   UNL A   1      36.194  31.989  28.430  1.00  0.00     0.010 A 
ATOM     37  C   UNL A   1      35.527  29.683  28.692  1.00  0.00     0.010 A 
ATOM     38  C   UNL A   1      36.472  30.700  28.906  1.00  0.00    -0.014 A 
BRANCH  38  39
ATOM     39  C   UNL A   1      37.727  30.406  29.646  1.00  0.00     0.031 A 
ATOM     40  C   UNL A   1      38.765  29.484  29.069  1.00  0.00     0.074 A 
ATOM     41  C   UNL A   1      37.905  30.925  30.876  1.00  0.00     0.049 A 
ATOM     42  N   UNL A   1      39.852  29.013  29.625  1.00  0.00    -0.248 NA
ATOM     43  C   UNL A   1      38.540  29.021  27.694  1.00  0.00     0.031 C 
ATOM     44  C   UNL A   1      36.969  31.820  31.559  1.00  0.00     0.029 A 
ATOM     45  N   UNL A   1      38.922  30.750  31.781  1.00  0.00    -0.354 N 
ATOM     46  C   UNL A   1      40.435  28.178  28.679  1.00  0.00     0.074 A 
ATOM     47  C   UNL A   1      39.568  28.201  27.516  1.00  0.00     0.031 C 
ATOM     48  C   UNL A   1      37.449  32.104  32.782  1.00  0.00     0.029 A 
ATOM     49  C   UNL A   1      38.705  31.388  32.979  1.00  0.00     0.049 A 
ATOM     50  H   UNL A   1      39.730  30.221  31.590  1.00  0.00     0.167 HD
ATOM     51  C   UNL A   1      41.581  27.458  28.768  1.00  0.00     0.034 A 
ATOM     52  C   UNL A   1      39.417  31.373  34.122  1.00  0.00     0.034 A 
ATOM     53  C   UNL A   1      42.452  27.446  29.919  1.00  0.00     0.049 A 
ATOM     54  C   UNL A   1      40.683  30.569  34.201  1.00  0.00     0.074 A 
ATOM     55  C   UNL A   1      43.660  26.788  30.085  1.00  0.00     0.029 A 
ATOM     56  N   UNL A   1      42.206  28.121  31.106  1.00  0.00    -0.354 N 
ATOM     57  N   UNL A   1      41.216  29.785  33.296  1.00  0.00    -0.248 NA
ATOM     58  C   UNL A   1      41.440  30.650  35.457  1.00  0.00     0.031 C 
ATOM     59  C   UNL A   1      44.124  27.035  31.384  1.00  0.00     0.029 A 
ATOM     60  C   UNL A   1      43.226  27.878  32.014  1.00  0.00     0.049 A 
ATOM     61  H   UNL A   1      41.421  28.689  31.279  1.00  0.00     0.167 HD
ATOM     62  C   UNL A   1      42.377  29.283  33.871  1.00  0.00     0.074 A 
ATOM     63  C   UNL A   1      42.468  29.854  35.201  1.00  0.00     0.031 C 
ATOM     64  C   UNL A   1      43.292  28.433  33.343  1.00  0.00     0.034 A 
BRANCH  51  65
ATOM     65  C   UNL A   1      41.931  26.583  27.595  1.00  0.00     0.023 A 
ATOM     66  C   UNL A   1      41.528  25.239  27.530  1.00  0.00     0.031 A 
ATOM     67  C   UNL A   1      42.705  27.098  26.540  1.00  0.00     0.131 A 
ATOM     68  C   UNL A   1      41.949  24.437  26.457  1.00  0.00     0.055 A 
ATOM     69  C   UNL A   1      43.074  26.310  25.449  1.00  0.00     0.041 A 
ATOM     70  F   UNL A   1      43.129  28.371  26.564  1.00  0.00    -0.206 F 
ATOM     71  C   UNL A   1      42.705  24.969  25.408  1.00  0.00     0.022 A 
BRANCH  68  72
ATOM     72  S   UNL A   1      41.585  22.661  26.504  1.00  0.00     0.124 S 
ATOM     73  O   UNL A   1      40.128  22.655  26.412  1.00  0.00    -0.237 OA
ATOM     74  O   UNL A   1      42.301  22.162  25.336  1.00  0.00    -0.237 OA
ATOM     75  O   UNL A   1      42.123  22.234  27.794  1.00  0.00    -0.744 OA
ENDBRANCH  68  72
ENDBRANCH  51  65
BRANCH  52  76
ATOM     76  C   UNL A   1      38.913  32.103  35.312  1.00  0.00     0.023 A 
ATOM     77  C   UNL A   1      38.309  31.421  36.377  1.00  0.00     0.031 A 
ATOM     78  C   UNL A   1      39.031  33.500  35.388  1.00  0.00     0.131 A 
ATOM     79  C   UNL A   1      37.825  32.147  37.476  1.00  0.00     0.055 A 
ATOM     80  C   UNL A   1      38.567  34.215  36.491  1.00  0.00     0.041 A 
ATOM     81  F   UNL A   1      39.618  34.185  34.392  1.00  0.00    -0.206 F 
ATOM     82  C   UNL A   1      37.954  33.539  37.541  1.00  0.00     0.022 A 
BRANCH  79  83
ATOM     83  S   UNL A   1      37.004  31.247  38.820  1.00  0.00     0.124 S 
ATOM     84  O   UNL A   1      35.744  31.972  38.939  1.00  0.00    -0.237 OA
ATOM     85  O   UNL A   1      36.918  29.898  38.270  1.00  0.00    -0.237 OA
ATOM     86  O   UNL A   1      37.925  31.401  39.943  1.00  0.00    -0.744 OA
ENDBRANCH  79  83
ENDBRANCH  52  76
BRANCH  64  87
ATOM     87  C   UNL A   1      44.477  28.101  34.205  1.00  0.00     0.023 A 
ATOM     88  C   UNL A   1      44.468  26.992  35.065  1.00  0.00     0.031 A 
ATOM     89  C   UNL A   1      45.615  28.925  34.183  1.00  0.00     0.131 A 
ATOM     90  C   UNL A   1      45.568  26.753  35.902  1.00  0.00     0.055 A 
ATOM     91  C   UNL A   1      46.719  28.665  34.996  1.00  0.00     0.041 A 
ATOM     92  F   UNL A   1      45.664  29.999  33.380  1.00  0.00    -0.206 F 
ATOM     93  C   UNL A   1      46.697  27.578  35.867  1.00  0.00     0.022 A 
BRANCH  90  94
ATOM     94  S   UNL A   1      45.494  25.370  37.074  1.00  0.00     0.124 S 
ATOM     95  O   UNL A   1      46.273  25.882  38.197  1.00  0.00    -0.237 OA
ATOM     96  O   UNL A   1      44.060  25.229  37.305  1.00  0.00    -0.237 OA
ATOM     97  O   UNL A   1      46.113  24.266  36.343  1.00  0.00    -0.744 OA
ENDBRANCH  90  94
ENDBRANCH  64  87
ENDBRANCH  38  39
ENDBRANCH  30  33
ENDBRANCH  28  29
ENDBRANCH   1  28
TORSDOF 16
ENDMDL
MODEL 3
REMARK VINA RESULT:     -12.5      5.038      9.775
REMARK SMILES Cn1cc(C(=O)NCCCNC(=O)c2ccc(-c3c4nc(c(-c5cc(S(=O)(=O)[O-])ccc5F)c5ccc([nH]5)c(-c5cc(S(=O)(=O)[O-])ccc5F)c5nc(c(-c6cc(S(=O)(=O)[O-])ccc6F)c6ccc3[nH]6)C=C5)C=C4)cc2)c(C(=O)Nc2ccc(-n3cncn3)cc2)n1
REMARK SMILES IDX 9 1 8 2 7 3 5 4 6 5 4 7 1 8 2 9 3 10 92 11 77 12 78 13 79 14
REMARK SMILES IDX 80 15 81 17 82 18 91 19 83 20 90 21 84 22 85 23 86 24 89 25
REMARK SMILES IDX 87 26 88 27 10 28 11 29 12 30 13 32 14 33 15 34 76 35 16 36
REMARK SMILES IDX 75 37 17 38 18 39 19 40 69 41 20 42 74 43 68 44 70 45 21 46
REMARK SMILES IDX 73 47 67 48 66 49 22 51 54 52 34 53 53 54 35 55 38 56 52 57
REMARK SMILES IDX 71 58 36 59 37 60 51 62 72 63 39 64 23 65 24 66 32 67 25 68
REMARK SMILES IDX 31 69 33 70 30 71 26 72 27 73 28 74 29 75 55 76 56 77 64 78
REMARK SMILES IDX 57 79 63 80 65 81 62 82 58 83 59 84 60 85 61 86 40 87 41 88
REMARK SMILES IDX 49 89 42 90 48 91 50 92 47 93 43 94 44 95 45 96 46 97
REMARK H PARENT 7 6 80 16 11 31 70 50 38 61
REMARK Flexibility Score: inf
ROOT
ATOM      1  C   UNL A   1      35.157  22.113  23.951  1.00  0.00     0.042 C 
ENDROOT
BRANCH   1   2
ATOM      2  C   UNL A   1      33.813  22.841  23.954  1.00  0.00     0.118 C 
BRANCH   2   3
ATOM      3  N   UNL A   1      33.605  23.806  22.888  1.00  0.00    -0.352 N 
ATOM      4  C   UNL A   1      33.504  25.176  22.869  1.00  0.00     0.255 C 
ATOM      5  O   UNL A   1      33.630  25.723  21.774  1.00  0.00    -0.269 OA
ATOM      6  H   UNL A   1      33.519  23.394  21.998  1.00  0.00     0.163 HD
BRANCH   4   7
ATOM      7  C   UNL A   1      33.240  25.955  24.071  1.00  0.00     0.090 A 
ATOM      8  C   UNL A   1      33.586  28.669  26.422  1.00  0.00     0.173 C 
ATOM      9  N   UNL A   1      33.272  27.487  25.656  1.00  0.00    -0.274 N 
ATOM     10  C   UNL A   1      34.013  26.945  24.651  1.00  0.00     0.123 A 
ATOM     11  N   UNL A   1      32.099  26.879  25.842  1.00  0.00    -0.167 NA
ATOM     12  C   UNL A   1      32.023  25.962  24.854  1.00  0.00     0.163 A 
BRANCH  12  13
ATOM     13  C   UNL A   1      30.747  25.241  24.651  1.00  0.00     0.276 C 
ATOM     14  O   UNL A   1      30.625  24.052  24.970  1.00  0.00    -0.267 OA
ATOM     15  N   UNL A   1      29.613  25.870  24.187  1.00  0.00    -0.321 N 
ATOM     16  H   UNL A   1      28.782  25.366  24.349  1.00  0.00     0.170 HD
BRANCH  15  17
ATOM     17  C   UNL A   1      29.417  27.087  23.530  1.00  0.00     0.041 A 
ATOM     18  C   UNL A   1      28.113  27.590  23.519  1.00  0.00     0.028 A 
ATOM     19  C   UNL A   1      30.440  27.803  22.910  1.00  0.00     0.028 A 
ATOM     20  C   UNL A   1      27.853  28.861  23.011  1.00  0.00     0.030 A 
ATOM     21  C   UNL A   1      30.173  29.057  22.343  1.00  0.00     0.030 A 
ATOM     22  C   UNL A   1      28.888  29.609  22.440  1.00  0.00     0.067 A 
BRANCH  22  23
ATOM     23  N   UNL A   1      28.630  30.945  22.038  1.00  0.00    -0.221 N 
ATOM     24  C   UNL A   1      28.692  32.095  22.781  1.00  0.00     0.225 A 
ATOM     25  N   UNL A   1      28.153  31.237  20.802  1.00  0.00    -0.155 NA
ATOM     26  N   UNL A   1      28.193  33.105  22.106  1.00  0.00    -0.223 NA
ATOM     27  C   UNL A   1      27.872  32.537  20.911  1.00  0.00     0.246 A 
ENDBRANCH  22  23
ENDBRANCH  15  17
ENDBRANCH  12  13
ENDBRANCH   4   7
ENDBRANCH   2   3
ENDBRANCH   1   2
BRANCH   1  28
ATOM     28  C   UNL A   1      35.996  22.272  25.222  1.00  0.00     0.118 C 
BRANCH  28  29
ATOM     29  N   UNL A   1      36.964  21.209  25.423  1.00  0.00    -0.352 N 
ATOM     30  C   UNL A   1      38.290  21.209  25.777  1.00  0.00     0.251 C 
ATOM     31  H   UNL A   1      36.597  20.308  25.274  1.00  0.00     0.163 HD
ATOM     32  O   UNL A   1      38.896  20.139  25.715  1.00  0.00    -0.269 OA
BRANCH  30  33
ATOM     33  C   UNL A   1      39.019  22.429  26.202  1.00  0.00     0.039 A 
ATOM     34  C   UNL A   1      40.205  22.267  26.931  1.00  0.00     0.014 A 
ATOM     35  C   UNL A   1      38.515  23.717  26.005  1.00  0.00     0.014 A 
ATOM     36  C   UNL A   1      40.910  23.381  27.402  1.00  0.00     0.010 A 
ATOM     37  C   UNL A   1      39.238  24.834  26.443  1.00  0.00     0.010 A 
ATOM     38  C   UNL A   1      40.447  24.677  27.139  1.00  0.00    -0.014 A 
BRANCH  38  39
ATOM     39  C   UNL A   1      41.223  25.873  27.562  1.00  0.00     0.031 A 
ATOM     40  C   UNL A   1      40.585  26.955  28.388  1.00  0.00     0.074 A 
ATOM     41  C   UNL A   1      42.496  26.015  27.144  1.00  0.00     0.049 A 
ATOM     42  N   UNL A   1      41.066  28.122  28.734  1.00  0.00    -0.248 NA
ATOM     43  C   UNL A   1      39.223  26.694  28.872  1.00  0.00     0.031 C 
ATOM     44  C   UNL A   1      43.230  25.049  26.324  1.00  0.00     0.029 A 
ATOM     45  N   UNL A   1      43.387  27.042  27.329  1.00  0.00    -0.354 N 
ATOM     46  C   UNL A   1      40.060  28.749  29.460  1.00  0.00     0.074 A 
ATOM     47  C   UNL A   1      38.936  27.832  29.491  1.00  0.00     0.031 C 
ATOM     48  C   UNL A   1      44.454  25.536  26.065  1.00  0.00     0.029 A 
ATOM     49  C   UNL A   1      44.580  26.858  26.669  1.00  0.00     0.049 A 
ATOM     50  H   UNL A   1      43.193  27.833  27.882  1.00  0.00     0.167 HD
ATOM     51  C   UNL A   1      40.068  29.973  30.045  1.00  0.00     0.034 A 
ATOM     52  C   UNL A   1      45.643  27.673  26.537  1.00  0.00     0.034 A 
ATOM     53  C   UNL A   1      41.191  30.880  30.028  1.00  0.00     0.049 A 
ATOM     54  C   UNL A   1      45.632  29.024  27.192  1.00  0.00     0.074 A 
ATOM     55  C   UNL A   1      41.312  32.120  30.634  1.00  0.00     0.029 A 
ATOM     56  N   UNL A   1      42.388  30.648  29.366  1.00  0.00    -0.354 N 
ATOM     57  N   UNL A   1      44.671  29.601  27.873  1.00  0.00    -0.248 NA
ATOM     58  C   UNL A   1      46.851  29.834  27.057  1.00  0.00     0.031 C 
ATOM     59  C   UNL A   1      42.566  32.653  30.307  1.00  0.00     0.029 A 
ATOM     60  C   UNL A   1      43.242  31.728  29.530  1.00  0.00     0.049 A 
ATOM     61  H   UNL A   1      42.599  29.835  28.853  1.00  0.00     0.167 HD
ATOM     62  C   UNL A   1      45.172  30.839  28.254  1.00  0.00     0.074 A 
ATOM     63  C   UNL A   1      46.521  30.927  27.730  1.00  0.00     0.031 C 
ATOM     64  C   UNL A   1      44.572  31.813  28.982  1.00  0.00     0.034 A 
BRANCH  51  65
ATOM     65  C   UNL A   1      38.796  30.418  30.715  1.00  0.00     0.023 A 
ATOM     66  C   UNL A   1      37.764  31.044  29.998  1.00  0.00     0.031 A 
ATOM     67  C   UNL A   1      38.630  30.237  32.099  1.00  0.00     0.131 A 
ATOM     68  C   UNL A   1      36.632  31.519  30.678  1.00  0.00     0.055 A 
ATOM     69  C   UNL A   1      37.477  30.663  32.761  1.00  0.00     0.041 A 
ATOM     70  F   UNL A   1      39.595  29.660  32.832  1.00  0.00    -0.206 F 
ATOM     71  C   UNL A   1      36.475  31.317  32.052  1.00  0.00     0.022 A 
BRANCH  68  72
ATOM     72  S   UNL A   1      35.413  32.500  29.760  1.00  0.00     0.124 S 
ATOM     73  O   UNL A   1      34.396  32.739  30.781  1.00  0.00    -0.237 OA
ATOM     74  O   UNL A   1      36.190  33.663  29.348  1.00  0.00    -0.237 OA
ATOM     75  O   UNL A   1      35.001  31.610  28.677  1.00  0.00    -0.744 OA
ENDBRANCH  68  72
ENDBRANCH  51  65
BRANCH  52  76
ATOM     76  C   UNL A   1      46.792  27.253  25.696  1.00  0.00     0.023 A 
ATOM     77  C   UNL A   1      46.970  27.766  24.405  1.00  0.00     0.031 A 
ATOM     78  C   UNL A   1      47.724  26.323  26.186  1.00  0.00     0.131 A 
ATOM     79  C   UNL A   1      48.055  27.329  23.631  1.00  0.00     0.055 A 
ATOM     80  C   UNL A   1      48.813  25.907  25.420  1.00  0.00     0.041 A 
ATOM     81  F   UNL A   1      47.594  25.821  27.424  1.00  0.00    -0.206 F 
ATOM     82  C   UNL A   1      48.980  26.406  24.132  1.00  0.00     0.022 A 
BRANCH  79  83
ATOM     83  S   UNL A   1      48.236  27.971  21.945  1.00  0.00     0.124 S 
ATOM     84  O   UNL A   1      48.206  26.747  21.153  1.00  0.00    -0.237 OA
ATOM     85  O   UNL A   1      47.070  28.840  21.827  1.00  0.00    -0.237 OA
ATOM     86  O   UNL A   1      49.522  28.663  21.981  1.00  0.00    -0.744 OA
ENDBRANCH  79  83
ENDBRANCH  52  76
BRANCH  64  87
ATOM     87  C   UNL A   1      45.393  33.039  29.269  1.00  0.00     0.023 A 
ATOM     88  C   UNL A   1      45.454  34.108  28.361  1.00  0.00     0.031 A 
ATOM     89  C   UNL A   1      46.146  33.120  30.453  1.00  0.00     0.131 A 
ATOM     90  C   UNL A   1      46.282  35.206  28.635  1.00  0.00     0.055 A 
ATOM     91  C   UNL A   1      46.945  34.228  30.734  1.00  0.00     0.041 A 
ATOM     92  F   UNL A   1      46.121  32.119  31.346  1.00  0.00    -0.206 F 
ATOM     93  C   UNL A   1      47.023  35.276  29.820  1.00  0.00     0.022 A 
BRANCH  90  94
ATOM     94  S   UNL A   1      46.418  36.531  27.403  1.00  0.00     0.124 S 
ATOM     95  O   UNL A   1      47.748  37.065  27.678  1.00  0.00    -0.237 OA
ATOM     96  O   UNL A   1      46.272  35.807  26.144  1.00  0.00    -0.237 OA
ATOM     97  O   UNL A   1      45.311  37.424  27.735  1.00  0.00    -0.744 OA
ENDBRANCH  90  94
ENDBRANCH  64  87
ENDBRANCH  38  39
ENDBRANCH  30  33
ENDBRANCH  28  29
ENDBRANCH   1  28
TORSDOF 16
ENDMDL
