MODEL 1
REMARK VINA RESULT:     -10.2      0.000      0.000
REMARK SMILES COC(=O)c1ccccc1N1C(=O)/C(=C\c2ccc(-c3ccc(Cl)c(C(=O)NCCCNC(=O)c4ccc(-c5c6nc(c(-c7cc(S(=O)(=O)[O-])ccc7F)c7ccc([nH]7)c(-c7cc(S(=O)(=O)[O-])ccc7F)c7nc(c(-c8cc(S(=O)(=O)[O-])ccc8F)c8ccc5[nH]8)C=C7)C=C6)cc4)c3)o2)SC1=S
REMARK SMILES IDX 29 1 28 2 26 3 27 4 25 6 20 7 21 8 98 9 22 10 23 11 24 12
REMARK SMILES IDX 19 13 16 14 17 15 99 16 18 17 15 18 11 19 12 20 101 21 13 22
REMARK SMILES IDX 14 23 100 24 102 25 10 26 5 27 6 28 7 29 9 30 8 31 3 32 4 33
REMARK SMILES IDX 2 34 1 35 30 36 31 37 32 38 33 39 34 41 35 42 36 43 97 44
REMARK SMILES IDX 37 45 96 46 38 47 39 48 40 49 90 50 41 51 95 52 89 53 91 54
REMARK SMILES IDX 42 55 94 56 88 57 87 58 43 60 75 61 55 62 74 63 56 64 59 65
REMARK SMILES IDX 73 66 92 67 57 68 58 69 72 71 93 72 60 73 44 74 45 75 53 76
REMARK SMILES IDX 46 77 52 78 54 79 51 80 47 81 48 82 49 83 50 84 76 85 77 86
REMARK SMILES IDX 85 87 78 88 84 89 86 90 83 91 79 92 80 93 81 94 82 95 61 96
REMARK SMILES IDX 62 97 70 98 63 99 69 100 71 101 68 102 64 103 65 104 66 105
REMARK SMILES IDX 67 106
REMARK H PARENT 28 5 32 40 91 59 59 70
REMARK Flexibility Score: inf
ROOT
ATOM      1  C   UNL A   1      34.923  33.385  31.017  1.00  0.00     0.118 C 
ENDROOT
BRANCH   1   2
ATOM      2  N   UNL A   1      35.029  33.835  29.628  1.00  0.00    -0.352 N 
ATOM      3  C   UNL A   1      35.206  33.197  28.414  1.00  0.00     0.252 C 
ATOM      4  O   UNL A   1      35.122  33.893  27.405  1.00  0.00    -0.269 OA
ATOM      5  H   UNL A   1      34.960  34.812  29.537  1.00  0.00     0.163 HD
BRANCH   3   6
ATOM      6  C   UNL A   1      35.502  31.739  28.298  1.00  0.00     0.059 A 
ATOM      7  C   UNL A   1      37.214  30.007  28.331  1.00  0.00     0.018 A 
ATOM      8  C   UNL A   1      36.326  29.107  27.746  1.00  0.00     0.013 A 
ATOM      9  C   UNL A   1      36.737  31.258  28.734  1.00  0.00     0.027 A 
ATOM     10  C   UNL A   1      35.008  29.496  27.499  1.00  0.00     0.022 A 
ATOM     11  C   UNL A   1      34.604  30.822  27.727  1.00  0.00     0.053 A 
ATOM     12  Cl  UNL A   1      32.997  31.217  27.233  1.00  0.00    -0.083 Cl
BRANCH   7  13
ATOM     13  C   UNL A   1      38.649  29.771  28.378  1.00  0.00     0.134 A 
ATOM     14  C   UNL A   1      40.575  29.315  27.373  1.00  0.00     0.128 A 
ATOM     15  C   UNL A   1      40.863  29.818  28.634  1.00  0.00     0.051 A 
ATOM     16  O   UNL A   1      39.209  29.311  27.224  1.00  0.00    -0.457 OA
ATOM     17  C   UNL A   1      39.638  30.077  29.285  1.00  0.00     0.051 A 
BRANCH  14  18
ATOM     18  C   UNL A   1      41.461  28.864  26.362  1.00  0.00     0.068 C 
ATOM     19  N   UNL A   1      43.197  25.880  27.535  1.00  0.00    -0.260 N 
ATOM     20  C   UNL A   1      42.204  26.838  27.682  1.00  0.00     0.270 C 
ATOM     21  C   UNL A   1      43.881  25.865  26.333  1.00  0.00     0.152 C 
ATOM     22  O   UNL A   1      41.427  26.919  28.625  1.00  0.00    -0.268 OA
ATOM     23  C   UNL A   1      42.208  27.763  26.512  1.00  0.00     0.084 C 
ATOM     24  S   UNL A   1      43.347  27.219  25.338  1.00  0.00    -0.054 SA
ATOM     25  S   UNL A   1      44.975  24.735  25.768  1.00  0.00    -0.051 S 
BRANCH  19  26
ATOM     26  C   UNL A   1      43.448  25.002  28.628  1.00  0.00     0.065 A 
ATOM     27  C   UNL A   1      42.849  23.733  28.752  1.00  0.00     0.084 A 
ATOM     28  C   UNL A   1      43.175  22.920  29.853  1.00  0.00     0.018 A 
ATOM     29  C   UNL A   1      44.109  23.343  30.802  1.00  0.00     0.001 A 
ATOM     30  C   UNL A   1      44.400  25.402  29.584  1.00  0.00     0.028 A 
ATOM     31  C   UNL A   1      44.727  24.580  30.662  1.00  0.00     0.002 A 
BRANCH  27  32
ATOM     32  C   UNL A   1      41.938  23.121  27.746  1.00  0.00     0.339 C 
ATOM     33  O   UNL A   1      42.329  22.455  26.809  1.00  0.00    -0.246 OA
BRANCH  32  34
ATOM     34  O   UNL A   1      40.650  23.477  27.995  1.00  0.00    -0.465 OA
ATOM     35  C   UNL A   1      39.921  23.897  26.838  1.00  0.00     0.282 C 
ENDBRANCH  32  34
ENDBRANCH  27  32
ENDBRANCH  19  26
ENDBRANCH  14  18
ENDBRANCH   7  13
ENDBRANCH   3   6
ENDBRANCH   1   2
BRANCH   1  36
ATOM     36  C   UNL A   1      34.504  34.457  32.009  1.00  0.00     0.042 C 
BRANCH  36  37
ATOM     37  C   UNL A   1      35.635  35.053  32.830  1.00  0.00     0.118 C 
BRANCH  37  38
ATOM     38  N   UNL A   1      35.608  34.631  34.225  1.00  0.00    -0.352 N 
ATOM     39  C   UNL A   1      36.399  33.755  34.929  1.00  0.00     0.251 C 
ATOM     40  H   UNL A   1      34.895  35.050  34.759  1.00  0.00     0.163 HD
ATOM     41  O   UNL A   1      36.035  33.410  36.052  1.00  0.00    -0.269 OA
BRANCH  39  42
ATOM     42  C   UNL A   1      37.653  33.204  34.360  1.00  0.00     0.039 A 
ATOM     43  C   UNL A   1      38.877  33.767  34.743  1.00  0.00     0.014 A 
ATOM     44  C   UNL A   1      37.642  32.178  33.415  1.00  0.00     0.014 A 
ATOM     45  C   UNL A   1      40.075  33.254  34.235  1.00  0.00     0.010 A 
ATOM     46  C   UNL A   1      38.835  31.597  32.993  1.00  0.00     0.010 A 
ATOM     47  C   UNL A   1      40.068  32.137  33.385  1.00  0.00    -0.014 A 
BRANCH  47  48
ATOM     48  C   UNL A   1      41.330  31.539  32.870  1.00  0.00     0.031 A 
ATOM     49  C   UNL A   1      41.965  32.082  31.615  1.00  0.00     0.074 A 
ATOM     50  C   UNL A   1      41.867  30.470  33.489  1.00  0.00     0.049 A 
ATOM     51  N   UNL A   1      43.010  31.647  30.958  1.00  0.00    -0.248 NA
ATOM     52  C   UNL A   1      41.312  33.245  30.996  1.00  0.00     0.031 C 
ATOM     53  C   UNL A   1      41.319  29.822  34.684  1.00  0.00     0.029 A 
ATOM     54  N   UNL A   1      42.986  29.732  33.200  1.00  0.00    -0.354 N 
ATOM     55  C   UNL A   1      43.127  32.470  29.842  1.00  0.00     0.074 A 
ATOM     56  C   UNL A   1      42.001  33.379  29.874  1.00  0.00     0.031 C 
ATOM     57  C   UNL A   1      42.121  28.807  35.042  1.00  0.00     0.029 A 
ATOM     58  C   UNL A   1      43.212  28.698  34.079  1.00  0.00     0.049 A 
ATOM     59  H   UNL A   1      43.575  29.924  32.434  1.00  0.00     0.167 HD
ATOM     60  C   UNL A   1      44.096  32.486  28.892  1.00  0.00     0.034 A 
ATOM     61  C   UNL A   1      44.183  27.763  34.103  1.00  0.00     0.034 A 
ATOM     62  C   UNL A   1      45.223  31.582  28.886  1.00  0.00     0.049 A 
ATOM     63  C   UNL A   1      45.246  27.792  33.036  1.00  0.00     0.074 A 
ATOM     64  C   UNL A   1      46.293  31.544  28.009  1.00  0.00     0.029 A 
ATOM     65  N   UNL A   1      45.423  30.556  29.801  1.00  0.00    -0.354 N 
ATOM     66  N   UNL A   1      45.370  28.609  32.014  1.00  0.00    -0.248 NA
ATOM     67  C   UNL A   1      46.307  26.782  33.131  1.00  0.00     0.031 C 
ATOM     68  C   UNL A   1      47.102  30.454  28.353  1.00  0.00     0.029 A 
ATOM     69  C   UNL A   1      46.583  29.861  29.492  1.00  0.00     0.049 A 
ATOM     70  H   UNL A   1      44.828  30.352  30.558  1.00  0.00     0.167 HD
ATOM     71  C   UNL A   1      46.541  28.230  31.365  1.00  0.00     0.074 A 
ATOM     72  C   UNL A   1      47.093  27.124  32.121  1.00  0.00     0.031 C 
ATOM     73  C   UNL A   1      47.113  28.750  30.248  1.00  0.00     0.034 A 
BRANCH  60  74
ATOM     74  C   UNL A   1      43.961  33.498  27.777  1.00  0.00     0.023 A 
ATOM     75  C   UNL A   1      43.996  34.882  28.027  1.00  0.00     0.031 A 
ATOM     76  C   UNL A   1      43.753  33.078  26.451  1.00  0.00     0.131 A 
ATOM     77  C   UNL A   1      43.735  35.791  26.990  1.00  0.00     0.055 A 
ATOM     78  C   UNL A   1      43.584  33.991  25.406  1.00  0.00     0.041 A 
ATOM     79  F   UNL A   1      43.688  31.773  26.149  1.00  0.00    -0.206 F 
ATOM     80  C   UNL A   1      43.556  35.356  25.676  1.00  0.00     0.022 A 
BRANCH  77  81
ATOM     81  S   UNL A   1      43.471  37.534  27.416  1.00  0.00     0.124 S 
ATOM     82  O   UNL A   1      44.687  38.152  26.891  1.00  0.00    -0.237 OA
ATOM     83  O   UNL A   1      42.237  37.849  26.709  1.00  0.00    -0.237 OA
ATOM     84  O   UNL A   1      43.370  37.518  28.875  1.00  0.00    -0.744 OA
ENDBRANCH  77  81
ENDBRANCH  60  74
BRANCH  61  85
ATOM     85  C   UNL A   1      44.203  26.722  35.172  1.00  0.00     0.023 A 
ATOM     86  C   UNL A   1      44.632  27.029  36.472  1.00  0.00     0.031 A 
ATOM     87  C   UNL A   1      43.824  25.395  34.899  1.00  0.00     0.131 A 
ATOM     88  C   UNL A   1      44.719  26.015  37.438  1.00  0.00     0.055 A 
ATOM     89  C   UNL A   1      43.861  24.401  35.879  1.00  0.00     0.041 A 
ATOM     90  F   UNL A   1      43.396  25.048  33.675  1.00  0.00    -0.206 F 
ATOM     91  C   UNL A   1      44.324  24.706  37.155  1.00  0.00     0.022 A 
BRANCH  88  92
ATOM     92  S   UNL A   1      45.431  26.419  39.058  1.00  0.00     0.124 S 
ATOM     93  O   UNL A   1      46.140  27.659  38.770  1.00  0.00    -0.237 OA
ATOM     94  O   UNL A   1      44.238  26.538  39.890  1.00  0.00    -0.237 OA
ATOM     95  O   UNL A   1      46.280  25.266  39.351  1.00  0.00    -0.744 OA
ENDBRANCH  88  92
ENDBRANCH  61  85
BRANCH  73  96
ATOM     96  C   UNL A   1      48.427  28.149  29.810  1.00  0.00     0.023 A 
ATOM     97  C   UNL A   1      48.501  27.215  28.762  1.00  0.00     0.031 A 
ATOM     98  C   UNL A   1      49.620  28.505  30.465  1.00  0.00     0.131 A 
ATOM     99  C   UNL A   1      49.731  26.621  28.442  1.00  0.00     0.055 A 
ATOM    100  C   UNL A   1      50.850  27.960  30.098  1.00  0.00     0.041 A 
ATOM    101  F   UNL A   1      49.608  29.390  31.473  1.00  0.00    -0.206 F 
ATOM    102  C   UNL A   1      50.908  27.001  29.091  1.00  0.00     0.022 A 
BRANCH  99 103
ATOM    103  S   UNL A   1      49.755  25.266  27.236  1.00  0.00     0.124 S 
ATOM    104  O   UNL A   1      48.460  25.421  26.580  1.00  0.00    -0.237 OA
ATOM    105  O   UNL A   1      50.922  25.593  26.424  1.00  0.00    -0.237 OA
ATOM    106  O   UNL A   1      49.892  24.070  28.065  1.00  0.00    -0.744 OA
ENDBRANCH  99 103
ENDBRANCH  73  96
ENDBRANCH  47  48
ENDBRANCH  39  42
ENDBRANCH  37  38
ENDBRANCH  36  37
ENDBRANCH   1  36
TORSDOF 18
ENDMDL
MODEL 2
REMARK VINA RESULT:     -10.1      3.376      7.477
REMARK SMILES COC(=O)c1ccccc1N1C(=O)/C(=C\c2ccc(-c3ccc(Cl)c(C(=O)NCCCNC(=O)c4ccc(-c5c6nc(c(-c7cc(S(=O)(=O)[O-])ccc7F)c7ccc([nH]7)c(-c7cc(S(=O)(=O)[O-])ccc7F)c7nc(c(-c8cc(S(=O)(=O)[O-])ccc8F)c8ccc5[nH]8)C=C7)C=C6)cc4)c3)o2)SC1=S
REMARK SMILES IDX 29 1 28 2 26 3 27 4 25 6 20 7 21 8 98 9 22 10 23 11 24 12
REMARK SMILES IDX 19 13 16 14 17 15 99 16 18 17 15 18 11 19 12 20 101 21 13 22
REMARK SMILES IDX 14 23 100 24 102 25 10 26 5 27 6 28 7 29 9 30 8 31 3 32 4 33
REMARK SMILES IDX 2 34 1 35 30 36 31 37 32 38 33 39 34 41 35 42 36 43 97 44
REMARK SMILES IDX 37 45 96 46 38 47 39 48 40 49 90 50 41 51 95 52 89 53 91 54
REMARK SMILES IDX 42 55 94 56 88 57 87 58 43 60 75 61 55 62 74 63 56 64 59 65
REMARK SMILES IDX 73 66 92 67 57 68 58 69 72 71 93 72 60 73 44 74 45 75 53 76
REMARK SMILES IDX 46 77 52 78 54 79 51 80 47 81 48 82 49 83 50 84 76 85 77 86
REMARK SMILES IDX 85 87 78 88 84 89 86 90 83 91 79 92 80 93 81 94 82 95 61 96
REMARK SMILES IDX 62 97 70 98 63 99 69 100 71 101 68 102 64 103 65 104 66 105
REMARK SMILES IDX 67 106
REMARK H PARENT 28 5 32 40 91 59 59 70
REMARK Flexibility Score: inf
ROOT
ATOM      1  C   UNL A   1      34.520  34.358  31.223  1.00  0.00     0.118 C 
ENDROOT
BRANCH   1   2
ATOM      2  N   UNL A   1      34.975  33.011  31.570  1.00  0.00    -0.352 N 
ATOM      3  C   UNL A   1      36.074  32.502  32.237  1.00  0.00     0.252 C 
ATOM      4  O   UNL A   1      36.074  31.294  32.463  1.00  0.00    -0.269 OA
ATOM      5  H   UNL A   1      34.360  32.310  31.258  1.00  0.00     0.163 HD
BRANCH   3   6
ATOM      6  C   UNL A   1      37.229  33.345  32.662  1.00  0.00     0.059 A 
ATOM      7  C   UNL A   1      39.240  34.531  31.966  1.00  0.00     0.018 A 
ATOM      8  C   UNL A   1      39.659  34.613  33.292  1.00  0.00     0.013 A 
ATOM      9  C   UNL A   1      37.961  34.035  31.694  1.00  0.00     0.027 A 
ATOM     10  C   UNL A   1      38.838  34.125  34.309  1.00  0.00     0.022 A 
ATOM     11  C   UNL A   1      37.648  33.448  33.999  1.00  0.00     0.053 A 
ATOM     12  Cl  UNL A   1      36.803  32.753  35.336  1.00  0.00    -0.083 Cl
BRANCH   7  13
ATOM     13  C   UNL A   1      40.136  34.773  30.846  1.00  0.00     0.134 A 
ATOM     14  C   UNL A   1      42.164  35.166  30.032  1.00  0.00     0.128 A 
ATOM     15  C   UNL A   1      41.359  34.745  28.982  1.00  0.00     0.051 A 
ATOM     16  O   UNL A   1      41.401  35.158  31.175  1.00  0.00    -0.457 OA
ATOM     17  C   UNL A   1      40.062  34.527  29.493  1.00  0.00     0.051 A 
BRANCH  14  18
ATOM     18  C   UNL A   1      43.528  35.552  30.019  1.00  0.00     0.068 C 
ATOM     19  N   UNL A   1      45.588  32.645  29.247  1.00  0.00    -0.260 N 
ATOM     20  C   UNL A   1      44.346  33.255  29.346  1.00  0.00     0.270 C 
ATOM     21  C   UNL A   1      46.698  33.459  29.373  1.00  0.00     0.152 C 
ATOM     22  O   UNL A   1      43.267  32.711  29.144  1.00  0.00    -0.268 OA
ATOM     23  C   UNL A   1      44.508  34.686  29.732  1.00  0.00     0.084 C 
ATOM     24  S   UNL A   1      46.181  35.098  29.771  1.00  0.00    -0.054 SA
ATOM     25  S   UNL A   1      48.306  33.083  29.109  1.00  0.00    -0.051 S 
BRANCH  19  26
ATOM     26  C   UNL A   1      45.628  31.236  29.040  1.00  0.00     0.065 A 
ATOM     27  C   UNL A   1      45.670  30.644  27.762  1.00  0.00     0.084 A 
ATOM     28  C   UNL A   1      45.734  29.244  27.651  1.00  0.00     0.018 A 
ATOM     29  C   UNL A   1      45.791  28.439  28.791  1.00  0.00     0.001 A 
ATOM     30  C   UNL A   1      45.706  30.409  30.176  1.00  0.00     0.028 A 
ATOM     31  C   UNL A   1      45.786  29.022  30.053  1.00  0.00     0.002 A 
BRANCH  27  32
ATOM     32  C   UNL A   1      45.739  31.397  26.479  1.00  0.00     0.339 C 
ATOM     33  O   UNL A   1      46.773  31.837  26.019  1.00  0.00    -0.246 OA
BRANCH  32  34
ATOM     34  O   UNL A   1      44.494  31.568  25.962  1.00  0.00    -0.465 OA
ATOM     35  C   UNL A   1      44.157  32.929  25.676  1.00  0.00     0.282 C 
ENDBRANCH  32  34
ENDBRANCH  27  32
ENDBRANCH  19  26
ENDBRANCH  14  18
ENDBRANCH   7  13
ENDBRANCH   3   6
ENDBRANCH   1   2
BRANCH   1  36
ATOM     36  C   UNL A   1      34.063  34.532  29.785  1.00  0.00     0.042 C 
BRANCH  36  37
ATOM     37  C   UNL A   1      34.927  33.838  28.745  1.00  0.00     0.118 C 
BRANCH  37  38
ATOM     38  N   UNL A   1      34.240  32.740  28.076  1.00  0.00    -0.352 N 
ATOM     39  C   UNL A   1      34.633  31.453  27.797  1.00  0.00     0.251 C 
ATOM     40  H   UNL A   1      33.332  32.961  27.769  1.00  0.00     0.163 HD
ATOM     41  O   UNL A   1      33.944  30.784  27.029  1.00  0.00    -0.269 OA
BRANCH  39  42
ATOM     42  C   UNL A   1      35.869  30.871  28.375  1.00  0.00     0.039 A 
ATOM     43  C   UNL A   1      35.765  29.754  29.214  1.00  0.00     0.014 A 
ATOM     44  C   UNL A   1      37.123  31.438  28.149  1.00  0.00     0.014 A 
ATOM     45  C   UNL A   1      36.916  29.175  29.757  1.00  0.00     0.010 A 
ATOM     46  C   UNL A   1      38.276  30.799  28.600  1.00  0.00     0.010 A 
ATOM     47  C   UNL A   1      38.187  29.667  29.423  1.00  0.00    -0.014 A 
BRANCH  47  48
ATOM     48  C   UNL A   1      39.431  29.040  29.946  1.00  0.00     0.031 A 
ATOM     49  C   UNL A   1      40.096  29.595  31.180  1.00  0.00     0.074 A 
ATOM     50  C   UNL A   1      39.998  28.017  29.276  1.00  0.00     0.049 A 
ATOM     51  N   UNL A   1      41.225  29.248  31.743  1.00  0.00    -0.248 NA
ATOM     52  C   UNL A   1      39.416  30.716  31.846  1.00  0.00     0.031 C 
ATOM     53  C   UNL A   1      39.478  27.423  28.042  1.00  0.00     0.029 A 
ATOM     54  N   UNL A   1      41.140  27.300  29.531  1.00  0.00    -0.354 N 
ATOM     55  C   UNL A   1      41.400  30.119  32.814  1.00  0.00     0.074 A 
ATOM     56  C   UNL A   1      40.297  31.055  32.774  1.00  0.00     0.031 C 
ATOM     57  C   UNL A   1      40.279  26.412  27.668  1.00  0.00     0.029 A 
ATOM     58  C   UNL A   1      41.395  26.315  28.603  1.00  0.00     0.049 A 
ATOM     59  H   UNL A   1      41.722  27.472  30.306  1.00  0.00     0.167 HD
ATOM     60  C   UNL A   1      42.372  30.122  33.760  1.00  0.00     0.034 A 
ATOM     61  C   UNL A   1      42.416  25.440  28.511  1.00  0.00     0.034 A 
ATOM     62  C   UNL A   1      43.455  29.168  33.795  1.00  0.00     0.049 A 
ATOM     63  C   UNL A   1      43.491  25.465  29.568  1.00  0.00     0.074 A 
ATOM     64  C   UNL A   1      44.463  29.040  34.735  1.00  0.00     0.029 A 
ATOM     65  N   UNL A   1      43.673  28.178  32.844  1.00  0.00    -0.354 N 
ATOM     66  N   UNL A   1      43.614  26.263  30.604  1.00  0.00    -0.248 NA
ATOM     67  C   UNL A   1      44.556  24.462  29.449  1.00  0.00     0.031 C 
ATOM     68  C   UNL A   1      45.325  28.019  34.318  1.00  0.00     0.029 A 
ATOM     69  C   UNL A   1      44.814  27.456  33.160  1.00  0.00     0.049 A 
ATOM     70  H   UNL A   1      43.101  28.013  32.060  1.00  0.00     0.167 HD
ATOM     71  C   UNL A   1      44.754  25.836  31.278  1.00  0.00     0.074 A 
ATOM     72  C   UNL A   1      45.270  24.701  30.539  1.00  0.00     0.031 C 
ATOM     73  C   UNL A   1      45.324  26.333  32.406  1.00  0.00     0.034 A 
BRANCH  60  74
ATOM     74  C   UNL A   1      42.314  31.204  34.814  1.00  0.00     0.023 A 
ATOM     75  C   UNL A   1      42.788  32.506  34.565  1.00  0.00     0.031 A 
ATOM     76  C   UNL A   1      41.817  30.925  36.100  1.00  0.00     0.131 A 
ATOM     77  C   UNL A   1      42.841  33.446  35.605  1.00  0.00     0.055 A 
ATOM     78  C   UNL A   1      41.788  31.894  37.106  1.00  0.00     0.041 A 
ATOM     79  F   UNL A   1      41.369  29.699  36.408  1.00  0.00    -0.206 F 
ATOM     80  C   UNL A   1      42.318  33.158  36.867  1.00  0.00     0.022 A 
BRANCH  77  81
ATOM     81  S   UNL A   1      43.749  34.991  35.326  1.00  0.00     0.124 S 
ATOM     82  O   UNL A   1      43.533  35.205  33.897  1.00  0.00    -0.237 OA
ATOM     83  O   UNL A   1      43.073  35.921  36.221  1.00  0.00    -0.237 OA
ATOM     84  O   UNL A   1      45.122  34.652  35.697  1.00  0.00    -0.744 OA
ENDBRANCH  77  81
ENDBRANCH  60  74
BRANCH  61  85
ATOM     85  C   UNL A   1      42.475  24.464  27.385  1.00  0.00     0.023 A 
ATOM     86  C   UNL A   1      41.698  23.295  27.401  1.00  0.00     0.031 A 
ATOM     87  C   UNL A   1      43.335  24.669  26.291  1.00  0.00     0.131 A 
ATOM     88  C   UNL A   1      41.830  22.353  26.369  1.00  0.00     0.055 A 
ATOM     89  C   UNL A   1      43.423  23.754  25.241  1.00  0.00     0.041 A 
ATOM     90  F   UNL A   1      44.093  25.774  26.221  1.00  0.00    -0.206 F 
ATOM     91  C   UNL A   1      42.677  22.580  25.283  1.00  0.00     0.022 A 
BRANCH  88  92
ATOM     92  S   UNL A   1      40.931  20.783  26.507  1.00  0.00     0.124 S 
ATOM     93  O   UNL A   1      39.642  21.126  25.917  1.00  0.00    -0.237 OA
ATOM     94  O   UNL A   1      41.775  19.883  25.729  1.00  0.00    -0.237 OA
ATOM     95  O   UNL A   1      40.912  20.529  27.946  1.00  0.00    -0.744 OA
ENDBRANCH  88  92
ENDBRANCH  61  85
BRANCH  73  96
ATOM     96  C   UNL A   1      46.544  25.616  32.930  1.00  0.00     0.023 A 
ATOM     97  C   UNL A   1      47.834  25.898  32.446  1.00  0.00     0.031 A 
ATOM     98  C   UNL A   1      46.410  24.620  33.914  1.00  0.00     0.131 A 
ATOM     99  C   UNL A   1      48.930  25.150  32.901  1.00  0.00     0.055 A 
ATOM    100  C   UNL A   1      47.513  23.925  34.412  1.00  0.00     0.041 A 
ATOM    101  F   UNL A   1      45.203  24.308  34.411  1.00  0.00    -0.206 F 
ATOM    102  C   UNL A   1      48.780  24.178  33.894  1.00  0.00     0.022 A 
BRANCH  99 103
ATOM    103  S   UNL A   1      50.540  25.392  32.102  1.00  0.00     0.124 S 
ATOM    104  O   UNL A   1      50.442  24.506  30.946  1.00  0.00    -0.237 OA
ATOM    105  O   UNL A   1      50.532  26.821  31.811  1.00  0.00    -0.237 OA
ATOM    106  O   UNL A   1      51.497  24.974  33.125  1.00  0.00    -0.744 OA
ENDBRANCH  99 103
ENDBRANCH  73  96
ENDBRANCH  47  48
ENDBRANCH  39  42
ENDBRANCH  37  38
ENDBRANCH  36  37
ENDBRANCH   1  36
TORSDOF 18
ENDMDL
MODEL 3
REMARK VINA RESULT:      -9.8      4.634      7.327
REMARK SMILES COC(=O)c1ccccc1N1C(=O)/C(=C\c2ccc(-c3ccc(Cl)c(C(=O)NCCCNC(=O)c4ccc(-c5c6nc(c(-c7cc(S(=O)(=O)[O-])ccc7F)c7ccc([nH]7)c(-c7cc(S(=O)(=O)[O-])ccc7F)c7nc(c(-c8cc(S(=O)(=O)[O-])ccc8F)c8ccc5[nH]8)C=C7)C=C6)cc4)c3)o2)SC1=S
REMARK SMILES IDX 29 1 28 2 26 3 27 4 25 6 20 7 21 8 98 9 22 10 23 11 24 12
REMARK SMILES IDX 19 13 16 14 17 15 99 16 18 17 15 18 11 19 12 20 101 21 13 22
REMARK SMILES IDX 14 23 100 24 102 25 10 26 5 27 6 28 7 29 9 30 8 31 3 32 4 33
REMARK SMILES IDX 2 34 1 35 30 36 31 37 32 38 33 39 34 41 35 42 36 43 97 44
REMARK SMILES IDX 37 45 96 46 38 47 39 48 40 49 90 50 41 51 95 52 89 53 91 54
REMARK SMILES IDX 42 55 94 56 88 57 87 58 43 60 75 61 55 62 74 63 56 64 59 65
REMARK SMILES IDX 73 66 92 67 57 68 58 69 72 71 93 72 60 73 44 74 45 75 53 76
REMARK SMILES IDX 46 77 52 78 54 79 51 80 47 81 48 82 49 83 50 84 76 85 77 86
REMARK SMILES IDX 85 87 78 88 84 89 86 90 83 91 79 92 80 93 81 94 82 95 61 96
REMARK SMILES IDX 62 97 70 98 63 99 69 100 71 101 68 102 64 103 65 104 66 105
REMARK SMILES IDX 67 106
REMARK H PARENT 28 5 32 40 91 59 59 70
REMARK Flexibility Score: inf
ROOT
ATOM      1  C   UNL A   1      34.655  32.809  31.527  1.00  0.00     0.118 C 
ENDROOT
BRANCH   1   2
ATOM      2  N   UNL A   1      34.221  33.710  30.458  1.00  0.00    -0.352 N 
ATOM      3  C   UNL A   1      34.083  33.590  29.088  1.00  0.00     0.252 C 
ATOM      4  O   UNL A   1      33.559  34.534  28.499  1.00  0.00    -0.269 OA
ATOM      5  H   UNL A   1      33.971  34.602  30.790  1.00  0.00     0.163 HD
BRANCH   3   6
ATOM      6  C   UNL A   1      34.551  32.397  28.325  1.00  0.00     0.059 A 
ATOM      7  C   UNL A   1      33.927  30.305  27.245  1.00  0.00     0.018 A 
ATOM      8  C   UNL A   1      35.264  29.912  27.216  1.00  0.00     0.013 A 
ATOM      9  C   UNL A   1      33.616  31.604  27.659  1.00  0.00     0.027 A 
ATOM     10  C   UNL A   1      36.252  30.785  27.676  1.00  0.00     0.022 A 
ATOM     11  C   UNL A   1      35.899  32.005  28.275  1.00  0.00     0.053 A 
ATOM     12  Cl  UNL A   1      37.202  32.921  28.946  1.00  0.00    -0.083 Cl
BRANCH   7  13
ATOM     13  C   UNL A   1      32.833  29.370  27.033  1.00  0.00     0.134 A 
ATOM     14  C   UNL A   1      31.760  27.890  25.774  1.00  0.00     0.128 A 
ATOM     15  C   UNL A   1      31.316  27.737  27.080  1.00  0.00     0.051 A 
ATOM     16  O   UNL A   1      32.708  28.885  25.766  1.00  0.00    -0.457 OA
ATOM     17  C   UNL A   1      31.974  28.700  27.875  1.00  0.00     0.051 A 
BRANCH  14  18
ATOM     18  C   UNL A   1      31.365  27.194  24.604  1.00  0.00     0.068 C 
ATOM     19  N   UNL A   1      33.414  24.199  24.244  1.00  0.00    -0.260 N 
ATOM     20  C   UNL A   1      32.985  25.288  24.988  1.00  0.00     0.270 C 
ATOM     21  C   UNL A   1      32.728  23.930  23.074  1.00  0.00     0.152 C 
ATOM     22  O   UNL A   1      33.397  25.599  26.099  1.00  0.00    -0.268 OA
ATOM     23  C   UNL A   1      31.932  26.036  24.242  1.00  0.00     0.084 C 
ATOM     24  S   UNL A   1      31.529  25.192  22.793  1.00  0.00    -0.054 SA
ATOM     25  S   UNL A   1      32.857  22.600  22.069  1.00  0.00    -0.051 S 
BRANCH  19  26
ATOM     26  C   UNL A   1      34.527  23.454  24.727  1.00  0.00     0.065 A 
ATOM     27  C   UNL A   1      34.398  22.319  25.553  1.00  0.00     0.084 A 
ATOM     28  C   UNL A   1      35.553  21.629  25.962  1.00  0.00     0.018 A 
ATOM     29  C   UNL A   1      36.818  22.034  25.532  1.00  0.00     0.001 A 
ATOM     30  C   UNL A   1      35.809  23.834  24.288  1.00  0.00     0.028 A 
ATOM     31  C   UNL A   1      36.945  23.131  24.688  1.00  0.00     0.002 A 
BRANCH  27  32
ATOM     32  C   UNL A   1      33.103  21.719  25.975  1.00  0.00     0.339 C 
ATOM     33  O   UNL A   1      32.452  20.975  25.270  1.00  0.00    -0.246 OA
BRANCH  32  34
ATOM     34  O   UNL A   1      32.745  22.179  27.202  1.00  0.00    -0.465 OA
ATOM     35  C   UNL A   1      31.541  22.951  27.214  1.00  0.00     0.282 C 
ENDBRANCH  32  34
ENDBRANCH  27  32
ENDBRANCH  19  26
ENDBRANCH  14  18
ENDBRANCH   7  13
ENDBRANCH   3   6
ENDBRANCH   1   2
BRANCH   1  36
ATOM     36  C   UNL A   1      35.514  33.454  32.602  1.00  0.00     0.042 C 
BRANCH  36  37
ATOM     37  C   UNL A   1      36.528  32.533  33.257  1.00  0.00     0.118 C 
BRANCH  37  38
ATOM     38  N   UNL A   1      36.357  31.136  32.877  1.00  0.00    -0.352 N 
ATOM     39  C   UNL A   1      37.106  30.310  32.073  1.00  0.00     0.251 C 
ATOM     40  H   UNL A   1      35.562  30.707  33.267  1.00  0.00     0.163 HD
ATOM     41  O   UNL A   1      36.629  29.227  31.740  1.00  0.00    -0.269 OA
BRANCH  39  42
ATOM     42  C   UNL A   1      38.449  30.705  31.583  1.00  0.00     0.039 A 
ATOM     43  C   UNL A   1      38.758  30.522  30.230  1.00  0.00     0.014 A 
ATOM     44  C   UNL A   1      39.427  31.203  32.444  1.00  0.00     0.014 A 
ATOM     45  C   UNL A   1      40.012  30.904  29.738  1.00  0.00     0.010 A 
ATOM     46  C   UNL A   1      40.633  31.681  31.937  1.00  0.00     0.010 A 
ATOM     47  C   UNL A   1      40.948  31.525  30.580  1.00  0.00    -0.014 A 
BRANCH  47  48
ATOM     48  C   UNL A   1      42.269  31.986  30.073  1.00  0.00     0.031 A 
ATOM     49  C   UNL A   1      42.477  33.436  29.717  1.00  0.00     0.074 A 
ATOM     50  C   UNL A   1      43.258  31.093  29.872  1.00  0.00     0.049 A 
ATOM     51  N   UNL A   1      43.519  34.018  29.180  1.00  0.00    -0.248 NA
ATOM     52  C   UNL A   1      41.344  34.342  29.960  1.00  0.00     0.031 C 
ATOM     53  C   UNL A   1      43.164  29.654  30.132  1.00  0.00     0.029 A 
ATOM     54  N   UNL A   1      44.534  31.258  29.394  1.00  0.00    -0.354 N 
ATOM     55  C   UNL A   1      43.161  35.351  29.005  1.00  0.00     0.074 A 
ATOM     56  C   UNL A   1      41.781  35.471  29.423  1.00  0.00     0.031 C 
ATOM     57  C   UNL A   1      44.341  29.076  29.843  1.00  0.00     0.029 A 
ATOM     58  C   UNL A   1      45.258  30.089  29.332  1.00  0.00     0.049 A 
ATOM     59  H   UNL A   1      44.898  32.131  29.123  1.00  0.00     0.167 HD
ATOM     60  C   UNL A   1      43.919  36.386  28.564  1.00  0.00     0.034 A 
ATOM     61  C   UNL A   1      46.514  29.858  28.902  1.00  0.00     0.034 A 
ATOM     62  C   UNL A   1      45.301  36.252  28.169  1.00  0.00     0.049 A 
ATOM     63  C   UNL A   1      47.338  31.020  28.409  1.00  0.00     0.074 A 
ATOM     64  C   UNL A   1      46.182  37.238  27.760  1.00  0.00     0.029 A 
ATOM     65  N   UNL A   1      46.003  35.054  28.130  1.00  0.00    -0.354 N 
ATOM     66  N   UNL A   1      47.001  32.284  28.296  1.00  0.00    -0.248 NA
ATOM     67  C   UNL A   1      48.716  30.724  27.996  1.00  0.00     0.031 C 
ATOM     68  C   UNL A   1      47.393  36.628  27.412  1.00  0.00     0.029 A 
ATOM     69  C   UNL A   1      47.296  35.272  27.677  1.00  0.00     0.049 A 
ATOM     70  H   UNL A   1      45.637  34.177  28.386  1.00  0.00     0.167 HD
ATOM     71  C   UNL A   1      48.137  32.940  27.830  1.00  0.00     0.074 A 
ATOM     72  C   UNL A   1      49.170  31.933  27.700  1.00  0.00     0.031 C 
ATOM     73  C   UNL A   1      48.313  34.255  27.539  1.00  0.00     0.034 A 
BRANCH  60  74
ATOM     74  C   UNL A   1      43.257  37.742  28.468  1.00  0.00     0.023 A 
ATOM     75  C   UNL A   1      43.375  38.697  29.495  1.00  0.00     0.031 A 
ATOM     76  C   UNL A   1      42.464  38.074  27.356  1.00  0.00     0.131 A 
ATOM     77  C   UNL A   1      42.640  39.891  29.433  1.00  0.00     0.055 A 
ATOM     78  C   UNL A   1      41.807  39.304  27.258  1.00  0.00     0.041 A 
ATOM     79  F   UNL A   1      42.294  37.201  26.351  1.00  0.00    -0.206 F 
ATOM     80  C   UNL A   1      41.879  40.213  28.310  1.00  0.00     0.022 A 
BRANCH  77  81
ATOM     81  S   UNL A   1      42.569  40.937  30.913  1.00  0.00     0.124 S 
ATOM     82  O   UNL A   1      41.164  41.339  30.922  1.00  0.00    -0.237 OA
ATOM     83  O   UNL A   1      42.978  40.020  31.969  1.00  0.00    -0.237 OA
ATOM     84  O   UNL A   1      43.514  42.012  30.618  1.00  0.00    -0.744 OA
ENDBRANCH  77  81
ENDBRANCH  60  74
BRANCH  61  85
ATOM     85  C   UNL A   1      47.077  28.477  28.922  1.00  0.00     0.023 A 
ATOM     86  C   UNL A   1      47.000  27.649  27.791  1.00  0.00     0.031 A 
ATOM     87  C   UNL A   1      47.672  27.952  30.084  1.00  0.00     0.131 A 
ATOM     88  C   UNL A   1      47.464  26.326  27.859  1.00  0.00     0.055 A 
ATOM     89  C   UNL A   1      48.181  26.653  30.129  1.00  0.00     0.041 A 
ATOM     90  F   UNL A   1      47.781  28.703  31.190  1.00  0.00    -0.206 F 
ATOM     91  C   UNL A   1      48.066  25.826  29.015  1.00  0.00     0.022 A 
BRANCH  88  92
ATOM     92  S   UNL A   1      47.199  25.239  26.430  1.00  0.00     0.124 S 
ATOM     93  O   UNL A   1      45.870  25.645  25.991  1.00  0.00    -0.237 OA
ATOM     94  O   UNL A   1      48.307  25.613  25.558  1.00  0.00    -0.237 OA
ATOM     95  O   UNL A   1      47.286  23.898  27.004  1.00  0.00    -0.744 OA
ENDBRANCH  88  92
ENDBRANCH  61  85
BRANCH  73  96
ATOM     96  C   UNL A   1      49.692  34.678  27.095  1.00  0.00     0.023 A 
ATOM     97  C   UNL A   1      50.741  34.866  28.012  1.00  0.00     0.031 A 
ATOM     98  C   UNL A   1      49.954  34.914  25.733  1.00  0.00     0.131 A 
ATOM     99  C   UNL A   1      51.983  35.339  27.565  1.00  0.00     0.055 A 
ATOM    100  C   UNL A   1      51.211  35.320  25.286  1.00  0.00     0.041 A 
ATOM    101  F   UNL A   1      48.990  34.752  24.814  1.00  0.00    -0.206 F 
ATOM    102  C   UNL A   1      52.231  35.550  26.206  1.00  0.00     0.022 A 
BRANCH  99 103
ATOM    103  S   UNL A   1      53.242  35.775  28.796  1.00  0.00     0.124 S 
ATOM    104  O   UNL A   1      54.479  35.438  28.098  1.00  0.00    -0.237 OA
ATOM    105  O   UNL A   1      52.996  37.198  29.003  1.00  0.00    -0.237 OA
ATOM    106  O   UNL A   1      52.920  34.918  29.936  1.00  0.00    -0.744 OA
ENDBRANCH  99 103
ENDBRANCH  73  96
ENDBRANCH  47  48
ENDBRANCH  39  42
ENDBRANCH  37  38
ENDBRANCH  36  37
ENDBRANCH   1  36
TORSDOF 18
ENDMDL
