MODEL 1
REMARK VINA RESULT:     -12.1      0.000      0.000
REMARK SMILES CCCCCCNC(=O)Oc1cccc(-c2ccc([C@@H](C)C(=O)NCCCNC(=O)c3ccc(-c4c5nc(c(-c6cc(S(=O)(=O)[O-])ccc6F)c6ccc([nH]6)c(-c6cc(S(=O)(=O)[O-])ccc6F)c6nc(c(-c7cc(S(=O)(=O)[O-])ccc7F)c7ccc4[nH]7)C=C6)C=C5)cc3)cc2[N+](=O)[O-])c1
REMARK SMILES IDX 20 1 21 2 19 3 16 4 17 5 95 6 18 7 94 8 15 9 11 10 12 11
REMARK SMILES IDX 99 12 13 13 14 14 10 15 8 16 7 17 9 19 6 20 5 21 4 22 3 23
REMARK SMILES IDX 2 24 1 25 96 26 97 27 98 28 22 29 23 30 24 31 25 33 26 34
REMARK SMILES IDX 27 35 28 36 29 37 30 39 31 40 32 41 93 42 33 43 92 44 34 45
REMARK SMILES IDX 35 46 36 47 86 48 37 49 91 50 85 51 87 52 38 53 90 54 84 55
REMARK SMILES IDX 83 56 39 58 71 59 51 60 70 61 52 62 55 63 69 64 88 65 53 66
REMARK SMILES IDX 54 67 68 69 89 70 56 71 40 72 41 73 49 74 42 75 48 76 50 77
REMARK SMILES IDX 47 78 43 79 44 80 45 81 46 82 72 83 73 84 81 85 74 86 80 87
REMARK SMILES IDX 82 88 79 89 75 90 76 91 77 92 78 93 57 94 58 95 66 96 59 97
REMARK SMILES IDX 65 98 67 99 64 100 60 101 61 102 62 103 63 104
REMARK H PARENT 7 18 24 32 28 38 87 57 55 68
REMARK Flexibility Score: inf
ROOT
ATOM      1  C   UNL A   1      32.121  19.655  23.675  1.00  0.00     0.105 C 
ATOM      2  C   UNL A   1      32.463  19.337  22.221  1.00  0.00     0.023 C 
ENDROOT
BRANCH   1   3
ATOM      3  C   UNL A   1      32.148  21.132  24.037  1.00  0.00    -0.029 A 
ATOM      4  C   UNL A   1      32.381  23.889  24.830  1.00  0.00     0.060 A 
ATOM      5  C   UNL A   1      32.679  23.453  23.526  1.00  0.00     0.016 A 
ATOM      6  C   UNL A   1      31.884  22.905  25.706  1.00  0.00     0.277 A 
ATOM      7  C   UNL A   1      32.515  22.122  23.127  1.00  0.00     0.005 A 
ATOM      8  C   UNL A   1      31.809  21.543  25.334  1.00  0.00     0.090 A 
BRANCH   4   9
ATOM      9  C   UNL A   1      32.642  25.306  25.174  1.00  0.00    -0.008 A 
ATOM     10  C   UNL A   1      31.885  27.571  25.618  1.00  0.00     0.133 A 
ATOM     11  C   UNL A   1      33.186  27.991  25.878  1.00  0.00     0.047 A 
ATOM     12  C   UNL A   1      31.602  26.245  25.285  1.00  0.00     0.056 A 
ATOM     13  C   UNL A   1      34.224  27.072  25.803  1.00  0.00     0.004 A 
ATOM     14  C   UNL A   1      33.955  25.750  25.439  1.00  0.00     0.009 A 
BRANCH  10  15
ATOM     15  O   UNL A   1      30.911  28.583  25.550  1.00  0.00    -0.410 OA
BRANCH  15  16
ATOM     16  C   UNL A   1      31.218  29.843  25.059  1.00  0.00     0.412 C 
ATOM     17  N   UNL A   1      30.856  29.997  23.748  1.00  0.00    -0.321 N 
ATOM     18  H   UNL A   1      31.115  30.841  23.312  1.00  0.00     0.167 HD
ATOM     19  O   UNL A   1      31.744  30.752  25.686  1.00  0.00    -0.224 OA
BRANCH  17  20
ATOM     20  C   UNL A   1      30.130  29.038  22.937  1.00  0.00     0.119 C 
BRANCH  20  21
ATOM     21  C   UNL A   1      28.618  29.243  23.038  1.00  0.00     0.021 C 
BRANCH  21  22
ATOM     22  C   UNL A   1      27.979  29.905  21.812  1.00  0.00     0.002 C 
BRANCH  22  23
ATOM     23  C   UNL A   1      28.743  31.104  21.241  1.00  0.00    -0.000 C 
BRANCH  23  24
ATOM     24  C   UNL A   1      28.188  32.478  21.627  1.00  0.00    -0.003 C 
ATOM     25  C   UNL A   1      28.741  33.000  22.944  1.00  0.00     0.004 C 
ENDBRANCH  23  24
ENDBRANCH  22  23
ENDBRANCH  21  22
ENDBRANCH  20  21
ENDBRANCH  17  20
ENDBRANCH  15  16
ENDBRANCH  10  15
ENDBRANCH   4   9
BRANCH   6  26
ATOM     26  N   UNL A   1      31.328  23.255  27.013  1.00  0.00     0.063 N 
ATOM     27  O   UNL A   1      32.026  23.011  28.009  1.00  0.00    -0.258 OA
ATOM     28  O   UNL A   1      30.173  23.698  27.053  1.00  0.00    -0.258 OA
ENDBRANCH   6  26
ENDBRANCH   1   3
BRANCH   1  29
ATOM     29  C   UNL A   1      32.801  18.744  24.710  1.00  0.00     0.227 C 
ATOM     30  O   UNL A   1      32.154  17.827  25.232  1.00  0.00    -0.274 OA
ATOM     31  N   UNL A   1      34.098  18.859  25.102  1.00  0.00    -0.356 N 
ATOM     32  H   UNL A   1      34.384  18.162  25.736  1.00  0.00     0.163 HD
BRANCH  31  33
ATOM     33  C   UNL A   1      35.143  19.808  24.767  1.00  0.00     0.117 C 
BRANCH  33  34
ATOM     34  C   UNL A   1      35.099  21.056  25.648  1.00  0.00     0.042 C 
BRANCH  34  35
ATOM     35  C   UNL A   1      36.445  21.748  25.824  1.00  0.00     0.118 C 
BRANCH  35  36
ATOM     36  N   UNL A   1      37.542  20.795  25.911  1.00  0.00    -0.352 N 
ATOM     37  C   UNL A   1      38.894  20.986  26.050  1.00  0.00     0.251 C 
ATOM     38  H   UNL A   1      37.266  19.852  25.860  1.00  0.00     0.163 HD
ATOM     39  O   UNL A   1      39.637  20.027  25.852  1.00  0.00    -0.269 OA
BRANCH  37  40
ATOM     40  C   UNL A   1      39.467  22.305  26.414  1.00  0.00     0.039 A 
ATOM     41  C   UNL A   1      40.486  22.343  27.373  1.00  0.00     0.014 A 
ATOM     42  C   UNL A   1      38.979  23.503  25.886  1.00  0.00     0.014 A 
ATOM     43  C   UNL A   1      41.042  23.566  27.757  1.00  0.00     0.010 A 
ATOM     44  C   UNL A   1      39.595  24.715  26.203  1.00  0.00     0.010 A 
ATOM     45  C   UNL A   1      40.626  24.763  27.150  1.00  0.00    -0.014 A 
BRANCH  45  46
ATOM     46  C   UNL A   1      41.272  26.055  27.503  1.00  0.00     0.031 A 
ATOM     47  C   UNL A   1      42.643  26.399  26.982  1.00  0.00     0.074 A 
ATOM     48  C   UNL A   1      40.629  26.909  28.325  1.00  0.00     0.049 A 
ATOM     49  N   UNL A   1      43.356  27.479  27.178  1.00  0.00    -0.248 NA
ATOM     50  C   UNL A   1      43.310  25.385  26.154  1.00  0.00     0.031 C 
ATOM     51  C   UNL A   1      39.323  26.659  28.942  1.00  0.00     0.029 A 
ATOM     52  N   UNL A   1      40.977  28.155  28.782  1.00  0.00    -0.354 N 
ATOM     53  C   UNL A   1      44.557  27.272  26.507  1.00  0.00     0.074 A 
ATOM     54  C   UNL A   1      44.498  25.936  25.953  1.00  0.00     0.031 C 
ATOM     55  C   UNL A   1      38.964  27.732  29.663  1.00  0.00     0.029 A 
ATOM     56  C   UNL A   1      40.029  28.729  29.598  1.00  0.00     0.049 A 
ATOM     57  H   UNL A   1      41.825  28.596  28.549  1.00  0.00     0.167 HD
ATOM     58  C   UNL A   1      45.602  28.125  26.348  1.00  0.00     0.034 A 
ATOM     59  C   UNL A   1      40.016  29.921  30.225  1.00  0.00     0.034 A 
ATOM     60  C   UNL A   1      45.640  29.457  26.905  1.00  0.00     0.049 A 
ATOM     61  C   UNL A   1      41.185  30.852  30.031  1.00  0.00     0.074 A 
ATOM     62  C   UNL A   1      46.619  30.426  26.761  1.00  0.00     0.029 A 
ATOM     63  N   UNL A   1      44.660  30.007  27.725  1.00  0.00    -0.354 N 
ATOM     64  N   UNL A   1      42.284  30.666  29.336  1.00  0.00    -0.248 NA
ATOM     65  C   UNL A   1      41.101  32.159  30.690  1.00  0.00     0.031 C 
ATOM     66  C   UNL A   1      46.267  31.528  27.549  1.00  0.00     0.029 A 
ATOM     67  C   UNL A   1      45.028  31.286  28.119  1.00  0.00     0.049 A 
ATOM     68  H   UNL A   1      43.827  29.554  27.988  1.00  0.00     0.167 HD
ATOM     69  C   UNL A   1      43.012  31.847  29.457  1.00  0.00     0.074 A 
ATOM     70  C   UNL A   1      42.210  32.745  30.265  1.00  0.00     0.031 C 
ATOM     71  C   UNL A   1      44.232  32.162  28.949  1.00  0.00     0.034 A 
BRANCH  58  72
ATOM     72  C   UNL A   1      46.795  27.626  25.562  1.00  0.00     0.023 A 
ATOM     73  C   UNL A   1      47.039  28.043  24.241  1.00  0.00     0.031 A 
ATOM     74  C   UNL A   1      47.689  26.702  26.131  1.00  0.00     0.131 A 
ATOM     75  C   UNL A   1      48.096  27.480  23.509  1.00  0.00     0.055 A 
ATOM     76  C   UNL A   1      48.790  26.209  25.427  1.00  0.00     0.041 A 
ATOM     77  F   UNL A   1      47.501  26.250  27.382  1.00  0.00    -0.206 F 
ATOM     78  C   UNL A   1      48.989  26.585  24.101  1.00  0.00     0.022 A 
BRANCH  75  79
ATOM     79  S   UNL A   1      48.199  27.820  21.729  1.00  0.00     0.124 S 
ATOM     80  O   UNL A   1      46.868  28.358  21.455  1.00  0.00    -0.237 OA
ATOM     81  O   UNL A   1      49.301  28.770  21.654  1.00  0.00    -0.237 OA
ATOM     82  O   UNL A   1      48.464  26.507  21.145  1.00  0.00    -0.744 OA
ENDBRANCH  75  79
ENDBRANCH  58  72
BRANCH  59  83
ATOM     83  C   UNL A   1      38.865  30.307  31.091  1.00  0.00     0.023 A 
ATOM     84  C   UNL A   1      37.773  31.020  30.573  1.00  0.00     0.031 A 
ATOM     85  C   UNL A   1      38.856  29.992  32.462  1.00  0.00     0.131 A 
ATOM     86  C   UNL A   1      36.739  31.436  31.428  1.00  0.00     0.055 A 
ATOM     87  C   UNL A   1      37.800  30.361  33.297  1.00  0.00     0.041 A 
ATOM     88  F   UNL A   1      39.872  29.305  33.008  1.00  0.00    -0.206 F 
ATOM     89  C   UNL A   1      36.740  31.099  32.783  1.00  0.00     0.022 A 
BRANCH  86  90
ATOM     90  S   UNL A   1      35.430  32.497  30.756  1.00  0.00     0.124 S 
ATOM     91  O   UNL A   1      35.201  31.895  29.448  1.00  0.00    -0.237 OA
ATOM     92  O   UNL A   1      34.365  32.321  31.739  1.00  0.00    -0.237 OA
ATOM     93  O   UNL A   1      36.043  33.823  30.736  1.00  0.00    -0.744 OA
ENDBRANCH  86  90
ENDBRANCH  59  83
BRANCH  71  94
ATOM     94  C   UNL A   1      44.746  33.553  29.236  1.00  0.00     0.023 A 
ATOM     95  C   UNL A   1      44.323  34.667  28.487  1.00  0.00     0.031 A 
ATOM     96  C   UNL A   1      45.711  33.762  30.238  1.00  0.00     0.131 A 
ATOM     97  C   UNL A   1      44.923  35.918  28.694  1.00  0.00     0.055 A 
ATOM     98  C   UNL A   1      46.251  35.025  30.489  1.00  0.00     0.041 A 
ATOM     99  F   UNL A   1      46.156  32.737  30.983  1.00  0.00    -0.206 F 
ATOM    100  C   UNL A   1      45.871  36.108  29.702  1.00  0.00     0.022 A 
BRANCH  97 101
ATOM    101  S   UNL A   1      44.547  37.261  27.534  1.00  0.00     0.124 S 
ATOM    102  O   UNL A   1      45.874  37.615  27.040  1.00  0.00    -0.237 OA
ATOM    103  O   UNL A   1      43.663  36.607  26.575  1.00  0.00    -0.237 OA
ATOM    104  O   UNL A   1      43.910  38.273  28.376  1.00  0.00    -0.744 OA
ENDBRANCH  97 101
ENDBRANCH  71  94
ENDBRANCH  45  46
ENDBRANCH  37  40
ENDBRANCH  35  36
ENDBRANCH  34  35
ENDBRANCH  33  34
ENDBRANCH  31  33
ENDBRANCH   1  29
TORSDOF 23
ENDMDL
MODEL 2
REMARK VINA RESULT:     -11.7      1.936      2.905
REMARK SMILES CCCCCCNC(=O)Oc1cccc(-c2ccc([C@@H](C)C(=O)NCCCNC(=O)c3ccc(-c4c5nc(c(-c6cc(S(=O)(=O)[O-])ccc6F)c6ccc([nH]6)c(-c6cc(S(=O)(=O)[O-])ccc6F)c6nc(c(-c7cc(S(=O)(=O)[O-])ccc7F)c7ccc4[nH]7)C=C6)C=C5)cc3)cc2[N+](=O)[O-])c1
REMARK SMILES IDX 20 1 21 2 19 3 16 4 17 5 95 6 18 7 94 8 15 9 11 10 12 11
REMARK SMILES IDX 99 12 13 13 14 14 10 15 8 16 7 17 9 19 6 20 5 21 4 22 3 23
REMARK SMILES IDX 2 24 1 25 96 26 97 27 98 28 22 29 23 30 24 31 25 33 26 34
REMARK SMILES IDX 27 35 28 36 29 37 30 39 31 40 32 41 93 42 33 43 92 44 34 45
REMARK SMILES IDX 35 46 36 47 86 48 37 49 91 50 85 51 87 52 38 53 90 54 84 55
REMARK SMILES IDX 83 56 39 58 71 59 51 60 70 61 52 62 55 63 69 64 88 65 53 66
REMARK SMILES IDX 54 67 68 69 89 70 56 71 40 72 41 73 49 74 42 75 48 76 50 77
REMARK SMILES IDX 47 78 43 79 44 80 45 81 46 82 72 83 73 84 81 85 74 86 80 87
REMARK SMILES IDX 82 88 79 89 75 90 76 91 77 92 78 93 57 94 58 95 66 96 59 97
REMARK SMILES IDX 65 98 67 99 64 100 60 101 61 102 62 103 63 104
REMARK H PARENT 7 18 24 32 28 38 87 57 55 68
REMARK Flexibility Score: inf
ROOT
ATOM      1  C   UNL A   1      32.146  20.173  24.063  1.00  0.00     0.105 C 
ATOM      2  C   UNL A   1      32.452  19.596  22.683  1.00  0.00     0.023 C 
ENDROOT
BRANCH   1   3
ATOM      3  C   UNL A   1      32.019  21.689  24.116  1.00  0.00    -0.029 A 
ATOM      4  C   UNL A   1      31.642  24.541  24.053  1.00  0.00     0.060 A 
ATOM      5  C   UNL A   1      31.056  23.726  25.039  1.00  0.00     0.016 A 
ATOM      6  C   UNL A   1      32.494  23.885  23.144  1.00  0.00     0.277 A 
ATOM      7  C   UNL A   1      31.283  22.346  25.100  1.00  0.00     0.005 A 
ATOM      8  C   UNL A   1      32.647  22.480  23.144  1.00  0.00     0.090 A 
BRANCH   4   9
ATOM      9  C   UNL A   1      31.297  25.982  24.037  1.00  0.00    -0.008 A 
ATOM     10  C   UNL A   1      31.405  28.216  24.983  1.00  0.00     0.133 A 
ATOM     11  C   UNL A   1      30.650  28.733  23.935  1.00  0.00     0.047 A 
ATOM     12  C   UNL A   1      31.745  26.863  25.035  1.00  0.00     0.056 A 
ATOM     13  C   UNL A   1      30.222  27.884  22.923  1.00  0.00     0.004 A 
ATOM     14  C   UNL A   1      30.530  26.523  22.983  1.00  0.00     0.009 A 
BRANCH  10  15
ATOM     15  O   UNL A   1      31.661  29.093  26.051  1.00  0.00    -0.410 OA
BRANCH  15  16
ATOM     16  C   UNL A   1      31.945  28.615  27.321  1.00  0.00     0.412 C 
ATOM     17  N   UNL A   1      33.147  29.067  27.795  1.00  0.00    -0.321 N 
ATOM     18  H   UNL A   1      33.448  28.705  28.659  1.00  0.00     0.167 HD
ATOM     19  O   UNL A   1      31.233  27.878  27.989  1.00  0.00    -0.224 OA
BRANCH  17  20
ATOM     20  C   UNL A   1      34.021  30.027  27.147  1.00  0.00     0.119 C 
BRANCH  20  21
ATOM     21  C   UNL A   1      33.917  31.410  27.793  1.00  0.00     0.021 C 
BRANCH  21  22
ATOM     22  C   UNL A   1      35.233  32.196  27.836  1.00  0.00     0.002 C 
BRANCH  22  23
ATOM     23  C   UNL A   1      35.088  33.705  28.061  1.00  0.00    -0.000 C 
BRANCH  23  24
ATOM     24  C   UNL A   1      33.649  34.211  28.198  1.00  0.00    -0.003 C 
ATOM     25  C   UNL A   1      33.392  34.942  29.507  1.00  0.00     0.004 C 
ENDBRANCH  23  24
ENDBRANCH  22  23
ENDBRANCH  21  22
ENDBRANCH  20  21
ENDBRANCH  17  20
ENDBRANCH  15  16
ENDBRANCH  10  15
ENDBRANCH   4   9
BRANCH   6  26
ATOM     26  N   UNL A   1      33.338  24.633  22.211  1.00  0.00     0.063 N 
ATOM     27  O   UNL A   1      34.379  25.132  22.664  1.00  0.00    -0.258 OA
ATOM     28  O   UNL A   1      32.927  24.788  21.054  1.00  0.00    -0.258 OA
ENDBRANCH   6  26
ENDBRANCH   1   3
BRANCH   1  29
ATOM     29  C   UNL A   1      32.976  19.574  25.211  1.00  0.00     0.227 C 
ATOM     30  O   UNL A   1      32.461  18.735  25.960  1.00  0.00    -0.274 OA
ATOM     31  N   UNL A   1      34.272  19.893  25.470  1.00  0.00    -0.356 N 
ATOM     32  H   UNL A   1      34.666  19.379  26.212  1.00  0.00     0.163 HD
BRANCH  31  33
ATOM     33  C   UNL A   1      35.188  20.842  24.866  1.00  0.00     0.117 C 
BRANCH  33  34
ATOM     34  C   UNL A   1      35.146  22.207  25.552  1.00  0.00     0.042 C 
BRANCH  34  35
ATOM     35  C   UNL A   1      36.510  22.740  25.973  1.00  0.00     0.118 C 
BRANCH  35  36
ATOM     36  N   UNL A   1      37.521  21.693  26.001  1.00  0.00    -0.352 N 
ATOM     37  C   UNL A   1      38.879  21.755  26.190  1.00  0.00     0.251 C 
ATOM     38  H   UNL A   1      37.169  20.785  25.859  1.00  0.00     0.163 HD
ATOM     39  O   UNL A   1      39.545  20.757  25.926  1.00  0.00    -0.269 OA
BRANCH  37  40
ATOM     40  C   UNL A   1      39.547  22.983  26.685  1.00  0.00     0.039 A 
ATOM     41  C   UNL A   1      40.569  22.847  27.632  1.00  0.00     0.014 A 
ATOM     42  C   UNL A   1      39.147  24.262  26.290  1.00  0.00     0.014 A 
ATOM     43  C   UNL A   1      41.213  23.978  28.137  1.00  0.00     0.010 A 
ATOM     44  C   UNL A   1      39.850  25.387  26.727  1.00  0.00     0.010 A 
ATOM     45  C   UNL A   1      40.884  25.260  27.663  1.00  0.00    -0.014 A 
BRANCH  45  46
ATOM     46  C   UNL A   1      41.624  26.458  28.144  1.00  0.00     0.031 A 
ATOM     47  C   UNL A   1      43.037  26.722  27.695  1.00  0.00     0.074 A 
ATOM     48  C   UNL A   1      41.024  27.295  29.015  1.00  0.00     0.049 A 
ATOM     49  N   UNL A   1      43.831  27.716  28.003  1.00  0.00    -0.248 NA
ATOM     50  C   UNL A   1      43.647  25.724  26.805  1.00  0.00     0.031 C 
ATOM     51  C   UNL A   1      39.680  27.111  29.568  1.00  0.00     0.029 A 
ATOM     52  N   UNL A   1      41.459  28.464  29.585  1.00  0.00    -0.354 N 
ATOM     53  C   UNL A   1      45.035  27.460  27.354  1.00  0.00     0.074 A 
ATOM     54  C   UNL A   1      44.884  26.183  26.687  1.00  0.00     0.031 C 
ATOM     55  C   UNL A   1      39.387  28.149  30.366  1.00  0.00     0.029 A 
ATOM     56  C   UNL A   1      40.533  29.050  30.417  1.00  0.00     0.049 A 
ATOM     57  H   UNL A   1      42.350  28.847  29.416  1.00  0.00     0.167 HD
ATOM     58  C   UNL A   1      46.153  28.228  27.299  1.00  0.00     0.034 A 
ATOM     59  C   UNL A   1      40.598  30.184  31.142  1.00  0.00     0.034 A 
ATOM     60  C   UNL A   1      46.283  29.501  27.967  1.00  0.00     0.049 A 
ATOM     61  C   UNL A   1      41.848  31.022  31.063  1.00  0.00     0.074 A 
ATOM     62  C   UNL A   1      47.345  30.389  27.935  1.00  0.00     0.029 A 
ATOM     63  N   UNL A   1      45.324  30.067  28.800  1.00  0.00    -0.354 N 
ATOM     64  N   UNL A   1      42.953  30.798  30.388  1.00  0.00    -0.248 NA
ATOM     65  C   UNL A   1      41.850  32.274  31.827  1.00  0.00     0.031 C 
ATOM     66  C   UNL A   1      47.059  31.451  28.802  1.00  0.00     0.029 A 
ATOM     67  C   UNL A   1      45.783  31.273  29.312  1.00  0.00     0.049 A 
ATOM     68  H   UNL A   1      44.446  29.669  28.999  1.00  0.00     0.167 HD
ATOM     69  C   UNL A   1      43.773  31.897  30.631  1.00  0.00     0.074 A 
ATOM     70  C   UNL A   1      43.020  32.792  31.486  1.00  0.00     0.031 C 
ATOM     71  C   UNL A   1      45.033  32.144  30.188  1.00  0.00     0.034 A 
BRANCH  58  72
ATOM     72  C   UNL A   1      47.328  27.692  26.510  1.00  0.00     0.023 A 
ATOM     73  C   UNL A   1      47.496  27.978  25.143  1.00  0.00     0.031 A 
ATOM     74  C   UNL A   1      48.283  26.863  27.126  1.00  0.00     0.131 A 
ATOM     75  C   UNL A   1      48.541  27.380  24.422  1.00  0.00     0.055 A 
ATOM     76  C   UNL A   1      49.370  26.339  26.422  1.00  0.00     0.041 A 
ATOM     77  F   UNL A   1      48.170  26.537  28.423  1.00  0.00    -0.206 F 
ATOM     78  C   UNL A   1      49.495  26.582  25.057  1.00  0.00     0.022 A 
BRANCH  75  79
ATOM     79  S   UNL A   1      48.549  27.538  22.614  1.00  0.00     0.124 S 
ATOM     80  O   UNL A   1      49.768  28.312  22.391  1.00  0.00    -0.237 OA
ATOM     81  O   UNL A   1      48.586  26.147  22.177  1.00  0.00    -0.237 OA
ATOM     82  O   UNL A   1      47.307  28.251  22.327  1.00  0.00    -0.744 OA
ENDBRANCH  75  79
ENDBRANCH  58  72
BRANCH  59  83
ATOM     83  C   UNL A   1      39.453  30.597  32.002  1.00  0.00     0.023 A 
ATOM     84  C   UNL A   1      38.469  31.479  31.528  1.00  0.00     0.031 A 
ATOM     85  C   UNL A   1      39.342  30.137  33.327  1.00  0.00     0.131 A 
ATOM     86  C   UNL A   1      37.443  31.911  32.385  1.00  0.00     0.055 A 
ATOM     87  C   UNL A   1      38.290  30.526  34.158  1.00  0.00     0.041 A 
ATOM     88  F   UNL A   1      40.251  29.286  33.828  1.00  0.00    -0.206 F 
ATOM     89  C   UNL A   1      37.340  31.429  33.692  1.00  0.00     0.022 A 
BRANCH  86  90
ATOM     90  S   UNL A   1      36.288  33.176  31.790  1.00  0.00     0.124 S 
ATOM     91  O   UNL A   1      37.053  33.796  30.714  1.00  0.00    -0.237 OA
ATOM     92  O   UNL A   1      35.141  32.371  31.382  1.00  0.00    -0.237 OA
ATOM     93  O   UNL A   1      36.069  34.016  32.966  1.00  0.00    -0.744 OA
ENDBRANCH  86  90
ENDBRANCH  59  83
BRANCH  71  94
ATOM     94  C   UNL A   1      45.653  33.457  30.607  1.00  0.00     0.023 A 
ATOM     95  C   UNL A   1      45.578  34.602  29.794  1.00  0.00     0.031 A 
ATOM     96  C   UNL A   1      46.372  33.551  31.813  1.00  0.00     0.131 A 
ATOM     97  C   UNL A   1      46.279  35.763  30.152  1.00  0.00     0.055 A 
ATOM     98  C   UNL A   1      47.006  34.733  32.200  1.00  0.00     0.041 A 
ATOM     99  F   UNL A   1      46.481  32.491  32.628  1.00  0.00    -0.206 F 
ATOM    100  C   UNL A   1      46.978  35.841  31.359  1.00  0.00     0.022 A 
BRANCH  97 101
ATOM    101  S   UNL A   1      46.379  37.121  28.954  1.00  0.00     0.124 S 
ATOM    102  O   UNL A   1      45.095  37.014  28.266  1.00  0.00    -0.237 OA
ATOM    103  O   UNL A   1      46.545  38.287  29.816  1.00  0.00    -0.237 OA
ATOM    104  O   UNL A   1      47.546  36.778  28.143  1.00  0.00    -0.744 OA
ENDBRANCH  97 101
ENDBRANCH  71  94
ENDBRANCH  45  46
ENDBRANCH  37  40
ENDBRANCH  35  36
ENDBRANCH  34  35
ENDBRANCH  33  34
ENDBRANCH  31  33
ENDBRANCH   1  29
TORSDOF 23
ENDMDL
MODEL 3
REMARK VINA RESULT:     -11.4      5.160     10.919
REMARK SMILES CCCCCCNC(=O)Oc1cccc(-c2ccc([C@@H](C)C(=O)NCCCNC(=O)c3ccc(-c4c5nc(c(-c6cc(S(=O)(=O)[O-])ccc6F)c6ccc([nH]6)c(-c6cc(S(=O)(=O)[O-])ccc6F)c6nc(c(-c7cc(S(=O)(=O)[O-])ccc7F)c7ccc4[nH]7)C=C6)C=C5)cc3)cc2[N+](=O)[O-])c1
REMARK SMILES IDX 20 1 21 2 19 3 16 4 17 5 95 6 18 7 94 8 15 9 11 10 12 11
REMARK SMILES IDX 99 12 13 13 14 14 10 15 8 16 7 17 9 19 6 20 5 21 4 22 3 23
REMARK SMILES IDX 2 24 1 25 96 26 97 27 98 28 22 29 23 30 24 31 25 33 26 34
REMARK SMILES IDX 27 35 28 36 29 37 30 39 31 40 32 41 93 42 33 43 92 44 34 45
REMARK SMILES IDX 35 46 36 47 86 48 37 49 91 50 85 51 87 52 38 53 90 54 84 55
REMARK SMILES IDX 83 56 39 58 71 59 51 60 70 61 52 62 55 63 69 64 88 65 53 66
REMARK SMILES IDX 54 67 68 69 89 70 56 71 40 72 41 73 49 74 42 75 48 76 50 77
REMARK SMILES IDX 47 78 43 79 44 80 45 81 46 82 72 83 73 84 81 85 74 86 80 87
REMARK SMILES IDX 82 88 79 89 75 90 76 91 77 92 78 93 57 94 58 95 66 96 59 97
REMARK SMILES IDX 65 98 67 99 64 100 60 101 61 102 62 103 63 104
REMARK H PARENT 7 18 24 32 28 38 87 57 55 68
REMARK Flexibility Score: inf
ROOT
ATOM      1  C   UNL A   1      32.346  28.060  25.908  1.00  0.00     0.105 C 
ATOM      2  C   UNL A   1      33.612  28.346  26.712  1.00  0.00     0.023 C 
ENDROOT
BRANCH   1   3
ATOM      3  C   UNL A   1      32.264  26.665  25.305  1.00  0.00    -0.029 A 
ATOM      4  C   UNL A   1      32.289  23.980  24.270  1.00  0.00     0.060 A 
ATOM      5  C   UNL A   1      31.404  24.387  25.285  1.00  0.00     0.016 A 
ATOM      6  C   UNL A   1      33.110  24.989  23.732  1.00  0.00     0.277 A 
ATOM      7  C   UNL A   1      31.357  25.706  25.751  1.00  0.00     0.005 A 
ATOM      8  C   UNL A   1      33.132  26.298  24.266  1.00  0.00     0.090 A 
BRANCH   4   9
ATOM      9  C   UNL A   1      32.305  22.549  23.885  1.00  0.00    -0.008 A 
ATOM     10  C   UNL A   1      32.623  20.199  24.409  1.00  0.00     0.133 A 
ATOM     11  C   UNL A   1      32.275  19.828  23.113  1.00  0.00     0.047 A 
ATOM     12  C   UNL A   1      32.625  21.538  24.806  1.00  0.00     0.056 A 
ATOM     13  C   UNL A   1      31.926  20.811  22.197  1.00  0.00     0.004 A 
ATOM     14  C   UNL A   1      31.957  22.156  22.576  1.00  0.00     0.009 A 
BRANCH  10  15
ATOM     15  O   UNL A   1      33.122  19.174  25.231  1.00  0.00    -0.410 OA
BRANCH  15  16
ATOM     16  C   UNL A   1      33.988  18.212  24.735  1.00  0.00     0.412 C 
ATOM     17  N   UNL A   1      35.271  18.673  24.617  1.00  0.00    -0.321 N 
ATOM     18  H   UNL A   1      35.924  18.067  24.197  1.00  0.00     0.167 HD
ATOM     19  O   UNL A   1      33.691  17.065  24.429  1.00  0.00    -0.224 OA
BRANCH  17  20
ATOM     20  C   UNL A   1      35.764  19.967  25.049  1.00  0.00     0.119 C 
BRANCH  20  21
ATOM     21  C   UNL A   1      37.292  20.027  25.021  1.00  0.00     0.021 C 
BRANCH  21  22
ATOM     22  C   UNL A   1      37.880  21.435  25.184  1.00  0.00     0.002 C 
BRANCH  22  23
ATOM     23  C   UNL A   1      37.158  22.540  24.408  1.00  0.00    -0.000 C 
BRANCH  23  24
ATOM     24  C   UNL A   1      36.753  23.764  25.234  1.00  0.00    -0.003 C 
ATOM     25  C   UNL A   1      35.529  23.523  26.103  1.00  0.00     0.004 C 
ENDBRANCH  23  24
ENDBRANCH  22  23
ENDBRANCH  21  22
ENDBRANCH  20  21
ENDBRANCH  17  20
ENDBRANCH  15  16
ENDBRANCH  10  15
ENDBRANCH   4   9
BRANCH   6  26
ATOM     26  N   UNL A   1      33.913  24.762  22.530  1.00  0.00     0.063 N 
ATOM     27  O   UNL A   1      33.703  25.505  21.559  1.00  0.00    -0.258 OA
ATOM     28  O   UNL A   1      34.693  23.801  22.527  1.00  0.00    -0.258 OA
ENDBRANCH   6  26
ENDBRANCH   1   3
BRANCH   1  29
ATOM     29  C   UNL A   1      31.926  29.183  24.946  1.00  0.00     0.227 C 
ATOM     30  O   UNL A   1      31.974  28.988  23.725  1.00  0.00    -0.274 OA
ATOM     31  N   UNL A   1      31.482  30.407  25.339  1.00  0.00    -0.356 N 
ATOM     32  H   UNL A   1      31.209  30.989  24.593  1.00  0.00     0.163 HD
BRANCH  31  33
ATOM     33  C   UNL A   1      31.332  31.022  26.644  1.00  0.00     0.117 C 
BRANCH  33  34
ATOM     34  C   UNL A   1      31.517  32.539  26.597  1.00  0.00     0.042 C 
BRANCH  34  35
ATOM     35  C   UNL A   1      32.819  33.032  27.218  1.00  0.00     0.118 C 
BRANCH  35  36
ATOM     36  N   UNL A   1      32.656  34.318  27.878  1.00  0.00    -0.352 N 
ATOM     37  C   UNL A   1      33.282  34.855  28.976  1.00  0.00     0.251 C 
ATOM     38  H   UNL A   1      31.980  34.904  27.467  1.00  0.00     0.163 HD
ATOM     39  O   UNL A   1      32.794  35.862  29.484  1.00  0.00    -0.269 OA
BRANCH  37  40
ATOM     40  C   UNL A   1      34.503  34.247  29.558  1.00  0.00     0.039 A 
ATOM     41  C   UNL A   1      34.362  33.413  30.673  1.00  0.00     0.014 A 
ATOM     42  C   UNL A   1      35.782  34.532  29.074  1.00  0.00     0.014 A 
ATOM     43  C   UNL A   1      35.487  32.833  31.263  1.00  0.00     0.010 A 
ATOM     44  C   UNL A   1      36.898  33.883  29.608  1.00  0.00     0.010 A 
ATOM     45  C   UNL A   1      36.766  33.035  30.715  1.00  0.00    -0.014 A 
BRANCH  45  46
ATOM     46  C   UNL A   1      37.955  32.355  31.296  1.00  0.00     0.031 A 
ATOM     47  C   UNL A   1      38.575  32.849  32.576  1.00  0.00     0.074 A 
ATOM     48  C   UNL A   1      38.495  31.305  30.645  1.00  0.00     0.049 A 
ATOM     49  N   UNL A   1      39.606  32.378  33.232  1.00  0.00    -0.248 NA
ATOM     50  C   UNL A   1      37.975  34.045  33.185  1.00  0.00     0.031 C 
ATOM     51  C   UNL A   1      38.018  30.773  29.365  1.00  0.00     0.029 A 
ATOM     52  N   UNL A   1      39.554  30.495  30.965  1.00  0.00    -0.354 N 
ATOM     53  C   UNL A   1      39.784  33.223  34.324  1.00  0.00     0.074 A 
ATOM     54  C   UNL A   1      38.792  34.271  34.203  1.00  0.00     0.031 C 
ATOM     55  C   UNL A   1      38.757  29.704  29.030  1.00  0.00     0.029 A 
ATOM     56  C   UNL A   1      39.786  29.498  30.045  1.00  0.00     0.049 A 
ATOM     57  H   UNL A   1      40.098  30.615  31.776  1.00  0.00     0.167 HD
ATOM     58  C   UNL A   1      40.675  33.121  35.343  1.00  0.00     0.034 A 
ATOM     59  C   UNL A   1      40.720  28.529  30.017  1.00  0.00     0.034 A 
ATOM     60  C   UNL A   1      41.654  32.065  35.448  1.00  0.00     0.049 A 
ATOM     61  C   UNL A   1      41.697  28.433  31.161  1.00  0.00     0.074 A 
ATOM     62  C   UNL A   1      42.567  31.830  36.462  1.00  0.00     0.029 A 
ATOM     63  N   UNL A   1      41.859  31.070  34.498  1.00  0.00    -0.354 N 
ATOM     64  N   UNL A   1      41.807  29.201  32.221  1.00  0.00    -0.248 NA
ATOM     65  C   UNL A   1      42.661  27.329  31.112  1.00  0.00     0.031 C 
ATOM     66  C   UNL A   1      43.368  30.743  36.093  1.00  0.00     0.029 A 
ATOM     67  C   UNL A   1      42.903  30.242  34.888  1.00  0.00     0.049 A 
ATOM     68  H   UNL A   1      41.339  30.968  33.668  1.00  0.00     0.167 HD
ATOM     69  C   UNL A   1      42.840  28.654  32.978  1.00  0.00     0.074 A 
ATOM     70  C   UNL A   1      43.295  27.477  32.266  1.00  0.00     0.031 C 
ATOM     71  C   UNL A   1      43.366  29.086  34.154  1.00  0.00     0.034 A 
BRANCH  58  72
ATOM     72  C   UNL A   1      40.643  34.197  36.406  1.00  0.00     0.023 A 
ATOM     73  C   UNL A   1      41.647  35.177  36.501  1.00  0.00     0.031 A 
ATOM     74  C   UNL A   1      39.606  34.230  37.357  1.00  0.00     0.131 A 
ATOM     75  C   UNL A   1      41.638  36.095  37.562  1.00  0.00     0.055 A 
ATOM     76  C   UNL A   1      39.556  35.200  38.361  1.00  0.00     0.041 A 
ATOM     77  F   UNL A   1      38.627  33.312  37.333  1.00  0.00    -0.206 F 
ATOM     78  C   UNL A   1      40.585  36.130  38.479  1.00  0.00     0.022 A 
BRANCH  75  79
ATOM     79  S   UNL A   1      43.096  37.145  37.815  1.00  0.00     0.124 S 
ATOM     80  O   UNL A   1      44.061  36.186  38.349  1.00  0.00    -0.237 OA
ATOM     81  O   UNL A   1      43.363  37.641  36.471  1.00  0.00    -0.237 OA
ATOM     82  O   UNL A   1      42.634  38.149  38.771  1.00  0.00    -0.744 OA
ENDBRANCH  75  79
ENDBRANCH  58  72
BRANCH  59  83
ATOM     83  C   UNL A   1      40.782  27.571  28.876  1.00  0.00     0.023 A 
ATOM     84  C   UNL A   1      41.737  27.714  27.858  1.00  0.00     0.031 A 
ATOM     85  C   UNL A   1      39.862  26.511  28.773  1.00  0.00     0.131 A 
ATOM     86  C   UNL A   1      41.723  26.842  26.757  1.00  0.00     0.055 A 
ATOM     87  C   UNL A   1      39.886  25.614  27.703  1.00  0.00     0.041 A 
ATOM     88  F   UNL A   1      38.932  26.324  29.723  1.00  0.00    -0.206 F 
ATOM     89  C   UNL A   1      40.812  25.786  26.680  1.00  0.00     0.022 A 
BRANCH  86  90
ATOM     90  S   UNL A   1      42.863  27.159  25.382  1.00  0.00     0.124 S 
ATOM     91  O   UNL A   1      44.097  27.484  26.088  1.00  0.00    -0.237 OA
ATOM     92  O   UNL A   1      42.845  25.882  24.674  1.00  0.00    -0.237 OA
ATOM     93  O   UNL A   1      42.238  28.272  24.671  1.00  0.00    -0.744 OA
ENDBRANCH  86  90
ENDBRANCH  59  83
BRANCH  71  94
ATOM     94  C   UNL A   1      44.476  28.249  34.746  1.00  0.00     0.023 A 
ATOM     95  C   UNL A   1      44.205  27.127  35.551  1.00  0.00     0.031 A 
ATOM     96  C   UNL A   1      45.821  28.607  34.547  1.00  0.00     0.131 A 
ATOM     97  C   UNL A   1      45.256  26.455  36.193  1.00  0.00     0.055 A 
ATOM     98  C   UNL A   1      46.867  27.889  35.130  1.00  0.00     0.041 A 
ATOM     99  F   UNL A   1      46.141  29.669  33.792  1.00  0.00    -0.206 F 
ATOM    100  C   UNL A   1      46.587  26.819  35.973  1.00  0.00     0.022 A 
BRANCH  97 101
ATOM    101  S   UNL A   1      44.851  25.190  37.428  1.00  0.00     0.124 S 
ATOM    102  O   UNL A   1      45.023  23.957  36.667  1.00  0.00    -0.237 OA
ATOM    103  O   UNL A   1      45.842  25.441  38.469  1.00  0.00    -0.237 OA
ATOM    104  O   UNL A   1      43.471  25.502  37.798  1.00  0.00    -0.744 OA
ENDBRANCH  97 101
ENDBRANCH  71  94
ENDBRANCH  45  46
ENDBRANCH  37  40
ENDBRANCH  35  36
ENDBRANCH  34  35
ENDBRANCH  33  34
ENDBRANCH  31  33
ENDBRANCH   1  29
TORSDOF 23
ENDMDL
