MODEL 1
REMARK VINA RESULT:     -11.9      0.000      0.000
REMARK SMILES CS(=O)(=O)c1ccc(N2N=C(C(=O)NCCCNC(=O)c3ccc(-c4c5nc(c(-c6cc(S(=O)(=O)[O-])ccc6F)c6ccc([nH]6)c(-c6cc(S(=O)(=O)[O-])ccc6F)c6nc(c(-c7cc(S(=O)(=O)[O-])ccc7F)c7ccc4[nH]7)C=C6)C=C5)cc3)C[C@H]2c2cccs2)cc1
REMARK SMILES IDX 16 1 15 2 14 3 12 4 13 5 11 7 9 8 10 9 85 10 84 11 8 12 5 13
REMARK SMILES IDX 6 14 92 15 7 16 91 17 2 18 1 19 3 20 4 21 86 22 87 23 90 24
REMARK SMILES IDX 88 25 89 26 17 27 18 28 19 29 20 31 21 32 22 33 83 34 23 35
REMARK SMILES IDX 82 36 24 37 25 38 26 39 76 40 27 41 81 42 75 43 77 44 28 45
REMARK SMILES IDX 80 46 74 47 73 48 29 50 61 51 41 52 60 53 42 54 45 55 59 56
REMARK SMILES IDX 78 57 43 58 44 59 58 61 79 62 46 63 30 64 31 65 39 66 32 67
REMARK SMILES IDX 38 68 40 69 37 70 33 71 34 72 35 73 36 74 62 75 63 76 71 77
REMARK SMILES IDX 64 78 70 79 72 80 69 81 65 82 66 83 67 84 68 85 47 86 48 87
REMARK SMILES IDX 56 88 49 89 55 90 57 91 54 92 50 93 51 94 52 95 53 96
REMARK H PARENT 14 6 18 30 77 49 45 60
REMARK Flexibility Score: inf
ROOT
ATOM      1  C   UNL A   1      33.151  27.907  26.204  1.00  0.00     0.042 C 
ENDROOT
BRANCH   1   2
ATOM      2  C   UNL A   1      32.012  27.481  25.286  1.00  0.00     0.118 C 
BRANCH   2   3
ATOM      3  N   UNL A   1      32.503  27.156  23.963  1.00  0.00    -0.351 N 
ATOM      4  C   UNL A   1      33.309  26.177  23.452  1.00  0.00     0.267 C 
ATOM      5  O   UNL A   1      33.617  26.264  22.264  1.00  0.00    -0.268 OA
ATOM      6  H   UNL A   1      32.184  27.784  23.275  1.00  0.00     0.163 HD
BRANCH   4   7
ATOM      7  C   UNL A   1      33.799  24.968  24.233  1.00  0.00     0.128 C 
ATOM      8  N   UNL A   1      35.171  23.459  24.854  1.00  0.00    -0.256 N 
ATOM      9  N   UNL A   1      35.036  24.585  24.114  1.00  0.00    -0.171 NA
ATOM     10  C   UNL A   1      33.957  23.062  25.565  1.00  0.00     0.154 C 
ATOM     11  C   UNL A   1      32.988  24.204  25.230  1.00  0.00     0.097 C 
BRANCH   8  12
ATOM     12  C   UNL A   1      36.426  22.998  25.224  1.00  0.00     0.060 A 
ATOM     13  C   UNL A   1      38.929  21.992  25.997  1.00  0.00     0.067 A 
ATOM     14  C   UNL A   1      38.543  23.272  26.400  1.00  0.00     0.022 A 
ATOM     15  C   UNL A   1      38.085  21.213  25.207  1.00  0.00     0.022 A 
ATOM     16  C   UNL A   1      37.295  23.771  26.004  1.00  0.00     0.029 A 
ATOM     17  C   UNL A   1      36.849  21.726  24.820  1.00  0.00     0.029 A 
BRANCH  13  18
ATOM     18  S   UNL A   1      40.522  21.364  26.458  1.00  0.00     0.175 S 
ATOM     19  C   UNL A   1      40.453  19.626  26.106  1.00  0.00     0.163 C 
ATOM     20  O   UNL A   1      40.638  21.529  27.894  1.00  0.00    -0.224 OA
ATOM     21  O   UNL A   1      41.501  21.940  25.555  1.00  0.00    -0.224 OA
ENDBRANCH  13  18
ENDBRANCH   8  12
BRANCH  10  22
ATOM     22  C   UNL A   1      33.435  21.672  25.229  1.00  0.00     0.030 A 
ATOM     23  C   UNL A   1      33.555  20.532  26.008  1.00  0.00     0.017 A 
ATOM     24  S   UNL A   1      32.676  21.302  23.730  1.00  0.00    -0.147 S 
ATOM     25  C   UNL A   1      32.997  19.377  25.391  1.00  0.00     0.012 A 
ATOM     26  C   UNL A   1      32.441  19.668  24.167  1.00  0.00     0.065 A 
ENDBRANCH  10  22
ENDBRANCH   4   7
ENDBRANCH   2   3
ENDBRANCH   1   2
BRANCH   1  27
ATOM     27  C   UNL A   1      33.996  29.026  25.604  1.00  0.00     0.118 C 
BRANCH  27  28
ATOM     28  N   UNL A   1      33.574  30.334  26.087  1.00  0.00    -0.352 N 
ATOM     29  C   UNL A   1      33.956  31.036  27.200  1.00  0.00     0.251 C 
ATOM     30  H   UNL A   1      32.906  30.786  25.522  1.00  0.00     0.163 HD
ATOM     31  O   UNL A   1      33.259  31.976  27.573  1.00  0.00    -0.269 OA
BRANCH  29  32
ATOM     32  C   UNL A   1      35.186  30.677  27.938  1.00  0.00     0.039 A 
ATOM     33  C   UNL A   1      35.210  29.489  28.673  1.00  0.00     0.014 A 
ATOM     34  C   UNL A   1      36.287  31.537  27.971  1.00  0.00     0.014 A 
ATOM     35  C   UNL A   1      36.341  29.157  29.421  1.00  0.00     0.010 A 
ATOM     36  C   UNL A   1      37.451  31.157  28.631  1.00  0.00     0.010 A 
ATOM     37  C   UNL A   1      37.477  29.983  29.395  1.00  0.00    -0.014 A 
BRANCH  37  38
ATOM     38  C   UNL A   1      38.669  29.680  30.225  1.00  0.00     0.031 A 
ATOM     39  C   UNL A   1      38.800  30.304  31.592  1.00  0.00     0.074 A 
ATOM     40  C   UNL A   1      39.643  28.886  29.738  1.00  0.00     0.049 A 
ATOM     41  N   UNL A   1      39.787  30.228  32.447  1.00  0.00    -0.248 NA
ATOM     42  C   UNL A   1      37.688  31.158  32.039  1.00  0.00     0.031 C 
ATOM     43  C   UNL A   1      39.643  28.263  28.412  1.00  0.00     0.029 A 
ATOM     44  N   UNL A   1      40.822  28.468  30.300  1.00  0.00    -0.354 N 
ATOM     45  C   UNL A   1      39.424  31.042  33.518  1.00  0.00     0.074 A 
ATOM     46  C   UNL A   1      38.162  31.654  33.171  1.00  0.00     0.031 C 
ATOM     47  C   UNL A   1      40.753  27.521  28.275  1.00  0.00     0.029 A 
ATOM     48  C   UNL A   1      41.563  27.646  29.483  1.00  0.00     0.049 A 
ATOM     49  H   UNL A   1      41.111  28.732  31.203  1.00  0.00     0.167 HD
ATOM     50  C   UNL A   1      40.071  31.237  34.693  1.00  0.00     0.034 A 
ATOM     51  C   UNL A   1      42.762  27.064  29.686  1.00  0.00     0.034 A 
ATOM     52  C   UNL A   1      41.314  30.589  35.032  1.00  0.00     0.049 A 
ATOM     53  C   UNL A   1      43.451  27.280  31.012  1.00  0.00     0.074 A 
ATOM     54  C   UNL A   1      42.036  30.669  36.210  1.00  0.00     0.029 A 
ATOM     55  N   UNL A   1      42.017  29.732  34.194  1.00  0.00    -0.354 N 
ATOM     56  N   UNL A   1      43.072  28.014  32.033  1.00  0.00    -0.248 NA
ATOM     57  C   UNL A   1      44.717  26.568  31.221  1.00  0.00     0.031 C 
ATOM     58  C   UNL A   1      43.203  29.912  36.062  1.00  0.00     0.029 A 
ATOM     59  C   UNL A   1      43.171  29.293  34.822  1.00  0.00     0.049 A 
ATOM     60  H   UNL A   1      41.736  29.476  33.286  1.00  0.00     0.167 HD
ATOM     61  C   UNL A   1      44.034  27.816  33.020  1.00  0.00     0.074 A 
ATOM     62  C   UNL A   1      44.996  26.880  32.476  1.00  0.00     0.031 C 
ATOM     63  C   UNL A   1      44.116  28.354  34.264  1.00  0.00     0.034 A 
BRANCH  50  64
ATOM     64  C   UNL A   1      39.455  32.200  35.680  1.00  0.00     0.023 A 
ATOM     65  C   UNL A   1      39.855  33.546  35.751  1.00  0.00     0.031 A 
ATOM     66  C   UNL A   1      38.468  31.762  36.580  1.00  0.00     0.131 A 
ATOM     67  C   UNL A   1      39.328  34.385  36.745  1.00  0.00     0.055 A 
ATOM     68  C   UNL A   1      37.884  32.623  37.512  1.00  0.00     0.041 A 
ATOM     69  F   UNL A   1      38.060  30.482  36.577  1.00  0.00    -0.206 F 
ATOM     70  C   UNL A   1      38.324  33.940  37.608  1.00  0.00     0.022 A 
BRANCH  67  71
ATOM     71  S   UNL A   1      40.068  36.023  36.981  1.00  0.00     0.124 S 
ATOM     72  O   UNL A   1      41.473  35.682  37.193  1.00  0.00    -0.237 OA
ATOM     73  O   UNL A   1      39.756  36.696  35.726  1.00  0.00    -0.237 OA
ATOM     74  O   UNL A   1      39.377  36.546  38.158  1.00  0.00    -0.744 OA
ENDBRANCH  67  71
ENDBRANCH  50  64
BRANCH  51  75
ATOM     75  C   UNL A   1      43.389  26.220  28.629  1.00  0.00     0.023 A 
ATOM     76  C   UNL A   1      44.354  26.750  27.758  1.00  0.00     0.031 A 
ATOM     77  C   UNL A   1      42.989  24.886  28.434  1.00  0.00     0.131 A 
ATOM     78  C   UNL A   1      44.838  25.974  26.693  1.00  0.00     0.055 A 
ATOM     79  C   UNL A   1      43.519  24.098  27.410  1.00  0.00     0.041 A 
ATOM     80  F   UNL A   1      42.077  24.324  29.243  1.00  0.00    -0.206 F 
ATOM     81  C   UNL A   1      44.436  24.649  26.520  1.00  0.00     0.022 A 
BRANCH  78  82
ATOM     82  S   UNL A   1      45.921  26.762  25.469  1.00  0.00     0.124 S 
ATOM     83  O   UNL A   1      45.050  27.796  24.924  1.00  0.00    -0.237 OA
ATOM     84  O   UNL A   1      47.027  27.227  26.301  1.00  0.00    -0.237 OA
ATOM     85  O   UNL A   1      46.248  25.672  24.553  1.00  0.00    -0.744 OA
ENDBRANCH  78  82
ENDBRANCH  51  75
BRANCH  63  86
ATOM     86  C   UNL A   1      45.254  27.884  35.138  1.00  0.00     0.023 A 
ATOM     87  C   UNL A   1      45.123  26.781  35.998  1.00  0.00     0.031 A 
ATOM     88  C   UNL A   1      46.480  28.573  35.128  1.00  0.00     0.131 A 
ATOM     89  C   UNL A   1      46.171  26.446  36.867  1.00  0.00     0.055 A 
ATOM     90  C   UNL A   1      47.545  28.191  35.943  1.00  0.00     0.041 A 
ATOM     91  F   UNL A   1      46.661  29.635  34.325  1.00  0.00    -0.206 F 
ATOM     92  C   UNL A   1      47.388  27.133  36.833  1.00  0.00     0.022 A 
BRANCH  89  93
ATOM     93  S   UNL A   1      45.880  25.178  38.131  1.00  0.00     0.124 S 
ATOM     94  O   UNL A   1      47.206  24.584  38.277  1.00  0.00    -0.237 OA
ATOM     95  O   UNL A   1      45.409  25.969  39.262  1.00  0.00    -0.237 OA
ATOM     96  O   UNL A   1      44.876  24.309  37.520  1.00  0.00    -0.744 OA
ENDBRANCH  89  93
ENDBRANCH  63  86
ENDBRANCH  37  38
ENDBRANCH  29  32
ENDBRANCH  27  28
ENDBRANCH   1  27
TORSDOF 16
ENDMDL
MODEL 2
REMARK VINA RESULT:     -11.5      5.132     10.520
REMARK SMILES CS(=O)(=O)c1ccc(N2N=C(C(=O)NCCCNC(=O)c3ccc(-c4c5nc(c(-c6cc(S(=O)(=O)[O-])ccc6F)c6ccc([nH]6)c(-c6cc(S(=O)(=O)[O-])ccc6F)c6nc(c(-c7cc(S(=O)(=O)[O-])ccc7F)c7ccc4[nH]7)C=C6)C=C5)cc3)C[C@H]2c2cccs2)cc1
REMARK SMILES IDX 16 1 15 2 14 3 12 4 13 5 11 7 9 8 10 9 85 10 84 11 8 12 5 13
REMARK SMILES IDX 6 14 92 15 7 16 91 17 2 18 1 19 3 20 4 21 86 22 87 23 90 24
REMARK SMILES IDX 88 25 89 26 17 27 18 28 19 29 20 31 21 32 22 33 83 34 23 35
REMARK SMILES IDX 82 36 24 37 25 38 26 39 76 40 27 41 81 42 75 43 77 44 28 45
REMARK SMILES IDX 80 46 74 47 73 48 29 50 61 51 41 52 60 53 42 54 45 55 59 56
REMARK SMILES IDX 78 57 43 58 44 59 58 61 79 62 46 63 30 64 31 65 39 66 32 67
REMARK SMILES IDX 38 68 40 69 37 70 33 71 34 72 35 73 36 74 62 75 63 76 71 77
REMARK SMILES IDX 64 78 70 79 72 80 69 81 65 82 66 83 67 84 68 85 47 86 48 87
REMARK SMILES IDX 56 88 49 89 55 90 57 91 54 92 50 93 51 94 52 95 53 96
REMARK H PARENT 14 6 18 30 77 49 45 60
REMARK Flexibility Score: inf
ROOT
ATOM      1  C   UNL A   1      36.261  21.968  24.539  1.00  0.00     0.042 C 
ENDROOT
BRANCH   1   2
ATOM      2  C   UNL A   1      34.850  22.544  24.505  1.00  0.00     0.118 C 
BRANCH   2   3
ATOM      3  N   UNL A   1      34.432  22.818  23.146  1.00  0.00    -0.351 N 
ATOM      4  C   UNL A   1      33.539  23.680  22.572  1.00  0.00     0.267 C 
ATOM      5  O   UNL A   1      33.349  23.570  21.361  1.00  0.00    -0.268 OA
ATOM      6  H   UNL A   1      34.896  22.255  22.486  1.00  0.00     0.163 HD
BRANCH   4   7
ATOM      7  C   UNL A   1      32.813  24.791  23.313  1.00  0.00     0.128 C 
ATOM      8  N   UNL A   1      31.788  26.644  23.554  1.00  0.00    -0.256 N 
ATOM      9  N   UNL A   1      32.300  25.781  22.644  1.00  0.00    -0.171 NA
ATOM     10  C   UNL A   1      31.918  26.200  24.940  1.00  0.00     0.154 C 
ATOM     11  C   UNL A   1      32.545  24.808  24.784  1.00  0.00     0.097 C 
BRANCH   8  12
ATOM     12  C   UNL A   1      30.873  27.616  23.174  1.00  0.00     0.060 A 
ATOM     13  C   UNL A   1      29.076  29.640  22.434  1.00  0.00     0.067 A 
ATOM     14  C   UNL A   1      28.619  28.542  23.164  1.00  0.00     0.022 A 
ATOM     15  C   UNL A   1      30.417  29.736  22.062  1.00  0.00     0.022 A 
ATOM     16  C   UNL A   1      29.519  27.531  23.523  1.00  0.00     0.029 A 
ATOM     17  C   UNL A   1      31.298  28.721  22.425  1.00  0.00     0.029 A 
BRANCH  13  18
ATOM     18  S   UNL A   1      27.939  30.907  21.938  1.00  0.00     0.175 S 
ATOM     19  C   UNL A   1      28.855  32.423  22.057  1.00  0.00     0.163 C 
ATOM     20  O   UNL A   1      26.885  30.937  22.934  1.00  0.00    -0.224 OA
ATOM     21  O   UNL A   1      27.638  30.704  20.533  1.00  0.00    -0.224 OA
ENDBRANCH  13  18
ENDBRANCH   8  12
BRANCH  10  22
ATOM     22  C   UNL A   1      32.692  27.142  25.852  1.00  0.00     0.030 A 
ATOM     23  C   UNL A   1      34.041  27.447  25.771  1.00  0.00     0.017 A 
ATOM     24  S   UNL A   1      31.979  27.911  27.215  1.00  0.00    -0.147 S 
ATOM     25  C   UNL A   1      34.472  28.332  26.801  1.00  0.00     0.012 A 
ATOM     26  C   UNL A   1      33.436  28.700  27.627  1.00  0.00     0.065 A 
ENDBRANCH  10  22
ENDBRANCH   4   7
ENDBRANCH   2   3
ENDBRANCH   1   2
BRANCH   1  27
ATOM     27  C   UNL A   1      37.157  22.681  25.547  1.00  0.00     0.118 C 
BRANCH  27  28
ATOM     28  N   UNL A   1      38.233  21.815  26.012  1.00  0.00    -0.352 N 
ATOM     29  C   UNL A   1      39.479  22.125  26.491  1.00  0.00     0.251 C 
ATOM     30  H   UNL A   1      38.033  20.852  25.975  1.00  0.00     0.163 HD
ATOM     31  O   UNL A   1      40.329  21.240  26.541  1.00  0.00    -0.269 OA
BRANCH  29  32
ATOM     32  C   UNL A   1      39.797  23.496  26.945  1.00  0.00     0.039 A 
ATOM     33  C   UNL A   1      39.669  24.554  26.041  1.00  0.00     0.014 A 
ATOM     34  C   UNL A   1      40.290  23.736  28.231  1.00  0.00     0.014 A 
ATOM     35  C   UNL A   1      40.016  25.848  26.433  1.00  0.00     0.010 A 
ATOM     36  C   UNL A   1      40.537  25.038  28.653  1.00  0.00     0.010 A 
ATOM     37  C   UNL A   1      40.440  26.103  27.748  1.00  0.00    -0.014 A 
BRANCH  37  38
ATOM     38  C   UNL A   1      40.868  27.460  28.170  1.00  0.00     0.031 A 
ATOM     39  C   UNL A   1      42.323  27.844  28.071  1.00  0.00     0.074 A 
ATOM     40  C   UNL A   1      39.964  28.321  28.676  1.00  0.00     0.049 A 
ATOM     41  N   UNL A   1      42.917  28.947  28.449  1.00  0.00    -0.248 NA
ATOM     42  C   UNL A   1      43.237  26.837  27.508  1.00  0.00     0.031 C 
ATOM     43  C   UNL A   1      38.538  28.041  28.858  1.00  0.00     0.029 A 
ATOM     44  N   UNL A   1      40.110  29.607  29.131  1.00  0.00    -0.354 N 
ATOM     45  C   UNL A   1      44.272  28.755  28.192  1.00  0.00     0.074 A 
ATOM     46  C   UNL A   1      44.418  27.406  27.692  1.00  0.00     0.031 C 
ATOM     47  C   UNL A   1      37.937  29.132  29.360  1.00  0.00     0.029 A 
ATOM     48  C   UNL A   1      38.937  30.173  29.573  1.00  0.00     0.049 A 
ATOM     49  H   UNL A   1      40.973  30.079  29.142  1.00  0.00     0.167 HD
ATOM     50  C   UNL A   1      45.295  29.633  28.332  1.00  0.00     0.034 A 
ATOM     51  C   UNL A   1      38.699  31.393  30.096  1.00  0.00     0.034 A 
ATOM     52  C   UNL A   1      45.122  30.986  28.799  1.00  0.00     0.049 A 
ATOM     53  C   UNL A   1      39.852  32.360  30.220  1.00  0.00     0.074 A 
ATOM     54  C   UNL A   1      46.074  31.981  28.935  1.00  0.00     0.029 A 
ATOM     55  N   UNL A   1      43.912  31.537  29.202  1.00  0.00    -0.354 N 
ATOM     56  N   UNL A   1      41.119  32.179  29.928  1.00  0.00    -0.248 NA
ATOM     57  C   UNL A   1      39.536  33.701  30.722  1.00  0.00     0.031 C 
ATOM     58  C   UNL A   1      45.453  33.112  29.475  1.00  0.00     0.029 A 
ATOM     59  C   UNL A   1      44.097  32.851  29.603  1.00  0.00     0.049 A 
ATOM     60  H   UNL A   1      43.049  31.063  29.205  1.00  0.00     0.167 HD
ATOM     61  C   UNL A   1      41.742  33.401  30.171  1.00  0.00     0.074 A 
ATOM     62  C   UNL A   1      40.706  34.310  30.615  1.00  0.00     0.031 C 
ATOM     63  C   UNL A   1      43.050  33.744  30.038  1.00  0.00     0.034 A 
BRANCH  50  64
ATOM     64  C   UNL A   1      46.685  29.148  27.993  1.00  0.00     0.023 A 
ATOM     65  C   UNL A   1      47.057  28.826  26.676  1.00  0.00     0.031 A 
ATOM     66  C   UNL A   1      47.647  28.983  29.004  1.00  0.00     0.131 A 
ATOM     67  C   UNL A   1      48.327  28.288  26.416  1.00  0.00     0.055 A 
ATOM     68  C   UNL A   1      48.939  28.527  28.728  1.00  0.00     0.041 A 
ATOM     69  F   UNL A   1      47.346  29.251  30.285  1.00  0.00    -0.206 F 
ATOM     70  C   UNL A   1      49.280  28.163  27.429  1.00  0.00     0.022 A 
BRANCH  67  71
ATOM     71  S   UNL A   1      48.669  27.629  24.761  1.00  0.00     0.124 S 
ATOM     72  O   UNL A   1      49.997  28.177  24.495  1.00  0.00    -0.237 OA
ATOM     73  O   UNL A   1      48.603  26.188  24.974  1.00  0.00    -0.237 OA
ATOM     74  O   UNL A   1      47.596  28.188  23.941  1.00  0.00    -0.744 OA
ENDBRANCH  67  71
ENDBRANCH  50  64
BRANCH  51  75
ATOM     75  C   UNL A   1      37.327  31.781  30.533  1.00  0.00     0.023 A 
ATOM     76  C   UNL A   1      36.445  32.431  29.655  1.00  0.00     0.031 A 
ATOM     77  C   UNL A   1      36.898  31.560  31.854  1.00  0.00     0.131 A 
ATOM     78  C   UNL A   1      35.207  32.897  30.125  1.00  0.00     0.055 A 
ATOM     79  C   UNL A   1      35.640  31.973  32.299  1.00  0.00     0.041 A 
ATOM     80  F   UNL A   1      37.696  30.935  32.732  1.00  0.00    -0.206 F 
ATOM     81  C   UNL A   1      34.794  32.663  31.437  1.00  0.00     0.022 A 
BRANCH  78  82
ATOM     82  S   UNL A   1      34.189  33.915  29.020  1.00  0.00     0.124 S 
ATOM     83  O   UNL A   1      35.183  34.814  28.444  1.00  0.00    -0.237 OA
ATOM     84  O   UNL A   1      33.631  32.913  28.117  1.00  0.00    -0.237 OA
ATOM     85  O   UNL A   1      33.228  34.542  29.925  1.00  0.00    -0.744 OA
ENDBRANCH  78  82
ENDBRANCH  51  75
BRANCH  63  86
ATOM     86  C   UNL A   1      43.409  35.183  30.314  1.00  0.00     0.023 A 
ATOM     87  C   UNL A   1      43.349  36.169  29.314  1.00  0.00     0.031 A 
ATOM     88  C   UNL A   1      43.847  35.566  31.595  1.00  0.00     0.131 A 
ATOM     89  C   UNL A   1      43.793  37.471  29.591  1.00  0.00     0.055 A 
ATOM     90  C   UNL A   1      44.219  36.879  31.884  1.00  0.00     0.041 A 
ATOM     91  F   UNL A   1      43.923  34.666  32.588  1.00  0.00    -0.206 F 
ATOM     92  C   UNL A   1      44.212  37.836  30.873  1.00  0.00     0.022 A 
BRANCH  89  93
ATOM     93  S   UNL A   1      43.934  38.650  28.219  1.00  0.00     0.124 S 
ATOM     94  O   UNL A   1      43.571  37.824  27.071  1.00  0.00    -0.237 OA
ATOM     95  O   UNL A   1      42.970  39.678  28.594  1.00  0.00    -0.237 OA
ATOM     96  O   UNL A   1      45.335  39.065  28.266  1.00  0.00    -0.744 OA
ENDBRANCH  89  93
ENDBRANCH  63  86
ENDBRANCH  37  38
ENDBRANCH  29  32
ENDBRANCH  27  28
ENDBRANCH   1  27
TORSDOF 16
ENDMDL
MODEL 3
REMARK VINA RESULT:     -11.2      4.731     10.183
REMARK SMILES CS(=O)(=O)c1ccc(N2N=C(C(=O)NCCCNC(=O)c3ccc(-c4c5nc(c(-c6cc(S(=O)(=O)[O-])ccc6F)c6ccc([nH]6)c(-c6cc(S(=O)(=O)[O-])ccc6F)c6nc(c(-c7cc(S(=O)(=O)[O-])ccc7F)c7ccc4[nH]7)C=C6)C=C5)cc3)C[C@H]2c2cccs2)cc1
REMARK SMILES IDX 16 1 15 2 14 3 12 4 13 5 11 7 9 8 10 9 85 10 84 11 8 12 5 13
REMARK SMILES IDX 6 14 92 15 7 16 91 17 2 18 1 19 3 20 4 21 86 22 87 23 90 24
REMARK SMILES IDX 88 25 89 26 17 27 18 28 19 29 20 31 21 32 22 33 83 34 23 35
REMARK SMILES IDX 82 36 24 37 25 38 26 39 76 40 27 41 81 42 75 43 77 44 28 45
REMARK SMILES IDX 80 46 74 47 73 48 29 50 61 51 41 52 60 53 42 54 45 55 59 56
REMARK SMILES IDX 78 57 43 58 44 59 58 61 79 62 46 63 30 64 31 65 39 66 32 67
REMARK SMILES IDX 38 68 40 69 37 70 33 71 34 72 35 73 36 74 62 75 63 76 71 77
REMARK SMILES IDX 64 78 70 79 72 80 69 81 65 82 66 83 67 84 68 85 47 86 48 87
REMARK SMILES IDX 56 88 49 89 55 90 57 91 54 92 50 93 51 94 52 95 53 96
REMARK H PARENT 14 6 18 30 77 49 45 60
REMARK Flexibility Score: inf
ROOT
ATOM      1  C   UNL A   1      35.371  23.596  24.735  1.00  0.00     0.042 C 
ENDROOT
BRANCH   1   2
ATOM      2  C   UNL A   1      34.237  22.704  25.227  1.00  0.00     0.118 C 
BRANCH   2   3
ATOM      3  N   UNL A   1      33.191  22.594  24.232  1.00  0.00    -0.351 N 
ATOM      4  C   UNL A   1      32.097  23.345  23.903  1.00  0.00     0.267 C 
ATOM      5  O   UNL A   1      31.338  22.891  23.048  1.00  0.00    -0.268 OA
ATOM      6  H   UNL A   1      33.291  21.797  23.664  1.00  0.00     0.163 HD
BRANCH   4   7
ATOM      7  C   UNL A   1      31.788  24.718  24.479  1.00  0.00     0.128 C 
ATOM      8  N   UNL A   1      31.224  26.774  24.454  1.00  0.00    -0.256 N 
ATOM      9  N   UNL A   1      31.339  25.656  23.698  1.00  0.00    -0.171 NA
ATOM     10  C   UNL A   1      31.575  26.584  25.860  1.00  0.00     0.154 C 
ATOM     11  C   UNL A   1      31.868  25.079  25.928  1.00  0.00     0.097 C 
BRANCH   8  12
ATOM     12  C   UNL A   1      30.454  27.846  24.025  1.00  0.00     0.060 A 
ATOM     13  C   UNL A   1      28.884  29.973  23.085  1.00  0.00     0.067 A 
ATOM     14  C   UNL A   1      30.122  30.234  23.674  1.00  0.00     0.022 A 
ATOM     15  C   UNL A   1      28.417  28.664  22.967  1.00  0.00     0.022 A 
ATOM     16  C   UNL A   1      30.897  29.168  24.148  1.00  0.00     0.029 A 
ATOM     17  C   UNL A   1      29.199  27.616  23.447  1.00  0.00     0.029 A 
BRANCH  13  18
ATOM     18  S   UNL A   1      27.875  31.316  22.516  1.00  0.00     0.175 S 
ATOM     19  C   UNL A   1      28.952  32.725  22.494  1.00  0.00     0.163 C 
ATOM     20  O   UNL A   1      26.862  31.538  23.531  1.00  0.00    -0.224 OA
ATOM     21  O   UNL A   1      27.510  31.040  21.139  1.00  0.00    -0.224 OA
ENDBRANCH  13  18
ENDBRANCH   8  12
BRANCH  10  22
ATOM     22  C   UNL A   1      32.703  27.470  26.370  1.00  0.00     0.030 A 
ATOM     23  C   UNL A   1      34.042  27.386  26.022  1.00  0.00     0.017 A 
ATOM     24  S   UNL A   1      32.465  28.681  27.568  1.00  0.00    -0.147 S 
ATOM     25  C   UNL A   1      34.854  28.333  26.709  1.00  0.00     0.012 A 
ATOM     26  C   UNL A   1      34.112  29.133  27.546  1.00  0.00     0.065 A 
ENDBRANCH  10  22
ENDBRANCH   4   7
ENDBRANCH   2   3
ENDBRANCH   1   2
BRANCH   1  27
ATOM     27  C   UNL A   1      36.334  23.984  25.853  1.00  0.00     0.118 C 
BRANCH  27  28
ATOM     28  N   UNL A   1      37.317  22.938  26.100  1.00  0.00    -0.352 N 
ATOM     29  C   UNL A   1      38.646  23.025  26.424  1.00  0.00     0.251 C 
ATOM     30  H   UNL A   1      36.970  22.019  26.021  1.00  0.00     0.163 HD
ATOM     31  O   UNL A   1      39.352  22.029  26.291  1.00  0.00    -0.269 OA
BRANCH  29  32
ATOM     32  C   UNL A   1      39.221  24.289  26.928  1.00  0.00     0.039 A 
ATOM     33  C   UNL A   1      39.032  24.630  28.270  1.00  0.00     0.014 A 
ATOM     34  C   UNL A   1      39.882  25.176  26.073  1.00  0.00     0.014 A 
ATOM     35  C   UNL A   1      39.521  25.845  28.754  1.00  0.00     0.010 A 
ATOM     36  C   UNL A   1      40.458  26.336  26.578  1.00  0.00     0.010 A 
ATOM     37  C   UNL A   1      40.250  26.702  27.915  1.00  0.00    -0.014 A 
BRANCH  37  38
ATOM     38  C   UNL A   1      40.730  28.023  28.392  1.00  0.00     0.031 A 
ATOM     39  C   UNL A   1      42.212  28.271  28.524  1.00  0.00     0.074 A 
ATOM     40  C   UNL A   1      39.842  28.973  28.742  1.00  0.00     0.049 A 
ATOM     41  N   UNL A   1      42.838  29.323  28.984  1.00  0.00    -0.248 NA
ATOM     42  C   UNL A   1      43.106  27.175  28.119  1.00  0.00     0.031 C 
ATOM     43  C   UNL A   1      38.385  28.828  28.698  1.00  0.00     0.029 A 
ATOM     44  N   UNL A   1      40.033  30.249  29.208  1.00  0.00    -0.354 N 
ATOM     45  C   UNL A   1      44.194  29.004  28.947  1.00  0.00     0.074 A 
ATOM     46  C   UNL A   1      44.290  27.637  28.485  1.00  0.00     0.031 C 
ATOM     47  C   UNL A   1      37.816  29.979  29.091  1.00  0.00     0.029 A 
ATOM     48  C   UNL A   1      38.863  30.929  29.454  1.00  0.00     0.049 A 
ATOM     49  H   UNL A   1      40.924  30.641  29.352  1.00  0.00     0.167 HD
ATOM     50  C   UNL A   1      45.259  29.788  29.243  1.00  0.00     0.034 A 
ATOM     51  C   UNL A   1      38.660  32.176  29.925  1.00  0.00     0.034 A 
ATOM     52  C   UNL A   1      45.141  31.161  29.669  1.00  0.00     0.049 A 
ATOM     53  C   UNL A   1      39.863  33.036  30.226  1.00  0.00     0.074 A 
ATOM     54  C   UNL A   1      46.148  32.067  29.948  1.00  0.00     0.029 A 
ATOM     55  N   UNL A   1      43.939  31.828  29.871  1.00  0.00    -0.354 N 
ATOM     56  N   UNL A   1      41.139  32.735  30.139  1.00  0.00    -0.248 NA
ATOM     57  C   UNL A   1      39.598  34.411  30.663  1.00  0.00     0.031 C 
ATOM     58  C   UNL A   1      45.557  33.261  30.376  1.00  0.00     0.029 A 
ATOM     59  C   UNL A   1      44.180  33.127  30.288  1.00  0.00     0.049 A 
ATOM     60  H   UNL A   1      43.046  31.434  29.739  1.00  0.00     0.167 HD
ATOM     61  C   UNL A   1      41.826  33.900  30.471  1.00  0.00     0.074 A 
ATOM     62  C   UNL A   1      40.822  34.909  30.739  1.00  0.00     0.031 C 
ATOM     63  C   UNL A   1      43.165  34.120  30.546  1.00  0.00     0.034 A 
BRANCH  50  64
ATOM     64  C   UNL A   1      46.633  29.172  29.132  1.00  0.00     0.023 A 
ATOM     65  C   UNL A   1      47.368  29.208  27.933  1.00  0.00     0.031 A 
ATOM     66  C   UNL A   1      47.211  28.519  30.235  1.00  0.00     0.131 A 
ATOM     67  C   UNL A   1      48.600  28.541  27.843  1.00  0.00     0.055 A 
ATOM     68  C   UNL A   1      48.476  27.929  30.164  1.00  0.00     0.041 A 
ATOM     69  F   UNL A   1      46.551  28.430  31.400  1.00  0.00    -0.206 F 
ATOM     70  C   UNL A   1      49.172  27.926  28.959  1.00  0.00     0.022 A 
BRANCH  67  71
ATOM     71  S   UNL A   1      49.379  28.374  26.214  1.00  0.00     0.124 S 
ATOM     72  O   UNL A   1      48.217  28.403  25.329  1.00  0.00    -0.237 OA
ATOM     73  O   UNL A   1      50.253  29.540  26.160  1.00  0.00    -0.237 OA
ATOM     74  O   UNL A   1      50.062  27.085  26.291  1.00  0.00    -0.744 OA
ENDBRANCH  67  71
ENDBRANCH  50  64
BRANCH  51  75
ATOM     75  C   UNL A   1      37.278  32.696  30.136  1.00  0.00     0.023 A 
ATOM     76  C   UNL A   1      36.831  33.063  31.415  1.00  0.00     0.031 A 
ATOM     77  C   UNL A   1      36.364  32.778  29.070  1.00  0.00     0.131 A 
ATOM     78  C   UNL A   1      35.490  33.431  31.609  1.00  0.00     0.055 A 
ATOM     79  C   UNL A   1      35.047  33.203  29.259  1.00  0.00     0.041 A 
ATOM     80  F   UNL A   1      36.740  32.449  27.825  1.00  0.00    -0.206 F 
ATOM     81  C   UNL A   1      34.599  33.515  30.538  1.00  0.00     0.022 A 
BRANCH  78  82
ATOM     82  S   UNL A   1      34.900  33.693  33.305  1.00  0.00     0.124 S 
ATOM     83  O   UNL A   1      35.340  35.059  33.564  1.00  0.00    -0.237 OA
ATOM     84  O   UNL A   1      33.462  33.498  33.157  1.00  0.00    -0.237 OA
ATOM     85  O   UNL A   1      35.593  32.658  34.069  1.00  0.00    -0.744 OA
ENDBRANCH  78  82
ENDBRANCH  51  75
BRANCH  63  86
ATOM     86  C   UNL A   1      43.608  35.527  30.867  1.00  0.00     0.023 A 
ATOM     87  C   UNL A   1      43.709  35.990  32.190  1.00  0.00     0.031 A 
ATOM     88  C   UNL A   1      43.907  36.425  29.827  1.00  0.00     0.131 A 
ATOM     89  C   UNL A   1      44.024  37.334  32.435  1.00  0.00     0.055 A 
ATOM     90  C   UNL A   1      44.289  37.742  30.079  1.00  0.00     0.041 A 
ATOM     91  F   UNL A   1      43.828  36.036  28.544  1.00  0.00    -0.206 F 
ATOM     92  C   UNL A   1      44.331  38.209  31.390  1.00  0.00     0.022 A 
BRANCH  89  93
ATOM     93  S   UNL A   1      43.905  37.957  34.135  1.00  0.00     0.124 S 
ATOM     94  O   UNL A   1      42.710  38.793  34.069  1.00  0.00    -0.237 OA
ATOM     95  O   UNL A   1      43.779  36.726  34.908  1.00  0.00    -0.237 OA
ATOM     96  O   UNL A   1      45.159  38.683  34.323  1.00  0.00    -0.744 OA
ENDBRANCH  89  93
ENDBRANCH  63  86
ENDBRANCH  37  38
ENDBRANCH  29  32
ENDBRANCH  27  28
ENDBRANCH   1  27
TORSDOF 16
ENDMDL
