MODEL 1
REMARK VINA RESULT:     -11.8      0.000      0.000
REMARK SMILES C[C@@H](NC(=O)[C@@H]([NH3+])CC(=O)NCCCNC(=O)c1ccc(-c2c3nc(c(-c4cc(S(=O)(=O)[O-])ccc4F)c4ccc([nH]4)c(-c4cc(S(=O)(=O)[O-])ccc4F)c4nc(c(-c5cc(S(=O)(=O)[O-])ccc5F)c5ccc2[nH]5)C=C4)C=C3)cc1)C(=O)NC1C(C)(C)SC1(C)C
REMARK SMILES IDX 12 1 11 2 9 3 10 4 8 6 6 7 4 8 3 9 5 11 2 12 1 13 81 14
REMARK SMILES IDX 82 15 83 16 84 18 85 19 89 20 86 21 87 22 88 23 90 24 91 25
REMARK SMILES IDX 7 26 13 30 14 31 15 32 16 33 17 35 18 36 19 37 80 38 20 39
REMARK SMILES IDX 79 40 21 41 22 42 23 43 73 44 24 45 78 46 72 47 74 48 25 49
REMARK SMILES IDX 77 50 71 51 70 52 26 54 58 55 38 56 57 57 39 58 42 59 56 60
REMARK SMILES IDX 75 61 40 62 41 63 55 65 76 66 43 67 27 68 28 69 36 70 29 71
REMARK SMILES IDX 35 72 37 73 34 74 30 75 31 76 32 77 33 78 59 79 60 80 68 81
REMARK SMILES IDX 61 82 67 83 69 84 66 85 62 86 63 87 64 88 65 89 44 90 45 91
REMARK SMILES IDX 53 92 46 93 52 94 54 95 51 96 47 97 48 98 49 99 50 100
REMARK H PARENT 11 5 3 10 83 17 7 27 7 28 7 29 15 34 74 53 42 64
REMARK Flexibility Score: inf
ROOT
ATOM      1  C   UNL A   1      31.609  30.861  25.961  1.00  0.00     0.117 C 
ENDROOT
BRANCH   1   2
ATOM      2  N   UNL A   1      31.554  29.747  26.887  1.00  0.00    -0.356 N 
ATOM      3  C   UNL A   1      31.629  28.414  26.629  1.00  0.00     0.226 C 
ATOM      4  O   UNL A   1      31.463  27.616  27.551  1.00  0.00    -0.275 OA
ATOM      5  H   UNL A   1      31.447  29.989  27.835  1.00  0.00     0.163 HD
BRANCH   3   6
ATOM      6  C   UNL A   1      31.891  27.938  25.222  1.00  0.00     0.175 C 
BRANCH   6   7
ATOM      7  C   UNL A   1      30.571  27.739  24.496  1.00  0.00     0.280 C 
BRANCH   7   8
ATOM      8  C   UNL A   1      30.599  27.900  22.953  1.00  0.00     0.279 C 
ATOM      9  N   UNL A   1      31.643  27.627  22.132  1.00  0.00    -0.339 N 
ATOM     10  H   UNL A   1      31.477  27.815  21.180  1.00  0.00     0.164 HD
ATOM     11  O   UNL A   1      29.564  28.250  22.373  1.00  0.00    -0.268 OA
BRANCH   9  12
ATOM     12  C   UNL A   1      32.969  27.100  22.420  1.00  0.00     0.168 C 
ATOM     13  C   UNL A   1      34.061  28.127  22.118  1.00  0.00     0.041 C 
BRANCH  12  14
ATOM     14  C   UNL A   1      33.225  25.807  21.642  1.00  0.00     0.242 C 
ATOM     15  O   UNL A   1      32.944  25.728  20.444  1.00  0.00    -0.273 OA
ATOM     16  N   UNL A   1      33.700  24.683  22.279  1.00  0.00    -0.349 N 
ATOM     17  H   UNL A   1      34.294  24.113  21.739  1.00  0.00     0.163 HD
BRANCH  16  18
ATOM     18  C   UNL A   1      33.445  24.207  23.669  1.00  0.00     0.113 C 
ATOM     19  C   UNL A   1      32.461  22.971  23.610  1.00  0.00     0.032 C 
ATOM     20  C   UNL A   1      34.571  23.420  24.497  1.00  0.00     0.032 C 
ATOM     21  C   UNL A   1      31.025  23.392  23.901  1.00  0.00     0.025 C 
ATOM     22  C   UNL A   1      32.524  22.052  22.386  1.00  0.00     0.025 C 
ATOM     23  S   UNL A   1      33.268  22.197  25.035  1.00  0.00    -0.145 SA
ATOM     24  C   UNL A   1      35.725  22.694  23.808  1.00  0.00     0.025 C 
ATOM     25  C   UNL A   1      35.089  24.109  25.771  1.00  0.00     0.025 C 
ENDBRANCH  16  18
ENDBRANCH  12  14
ENDBRANCH   9  12
ENDBRANCH   7   8
BRANCH   7  26
ATOM     26  N   UNL A   1      30.003  26.431  24.877  1.00  0.00    -0.347 N 
ATOM     27  H   UNL A   1      30.369  25.708  24.257  1.00  0.00     0.345 HD
ATOM     28  H   UNL A   1      28.987  26.465  24.798  1.00  0.00     0.345 HD
ATOM     29  H   UNL A   1      30.262  26.216  25.839  1.00  0.00     0.345 HD
ENDBRANCH   7  26
ENDBRANCH   6   7
ENDBRANCH   3   6
ENDBRANCH   1   2
BRANCH   1  30
ATOM     30  C   UNL A   1      31.449  32.184  26.691  1.00  0.00     0.042 C 
BRANCH  30  31
ATOM     31  C   UNL A   1      32.733  32.755  27.250  1.00  0.00     0.118 C 
BRANCH  31  32
ATOM     32  N   UNL A   1      32.584  34.135  27.668  1.00  0.00    -0.352 N 
ATOM     33  C   UNL A   1      33.199  34.816  28.684  1.00  0.00     0.251 C 
ATOM     34  H   UNL A   1      31.942  34.664  27.141  1.00  0.00     0.163 HD
ATOM     35  O   UNL A   1      32.755  35.923  29.002  1.00  0.00    -0.269 OA
BRANCH  33  36
ATOM     36  C   UNL A   1      34.352  34.236  29.410  1.00  0.00     0.039 A 
ATOM     37  C   UNL A   1      34.106  33.465  30.548  1.00  0.00     0.014 A 
ATOM     38  C   UNL A   1      35.671  34.465  29.004  1.00  0.00     0.014 A 
ATOM     39  C   UNL A   1      35.171  32.892  31.245  1.00  0.00     0.010 A 
ATOM     40  C   UNL A   1      36.722  33.803  29.631  1.00  0.00     0.010 A 
ATOM     41  C   UNL A   1      36.487  33.027  30.773  1.00  0.00    -0.014 A 
BRANCH  41  42
ATOM     42  C   UNL A   1      37.627  32.394  31.483  1.00  0.00     0.031 A 
ATOM     43  C   UNL A   1      38.380  31.261  30.836  1.00  0.00     0.074 A 
ATOM     44  C   UNL A   1      37.957  32.812  32.721  1.00  0.00     0.049 A 
ATOM     45  N   UNL A   1      39.367  30.544  31.311  1.00  0.00    -0.248 NA
ATOM     46  C   UNL A   1      37.947  30.859  29.488  1.00  0.00     0.031 C 
ATOM     47  C   UNL A   1      37.272  33.874  33.464  1.00  0.00     0.029 A 
ATOM     48  N   UNL A   1      38.947  32.398  33.576  1.00  0.00    -0.354 N 
ATOM     49  C   UNL A   1      39.660  29.602  30.329  1.00  0.00     0.074 A 
ATOM     50  C   UNL A   1      38.703  29.796  29.262  1.00  0.00     0.031 C 
ATOM     51  C   UNL A   1      37.886  34.053  34.643  1.00  0.00     0.029 A 
ATOM     52  C   UNL A   1      38.970  33.085  34.770  1.00  0.00     0.049 A 
ATOM     53  H   UNL A   1      39.581  31.678  33.358  1.00  0.00     0.167 HD
ATOM     54  C   UNL A   1      40.654  28.681  30.309  1.00  0.00     0.034 A 
ATOM     55  C   UNL A   1      39.767  32.940  35.847  1.00  0.00     0.034 A 
ATOM     56  C   UNL A   1      41.609  28.514  31.376  1.00  0.00     0.049 A 
ATOM     57  C   UNL A   1      40.846  31.888  35.811  1.00  0.00     0.074 A 
ATOM     58  C   UNL A   1      42.689  27.652  31.439  1.00  0.00     0.029 A 
ATOM     59  N   UNL A   1      41.597  29.222  32.573  1.00  0.00    -0.354 N 
ATOM     60  N   UNL A   1      41.143  31.040  34.852  1.00  0.00    -0.248 NA
ATOM     61  C   UNL A   1      41.704  31.779  36.997  1.00  0.00     0.031 C 
ATOM     62  C   UNL A   1      43.280  27.782  32.700  1.00  0.00     0.029 A 
ATOM     63  C   UNL A   1      42.627  28.789  33.392  1.00  0.00     0.049 A 
ATOM     64  H   UNL A   1      40.949  29.928  32.804  1.00  0.00     0.167 HD
ATOM     65  C   UNL A   1      42.246  30.323  35.309  1.00  0.00     0.074 A 
ATOM     66  C   UNL A   1      42.569  30.850  36.618  1.00  0.00     0.031 C 
ATOM     67  C   UNL A   1      42.932  29.321  34.699  1.00  0.00     0.034 A 
BRANCH  54  68
ATOM     68  C   UNL A   1      40.738  27.768  29.107  1.00  0.00     0.023 A 
ATOM     69  C   UNL A   1      41.684  27.971  28.086  1.00  0.00     0.031 A 
ATOM     70  C   UNL A   1      39.851  26.685  28.973  1.00  0.00     0.131 A 
ATOM     71  C   UNL A   1      41.676  27.151  26.948  1.00  0.00     0.055 A 
ATOM     72  C   UNL A   1      39.903  25.821  27.877  1.00  0.00     0.041 A 
ATOM     73  F   UNL A   1      38.911  26.453  29.902  1.00  0.00    -0.206 F 
ATOM     74  C   UNL A   1      40.810  26.059  26.850  1.00  0.00     0.022 A 
BRANCH  71  75
ATOM     75  S   UNL A   1      42.717  27.614  25.538  1.00  0.00     0.124 S 
ATOM     76  O   UNL A   1      42.653  26.408  24.715  1.00  0.00    -0.237 OA
ATOM     77  O   UNL A   1      42.029  28.785  25.007  1.00  0.00    -0.237 OA
ATOM     78  O   UNL A   1      44.021  27.876  26.144  1.00  0.00    -0.744 OA
ENDBRANCH  71  75
ENDBRANCH  54  68
BRANCH  55  79
ATOM     79  C   UNL A   1      39.575  33.797  37.054  1.00  0.00     0.023 A 
ATOM     80  C   UNL A   1      38.977  33.285  38.216  1.00  0.00     0.031 A 
ATOM     81  C   UNL A   1      39.940  35.155  37.046  1.00  0.00     0.131 A 
ATOM     82  C   UNL A   1      38.709  34.138  39.300  1.00  0.00     0.055 A 
ATOM     83  C   UNL A   1      39.729  35.984  38.150  1.00  0.00     0.041 A 
ATOM     84  F   UNL A   1      40.519  35.697  35.962  1.00  0.00    -0.206 F 
ATOM     85  C   UNL A   1      39.095  35.479  39.280  1.00  0.00     0.022 A 
BRANCH  82  86
ATOM     86  S   UNL A   1      37.752  33.489  40.697  1.00  0.00     0.124 S 
ATOM     87  O   UNL A   1      37.754  34.625  41.611  1.00  0.00    -0.237 OA
ATOM     88  O   UNL A   1      36.474  33.173  40.068  1.00  0.00    -0.237 OA
ATOM     89  O   UNL A   1      38.531  32.333  41.135  1.00  0.00    -0.744 OA
ENDBRANCH  82  86
ENDBRANCH  55  79
BRANCH  67  90
ATOM     90  C   UNL A   1      44.132  28.770  35.430  1.00  0.00     0.023 A 
ATOM     91  C   UNL A   1      44.020  27.714  36.351  1.00  0.00     0.031 A 
ATOM     92  C   UNL A   1      45.407  29.319  35.205  1.00  0.00     0.131 A 
ATOM     93  C   UNL A   1      45.152  27.282  37.058  1.00  0.00     0.055 A 
ATOM     94  C   UNL A   1      46.541  28.839  35.860  1.00  0.00     0.041 A 
ATOM     95  F   UNL A   1      45.573  30.332  34.339  1.00  0.00    -0.206 F 
ATOM     96  C   UNL A   1      46.415  27.824  36.804  1.00  0.00     0.022 A 
BRANCH  93  97
ATOM     97  S   UNL A   1      44.937  26.070  38.390  1.00  0.00     0.124 S 
ATOM     98  O   UNL A   1      46.310  25.642  38.635  1.00  0.00    -0.237 OA
ATOM     99  O   UNL A   1      44.321  26.869  39.444  1.00  0.00    -0.237 OA
ATOM    100  O   UNL A   1      44.068  25.056  37.793  1.00  0.00    -0.744 OA
ENDBRANCH  93  97
ENDBRANCH  67  90
ENDBRANCH  41  42
ENDBRANCH  33  36
ENDBRANCH  31  32
ENDBRANCH  30  31
ENDBRANCH   1  30
TORSDOF 19
ENDMDL
MODEL 2
REMARK VINA RESULT:     -11.7      1.674      2.202
REMARK SMILES C[C@@H](NC(=O)[C@@H]([NH3+])CC(=O)NCCCNC(=O)c1ccc(-c2c3nc(c(-c4cc(S(=O)(=O)[O-])ccc4F)c4ccc([nH]4)c(-c4cc(S(=O)(=O)[O-])ccc4F)c4nc(c(-c5cc(S(=O)(=O)[O-])ccc5F)c5ccc2[nH]5)C=C4)C=C3)cc1)C(=O)NC1C(C)(C)SC1(C)C
REMARK SMILES IDX 12 1 11 2 9 3 10 4 8 6 6 7 4 8 3 9 5 11 2 12 1 13 81 14
REMARK SMILES IDX 82 15 83 16 84 18 85 19 89 20 86 21 87 22 88 23 90 24 91 25
REMARK SMILES IDX 7 26 13 30 14 31 15 32 16 33 17 35 18 36 19 37 80 38 20 39
REMARK SMILES IDX 79 40 21 41 22 42 23 43 73 44 24 45 78 46 72 47 74 48 25 49
REMARK SMILES IDX 77 50 71 51 70 52 26 54 58 55 38 56 57 57 39 58 42 59 56 60
REMARK SMILES IDX 75 61 40 62 41 63 55 65 76 66 43 67 27 68 28 69 36 70 29 71
REMARK SMILES IDX 35 72 37 73 34 74 30 75 31 76 32 77 33 78 59 79 60 80 68 81
REMARK SMILES IDX 61 82 67 83 69 84 66 85 62 86 63 87 64 88 65 89 44 90 45 91
REMARK SMILES IDX 53 92 46 93 52 94 54 95 51 96 47 97 48 98 49 99 50 100
REMARK H PARENT 11 5 3 10 83 17 7 27 7 28 7 29 15 34 74 53 42 64
REMARK Flexibility Score: inf
ROOT
ATOM      1  C   UNL A   1      31.364  30.830  25.791  1.00  0.00     0.117 C 
ENDROOT
BRANCH   1   2
ATOM      2  N   UNL A   1      32.668  30.211  25.927  1.00  0.00    -0.356 N 
ATOM      3  C   UNL A   1      33.063  28.958  25.577  1.00  0.00     0.226 C 
ATOM      4  O   UNL A   1      34.199  28.586  25.867  1.00  0.00    -0.275 OA
ATOM      5  H   UNL A   1      33.366  30.777  26.329  1.00  0.00     0.163 HD
BRANCH   3   6
ATOM      6  C   UNL A   1      32.099  28.043  24.865  1.00  0.00     0.175 C 
BRANCH   6   7
ATOM      7  C   UNL A   1      32.532  27.870  23.418  1.00  0.00     0.280 C 
BRANCH   7   8
ATOM      8  C   UNL A   1      31.525  27.160  22.475  1.00  0.00     0.279 C 
ATOM      9  N   UNL A   1      31.507  25.841  22.158  1.00  0.00    -0.339 N 
ATOM     10  H   UNL A   1      30.802  25.582  21.522  1.00  0.00     0.164 HD
ATOM     11  O   UNL A   1      30.593  27.819  21.997  1.00  0.00    -0.268 OA
BRANCH   9  12
ATOM     12  C   UNL A   1      32.354  24.744  22.601  1.00  0.00     0.168 C 
ATOM     13  C   UNL A   1      33.183  24.172  21.450  1.00  0.00     0.041 C 
BRANCH  12  14
ATOM     14  C   UNL A   1      31.522  23.640  23.256  1.00  0.00     0.242 C 
ATOM     15  O   UNL A   1      30.289  23.694  23.252  1.00  0.00    -0.273 OA
ATOM     16  N   UNL A   1      32.128  22.606  23.932  1.00  0.00    -0.349 N 
ATOM     17  H   UNL A   1      31.663  21.739  23.880  1.00  0.00     0.163 HD
BRANCH  16  18
ATOM     18  C   UNL A   1      33.389  22.610  24.730  1.00  0.00     0.113 C 
ATOM     19  C   UNL A   1      33.104  23.301  26.124  1.00  0.00     0.032 C 
ATOM     20  C   UNL A   1      33.962  21.262  25.384  1.00  0.00     0.032 C 
ATOM     21  C   UNL A   1      33.554  24.758  26.121  1.00  0.00     0.025 C 
ATOM     22  C   UNL A   1      31.705  23.162  26.730  1.00  0.00     0.025 C 
ATOM     23  S   UNL A   1      34.279  22.206  26.962  1.00  0.00    -0.145 SA
ATOM     24  C   UNL A   1      33.071  20.052  25.661  1.00  0.00     0.025 C 
ATOM     25  C   UNL A   1      35.329  20.782  24.869  1.00  0.00     0.025 C 
ENDBRANCH  16  18
ENDBRANCH  12  14
ENDBRANCH   9  12
ENDBRANCH   7   8
BRANCH   7  26
ATOM     26  N   UNL A   1      32.926  29.183  22.873  1.00  0.00    -0.347 N 
ATOM     27  H   UNL A   1      33.457  29.698  23.576  1.00  0.00     0.345 HD
ATOM     28  H   UNL A   1      32.090  29.711  22.622  1.00  0.00     0.345 HD
ATOM     29  H   UNL A   1      33.503  29.047  22.044  1.00  0.00     0.345 HD
ENDBRANCH   7  26
ENDBRANCH   6   7
ENDBRANCH   3   6
ENDBRANCH   1   2
BRANCH   1  30
ATOM     30  C   UNL A   1      31.308  32.151  26.541  1.00  0.00     0.042 C 
BRANCH  30  31
ATOM     31  C   UNL A   1      32.599  32.543  27.225  1.00  0.00     0.118 C 
BRANCH  31  32
ATOM     32  N   UNL A   1      32.623  33.946  27.589  1.00  0.00    -0.352 N 
ATOM     33  C   UNL A   1      33.355  34.591  28.550  1.00  0.00     0.251 C 
ATOM     34  H   UNL A   1      32.021  34.524  27.066  1.00  0.00     0.163 HD
ATOM     35  O   UNL A   1      33.051  35.752  28.838  1.00  0.00    -0.269 OA
BRANCH  33  36
ATOM     36  C   UNL A   1      34.468  33.913  29.252  1.00  0.00     0.039 A 
ATOM     37  C   UNL A   1      35.776  34.315  28.973  1.00  0.00     0.014 A 
ATOM     38  C   UNL A   1      34.245  32.870  30.156  1.00  0.00     0.014 A 
ATOM     39  C   UNL A   1      36.848  33.706  29.629  1.00  0.00     0.010 A 
ATOM     40  C   UNL A   1      35.302  32.343  30.892  1.00  0.00     0.010 A 
ATOM     41  C   UNL A   1      36.618  32.738  30.621  1.00  0.00    -0.014 A 
BRANCH  41  42
ATOM     42  C   UNL A   1      37.745  32.106  31.354  1.00  0.00     0.031 A 
ATOM     43  C   UNL A   1      38.543  31.007  30.704  1.00  0.00     0.074 A 
ATOM     44  C   UNL A   1      38.020  32.495  32.615  1.00  0.00     0.049 A 
ATOM     45  N   UNL A   1      39.526  30.296  31.194  1.00  0.00    -0.248 NA
ATOM     46  C   UNL A   1      38.167  30.636  29.330  1.00  0.00     0.031 C 
ATOM     47  C   UNL A   1      37.288  33.522  33.361  1.00  0.00     0.029 A 
ATOM     48  N   UNL A   1      38.987  32.076  33.494  1.00  0.00    -0.354 N 
ATOM     49  C   UNL A   1      39.874  29.388  30.198  1.00  0.00     0.074 A 
ATOM     50  C   UNL A   1      38.952  29.595  29.103  1.00  0.00     0.031 C 
ATOM     51  C   UNL A   1      37.855  33.678  34.567  1.00  0.00     0.029 A 
ATOM     52  C   UNL A   1      38.954  32.728  34.707  1.00  0.00     0.049 A 
ATOM     53  H   UNL A   1      39.643  31.374  33.279  1.00  0.00     0.167 HD
ATOM     54  C   UNL A   1      40.886  28.487  30.188  1.00  0.00     0.034 A 
ATOM     55  C   UNL A   1      39.713  32.568  35.808  1.00  0.00     0.034 A 
ATOM     56  C   UNL A   1      41.805  28.308  31.285  1.00  0.00     0.049 A 
ATOM     57  C   UNL A   1      40.814  31.537  35.782  1.00  0.00     0.074 A 
ATOM     58  C   UNL A   1      42.899  27.466  31.363  1.00  0.00     0.029 A 
ATOM     59  N   UNL A   1      41.735  28.981  32.500  1.00  0.00    -0.354 N 
ATOM     60  N   UNL A   1      41.163  30.724  34.811  1.00  0.00    -0.248 NA
ATOM     61  C   UNL A   1      41.631  31.411  36.995  1.00  0.00     0.031 C 
ATOM     62  C   UNL A   1      43.442  27.570  32.648  1.00  0.00     0.029 A 
ATOM     63  C   UNL A   1      42.744  28.545  33.344  1.00  0.00     0.049 A 
ATOM     64  H   UNL A   1      41.066  29.667  32.727  1.00  0.00     0.167 HD
ATOM     65  C   UNL A   1      42.262  30.015  35.287  1.00  0.00     0.074 A 
ATOM     66  C   UNL A   1      42.528  30.510  36.622  1.00  0.00     0.031 C 
ATOM     67  C   UNL A   1      42.990  29.045  34.676  1.00  0.00     0.034 A 
BRANCH  54  68
ATOM     68  C   UNL A   1      41.032  27.611  28.965  1.00  0.00     0.023 A 
ATOM     69  C   UNL A   1      42.018  27.855  27.992  1.00  0.00     0.031 A 
ATOM     70  C   UNL A   1      40.165  26.523  28.762  1.00  0.00     0.131 A 
ATOM     71  C   UNL A   1      42.068  27.068  26.831  1.00  0.00     0.055 A 
ATOM     72  C   UNL A   1      40.274  25.692  27.645  1.00  0.00     0.041 A 
ATOM     73  F   UNL A   1      39.189  26.253  29.643  1.00  0.00    -0.206 F 
ATOM     74  C   UNL A   1      41.221  25.971  26.664  1.00  0.00     0.022 A 
BRANCH  71  75
ATOM     75  S   UNL A   1      43.162  27.584  25.480  1.00  0.00     0.124 S 
ATOM     76  O   UNL A   1      42.225  28.257  24.583  1.00  0.00    -0.237 OA
ATOM     77  O   UNL A   1      44.122  28.444  26.162  1.00  0.00    -0.237 OA
ATOM     78  O   UNL A   1      43.701  26.324  24.974  1.00  0.00    -0.744 OA
ENDBRANCH  71  75
ENDBRANCH  54  68
BRANCH  55  79
ATOM     79  C   UNL A   1      39.461  33.385  37.030  1.00  0.00     0.023 A 
ATOM     80  C   UNL A   1      40.147  34.591  37.248  1.00  0.00     0.031 A 
ATOM     81  C   UNL A   1      38.568  32.948  38.025  1.00  0.00     0.131 A 
ATOM     82  C   UNL A   1      39.972  35.288  38.455  1.00  0.00     0.055 A 
ATOM     83  C   UNL A   1      38.350  33.678  39.195  1.00  0.00     0.041 A 
ATOM     84  F   UNL A   1      37.882  31.804  37.868  1.00  0.00    -0.206 F 
ATOM     85  C   UNL A   1      39.067  34.848  39.423  1.00  0.00     0.022 A 
BRANCH  82  86
ATOM     86  S   UNL A   1      41.026  36.726  38.785  1.00  0.00     0.124 S 
ATOM     87  O   UNL A   1      41.771  36.284  39.959  1.00  0.00    -0.237 OA
ATOM     88  O   UNL A   1      41.788  36.834  37.546  1.00  0.00    -0.237 OA
ATOM     89  O   UNL A   1      40.068  37.803  39.021  1.00  0.00    -0.744 OA
ENDBRANCH  82  86
ENDBRANCH  55  79
BRANCH  67  90
ATOM     90  C   UNL A   1      44.175  28.496  35.434  1.00  0.00     0.023 A 
ATOM     91  C   UNL A   1      44.036  27.472  36.387  1.00  0.00     0.031 A 
ATOM     92  C   UNL A   1      45.461  29.014  35.202  1.00  0.00     0.131 A 
ATOM     93  C   UNL A   1      45.154  27.043  37.118  1.00  0.00     0.055 A 
ATOM     94  C   UNL A   1      46.581  28.535  35.882  1.00  0.00     0.041 A 
ATOM     95  F   UNL A   1      45.652  29.995  34.306  1.00  0.00    -0.206 F 
ATOM     96  C   UNL A   1      46.428  27.554  36.857  1.00  0.00     0.022 A 
BRANCH  93  97
ATOM     97  S   UNL A   1      44.905  25.879  38.486  1.00  0.00     0.124 S 
ATOM     98  O   UNL A   1      43.722  26.428  39.140  1.00  0.00    -0.237 OA
ATOM     99  O   UNL A   1      44.715  24.612  37.788  1.00  0.00    -0.237 OA
ATOM    100  O   UNL A   1      46.144  25.983  39.255  1.00  0.00    -0.744 OA
ENDBRANCH  93  97
ENDBRANCH  67  90
ENDBRANCH  41  42
ENDBRANCH  33  36
ENDBRANCH  31  32
ENDBRANCH  30  31
ENDBRANCH   1  30
TORSDOF 19
ENDMDL
MODEL 3
REMARK VINA RESULT:     -11.6      5.975     11.807
REMARK SMILES C[C@@H](NC(=O)[C@@H]([NH3+])CC(=O)NCCCNC(=O)c1ccc(-c2c3nc(c(-c4cc(S(=O)(=O)[O-])ccc4F)c4ccc([nH]4)c(-c4cc(S(=O)(=O)[O-])ccc4F)c4nc(c(-c5cc(S(=O)(=O)[O-])ccc5F)c5ccc2[nH]5)C=C4)C=C3)cc1)C(=O)NC1C(C)(C)SC1(C)C
REMARK SMILES IDX 12 1 11 2 9 3 10 4 8 6 6 7 4 8 3 9 5 11 2 12 1 13 81 14
REMARK SMILES IDX 82 15 83 16 84 18 85 19 89 20 86 21 87 22 88 23 90 24 91 25
REMARK SMILES IDX 7 26 13 30 14 31 15 32 16 33 17 35 18 36 19 37 80 38 20 39
REMARK SMILES IDX 79 40 21 41 22 42 23 43 73 44 24 45 78 46 72 47 74 48 25 49
REMARK SMILES IDX 77 50 71 51 70 52 26 54 58 55 38 56 57 57 39 58 42 59 56 60
REMARK SMILES IDX 75 61 40 62 41 63 55 65 76 66 43 67 27 68 28 69 36 70 29 71
REMARK SMILES IDX 35 72 37 73 34 74 30 75 31 76 32 77 33 78 59 79 60 80 68 81
REMARK SMILES IDX 61 82 67 83 69 84 66 85 62 86 63 87 64 88 65 89 44 90 45 91
REMARK SMILES IDX 53 92 46 93 52 94 54 95 51 96 47 97 48 98 49 99 50 100
REMARK H PARENT 11 5 3 10 83 17 7 27 7 28 7 29 15 34 74 53 42 64
REMARK Flexibility Score: inf
ROOT
ATOM      1  C   UNL A   1      37.826  20.901  25.018  1.00  0.00     0.117 C 
ENDROOT
BRANCH   1   2
ATOM      2  N   UNL A   1      37.098  22.027  25.571  1.00  0.00    -0.356 N 
ATOM      3  C   UNL A   1      35.819  22.422  25.332  1.00  0.00     0.226 C 
ATOM      4  O   UNL A   1      35.414  23.472  25.831  1.00  0.00    -0.275 OA
ATOM      5  H   UNL A   1      37.600  22.584  26.209  1.00  0.00     0.163 HD
BRANCH   3   6
ATOM      6  C   UNL A   1      34.932  21.585  24.446  1.00  0.00     0.175 C 
BRANCH   6   7
ATOM      7  C   UNL A   1      34.233  20.523  25.279  1.00  0.00     0.280 C 
BRANCH   7   8
ATOM      8  C   UNL A   1      32.684  20.592  25.330  1.00  0.00     0.279 C 
ATOM      9  N   UNL A   1      31.939  21.523  25.977  1.00  0.00    -0.339 N 
ATOM     10  H   UNL A   1      30.966  21.386  25.913  1.00  0.00     0.164 HD
ATOM     11  O   UNL A   1      32.031  19.772  24.674  1.00  0.00    -0.268 OA
BRANCH   9  12
ATOM     12  C   UNL A   1      32.334  22.690  26.751  1.00  0.00     0.168 C 
ATOM     13  C   UNL A   1      33.008  22.293  28.066  1.00  0.00     0.041 C 
BRANCH  12  14
ATOM     14  C   UNL A   1      31.134  23.599  27.023  1.00  0.00     0.242 C 
ATOM     15  O   UNL A   1      30.041  23.121  27.340  1.00  0.00    -0.273 OA
ATOM     16  N   UNL A   1      31.224  24.960  26.842  1.00  0.00    -0.349 N 
ATOM     17  H   UNL A   1      30.684  25.504  27.461  1.00  0.00     0.163 HD
BRANCH  16  18
ATOM     18  C   UNL A   1      32.023  25.729  25.844  1.00  0.00     0.113 C 
ATOM     19  C   UNL A   1      31.115  26.017  24.581  1.00  0.00     0.032 C 
ATOM     20  C   UNL A   1      32.384  27.273  26.082  1.00  0.00     0.032 C 
ATOM     21  C   UNL A   1      31.392  25.019  23.462  1.00  0.00     0.025 C 
ATOM     22  C   UNL A   1      29.609  26.195  24.796  1.00  0.00     0.025 C 
ATOM     23  S   UNL A   1      31.918  27.618  24.308  1.00  0.00    -0.145 SA
ATOM     24  C   UNL A   1      31.572  28.161  27.024  1.00  0.00     0.025 C 
ATOM     25  C   UNL A   1      33.878  27.611  26.224  1.00  0.00     0.025 C 
ENDBRANCH  16  18
ENDBRANCH  12  14
ENDBRANCH   9  12
ENDBRANCH   7   8
BRANCH   7  26
ATOM     26  N   UNL A   1      34.685  19.189  24.836  1.00  0.00    -0.347 N 
ATOM     27  H   UNL A   1      35.449  19.293  24.168  1.00  0.00     0.345 HD
ATOM     28  H   UNL A   1      33.908  18.698  24.392  1.00  0.00     0.345 HD
ATOM     29  H   UNL A   1      35.008  18.655  25.642  1.00  0.00     0.345 HD
ENDBRANCH   7  26
ENDBRANCH   6   7
ENDBRANCH   3   6
ENDBRANCH   1   2
BRANCH   1  30
ATOM     30  C   UNL A   1      39.301  20.977  25.376  1.00  0.00     0.042 C 
BRANCH  30  31
ATOM     31  C   UNL A   1      39.722  20.068  26.508  1.00  0.00     0.118 C 
BRANCH  31  32
ATOM     32  N   UNL A   1      40.856  19.236  26.152  1.00  0.00    -0.352 N 
ATOM     33  C   UNL A   1      42.158  19.584  25.914  1.00  0.00     0.251 C 
ATOM     34  H   UNL A   1      40.658  18.275  26.067  1.00  0.00     0.163 HD
ATOM     35  O   UNL A   1      42.906  18.743  25.405  1.00  0.00    -0.269 OA
BRANCH  33  36
ATOM     36  C   UNL A   1      42.662  20.940  26.230  1.00  0.00     0.039 A 
ATOM     37  C   UNL A   1      42.942  21.810  25.174  1.00  0.00     0.014 A 
ATOM     38  C   UNL A   1      42.890  21.355  27.545  1.00  0.00     0.014 A 
ATOM     39  C   UNL A   1      43.404  23.101  25.438  1.00  0.00     0.010 A 
ATOM     40  C   UNL A   1      43.240  22.675  27.812  1.00  0.00     0.010 A 
ATOM     41  C   UNL A   1      43.525  23.557  26.762  1.00  0.00    -0.014 A 
BRANCH  41  42
ATOM     42  C   UNL A   1      43.980  24.939  27.060  1.00  0.00     0.031 A 
ATOM     43  C   UNL A   1      43.009  25.946  27.619  1.00  0.00     0.074 A 
ATOM     44  C   UNL A   1      45.252  25.294  26.792  1.00  0.00     0.049 A 
ATOM     45  N   UNL A   1      43.196  27.211  27.896  1.00  0.00    -0.248 NA
ATOM     46  C   UNL A   1      41.636  25.478  27.870  1.00  0.00     0.031 C 
ATOM     47  C   UNL A   1      46.270  24.413  26.213  1.00  0.00     0.029 A 
ATOM     48  N   UNL A   1      45.909  26.485  26.968  1.00  0.00    -0.354 N 
ATOM     49  C   UNL A   1      41.967  27.690  28.338  1.00  0.00     0.074 A 
ATOM     50  C   UNL A   1      41.027  26.597  28.229  1.00  0.00     0.031 C 
ATOM     51  C   UNL A   1      47.429  25.082  26.117  1.00  0.00     0.029 A 
ATOM     52  C   UNL A   1      47.229  26.454  26.574  1.00  0.00     0.049 A 
ATOM     53  H   UNL A   1      45.479  27.288  27.341  1.00  0.00     0.167 HD
ATOM     54  C   UNL A   1      41.659  28.920  28.819  1.00  0.00     0.034 A 
ATOM     55  C   UNL A   1      48.164  27.424  26.570  1.00  0.00     0.034 A 
ATOM     56  C   UNL A   1      42.616  29.992  28.935  1.00  0.00     0.049 A 
ATOM     57  C   UNL A   1      47.788  28.791  27.081  1.00  0.00     0.074 A 
ATOM     58  C   UNL A   1      42.430  31.260  29.457  1.00  0.00     0.029 A 
ATOM     59  N   UNL A   1      43.941  29.926  28.519  1.00  0.00    -0.354 N 
ATOM     60  N   UNL A   1      46.634  29.212  27.546  1.00  0.00    -0.248 NA
ATOM     61  C   UNL A   1      48.844  29.811  27.079  1.00  0.00     0.031 C 
ATOM     62  C   UNL A   1      43.614  31.983  29.286  1.00  0.00     0.029 A 
ATOM     63  C   UNL A   1      44.571  31.141  28.740  1.00  0.00     0.049 A 
ATOM     64  H   UNL A   1      44.369  29.132  28.124  1.00  0.00     0.167 HD
ATOM     65  C   UNL A   1      46.838  30.537  27.923  1.00  0.00     0.074 A 
ATOM     66  C   UNL A   1      48.227  30.837  27.648  1.00  0.00     0.031 C 
ATOM     67  C   UNL A   1      45.957  31.425  28.452  1.00  0.00     0.034 A 
BRANCH  54  68
ATOM     68  C   UNL A   1      40.226  29.175  29.226  1.00  0.00     0.023 A 
ATOM     69  C   UNL A   1      39.824  29.153  30.573  1.00  0.00     0.031 A 
ATOM     70  C   UNL A   1      39.245  29.431  28.252  1.00  0.00     0.131 A 
ATOM     71  C   UNL A   1      38.469  29.313  30.904  1.00  0.00     0.055 A 
ATOM     72  C   UNL A   1      37.912  29.673  28.594  1.00  0.00     0.041 A 
ATOM     73  F   UNL A   1      39.562  29.441  26.948  1.00  0.00    -0.206 F 
ATOM     74  C   UNL A   1      37.515  29.601  29.925  1.00  0.00     0.022 A 
BRANCH  71  75
ATOM     75  S   UNL A   1      37.951  29.002  32.613  1.00  0.00     0.124 S 
ATOM     76  O   UNL A   1      38.948  29.761  33.366  1.00  0.00    -0.237 OA
ATOM     77  O   UNL A   1      36.594  29.535  32.635  1.00  0.00    -0.237 OA
ATOM     78  O   UNL A   1      38.055  27.551  32.745  1.00  0.00    -0.744 OA
ENDBRANCH  71  75
ENDBRANCH  54  68
BRANCH  55  79
ATOM     79  C   UNL A   1      49.539  27.150  26.057  1.00  0.00     0.023 A 
ATOM     80  C   UNL A   1      49.909  27.511  24.752  1.00  0.00     0.031 A 
ATOM     81  C   UNL A   1      50.488  26.477  26.847  1.00  0.00     0.131 A 
ATOM     82  C   UNL A   1      51.172  27.148  24.256  1.00  0.00     0.055 A 
ATOM     83  C   UNL A   1      51.765  26.174  26.371  1.00  0.00     0.041 A 
ATOM     84  F   UNL A   1      50.189  26.111  28.104  1.00  0.00    -0.206 F 
ATOM     85  C   UNL A   1      52.107  26.496  25.062  1.00  0.00     0.022 A 
BRANCH  82  86
ATOM     86  S   UNL A   1      51.534  27.449  22.505  1.00  0.00     0.124 S 
ATOM     87  O   UNL A   1      50.377  26.845  21.854  1.00  0.00    -0.237 OA
ATOM     88  O   UNL A   1      51.610  28.905  22.457  1.00  0.00    -0.237 OA
ATOM     89  O   UNL A   1      52.802  26.754  22.296  1.00  0.00    -0.744 OA
ENDBRANCH  82  86
ENDBRANCH  55  79
BRANCH  67  90
ATOM     90  C   UNL A   1      46.493  32.789  28.814  1.00  0.00     0.023 A 
ATOM     91  C   UNL A   1      46.418  33.875  27.925  1.00  0.00     0.031 A 
ATOM     92  C   UNL A   1      47.096  33.000  30.067  1.00  0.00     0.131 A 
ATOM     93  C   UNL A   1      46.993  35.106  28.276  1.00  0.00     0.055 A 
ATOM     94  C   UNL A   1      47.603  34.245  30.438  1.00  0.00     0.041 A 
ATOM     95  F   UNL A   1      47.198  31.998  30.954  1.00  0.00    -0.206 F 
ATOM     96  C   UNL A   1      47.567  35.303  29.535  1.00  0.00     0.022 A 
BRANCH  93  97
ATOM     97  S   UNL A   1      47.070  36.419  27.028  1.00  0.00     0.124 S 
ATOM     98  O   UNL A   1      46.036  37.339  27.492  1.00  0.00    -0.237 OA
ATOM     99  O   UNL A   1      48.445  36.892  27.155  1.00  0.00    -0.237 OA
ATOM    100  O   UNL A   1      46.767  35.723  25.779  1.00  0.00    -0.744 OA
ENDBRANCH  93  97
ENDBRANCH  67  90
ENDBRANCH  41  42
ENDBRANCH  33  36
ENDBRANCH  31  32
ENDBRANCH  30  31
ENDBRANCH   1  30
TORSDOF 19
ENDMDL
