MODEL 1
REMARK VINA RESULT:     -13.2      0.000      0.000
REMARK SMILES O=C1NC(=O)/C(=C/c2ccc(OCc3cn(-c4ccc(C(=O)NCCCNC(=O)c5ccc(-c6c7nc(c(-c8cc(S(=O)(=O)[O-])ccc8F)c8ccc([nH]8)c(-c8cc(S(=O)(=O)[O-])ccc8F)c8nc(c(-c9cc(S(=O)(=O)[O-])ccc9F)c9ccc6[nH]9)C=C8)C=C7)cc5)cc4)nn3)cc2)S1
REMARK SMILES IDX 24 1 23 2 21 3 22 4 20 6 17 7 18 8 94 9 19 10 93 11 16 12
REMARK SMILES IDX 14 13 15 14 96 15 95 16 13 17 12 18 11 19 8 20 9 21 98 22
REMARK SMILES IDX 10 23 97 24 7 25 1 26 2 27 3 28 99 29 4 30 6 32 5 33 25 34
REMARK SMILES IDX 26 35 27 36 28 37 29 39 30 40 31 41 92 42 32 43 91 44 33 45
REMARK SMILES IDX 34 46 35 47 85 48 36 49 90 50 84 51 86 52 37 53 89 54 83 55
REMARK SMILES IDX 82 56 38 58 70 59 50 60 69 61 51 62 54 63 68 64 87 65 52 66
REMARK SMILES IDX 53 67 67 69 88 70 55 71 39 72 40 73 48 74 41 75 47 76 49 77
REMARK SMILES IDX 46 78 42 79 43 80 44 81 45 82 71 83 72 84 80 85 73 86 79 87
REMARK SMILES IDX 81 88 78 89 74 90 75 91 76 92 77 93 56 94 57 95 65 96 58 97
REMARK SMILES IDX 64 98 66 99 63 100 59 101 60 102 61 103 62 104
REMARK H PARENT 23 5 3 31 27 38 86 57 54 68
REMARK Flexibility Score: inf
ROOT
ATOM      1  C   UNL A   1      34.574  32.638  30.596  1.00  0.00     0.118 C 
ENDROOT
BRANCH   1   2
ATOM      2  N   UNL A   1      34.123  33.867  29.960  1.00  0.00    -0.352 N 
ATOM      3  C   UNL A   1      33.435  34.100  28.793  1.00  0.00     0.251 C 
ATOM      4  O   UNL A   1      33.113  35.257  28.529  1.00  0.00    -0.269 OA
ATOM      5  H   UNL A   1      34.355  34.685  30.458  1.00  0.00     0.163 HD
BRANCH   3   6
ATOM      6  C   UNL A   1      33.009  33.006  27.876  1.00  0.00     0.039 A 
ATOM      7  C   UNL A   1      32.000  30.939  26.282  1.00  0.00     0.066 A 
ATOM      8  C   UNL A   1      31.316  32.158  26.351  1.00  0.00     0.029 A 
ATOM      9  C   UNL A   1      33.216  30.775  26.934  1.00  0.00     0.029 A 
ATOM     10  C   UNL A   1      31.807  33.175  27.174  1.00  0.00     0.016 A 
ATOM     11  C   UNL A   1      33.736  31.831  27.672  1.00  0.00     0.016 A 
BRANCH   7  12
ATOM     12  N   UNL A   1      31.470  29.872  25.541  1.00  0.00    -0.220 N 
ATOM     13  C   UNL A   1      30.922  27.917  24.752  1.00  0.00     0.120 A 
ATOM     14  C   UNL A   1      31.584  28.522  25.795  1.00  0.00     0.144 A 
ATOM     15  N   UNL A   1      30.401  28.894  23.944  1.00  0.00    -0.131 NA
ATOM     16  N   UNL A   1      30.708  30.074  24.449  1.00  0.00    -0.062 NA
BRANCH  13  17
ATOM     17  C   UNL A   1      30.622  26.478  24.490  1.00  0.00     0.289 C 
BRANCH  17  18
ATOM     18  O   UNL A   1      30.618  25.617  25.642  1.00  0.00    -0.487 OA
BRANCH  18  19
ATOM     19  C   UNL A   1      31.259  24.410  25.559  1.00  0.00     0.119 A 
ATOM     20  C   UNL A   1      32.229  21.801  25.173  1.00  0.00    -0.024 A 
ATOM     21  C   UNL A   1      31.839  22.574  24.077  1.00  0.00     0.012 A 
ATOM     22  C   UNL A   1      32.224  22.376  26.445  1.00  0.00     0.012 A 
ATOM     23  C   UNL A   1      31.347  23.871  24.273  1.00  0.00     0.047 A 
ATOM     24  C   UNL A   1      31.778  23.686  26.627  1.00  0.00     0.047 A 
BRANCH  20  25
ATOM     25  C   UNL A   1      32.662  20.412  25.000  1.00  0.00     0.029 C 
ATOM     26  O   UNL A   1      37.629  19.555  24.850  1.00  0.00    -0.261 OA
ATOM     27  C   UNL A   1      36.401  19.529  24.852  1.00  0.00     0.290 C 
ATOM     28  N   UNL A   1      35.639  18.434  24.637  1.00  0.00    -0.282 N 
ATOM     29  S   UNL A   1      35.381  20.922  25.137  1.00  0.00    -0.022 SA
ATOM     30  C   UNL A   1      34.283  18.576  24.676  1.00  0.00     0.265 C 
ATOM     31  H   UNL A   1      36.051  17.559  24.457  1.00  0.00     0.174 HD
ATOM     32  C   UNL A   1      33.936  19.996  24.947  1.00  0.00     0.083 C 
ATOM     33  O   UNL A   1      33.482  17.676  24.496  1.00  0.00    -0.268 OA
ENDBRANCH  20  25
ENDBRANCH  18  19
ENDBRANCH  17  18
ENDBRANCH  13  17
ENDBRANCH   7  12
ENDBRANCH   3   6
ENDBRANCH   1   2
BRANCH   1  34
ATOM     34  C   UNL A   1      36.080  32.670  30.907  1.00  0.00     0.042 C 
BRANCH  34  35
ATOM     35  C   UNL A   1      36.705  31.300  30.786  1.00  0.00     0.118 C 
BRANCH  35  36
ATOM     36  N   UNL A   1      35.986  30.436  29.837  1.00  0.00    -0.352 N 
ATOM     37  C   UNL A   1      36.515  29.549  28.908  1.00  0.00     0.251 C 
ATOM     38  H   UNL A   1      35.004  30.494  29.864  1.00  0.00     0.163 HD
ATOM     39  O   UNL A   1      35.850  29.175  27.950  1.00  0.00    -0.269 OA
BRANCH  37  40
ATOM     40  C   UNL A   1      37.891  29.073  29.122  1.00  0.00     0.039 A 
ATOM     41  C   UNL A   1      38.252  28.087  30.042  1.00  0.00     0.014 A 
ATOM     42  C   UNL A   1      38.831  29.603  28.257  1.00  0.00     0.014 A 
ATOM     43  C   UNL A   1      39.572  27.632  30.026  1.00  0.00     0.010 A 
ATOM     44  C   UNL A   1      39.939  28.873  27.983  1.00  0.00     0.010 A 
ATOM     45  C   UNL A   1      40.409  28.045  28.979  1.00  0.00    -0.014 A 
BRANCH  45  46
ATOM     46  C   UNL A   1      41.785  27.623  28.799  1.00  0.00     0.031 A 
ATOM     47  C   UNL A   1      41.929  26.417  27.959  1.00  0.00     0.074 A 
ATOM     48  C   UNL A   1      42.827  28.434  29.106  1.00  0.00     0.049 A 
ATOM     49  N   UNL A   1      42.199  25.221  28.357  1.00  0.00    -0.248 NA
ATOM     50  C   UNL A   1      41.524  26.494  26.545  1.00  0.00     0.031 C 
ATOM     51  C   UNL A   1      42.824  29.808  29.631  1.00  0.00     0.029 A 
ATOM     52  N   UNL A   1      44.148  28.225  28.887  1.00  0.00    -0.354 N 
ATOM     53  C   UNL A   1      42.288  24.457  27.202  1.00  0.00     0.074 A 
ATOM     54  C   UNL A   1      41.609  25.211  26.183  1.00  0.00     0.031 C 
ATOM     55  C   UNL A   1      44.039  30.374  29.447  1.00  0.00     0.029 A 
ATOM     56  C   UNL A   1      44.954  29.360  28.956  1.00  0.00     0.049 A 
ATOM     57  H   UNL A   1      44.514  27.331  28.692  1.00  0.00     0.167 HD
ATOM     58  C   UNL A   1      43.162  23.416  27.123  1.00  0.00     0.034 A 
ATOM     59  C   UNL A   1      46.265  29.445  28.597  1.00  0.00     0.034 A 
ATOM     60  C   UNL A   1      43.690  23.084  28.432  1.00  0.00     0.049 A 
ATOM     61  C   UNL A   1      46.787  28.049  28.641  1.00  0.00     0.074 A 
ATOM     62  C   UNL A   1      43.116  22.749  29.645  1.00  0.00     0.029 A 
ATOM     63  N   UNL A   1      44.964  23.517  28.742  1.00  0.00    -0.354 N 
ATOM     64  N   UNL A   1      46.847  27.354  29.749  1.00  0.00    -0.248 NA
ATOM     65  C   UNL A   1      46.700  27.255  27.422  1.00  0.00     0.031 C 
ATOM     66  C   UNL A   1      43.843  23.515  30.609  1.00  0.00     0.029 A 
ATOM     67  C   UNL A   1      44.885  24.172  29.950  1.00  0.00     0.049 A 
ATOM     68  H   UNL A   1      45.776  23.382  28.202  1.00  0.00     0.167 HD
ATOM     69  C   UNL A   1      46.376  26.092  29.415  1.00  0.00     0.074 A 
ATOM     70  C   UNL A   1      46.372  26.069  27.949  1.00  0.00     0.031 C 
ATOM     71  C   UNL A   1      45.727  25.298  30.322  1.00  0.00     0.034 A 
BRANCH  58  72
ATOM     72  C   UNL A   1      43.834  22.945  25.855  1.00  0.00     0.023 A 
ATOM     73  C   UNL A   1      43.853  21.558  25.621  1.00  0.00     0.031 A 
ATOM     74  C   UNL A   1      44.681  23.720  25.030  1.00  0.00     0.131 A 
ATOM     75  C   UNL A   1      44.745  20.994  24.695  1.00  0.00     0.055 A 
ATOM     76  C   UNL A   1      45.515  23.160  24.059  1.00  0.00     0.041 A 
ATOM     77  F   UNL A   1      44.831  25.041  25.176  1.00  0.00    -0.206 F 
ATOM     78  C   UNL A   1      45.576  21.787  23.909  1.00  0.00     0.022 A 
BRANCH  75  79
ATOM     79  S   UNL A   1      44.929  19.194  24.674  1.00  0.00     0.124 S 
ATOM     80  O   UNL A   1      44.040  18.793  25.758  1.00  0.00    -0.237 OA
ATOM     81  O   UNL A   1      44.486  18.864  23.324  1.00  0.00    -0.237 OA
ATOM     82  O   UNL A   1      46.354  18.997  24.929  1.00  0.00    -0.744 OA
ENDBRANCH  75  79
ENDBRANCH  58  72
BRANCH  59  83
ATOM     83  C   UNL A   1      46.919  30.570  27.853  1.00  0.00     0.023 A 
ATOM     84  C   UNL A   1      46.203  31.579  27.169  1.00  0.00     0.031 A 
ATOM     85  C   UNL A   1      48.308  30.788  28.009  1.00  0.00     0.131 A 
ATOM     86  C   UNL A   1      46.875  32.730  26.676  1.00  0.00     0.055 A 
ATOM     87  C   UNL A   1      48.965  31.924  27.523  1.00  0.00     0.041 A 
ATOM     88  F   UNL A   1      49.071  29.940  28.716  1.00  0.00    -0.206 F 
ATOM     89  C   UNL A   1      48.249  32.905  26.860  1.00  0.00     0.022 A 
BRANCH  86  90
ATOM     90  S   UNL A   1      45.957  34.073  25.844  1.00  0.00     0.124 S 
ATOM     91  O   UNL A   1      45.400  34.812  26.971  1.00  0.00    -0.237 OA
ATOM     92  O   UNL A   1      47.001  34.745  25.080  1.00  0.00    -0.237 OA
ATOM     93  O   UNL A   1      44.968  33.362  25.031  1.00  0.00    -0.744 OA
ENDBRANCH  86  90
ENDBRANCH  59  83
BRANCH  71  94
ATOM     94  C   UNL A   1      45.702  25.716  31.786  1.00  0.00     0.023 A 
ATOM     95  C   UNL A   1      46.775  25.570  32.699  1.00  0.00     0.031 A 
ATOM     96  C   UNL A   1      44.576  26.436  32.226  1.00  0.00     0.131 A 
ATOM     97  C   UNL A   1      46.688  26.129  33.994  1.00  0.00     0.055 A 
ATOM     98  C   UNL A   1      44.503  27.005  33.498  1.00  0.00     0.041 A 
ATOM     99  F   UNL A   1      43.533  26.636  31.403  1.00  0.00    -0.206 F 
ATOM    100  C   UNL A   1      45.556  26.850  34.388  1.00  0.00     0.022 A 
BRANCH  97 101
ATOM    101  S   UNL A   1      48.038  25.919  35.205  1.00  0.00     0.124 S 
ATOM    102  O   UNL A   1      48.512  24.563  34.955  1.00  0.00    -0.237 OA
ATOM    103  O   UNL A   1      48.959  26.995  34.845  1.00  0.00    -0.237 OA
ATOM    104  O   UNL A   1      47.369  26.100  36.495  1.00  0.00    -0.744 OA
ENDBRANCH  97 101
ENDBRANCH  71  94
ENDBRANCH  45  46
ENDBRANCH  37  40
ENDBRANCH  35  36
ENDBRANCH  34  35
ENDBRANCH   1  34
TORSDOF 18
ENDMDL
MODEL 2
REMARK VINA RESULT:     -12.9      3.941     11.252
REMARK SMILES O=C1NC(=O)/C(=C/c2ccc(OCc3cn(-c4ccc(C(=O)NCCCNC(=O)c5ccc(-c6c7nc(c(-c8cc(S(=O)(=O)[O-])ccc8F)c8ccc([nH]8)c(-c8cc(S(=O)(=O)[O-])ccc8F)c8nc(c(-c9cc(S(=O)(=O)[O-])ccc9F)c9ccc6[nH]9)C=C8)C=C7)cc5)cc4)nn3)cc2)S1
REMARK SMILES IDX 24 1 23 2 21 3 22 4 20 6 17 7 18 8 94 9 19 10 93 11 16 12
REMARK SMILES IDX 14 13 15 14 96 15 95 16 13 17 12 18 11 19 8 20 9 21 98 22
REMARK SMILES IDX 10 23 97 24 7 25 1 26 2 27 3 28 99 29 4 30 6 32 5 33 25 34
REMARK SMILES IDX 26 35 27 36 28 37 29 39 30 40 31 41 92 42 32 43 91 44 33 45
REMARK SMILES IDX 34 46 35 47 85 48 36 49 90 50 84 51 86 52 37 53 89 54 83 55
REMARK SMILES IDX 82 56 38 58 70 59 50 60 69 61 51 62 54 63 68 64 87 65 52 66
REMARK SMILES IDX 53 67 67 69 88 70 55 71 39 72 40 73 48 74 41 75 47 76 49 77
REMARK SMILES IDX 46 78 42 79 43 80 44 81 45 82 71 83 72 84 80 85 73 86 79 87
REMARK SMILES IDX 81 88 78 89 74 90 75 91 76 92 77 93 56 94 57 95 65 96 58 97
REMARK SMILES IDX 64 98 66 99 63 100 59 101 60 102 61 103 62 104
REMARK H PARENT 23 5 3 31 27 38 86 57 54 68
REMARK Flexibility Score: inf
ROOT
ATOM      1  C   UNL A   1      44.688  24.420  25.543  1.00  0.00     0.118 C 
ENDROOT
BRANCH   1   2
ATOM      2  N   UNL A   1      44.858  24.060  26.942  1.00  0.00    -0.352 N 
ATOM      3  C   UNL A   1      44.092  23.302  27.796  1.00  0.00     0.251 C 
ATOM      4  O   UNL A   1      44.518  23.093  28.930  1.00  0.00    -0.269 OA
ATOM      5  H   UNL A   1      45.672  24.428  27.356  1.00  0.00     0.163 HD
BRANCH   3   6
ATOM      6  C   UNL A   1      42.807  22.672  27.383  1.00  0.00     0.039 A 
ATOM      7  C   UNL A   1      40.418  21.602  26.391  1.00  0.00     0.066 A 
ATOM      8  C   UNL A   1      41.628  21.305  25.753  1.00  0.00     0.029 A 
ATOM      9  C   UNL A   1      40.403  22.357  27.558  1.00  0.00     0.029 A 
ATOM     10  C   UNL A   1      42.813  21.868  26.234  1.00  0.00     0.016 A 
ATOM     11  C   UNL A   1      41.603  22.830  28.073  1.00  0.00     0.016 A 
BRANCH   7  12
ATOM     12  N   UNL A   1      39.207  21.128  25.865  1.00  0.00    -0.220 N 
ATOM     13  C   UNL A   1      37.148  20.884  25.196  1.00  0.00     0.120 A 
ATOM     14  C   UNL A   1      38.019  21.811  25.721  1.00  0.00     0.144 A 
ATOM     15  N   UNL A   1      37.830  19.710  25.003  1.00  0.00    -0.131 NA
ATOM     16  N   UNL A   1      39.085  19.879  25.377  1.00  0.00    -0.062 NA
BRANCH  13  17
ATOM     17  C   UNL A   1      35.733  21.021  24.741  1.00  0.00     0.289 C 
BRANCH  17  18
ATOM     18  O   UNL A   1      34.796  21.481  25.731  1.00  0.00    -0.487 OA
BRANCH  18  19
ATOM     19  C   UNL A   1      34.285  22.745  25.612  1.00  0.00     0.119 A 
ATOM     20  C   UNL A   1      33.641  25.473  25.417  1.00  0.00    -0.024 A 
ATOM     21  C   UNL A   1      34.593  24.915  24.562  1.00  0.00     0.012 A 
ATOM     22  C   UNL A   1      32.946  24.641  26.296  1.00  0.00     0.012 A 
ATOM     23  C   UNL A   1      34.919  23.556  24.668  1.00  0.00     0.047 A 
ATOM     24  C   UNL A   1      33.242  23.278  26.363  1.00  0.00     0.047 A 
BRANCH  20  25
ATOM     25  C   UNL A   1      33.348  26.908  25.385  1.00  0.00     0.029 C 
ATOM     26  O   UNL A   1      29.960  28.489  22.001  1.00  0.00    -0.261 OA
ATOM     27  C   UNL A   1      30.803  28.334  22.881  1.00  0.00     0.290 C 
ATOM     28  N   UNL A   1      31.389  29.326  23.589  1.00  0.00    -0.282 N 
ATOM     29  S   UNL A   1      31.419  26.782  23.402  1.00  0.00    -0.022 SA
ATOM     30  C   UNL A   1      32.309  28.983  24.536  1.00  0.00     0.265 C 
ATOM     31  H   UNL A   1      31.160  30.268  23.423  1.00  0.00     0.174 HD
ATOM     32  C   UNL A   1      32.473  27.505  24.562  1.00  0.00     0.083 C 
ATOM     33  O   UNL A   1      32.913  29.772  25.239  1.00  0.00    -0.268 OA
ENDBRANCH  20  25
ENDBRANCH  18  19
ENDBRANCH  17  18
ENDBRANCH  13  17
ENDBRANCH   7  12
ENDBRANCH   3   6
ENDBRANCH   1   2
BRANCH   1  34
ATOM     34  C   UNL A   1      44.200  25.869  25.377  1.00  0.00     0.042 C 
BRANCH  34  35
ATOM     35  C   UNL A   1      43.010  26.163  26.261  1.00  0.00     0.118 C 
BRANCH  35  36
ATOM     36  N   UNL A   1      41.740  25.735  25.655  1.00  0.00    -0.352 N 
ATOM     37  C   UNL A   1      40.465  25.780  26.205  1.00  0.00     0.251 C 
ATOM     38  H   UNL A   1      41.802  25.369  24.744  1.00  0.00     0.163 HD
ATOM     39  O   UNL A   1      39.567  25.073  25.763  1.00  0.00    -0.269 OA
BRANCH  37  40
ATOM     40  C   UNL A   1      40.234  26.707  27.324  1.00  0.00     0.039 A 
ATOM     41  C   UNL A   1      39.916  26.312  28.625  1.00  0.00     0.014 A 
ATOM     42  C   UNL A   1      40.456  28.041  27.031  1.00  0.00     0.014 A 
ATOM     43  C   UNL A   1      39.875  27.296  29.613  1.00  0.00     0.010 A 
ATOM     44  C   UNL A   1      40.819  28.870  28.038  1.00  0.00     0.010 A 
ATOM     45  C   UNL A   1      40.332  28.584  29.295  1.00  0.00    -0.014 A 
BRANCH  45  46
ATOM     46  C   UNL A   1      40.396  29.697  30.224  1.00  0.00     0.031 A 
ATOM     47  C   UNL A   1      39.090  30.342  30.464  1.00  0.00     0.074 A 
ATOM     48  C   UNL A   1      41.476  29.907  31.014  1.00  0.00     0.049 A 
ATOM     49  N   UNL A   1      38.686  31.476  29.999  1.00  0.00    -0.248 NA
ATOM     50  C   UNL A   1      38.028  29.558  31.117  1.00  0.00     0.031 C 
ATOM     51  C   UNL A   1      42.720  29.129  31.130  1.00  0.00     0.029 A 
ATOM     52  N   UNL A   1      41.632  30.824  32.000  1.00  0.00    -0.354 N 
ATOM     53  C   UNL A   1      37.428  31.676  30.550  1.00  0.00     0.074 A 
ATOM     54  C   UNL A   1      36.983  30.379  30.985  1.00  0.00     0.031 C 
ATOM     55  C   UNL A   1      43.363  29.455  32.275  1.00  0.00     0.029 A 
ATOM     56  C   UNL A   1      42.677  30.579  32.887  1.00  0.00     0.049 A 
ATOM     57  H   UNL A   1      41.046  31.611  32.083  1.00  0.00     0.167 HD
ATOM     58  C   UNL A   1      36.996  32.928  30.861  1.00  0.00     0.034 A 
ATOM     59  C   UNL A   1      42.922  31.240  34.054  1.00  0.00     0.034 A 
ATOM     60  C   UNL A   1      37.862  33.934  30.276  1.00  0.00     0.049 A 
ATOM     61  C   UNL A   1      42.230  32.554  33.924  1.00  0.00     0.074 A 
ATOM     62  C   UNL A   1      38.294  34.202  28.989  1.00  0.00     0.029 A 
ATOM     63  N   UNL A   1      38.780  34.554  31.101  1.00  0.00    -0.354 N 
ATOM     64  N   UNL A   1      42.568  33.443  33.025  1.00  0.00    -0.248 NA
ATOM     65  C   UNL A   1      40.850  32.640  34.385  1.00  0.00     0.031 C 
ATOM     66  C   UNL A   1      39.692  34.460  29.125  1.00  0.00     0.029 A 
ATOM     67  C   UNL A   1      40.008  34.454  30.487  1.00  0.00     0.049 A 
ATOM     68  H   UNL A   1      38.591  34.987  31.965  1.00  0.00     0.167 HD
ATOM     69  C   UNL A   1      41.369  33.902  32.496  1.00  0.00     0.074 A 
ATOM     70  C   UNL A   1      40.342  33.426  33.427  1.00  0.00     0.031 C 
ATOM     71  C   UNL A   1      41.269  34.338  31.202  1.00  0.00     0.034 A 
BRANCH  58  72
ATOM     72  C   UNL A   1      36.044  33.262  31.985  1.00  0.00     0.023 A 
ATOM     73  C   UNL A   1      34.927  34.053  31.660  1.00  0.00     0.031 A 
ATOM     74  C   UNL A   1      36.302  33.099  33.365  1.00  0.00     0.131 A 
ATOM     75  C   UNL A   1      34.197  34.716  32.659  1.00  0.00     0.055 A 
ATOM     76  C   UNL A   1      35.528  33.702  34.359  1.00  0.00     0.041 A 
ATOM     77  F   UNL A   1      37.365  32.437  33.834  1.00  0.00    -0.206 F 
ATOM     78  C   UNL A   1      34.488  34.544  34.009  1.00  0.00     0.022 A 
BRANCH  75  79
ATOM     79  S   UNL A   1      32.979  35.953  32.148  1.00  0.00     0.124 S 
ATOM     80  O   UNL A   1      33.350  37.093  32.979  1.00  0.00    -0.237 OA
ATOM     81  O   UNL A   1      33.260  36.079  30.722  1.00  0.00    -0.237 OA
ATOM     82  O   UNL A   1      31.701  35.328  32.480  1.00  0.00    -0.744 OA
ENDBRANCH  75  79
ENDBRANCH  58  72
BRANCH  59  83
ATOM     83  C   UNL A   1      43.350  30.633  35.355  1.00  0.00     0.023 A 
ATOM     84  C   UNL A   1      43.314  29.244  35.622  1.00  0.00     0.031 A 
ATOM     85  C   UNL A   1      44.035  31.432  36.301  1.00  0.00     0.131 A 
ATOM     86  C   UNL A   1      43.936  28.720  36.787  1.00  0.00     0.055 A 
ATOM     87  C   UNL A   1      44.648  30.910  37.444  1.00  0.00     0.041 A 
ATOM     88  F   UNL A   1      44.207  32.748  36.104  1.00  0.00    -0.206 F 
ATOM     89  C   UNL A   1      44.608  29.549  37.689  1.00  0.00     0.022 A 
BRANCH  86  90
ATOM     90  S   UNL A   1      43.954  26.923  37.118  1.00  0.00     0.124 S 
ATOM     91  O   UNL A   1      43.773  26.871  38.564  1.00  0.00    -0.237 OA
ATOM     92  O   UNL A   1      42.841  26.442  36.308  1.00  0.00    -0.237 OA
ATOM     93  O   UNL A   1      45.275  26.499  36.651  1.00  0.00    -0.744 OA
ENDBRANCH  86  90
ENDBRANCH  59  83
BRANCH  71  94
ATOM     94  C   UNL A   1      42.539  34.522  30.382  1.00  0.00     0.023 A 
ATOM     95  C   UNL A   1      42.918  33.732  29.269  1.00  0.00     0.031 A 
ATOM     96  C   UNL A   1      43.321  35.657  30.663  1.00  0.00     0.131 A 
ATOM     97  C   UNL A   1      44.045  34.090  28.495  1.00  0.00     0.055 A 
ATOM     98  C   UNL A   1      44.421  36.018  29.884  1.00  0.00     0.041 A 
ATOM     99  F   UNL A   1      43.003  36.466  31.687  1.00  0.00    -0.206 F 
ATOM    100  C   UNL A   1      44.790  35.234  28.800  1.00  0.00     0.022 A 
BRANCH  97 101
ATOM    101  S   UNL A   1      44.581  33.066  27.082  1.00  0.00     0.124 S 
ATOM    102  O   UNL A   1      44.192  31.716  27.472  1.00  0.00    -0.237 OA
ATOM    103  O   UNL A   1      43.839  33.649  25.967  1.00  0.00    -0.237 OA
ATOM    104  O   UNL A   1      46.028  33.289  27.030  1.00  0.00    -0.744 OA
ENDBRANCH  97 101
ENDBRANCH  71  94
ENDBRANCH  45  46
ENDBRANCH  37  40
ENDBRANCH  35  36
ENDBRANCH  34  35
ENDBRANCH   1  34
TORSDOF 18
ENDMDL
MODEL 3
REMARK VINA RESULT:     -12.9      2.537      6.794
REMARK SMILES O=C1NC(=O)/C(=C/c2ccc(OCc3cn(-c4ccc(C(=O)NCCCNC(=O)c5ccc(-c6c7nc(c(-c8cc(S(=O)(=O)[O-])ccc8F)c8ccc([nH]8)c(-c8cc(S(=O)(=O)[O-])ccc8F)c8nc(c(-c9cc(S(=O)(=O)[O-])ccc9F)c9ccc6[nH]9)C=C8)C=C7)cc5)cc4)nn3)cc2)S1
REMARK SMILES IDX 24 1 23 2 21 3 22 4 20 6 17 7 18 8 94 9 19 10 93 11 16 12
REMARK SMILES IDX 14 13 15 14 96 15 95 16 13 17 12 18 11 19 8 20 9 21 98 22
REMARK SMILES IDX 10 23 97 24 7 25 1 26 2 27 3 28 99 29 4 30 6 32 5 33 25 34
REMARK SMILES IDX 26 35 27 36 28 37 29 39 30 40 31 41 92 42 32 43 91 44 33 45
REMARK SMILES IDX 34 46 35 47 85 48 36 49 90 50 84 51 86 52 37 53 89 54 83 55
REMARK SMILES IDX 82 56 38 58 70 59 50 60 69 61 51 62 54 63 68 64 87 65 52 66
REMARK SMILES IDX 53 67 67 69 88 70 55 71 39 72 40 73 48 74 41 75 47 76 49 77
REMARK SMILES IDX 46 78 42 79 43 80 44 81 45 82 71 83 72 84 80 85 73 86 79 87
REMARK SMILES IDX 81 88 78 89 74 90 75 91 76 92 77 93 56 94 57 95 65 96 58 97
REMARK SMILES IDX 64 98 66 99 63 100 59 101 60 102 61 103 62 104
REMARK H PARENT 23 5 3 31 27 38 86 57 54 68
REMARK Flexibility Score: inf
ROOT
ATOM      1  C   UNL A   1      34.219  34.051  31.287  1.00  0.00     0.118 C 
ENDROOT
BRANCH   1   2
ATOM      2  N   UNL A   1      34.372  34.954  30.156  1.00  0.00    -0.352 N 
ATOM      3  C   UNL A   1      34.315  34.744  28.799  1.00  0.00     0.251 C 
ATOM      4  O   UNL A   1      34.407  35.720  28.055  1.00  0.00    -0.269 OA
ATOM      5  H   UNL A   1      34.550  35.888  30.410  1.00  0.00     0.163 HD
BRANCH   3   6
ATOM      6  C   UNL A   1      34.081  33.402  28.198  1.00  0.00     0.039 A 
ATOM      7  C   UNL A   1      33.469  30.843  27.242  1.00  0.00     0.066 A 
ATOM      8  C   UNL A   1      32.481  31.835  27.250  1.00  0.00     0.029 A 
ATOM      9  C   UNL A   1      34.770  31.141  27.630  1.00  0.00     0.029 A 
ATOM     10  C   UNL A   1      32.784  33.101  27.758  1.00  0.00     0.016 A 
ATOM     11  C   UNL A   1      35.074  32.431  28.044  1.00  0.00     0.016 A 
BRANCH   7  12
ATOM     12  N   UNL A   1      33.158  29.538  26.830  1.00  0.00    -0.220 N 
ATOM     13  C   UNL A   1      33.214  27.473  26.139  1.00  0.00     0.120 A 
ATOM     14  C   UNL A   1      34.028  28.517  26.517  1.00  0.00     0.144 A 
ATOM     15  N   UNL A   1      31.909  27.871  26.274  1.00  0.00    -0.131 NA
ATOM     16  N   UNL A   1      31.886  29.111  26.726  1.00  0.00    -0.062 NA
BRANCH  13  17
ATOM     17  C   UNL A   1      33.542  26.067  25.762  1.00  0.00     0.289 C 
BRANCH  17  18
ATOM     18  O   UNL A   1      32.849  25.041  26.496  1.00  0.00    -0.487 OA
BRANCH  18  19
ATOM     19  C   UNL A   1      32.728  23.801  25.930  1.00  0.00     0.119 A 
ATOM     20  C   UNL A   1      32.588  21.446  24.404  1.00  0.00    -0.024 A 
ATOM     21  C   UNL A   1      33.759  22.206  24.414  1.00  0.00     0.012 A 
ATOM     22  C   UNL A   1      31.530  21.817  25.235  1.00  0.00     0.012 A 
ATOM     23  C   UNL A   1      33.823  23.384  25.169  1.00  0.00     0.047 A 
ATOM     24  C   UNL A   1      31.618  22.967  26.022  1.00  0.00     0.047 A 
BRANCH  20  25
ATOM     25  C   UNL A   1      32.466  20.259  23.553  1.00  0.00     0.029 C 
ATOM     26  O   UNL A   1      33.180  15.775  25.748  1.00  0.00    -0.261 OA
ATOM     27  C   UNL A   1      32.976  16.740  25.015  1.00  0.00     0.290 C 
ATOM     28  N   UNL A   1      32.780  16.682  23.679  1.00  0.00    -0.282 N 
ATOM     29  S   UNL A   1      32.898  18.400  25.561  1.00  0.00    -0.022 SA
ATOM     30  C   UNL A   1      32.565  17.851  23.009  1.00  0.00     0.265 C 
ATOM     31  H   UNL A   1      32.794  15.821  23.203  1.00  0.00     0.174 HD
ATOM     32  C   UNL A   1      32.613  18.991  23.963  1.00  0.00     0.083 C 
ATOM     33  O   UNL A   1      32.379  17.943  21.809  1.00  0.00    -0.268 OA
ENDBRANCH  20  25
ENDBRANCH  18  19
ENDBRANCH  17  18
ENDBRANCH  13  17
ENDBRANCH   7  12
ENDBRANCH   3   6
ENDBRANCH   1   2
BRANCH   1  34
ATOM     34  C   UNL A   1      35.333  32.992  31.332  1.00  0.00     0.042 C 
BRANCH  34  35
ATOM     35  C   UNL A   1      36.697  33.622  31.498  1.00  0.00     0.118 C 
BRANCH  35  36
ATOM     36  N   UNL A   1      37.192  34.225  30.252  1.00  0.00    -0.352 N 
ATOM     37  C   UNL A   1      38.370  33.948  29.570  1.00  0.00     0.251 C 
ATOM     38  H   UNL A   1      36.616  34.915  29.850  1.00  0.00     0.163 HD
ATOM     39  O   UNL A   1      38.837  34.753  28.773  1.00  0.00    -0.269 OA
BRANCH  37  40
ATOM     40  C   UNL A   1      39.027  32.658  29.833  1.00  0.00     0.039 A 
ATOM     41  C   UNL A   1      38.566  31.426  29.363  1.00  0.00     0.014 A 
ATOM     42  C   UNL A   1      40.229  32.743  30.512  1.00  0.00     0.014 A 
ATOM     43  C   UNL A   1      39.375  30.307  29.564  1.00  0.00     0.010 A 
ATOM     44  C   UNL A   1      41.148  31.767  30.320  1.00  0.00     0.010 A 
ATOM     45  C   UNL A   1      40.675  30.501  30.053  1.00  0.00    -0.014 A 
BRANCH  45  46
ATOM     46  C   UNL A   1      41.648  29.446  30.271  1.00  0.00     0.031 A 
ATOM     47  C   UNL A   1      41.740  29.008  31.677  1.00  0.00     0.074 A 
ATOM     48  C   UNL A   1      42.173  28.736  29.243  1.00  0.00     0.049 A 
ATOM     49  N   UNL A   1      42.679  29.284  32.517  1.00  0.00    -0.248 NA
ATOM     50  C   UNL A   1      40.565  28.368  32.292  1.00  0.00     0.031 C 
ATOM     51  C   UNL A   1      41.905  28.835  27.800  1.00  0.00     0.029 A 
ATOM     52  N   UNL A   1      42.994  27.659  29.298  1.00  0.00    -0.354 N 
ATOM     53  C   UNL A   1      42.351  28.601  33.679  1.00  0.00     0.074 A 
ATOM     54  C   UNL A   1      40.948  28.299  33.570  1.00  0.00     0.031 C 
ATOM     55  C   UNL A   1      42.344  27.719  27.172  1.00  0.00     0.029 A 
ATOM     56  C   UNL A   1      43.077  26.908  28.127  1.00  0.00     0.049 A 
ATOM     57  H   UNL A   1      43.497  27.423  30.111  1.00  0.00     0.167 HD
ATOM     58  C   UNL A   1      43.322  28.093  34.486  1.00  0.00     0.034 A 
ATOM     59  C   UNL A   1      43.678  25.694  27.984  1.00  0.00     0.034 A 
ATOM     60  C   UNL A   1      44.623  28.620  34.122  1.00  0.00     0.049 A 
ATOM     61  C   UNL A   1      44.648  25.589  29.111  1.00  0.00     0.074 A 
ATOM     62  C   UNL A   1      45.143  29.895  33.988  1.00  0.00     0.029 A 
ATOM     63  N   UNL A   1      45.466  27.809  33.387  1.00  0.00    -0.354 N 
ATOM     64  N   UNL A   1      45.674  26.394  29.234  1.00  0.00    -0.248 NA
ATOM     65  C   UNL A   1      44.177  24.999  30.357  1.00  0.00     0.031 C 
ATOM     66  C   UNL A   1      45.888  29.854  32.769  1.00  0.00     0.029 A 
ATOM     67  C   UNL A   1      45.881  28.539  32.296  1.00  0.00     0.049 A 
ATOM     68  H   UNL A   1      45.721  26.882  33.603  1.00  0.00     0.167 HD
ATOM     69  C   UNL A   1      45.700  26.748  30.577  1.00  0.00     0.074 A 
ATOM     70  C   UNL A   1      44.799  25.797  31.234  1.00  0.00     0.031 C 
ATOM     71  C   UNL A   1      46.178  27.961  30.996  1.00  0.00     0.034 A 
BRANCH  58  72
ATOM     72  C   UNL A   1      43.180  26.855  35.338  1.00  0.00     0.023 A 
ATOM     73  C   UNL A   1      43.952  25.737  34.972  1.00  0.00     0.031 A 
ATOM     74  C   UNL A   1      42.159  26.613  36.285  1.00  0.00     0.131 A 
ATOM     75  C   UNL A   1      43.637  24.455  35.448  1.00  0.00     0.055 A 
ATOM     76  C   UNL A   1      41.895  25.347  36.811  1.00  0.00     0.041 A 
ATOM     77  F   UNL A   1      41.295  27.555  36.681  1.00  0.00    -0.206 F 
ATOM     78  C   UNL A   1      42.613  24.251  36.369  1.00  0.00     0.022 A 
BRANCH  75  79
ATOM     79  S   UNL A   1      44.469  23.035  34.695  1.00  0.00     0.124 S 
ATOM     80  O   UNL A   1      44.881  22.276  35.870  1.00  0.00    -0.237 OA
ATOM     81  O   UNL A   1      43.398  22.450  33.895  1.00  0.00    -0.237 OA
ATOM     82  O   UNL A   1      45.556  23.645  33.932  1.00  0.00    -0.744 OA
ENDBRANCH  75  79
ENDBRANCH  58  72
BRANCH  59  83
ATOM     83  C   UNL A   1      43.161  24.526  27.201  1.00  0.00     0.023 A 
ATOM     84  C   UNL A   1      43.958  23.757  26.320  1.00  0.00     0.031 A 
ATOM     85  C   UNL A   1      41.881  24.002  27.500  1.00  0.00     0.131 A 
ATOM     86  C   UNL A   1      43.464  22.538  25.782  1.00  0.00     0.055 A 
ATOM     87  C   UNL A   1      41.402  22.800  26.970  1.00  0.00     0.041 A 
ATOM     88  F   UNL A   1      41.076  24.601  28.391  1.00  0.00    -0.206 F 
ATOM     89  C   UNL A   1      42.195  22.057  26.114  1.00  0.00     0.022 A 
BRANCH  86  90
ATOM     90  S   UNL A   1      44.502  21.501  24.693  1.00  0.00     0.124 S 
ATOM     91  O   UNL A   1      44.498  22.260  23.447  1.00  0.00    -0.237 OA
ATOM     92  O   UNL A   1      45.767  21.449  25.416  1.00  0.00    -0.237 OA
ATOM     93  O   UNL A   1      43.779  20.230  24.636  1.00  0.00    -0.744 OA
ENDBRANCH  86  90
ENDBRANCH  59  83
BRANCH  71  94
ATOM     94  C   UNL A   1      46.890  28.862  29.995  1.00  0.00     0.023 A 
ATOM     95  C   UNL A   1      46.255  29.638  28.995  1.00  0.00     0.031 A 
ATOM     96  C   UNL A   1      48.272  29.049  30.174  1.00  0.00     0.131 A 
ATOM     97  C   UNL A   1      47.006  30.550  28.220  1.00  0.00     0.055 A 
ATOM     98  C   UNL A   1      49.007  29.966  29.421  1.00  0.00     0.041 A 
ATOM     99  F   UNL A   1      48.934  28.366  31.123  1.00  0.00    -0.206 F 
ATOM    100  C   UNL A   1      48.378  30.717  28.438  1.00  0.00     0.022 A 
BRANCH  97 101
ATOM    101  S   UNL A   1      46.222  31.532  26.896  1.00  0.00     0.124 S 
ATOM    102  O   UNL A   1      45.477  32.553  27.623  1.00  0.00    -0.237 OA
ATOM    103  O   UNL A   1      47.371  32.005  26.126  1.00  0.00    -0.237 OA
ATOM    104  O   UNL A   1      45.386  30.553  26.197  1.00  0.00    -0.744 OA
ENDBRANCH  97 101
ENDBRANCH  71  94
ENDBRANCH  45  46
ENDBRANCH  37  40
ENDBRANCH  35  36
ENDBRANCH  34  35
ENDBRANCH   1  34
TORSDOF 18
ENDMDL
