MODEL 1
REMARK VINA RESULT:     -13.0      0.000      0.000
REMARK SMILES COc1ccc2c(c1)c(CC(=O)NCCCNC(=O)c1ccc(-c3c4nc(c(-c5cc(S(=O)(=O)[O-])ccc5F)c5ccc([nH]5)c(-c5cc(S(=O)(=O)[O-])ccc5F)c5nc(c(-c6cc(S(=O)(=O)[O-])ccc6F)c6ccc3[nH]6)C=C5)C=C4)cc1)c(C)n2C(=O)c1ccc(Cl)cc1
REMARK SMILES IDX 15 1 14 2 13 3 11 4 12 5 10 7 9 8 3 9 4 10 8 11 5 12 7 13
REMARK SMILES IDX 6 14 85 15 83 16 84 17 2 18 1 19 86 20 87 21 88 22 89 23
REMARK SMILES IDX 94 24 90 25 93 26 91 27 92 28 16 29 17 30 18 31 19 33 20 34
REMARK SMILES IDX 21 35 82 36 22 37 81 38 23 39 24 40 25 41 75 42 26 43 80 44
REMARK SMILES IDX 74 45 76 46 27 47 79 48 73 49 72 50 28 52 60 53 40 54 59 55
REMARK SMILES IDX 41 56 44 57 58 58 77 59 42 60 43 61 57 63 78 64 45 65 29 66
REMARK SMILES IDX 30 67 38 68 31 69 37 70 39 71 36 72 32 73 33 74 34 75 35 76
REMARK SMILES IDX 61 77 62 78 70 79 63 80 69 81 71 82 68 83 64 84 65 85 66 86
REMARK SMILES IDX 67 87 46 88 47 89 55 90 48 91 54 92 56 93 53 94 49 95 50 96
REMARK SMILES IDX 51 97 52 98
REMARK H PARENT 13 6 17 32 76 51 44 62
REMARK Flexibility Score: inf
ROOT
ATOM      1  C   UNL A   1      37.338  21.646  24.523  1.00  0.00     0.042 C 
ENDROOT
BRANCH   1   2
ATOM      2  C   UNL A   1      36.145  22.503  24.092  1.00  0.00     0.117 C 
BRANCH   2   3
ATOM      3  N   UNL A   1      35.119  22.605  25.116  1.00  0.00    -0.356 N 
ATOM      4  C   UNL A   1      34.212  23.602  25.332  1.00  0.00     0.224 C 
ATOM      5  O   UNL A   1      33.389  23.453  26.239  1.00  0.00    -0.275 OA
ATOM      6  H   UNL A   1      35.072  21.848  25.743  1.00  0.00     0.163 HD
BRANCH   4   7
ATOM      7  C   UNL A   1      34.185  24.832  24.438  1.00  0.00     0.138 C 
BRANCH   7   8
ATOM      8  C   UNL A   1      32.999  25.721  24.675  1.00  0.00    -0.009 A 
ATOM      9  C   UNL A   1      33.601  28.562  27.159  1.00  0.00     0.119 A 
ATOM     10  C   UNL A   1      32.298  29.033  27.161  1.00  0.00     0.048 A 
ATOM     11  C   UNL A   1      33.935  27.475  26.350  1.00  0.00     0.057 A 
ATOM     12  C   UNL A   1      31.316  28.430  26.366  1.00  0.00     0.031 A 
ATOM     13  C   UNL A   1      32.963  26.857  25.529  1.00  0.00     0.008 A 
ATOM     14  C   UNL A   1      31.661  27.365  25.507  1.00  0.00     0.057 A 
ATOM     15  N   UNL A   1      30.931  26.651  24.535  1.00  0.00    -0.280 N 
ATOM     16  C   UNL A   1      31.716  25.546  24.166  1.00  0.00     0.028 A 
ATOM     17  C   UNL A   1      31.246  24.393  23.328  1.00  0.00     0.065 C 
BRANCH   9  18
ATOM     18  O   UNL A   1      34.633  29.089  27.887  1.00  0.00    -0.497 OA
ATOM     19  C   UNL A   1      35.596  29.828  27.146  1.00  0.00     0.278 C 
ENDBRANCH   9  18
BRANCH  15  20
ATOM     20  C   UNL A   1      29.642  26.986  24.023  1.00  0.00     0.262 C 
ATOM     21  O   UNL A   1      28.683  26.274  24.326  1.00  0.00    -0.268 OA
BRANCH  20  22
ATOM     22  C   UNL A   1      29.339  28.134  23.152  1.00  0.00     0.040 A 
ATOM     23  C   UNL A   1      30.363  28.844  22.513  1.00  0.00     0.015 A 
ATOM     24  C   UNL A   1      28.004  28.526  23.011  1.00  0.00     0.015 A 
ATOM     25  C   UNL A   1      30.053  30.018  21.824  1.00  0.00     0.021 A 
ATOM     26  C   UNL A   1      27.699  29.694  22.310  1.00  0.00     0.021 A 
ATOM     27  C   UNL A   1      28.726  30.449  21.745  1.00  0.00     0.041 A 
ATOM     28  Cl  UNL A   1      28.363  31.953  20.991  1.00  0.00    -0.084 Cl
ENDBRANCH  20  22
ENDBRANCH  15  20
ENDBRANCH   7   8
ENDBRANCH   4   7
ENDBRANCH   2   3
ENDBRANCH   1   2
BRANCH   1  29
ATOM     29  C   UNL A   1      37.943  22.064  25.862  1.00  0.00     0.118 C 
BRANCH  29  30
ATOM     30  N   UNL A   1      39.387  21.952  25.919  1.00  0.00    -0.352 N 
ATOM     31  C   UNL A   1      40.404  22.653  26.503  1.00  0.00     0.251 C 
ATOM     32  H   UNL A   1      39.718  21.178  25.408  1.00  0.00     0.163 HD
ATOM     33  O   UNL A   1      41.521  22.136  26.399  1.00  0.00    -0.269 OA
BRANCH  31  34
ATOM     34  C   UNL A   1      40.286  23.979  27.169  1.00  0.00     0.039 A 
ATOM     35  C   UNL A   1      39.240  24.888  27.009  1.00  0.00     0.014 A 
ATOM     36  C   UNL A   1      41.374  24.348  27.986  1.00  0.00     0.014 A 
ATOM     37  C   UNL A   1      39.333  26.165  27.563  1.00  0.00     0.010 A 
ATOM     38  C   UNL A   1      41.467  25.616  28.548  1.00  0.00     0.010 A 
ATOM     39  C   UNL A   1      40.468  26.544  28.293  1.00  0.00    -0.014 A 
BRANCH  39  40
ATOM     40  C   UNL A   1      40.505  27.886  28.876  1.00  0.00     0.031 A 
ATOM     41  C   UNL A   1      41.567  28.763  28.307  1.00  0.00     0.074 A 
ATOM     42  C   UNL A   1      39.608  28.349  29.773  1.00  0.00     0.049 A 
ATOM     43  N   UNL A   1      42.622  29.220  28.898  1.00  0.00    -0.248 NA
ATOM     44  C   UNL A   1      41.529  29.036  26.862  1.00  0.00     0.031 C 
ATOM     45  C   UNL A   1      38.350  27.722  30.189  1.00  0.00     0.029 A 
ATOM     46  N   UNL A   1      39.588  29.537  30.446  1.00  0.00    -0.354 N 
ATOM     47  C   UNL A   1      43.283  30.009  27.956  1.00  0.00     0.074 A 
ATOM     48  C   UNL A   1      42.661  29.719  26.690  1.00  0.00     0.031 C 
ATOM     49  C   UNL A   1      37.592  28.630  30.850  1.00  0.00     0.029 A 
ATOM     50  C   UNL A   1      38.369  29.843  31.040  1.00  0.00     0.049 A 
ATOM     51  H   UNL A   1      40.373  30.129  30.506  1.00  0.00     0.167 HD
ATOM     52  C   UNL A   1      44.153  30.991  28.332  1.00  0.00     0.034 A 
ATOM     53  C   UNL A   1      37.994  31.024  31.598  1.00  0.00     0.034 A 
ATOM     54  C   UNL A   1      44.525  30.841  29.714  1.00  0.00     0.049 A 
ATOM     55  C   UNL A   1      39.216  31.803  31.897  1.00  0.00     0.074 A 
ATOM     56  C   UNL A   1      45.226  29.904  30.441  1.00  0.00     0.029 A 
ATOM     57  N   UNL A   1      43.834  31.602  30.623  1.00  0.00    -0.354 N 
ATOM     58  N   UNL A   1      40.076  31.488  32.822  1.00  0.00    -0.248 NA
ATOM     59  C   UNL A   1      39.704  32.704  30.865  1.00  0.00     0.031 C 
ATOM     60  C   UNL A   1      44.582  29.867  31.710  1.00  0.00     0.029 A 
ATOM     61  C   UNL A   1      43.568  30.830  31.720  1.00  0.00     0.049 A 
ATOM     62  H   UNL A   1      43.574  32.544  30.506  1.00  0.00     0.167 HD
ATOM     63  C   UNL A   1      41.306  31.740  32.238  1.00  0.00     0.074 A 
ATOM     64  C   UNL A   1      41.015  32.595  31.090  1.00  0.00     0.031 C 
ATOM     65  C   UNL A   1      42.403  30.996  32.568  1.00  0.00     0.034 A 
BRANCH  52  66
ATOM     66  C   UNL A   1      44.377  32.284  27.575  1.00  0.00     0.023 A 
ATOM     67  C   UNL A   1      43.756  33.499  27.914  1.00  0.00     0.031 A 
ATOM     68  C   UNL A   1      45.422  32.379  26.626  1.00  0.00     0.131 A 
ATOM     69  C   UNL A   1      44.167  34.719  27.359  1.00  0.00     0.055 A 
ATOM     70  C   UNL A   1      45.876  33.603  26.120  1.00  0.00     0.041 A 
ATOM     71  F   UNL A   1      46.083  31.287  26.210  1.00  0.00    -0.206 F 
ATOM     72  C   UNL A   1      45.251  34.785  26.490  1.00  0.00     0.022 A 
BRANCH  69  73
ATOM     73  S   UNL A   1      43.304  36.257  27.785  1.00  0.00     0.124 S 
ATOM     74  O   UNL A   1      42.617  35.887  29.017  1.00  0.00    -0.237 OA
ATOM     75  O   UNL A   1      44.419  37.187  27.937  1.00  0.00    -0.237 OA
ATOM     76  O   UNL A   1      42.448  36.501  26.627  1.00  0.00    -0.744 OA
ENDBRANCH  69  73
ENDBRANCH  52  66
BRANCH  53  77
ATOM     77  C   UNL A   1      36.681  31.702  31.443  1.00  0.00     0.023 A 
ATOM     78  C   UNL A   1      36.250  32.069  30.156  1.00  0.00     0.031 A 
ATOM     79  C   UNL A   1      36.022  32.292  32.538  1.00  0.00     0.131 A 
ATOM     80  C   UNL A   1      35.246  33.031  29.989  1.00  0.00     0.055 A 
ATOM     81  C   UNL A   1      35.002  33.237  32.367  1.00  0.00     0.041 A 
ATOM     82  F   UNL A   1      36.411  32.022  33.794  1.00  0.00    -0.206 F 
ATOM     83  C   UNL A   1      34.621  33.624  31.086  1.00  0.00     0.022 A 
BRANCH  80  84
ATOM     84  S   UNL A   1      34.817  33.620  28.327  1.00  0.00     0.124 S 
ATOM     85  O   UNL A   1      33.672  32.778  27.991  1.00  0.00    -0.237 OA
ATOM     86  O   UNL A   1      34.515  35.024  28.579  1.00  0.00    -0.237 OA
ATOM     87  O   UNL A   1      36.024  33.358  27.549  1.00  0.00    -0.744 OA
ENDBRANCH  80  84
ENDBRANCH  53  77
BRANCH  65  88
ATOM     88  C   UNL A   1      42.338  30.091  33.780  1.00  0.00     0.023 A 
ATOM     89  C   UNL A   1      42.900  30.593  34.967  1.00  0.00     0.031 A 
ATOM     90  C   UNL A   1      41.982  28.729  33.754  1.00  0.00     0.131 A 
ATOM     91  C   UNL A   1      43.159  29.741  36.045  1.00  0.00     0.055 A 
ATOM     92  C   UNL A   1      42.165  27.899  34.867  1.00  0.00     0.041 A 
ATOM     93  F   UNL A   1      41.535  28.140  32.639  1.00  0.00    -0.206 F 
ATOM     94  C   UNL A   1      42.778  28.399  36.011  1.00  0.00     0.022 A 
BRANCH  91  95
ATOM     95  S   UNL A   1      44.162  30.323  37.436  1.00  0.00     0.124 S 
ATOM     96  O   UNL A   1      45.167  31.147  36.770  1.00  0.00    -0.237 OA
ATOM     97  O   UNL A   1      43.185  31.055  38.242  1.00  0.00    -0.237 OA
ATOM     98  O   UNL A   1      44.666  29.097  38.047  1.00  0.00    -0.744 OA
ENDBRANCH  91  95
ENDBRANCH  65  88
ENDBRANCH  39  40
ENDBRANCH  31  34
ENDBRANCH  29  30
ENDBRANCH   1  29
TORSDOF 17
ENDMDL
MODEL 2
REMARK VINA RESULT:     -12.6      1.460      2.724
REMARK SMILES COc1ccc2c(c1)c(CC(=O)NCCCNC(=O)c1ccc(-c3c4nc(c(-c5cc(S(=O)(=O)[O-])ccc5F)c5ccc([nH]5)c(-c5cc(S(=O)(=O)[O-])ccc5F)c5nc(c(-c6cc(S(=O)(=O)[O-])ccc6F)c6ccc3[nH]6)C=C5)C=C4)cc1)c(C)n2C(=O)c1ccc(Cl)cc1
REMARK SMILES IDX 15 1 14 2 13 3 11 4 12 5 10 7 9 8 3 9 4 10 8 11 5 12 7 13
REMARK SMILES IDX 6 14 85 15 83 16 84 17 2 18 1 19 86 20 87 21 88 22 89 23
REMARK SMILES IDX 94 24 90 25 93 26 91 27 92 28 16 29 17 30 18 31 19 33 20 34
REMARK SMILES IDX 21 35 82 36 22 37 81 38 23 39 24 40 25 41 75 42 26 43 80 44
REMARK SMILES IDX 74 45 76 46 27 47 79 48 73 49 72 50 28 52 60 53 40 54 59 55
REMARK SMILES IDX 41 56 44 57 58 58 77 59 42 60 43 61 57 63 78 64 45 65 29 66
REMARK SMILES IDX 30 67 38 68 31 69 37 70 39 71 36 72 32 73 33 74 34 75 35 76
REMARK SMILES IDX 61 77 62 78 70 79 63 80 69 81 71 82 68 83 64 84 65 85 66 86
REMARK SMILES IDX 67 87 46 88 47 89 55 90 48 91 54 92 56 93 53 94 49 95 50 96
REMARK SMILES IDX 51 97 52 98
REMARK H PARENT 13 6 17 32 76 51 44 62
REMARK Flexibility Score: inf
ROOT
ATOM      1  C   UNL A   1      38.745  22.524  26.132  1.00  0.00     0.042 C 
ENDROOT
BRANCH   1   2
ATOM      2  C   UNL A   1      37.746  21.628  25.396  1.00  0.00     0.117 C 
BRANCH   2   3
ATOM      3  N   UNL A   1      37.159  22.269  24.231  1.00  0.00    -0.356 N 
ATOM      4  C   UNL A   1      36.305  23.333  24.171  1.00  0.00     0.224 C 
ATOM      5  O   UNL A   1      35.972  23.749  23.058  1.00  0.00    -0.275 OA
ATOM      6  H   UNL A   1      37.413  21.881  23.363  1.00  0.00     0.163 HD
BRANCH   4   7
ATOM      7  C   UNL A   1      35.831  24.019  25.442  1.00  0.00     0.138 C 
BRANCH   7   8
ATOM      8  C   UNL A   1      34.352  24.280  25.468  1.00  0.00    -0.009 A 
ATOM      9  C   UNL A   1      32.172  21.144  25.335  1.00  0.00     0.119 A 
ATOM     10  C   UNL A   1      30.960  21.811  25.272  1.00  0.00     0.048 A 
ATOM     11  C   UNL A   1      33.355  21.879  25.420  1.00  0.00     0.057 A 
ATOM     12  C   UNL A   1      30.910  23.210  25.289  1.00  0.00     0.031 A 
ATOM     13  C   UNL A   1      33.329  23.293  25.453  1.00  0.00     0.008 A 
ATOM     14  C   UNL A   1      32.099  23.956  25.429  1.00  0.00     0.057 A 
ATOM     15  N   UNL A   1      32.344  25.336  25.584  1.00  0.00    -0.280 N 
ATOM     16  C   UNL A   1      33.729  25.523  25.434  1.00  0.00     0.028 A 
ATOM     17  C   UNL A   1      34.411  26.852  25.298  1.00  0.00     0.065 C 
BRANCH   9  18
ATOM     18  O   UNL A   1      32.327  19.784  25.339  1.00  0.00    -0.497 OA
ATOM     19  C   UNL A   1      33.373  19.280  24.517  1.00  0.00     0.278 C 
ENDBRANCH   9  18
BRANCH  15  20
ATOM     20  C   UNL A   1      31.374  26.349  25.846  1.00  0.00     0.262 C 
ATOM     21  O   UNL A   1      31.118  26.632  27.017  1.00  0.00    -0.268 OA
BRANCH  20  22
ATOM     22  C   UNL A   1      30.636  27.112  24.825  1.00  0.00     0.040 A 
ATOM     23  C   UNL A   1      31.070  28.379  24.419  1.00  0.00     0.015 A 
ATOM     24  C   UNL A   1      29.464  26.557  24.300  1.00  0.00     0.015 A 
ATOM     25  C   UNL A   1      30.263  29.138  23.569  1.00  0.00     0.021 A 
ATOM     26  C   UNL A   1      28.667  27.315  23.441  1.00  0.00     0.021 A 
ATOM     27  C   UNL A   1      29.055  28.612  23.102  1.00  0.00     0.041 A 
ATOM     28  Cl  UNL A   1      28.013  29.592  22.146  1.00  0.00    -0.084 Cl
ENDBRANCH  20  22
ENDBRANCH  15  20
ENDBRANCH   7   8
ENDBRANCH   4   7
ENDBRANCH   2   3
ENDBRANCH   1   2
BRANCH   1  29
ATOM     29  C   UNL A   1      39.980  21.780  26.638  1.00  0.00     0.118 C 
BRANCH  29  30
ATOM     30  N   UNL A   1      41.172  22.006  25.846  1.00  0.00    -0.352 N 
ATOM     31  C   UNL A   1      42.142  22.966  25.782  1.00  0.00     0.251 C 
ATOM     32  H   UNL A   1      41.320  21.287  25.189  1.00  0.00     0.163 HD
ATOM     33  O   UNL A   1      43.080  22.711  25.020  1.00  0.00    -0.269 OA
BRANCH  31  34
ATOM     34  C   UNL A   1      42.121  24.281  26.479  1.00  0.00     0.039 A 
ATOM     35  C   UNL A   1      42.898  24.639  27.581  1.00  0.00     0.014 A 
ATOM     36  C   UNL A   1      41.178  25.211  25.995  1.00  0.00     0.014 A 
ATOM     37  C   UNL A   1      42.662  25.846  28.241  1.00  0.00     0.010 A 
ATOM     38  C   UNL A   1      40.945  26.418  26.643  1.00  0.00     0.010 A 
ATOM     39  C   UNL A   1      41.654  26.713  27.800  1.00  0.00    -0.014 A 
BRANCH  39  40
ATOM     40  C   UNL A   1      41.463  27.979  28.510  1.00  0.00     0.031 A 
ATOM     41  C   UNL A   1      42.404  29.054  28.090  1.00  0.00     0.074 A 
ATOM     42  C   UNL A   1      40.469  28.211  29.394  1.00  0.00     0.049 A 
ATOM     43  N   UNL A   1      43.352  29.596  28.782  1.00  0.00    -0.248 NA
ATOM     44  C   UNL A   1      42.389  29.466  26.678  1.00  0.00     0.031 C 
ATOM     45  C   UNL A   1      39.302  27.369  29.674  1.00  0.00     0.029 A 
ATOM     46  N   UNL A   1      40.241  29.308  30.174  1.00  0.00    -0.354 N 
ATOM     47  C   UNL A   1      43.927  30.566  27.960  1.00  0.00     0.074 A 
ATOM     48  C   UNL A   1      43.411  30.321  26.638  1.00  0.00     0.031 C 
ATOM     49  C   UNL A   1      38.389  28.083  30.373  1.00  0.00     0.029 A 
ATOM     50  C   UNL A   1      38.965  29.370  30.722  1.00  0.00     0.049 A 
ATOM     51  H   UNL A   1      40.925  29.998  30.336  1.00  0.00     0.167 HD
ATOM     52  C   UNL A   1      44.622  31.620  28.478  1.00  0.00     0.034 A 
ATOM     53  C   UNL A   1      38.393  30.421  31.368  1.00  0.00     0.034 A 
ATOM     54  C   UNL A   1      44.952  31.384  29.858  1.00  0.00     0.049 A 
ATOM     55  C   UNL A   1      39.469  31.334  31.810  1.00  0.00     0.074 A 
ATOM     56  C   UNL A   1      45.754  30.490  30.533  1.00  0.00     0.029 A 
ATOM     57  N   UNL A   1      44.116  31.939  30.795  1.00  0.00    -0.354 N 
ATOM     58  N   UNL A   1      40.326  31.054  32.749  1.00  0.00    -0.248 NA
ATOM     59  C   UNL A   1      39.860  32.398  30.900  1.00  0.00     0.031 C 
ATOM     60  C   UNL A   1      45.068  30.229  31.752  1.00  0.00     0.029 A 
ATOM     61  C   UNL A   1      43.922  31.027  31.795  1.00  0.00     0.049 A 
ATOM     62  H   UNL A   1      43.723  32.840  30.753  1.00  0.00     0.167 HD
ATOM     63  C   UNL A   1      41.529  31.541  32.265  1.00  0.00     0.074 A 
ATOM     64  C   UNL A   1      41.161  32.458  31.189  1.00  0.00     0.031 C 
ATOM     65  C   UNL A   1      42.709  30.935  32.586  1.00  0.00     0.034 A 
BRANCH  52  66
ATOM     66  C   UNL A   1      44.682  33.004  27.862  1.00  0.00     0.023 A 
ATOM     67  C   UNL A   1      43.683  33.976  28.042  1.00  0.00     0.031 A 
ATOM     68  C   UNL A   1      45.879  33.463  27.265  1.00  0.00     0.131 A 
ATOM     69  C   UNL A   1      43.879  35.315  27.672  1.00  0.00     0.055 A 
ATOM     70  C   UNL A   1      46.100  34.811  26.954  1.00  0.00     0.041 A 
ATOM     71  F   UNL A   1      46.901  32.628  27.027  1.00  0.00    -0.206 F 
ATOM     72  C   UNL A   1      45.099  35.748  27.162  1.00  0.00     0.022 A 
BRANCH  69  73
ATOM     73  S   UNL A   1      42.546  36.527  27.875  1.00  0.00     0.124 S 
ATOM     74  O   UNL A   1      41.372  35.669  27.988  1.00  0.00    -0.237 OA
ATOM     75  O   UNL A   1      42.952  37.208  29.102  1.00  0.00    -0.237 OA
ATOM     76  O   UNL A   1      42.630  37.335  26.663  1.00  0.00    -0.744 OA
ENDBRANCH  69  73
ENDBRANCH  52  66
BRANCH  53  77
ATOM     77  C   UNL A   1      37.001  30.912  31.202  1.00  0.00     0.023 A 
ATOM     78  C   UNL A   1      36.507  31.140  29.906  1.00  0.00     0.031 A 
ATOM     79  C   UNL A   1      36.286  31.479  32.274  1.00  0.00     0.131 A 
ATOM     80  C   UNL A   1      35.384  31.953  29.704  1.00  0.00     0.055 A 
ATOM     81  C   UNL A   1      35.149  32.273  32.070  1.00  0.00     0.041 A 
ATOM     82  F   UNL A   1      36.725  31.340  33.535  1.00  0.00    -0.206 F 
ATOM     83  C   UNL A   1      34.703  32.527  30.777  1.00  0.00     0.022 A 
BRANCH  80  84
ATOM     84  S   UNL A   1      34.858  32.377  28.020  1.00  0.00     0.124 S 
ATOM     85  O   UNL A   1      33.626  33.123  28.263  1.00  0.00    -0.237 OA
ATOM     86  O   UNL A   1      35.989  33.166  27.546  1.00  0.00    -0.237 OA
ATOM     87  O   UNL A   1      34.677  31.078  27.381  1.00  0.00    -0.744 OA
ENDBRANCH  80  84
ENDBRANCH  53  77
BRANCH  65  88
ATOM     88  C   UNL A   1      42.728  29.910  33.700  1.00  0.00     0.023 A 
ATOM     89  C   UNL A   1      43.163  30.362  34.958  1.00  0.00     0.031 A 
ATOM     90  C   UNL A   1      42.577  28.521  33.525  1.00  0.00     0.131 A 
ATOM     91  C   UNL A   1      43.501  29.449  35.962  1.00  0.00     0.055 A 
ATOM     92  C   UNL A   1      42.835  27.615  34.561  1.00  0.00     0.041 A 
ATOM     93  F   UNL A   1      42.266  27.992  32.335  1.00  0.00    -0.206 F 
ATOM     94  C   UNL A   1      43.322  28.076  35.779  1.00  0.00     0.022 A 
BRANCH  91  95
ATOM     95  S   UNL A   1      44.351  30.021  37.455  1.00  0.00     0.124 S 
ATOM     96  O   UNL A   1      44.620  28.769  38.157  1.00  0.00    -0.237 OA
ATOM     97  O   UNL A   1      45.526  30.696  36.908  1.00  0.00    -0.237 OA
ATOM     98  O   UNL A   1      43.382  30.902  38.100  1.00  0.00    -0.744 OA
ENDBRANCH  91  95
ENDBRANCH  65  88
ENDBRANCH  39  40
ENDBRANCH  31  34
ENDBRANCH  29  30
ENDBRANCH   1  29
TORSDOF 17
ENDMDL
MODEL 3
REMARK VINA RESULT:     -12.6      3.970      9.197
REMARK SMILES COc1ccc2c(c1)c(CC(=O)NCCCNC(=O)c1ccc(-c3c4nc(c(-c5cc(S(=O)(=O)[O-])ccc5F)c5ccc([nH]5)c(-c5cc(S(=O)(=O)[O-])ccc5F)c5nc(c(-c6cc(S(=O)(=O)[O-])ccc6F)c6ccc3[nH]6)C=C5)C=C4)cc1)c(C)n2C(=O)c1ccc(Cl)cc1
REMARK SMILES IDX 15 1 14 2 13 3 11 4 12 5 10 7 9 8 3 9 4 10 8 11 5 12 7 13
REMARK SMILES IDX 6 14 85 15 83 16 84 17 2 18 1 19 86 20 87 21 88 22 89 23
REMARK SMILES IDX 94 24 90 25 93 26 91 27 92 28 16 29 17 30 18 31 19 33 20 34
REMARK SMILES IDX 21 35 82 36 22 37 81 38 23 39 24 40 25 41 75 42 26 43 80 44
REMARK SMILES IDX 74 45 76 46 27 47 79 48 73 49 72 50 28 52 60 53 40 54 59 55
REMARK SMILES IDX 41 56 44 57 58 58 77 59 42 60 43 61 57 63 78 64 45 65 29 66
REMARK SMILES IDX 30 67 38 68 31 69 37 70 39 71 36 72 32 73 33 74 34 75 35 76
REMARK SMILES IDX 61 77 62 78 70 79 63 80 69 81 71 82 68 83 64 84 65 85 66 86
REMARK SMILES IDX 67 87 46 88 47 89 55 90 48 91 54 92 56 93 53 94 49 95 50 96
REMARK SMILES IDX 51 97 52 98
REMARK H PARENT 13 6 17 32 76 51 44 62
REMARK Flexibility Score: inf
ROOT
ATOM      1  C   UNL A   1      32.226  29.939  26.886  1.00  0.00     0.042 C 
ENDROOT
BRANCH   1   2
ATOM      2  C   UNL A   1      32.003  28.518  26.365  1.00  0.00     0.117 C 
BRANCH   2   3
ATOM      3  N   UNL A   1      32.800  28.212  25.188  1.00  0.00    -0.356 N 
ATOM      4  C   UNL A   1      33.468  27.064  24.873  1.00  0.00     0.224 C 
ATOM      5  O   UNL A   1      34.043  27.006  23.782  1.00  0.00    -0.275 OA
ATOM      6  H   UNL A   1      32.866  28.936  24.524  1.00  0.00     0.163 HD
BRANCH   4   7
ATOM      7  C   UNL A   1      33.451  25.874  25.819  1.00  0.00     0.138 C 
BRANCH   7   8
ATOM      8  C   UNL A   1      33.666  24.557  25.130  1.00  0.00    -0.009 A 
ATOM      9  C   UNL A   1      37.233  23.201  25.346  1.00  0.00     0.119 A 
ATOM     10  C   UNL A   1      37.020  22.098  24.536  1.00  0.00     0.048 A 
ATOM     11  C   UNL A   1      36.173  24.068  25.617  1.00  0.00     0.057 A 
ATOM     12  C   UNL A   1      35.758  21.848  23.984  1.00  0.00     0.031 A 
ATOM     13  C   UNL A   1      34.886  23.828  25.081  1.00  0.00     0.008 A 
ATOM     14  C   UNL A   1      34.671  22.691  24.297  1.00  0.00     0.057 A 
ATOM     15  N   UNL A   1      33.297  22.628  23.987  1.00  0.00    -0.280 N 
ATOM     16  C   UNL A   1      32.738  23.862  24.360  1.00  0.00     0.028 A 
ATOM     17  C   UNL A   1      31.355  24.325  24.011  1.00  0.00     0.065 C 
BRANCH   9  18
ATOM     18  O   UNL A   1      38.420  23.526  25.943  1.00  0.00    -0.497 OA
ATOM     19  C   UNL A   1      38.356  24.548  26.931  1.00  0.00     0.278 C 
ENDBRANCH   9  18
BRANCH  15  20
ATOM     20  C   UNL A   1      32.605  21.523  23.408  1.00  0.00     0.262 C 
ATOM     21  O   UNL A   1      31.981  21.701  22.361  1.00  0.00    -0.268 OA
BRANCH  20  22
ATOM     22  C   UNL A   1      32.570  20.155  23.952  1.00  0.00     0.040 A 
ATOM     23  C   UNL A   1      32.677  19.923  25.328  1.00  0.00     0.015 A 
ATOM     24  C   UNL A   1      32.470  19.087  23.054  1.00  0.00     0.015 A 
ATOM     25  C   UNL A   1      32.799  18.612  25.793  1.00  0.00     0.021 A 
ATOM     26  C   UNL A   1      32.579  17.778  23.526  1.00  0.00     0.021 A 
ATOM     27  C   UNL A   1      32.772  17.548  24.888  1.00  0.00     0.041 A 
ATOM     28  Cl  UNL A   1      33.034  15.943  25.454  1.00  0.00    -0.084 Cl
ENDBRANCH  20  22
ENDBRANCH  15  20
ENDBRANCH   7   8
ENDBRANCH   4   7
ENDBRANCH   2   3
ENDBRANCH   1   2
BRANCH   1  29
ATOM     29  C   UNL A   1      33.686  30.256  27.203  1.00  0.00     0.118 C 
BRANCH  29  30
ATOM     30  N   UNL A   1      33.866  31.361  28.123  1.00  0.00    -0.352 N 
ATOM     31  C   UNL A   1      34.885  31.839  28.897  1.00  0.00     0.251 C 
ATOM     32  H   UNL A   1      33.048  31.902  28.215  1.00  0.00     0.163 HD
ATOM     33  O   UNL A   1      34.651  32.912  29.464  1.00  0.00    -0.269 OA
BRANCH  31  34
ATOM     34  C   UNL A   1      36.183  31.157  29.158  1.00  0.00     0.039 A 
ATOM     35  C   UNL A   1      37.405  31.783  29.398  1.00  0.00     0.014 A 
ATOM     36  C   UNL A   1      36.152  29.749  29.092  1.00  0.00     0.014 A 
ATOM     37  C   UNL A   1      38.577  31.027  29.464  1.00  0.00     0.010 A 
ATOM     38  C   UNL A   1      37.315  28.991  29.167  1.00  0.00     0.010 A 
ATOM     39  C   UNL A   1      38.537  29.636  29.300  1.00  0.00    -0.014 A 
BRANCH  39  40
ATOM     40  C   UNL A   1      39.789  28.886  29.404  1.00  0.00     0.031 A 
ATOM     41  C   UNL A   1      40.230  28.637  30.806  1.00  0.00     0.074 A 
ATOM     42  C   UNL A   1      40.452  28.365  28.349  1.00  0.00     0.049 A 
ATOM     43  N   UNL A   1      41.264  29.119  31.412  1.00  0.00    -0.248 NA
ATOM     44  C   UNL A   1      39.323  27.884  31.686  1.00  0.00     0.031 C 
ATOM     45  C   UNL A   1      39.990  28.262  26.962  1.00  0.00     0.029 A 
ATOM     46  N   UNL A   1      41.658  27.727  28.312  1.00  0.00    -0.354 N 
ATOM     47  C   UNL A   1      41.255  28.569  32.694  1.00  0.00     0.074 A 
ATOM     48  C   UNL A   1      39.959  27.962  32.855  1.00  0.00     0.031 C 
ATOM     49  C   UNL A   1      40.791  27.406  26.283  1.00  0.00     0.029 A 
ATOM     50  C   UNL A   1      41.904  27.026  27.136  1.00  0.00     0.049 A 
ATOM     51  H   UNL A   1      42.302  27.762  29.056  1.00  0.00     0.167 HD
ATOM     52  C   UNL A   1      42.393  28.481  33.441  1.00  0.00     0.034 A 
ATOM     53  C   UNL A   1      42.914  26.150  26.892  1.00  0.00     0.034 A 
ATOM     54  C   UNL A   1      43.431  29.312  32.890  1.00  0.00     0.049 A 
ATOM     55  C   UNL A   1      43.981  26.383  27.890  1.00  0.00     0.074 A 
ATOM     56  C   UNL A   1      43.613  30.667  32.723  1.00  0.00     0.029 A 
ATOM     57  N   UNL A   1      44.346  28.693  32.075  1.00  0.00    -0.354 N 
ATOM     58  N   UNL A   1      44.733  27.445  27.920  1.00  0.00    -0.248 NA
ATOM     59  C   UNL A   1      43.920  25.619  29.125  1.00  0.00     0.031 C 
ATOM     60  C   UNL A   1      44.323  30.794  31.496  1.00  0.00     0.029 A 
ATOM     61  C   UNL A   1      44.602  29.513  31.011  1.00  0.00     0.049 A 
ATOM     62  H   UNL A   1      44.751  27.810  32.231  1.00  0.00     0.167 HD
ATOM     63  C   UNL A   1      44.837  27.746  29.268  1.00  0.00     0.074 A 
ATOM     64  C   UNL A   1      44.422  26.529  29.963  1.00  0.00     0.031 C 
ATOM     65  C   UNL A   1      44.966  29.038  29.689  1.00  0.00     0.034 A 
BRANCH  52  66
ATOM     66  C   UNL A   1      42.690  27.380  34.439  1.00  0.00     0.023 A 
ATOM     67  C   UNL A   1      43.284  26.155  34.088  1.00  0.00     0.031 A 
ATOM     68  C   UNL A   1      42.600  27.637  35.826  1.00  0.00     0.131 A 
ATOM     69  C   UNL A   1      43.770  25.264  35.056  1.00  0.00     0.055 A 
ATOM     70  C   UNL A   1      43.142  26.779  36.792  1.00  0.00     0.041 A 
ATOM     71  F   UNL A   1      42.041  28.765  36.289  1.00  0.00    -0.206 F 
ATOM     72  C   UNL A   1      43.737  25.586  36.408  1.00  0.00     0.022 A 
BRANCH  69  73
ATOM     73  S   UNL A   1      44.481  23.671  34.561  1.00  0.00     0.124 S 
ATOM     74  O   UNL A   1      45.675  24.086  33.832  1.00  0.00    -0.237 OA
ATOM     75  O   UNL A   1      44.718  23.040  35.857  1.00  0.00    -0.237 OA
ATOM     76  O   UNL A   1      43.426  23.059  33.758  1.00  0.00    -0.744 OA
ENDBRANCH  69  73
ENDBRANCH  52  66
BRANCH  53  77
ATOM     77  C   UNL A   1      42.806  24.848  26.186  1.00  0.00     0.023 A 
ATOM     78  C   UNL A   1      41.945  23.862  26.700  1.00  0.00     0.031 A 
ATOM     79  C   UNL A   1      43.768  24.437  25.244  1.00  0.00     0.131 A 
ATOM     80  C   UNL A   1      42.094  22.520  26.326  1.00  0.00     0.055 A 
ATOM     81  C   UNL A   1      43.899  23.098  24.853  1.00  0.00     0.041 A 
ATOM     82  F   UNL A   1      44.652  25.316  24.745  1.00  0.00    -0.206 F 
ATOM     83  C   UNL A   1      43.070  22.128  25.409  1.00  0.00     0.022 A 
BRANCH  80  84
ATOM     84  S   UNL A   1      41.091  21.235  27.122  1.00  0.00     0.124 S 
ATOM     85  O   UNL A   1      40.140  20.892  26.067  1.00  0.00    -0.237 OA
ATOM     86  O   UNL A   1      42.094  20.220  27.422  1.00  0.00    -0.237 OA
ATOM     87  O   UNL A   1      40.512  21.919  28.275  1.00  0.00    -0.744 OA
ENDBRANCH  80  84
ENDBRANCH  53  77
BRANCH  65  88
ATOM     88  C   UNL A   1      45.287  30.112  28.671  1.00  0.00     0.023 A 
ATOM     89  C   UNL A   1      46.643  30.455  28.529  1.00  0.00     0.031 A 
ATOM     90  C   UNL A   1      44.338  30.942  28.044  1.00  0.00     0.131 A 
ATOM     91  C   UNL A   1      47.013  31.620  27.851  1.00  0.00     0.055 A 
ATOM     92  C   UNL A   1      44.719  32.061  27.293  1.00  0.00     0.041 A 
ATOM     93  F   UNL A   1      43.022  30.754  28.206  1.00  0.00    -0.206 F 
ATOM     94  C   UNL A   1      46.061  32.418  27.214  1.00  0.00     0.022 A 
BRANCH  91  95
ATOM     95  S   UNL A   1      48.721  32.215  27.942  1.00  0.00     0.124 S 
ATOM     96  O   UNL A   1      49.340  31.243  28.840  1.00  0.00    -0.237 OA
ATOM     97  O   UNL A   1      49.154  32.143  26.547  1.00  0.00    -0.237 OA
ATOM     98  O   UNL A   1      48.598  33.568  28.477  1.00  0.00    -0.744 OA
ENDBRANCH  91  95
ENDBRANCH  65  88
ENDBRANCH  39  40
ENDBRANCH  31  34
ENDBRANCH  29  30
ENDBRANCH   1  29
TORSDOF 17
ENDMDL
