MODEL 1
REMARK VINA RESULT:     -12.1      0.000      0.000
REMARK SMILES Cn1ccc(C(=O)NCc2ccc(C(=O)NCCCNC(=O)c3ccc(-c4c5nc(c(-c6cc(S(=O)(=O)[O-])ccc6F)c6ccc([nH]6)c(-c6cc(S(=O)(=O)[O-])ccc6F)c6nc(c(-c7cc(S(=O)(=O)[O-])ccc7F)c7ccc4[nH]7)C=C6)C=C5)cc3)cc2)cc1=O
REMARK SMILES IDX 18 1 17 2 16 3 14 4 15 5 13 7 10 8 11 9 87 10 12 11 86 12
REMARK SMILES IDX 9 13 8 14 6 15 7 16 5 18 1 19 2 20 3 21 89 22 4 23 88 24
REMARK SMILES IDX 90 25 19 26 20 27 21 28 22 30 23 31 24 32 85 33 25 34 84 35
REMARK SMILES IDX 26 36 27 37 28 38 78 39 29 40 83 41 77 42 79 43 30 44 82 45
REMARK SMILES IDX 76 46 75 47 31 49 63 50 43 51 62 52 44 53 47 54 61 55 80 56
REMARK SMILES IDX 45 57 46 58 60 60 81 61 48 62 32 63 33 64 41 65 34 66 40 67
REMARK SMILES IDX 42 68 39 69 35 70 36 71 37 72 38 73 64 74 65 75 73 76 66 77
REMARK SMILES IDX 72 78 74 79 71 80 67 81 68 82 69 83 70 84 49 85 50 86 58 87
REMARK SMILES IDX 51 88 57 89 59 90 56 91 52 92 53 93 54 94 55 95
REMARK H PARENT 16 6 8 17 20 29 79 48 47 59
REMARK Flexibility Score: inf
ROOT
ATOM      1  C   UNL A   1      31.490  32.028  26.462  1.00  0.00     0.042 C 
ENDROOT
BRANCH   1   2
ATOM      2  C   UNL A   1      31.664  30.610  25.917  1.00  0.00     0.118 C 
BRANCH   2   3
ATOM      3  N   UNL A   1      31.515  29.607  26.958  1.00  0.00    -0.352 N 
ATOM      4  C   UNL A   1      31.749  28.254  26.968  1.00  0.00     0.251 C 
ATOM      5  O   UNL A   1      31.669  27.667  28.048  1.00  0.00    -0.269 OA
ATOM      6  H   UNL A   1      31.185  29.963  27.814  1.00  0.00     0.163 HD
BRANCH   4   7
ATOM      7  C   UNL A   1      32.118  27.474  25.753  1.00  0.00     0.039 A 
ATOM      8  C   UNL A   1      32.669  26.023  23.376  1.00  0.00    -0.029 A 
ATOM      9  C   UNL A   1      31.349  26.252  23.782  1.00  0.00     0.006 A 
ATOM     10  C   UNL A   1      33.700  26.570  24.154  1.00  0.00     0.006 A 
ATOM     11  C   UNL A   1      31.079  26.963  24.960  1.00  0.00     0.014 A 
ATOM     12  C   UNL A   1      33.428  27.296  25.316  1.00  0.00     0.014 A 
BRANCH   8  13
ATOM     13  C   UNL A   1      32.966  25.297  22.081  1.00  0.00     0.152 C 
BRANCH  13  14
ATOM     14  N   UNL A   1      32.471  23.934  22.108  1.00  0.00    -0.348 N 
ATOM     15  C   UNL A   1      32.957  22.756  22.566  1.00  0.00     0.251 C 
ATOM     16  O   UNL A   1      32.323  21.741  22.260  1.00  0.00    -0.269 OA
ATOM     17  H   UNL A   1      31.580  23.845  21.699  1.00  0.00     0.164 HD
BRANCH  15  18
ATOM     18  C   UNL A   1      34.123  22.637  23.500  1.00  0.00     0.046 A 
ATOM     19  C   UNL A   1      37.735  22.249  25.704  1.00  0.00     0.153 C 
ATOM     20  N   UNL A   1      36.485  22.416  24.982  1.00  0.00    -0.319 N 
ATOM     21  C   UNL A   1      36.526  22.952  23.713  1.00  0.00     0.089 A 
ATOM     22  C   UNL A   1      35.286  22.050  25.588  1.00  0.00     0.251 A 
ATOM     23  C   UNL A   1      35.414  23.068  22.981  1.00  0.00     0.032 A 
ATOM     24  C   UNL A   1      34.050  22.231  24.776  1.00  0.00     0.085 A 
ATOM     25  O   UNL A   1      35.188  21.576  26.718  1.00  0.00    -0.269 OA
ENDBRANCH  15  18
ENDBRANCH  13  14
ENDBRANCH   8  13
ENDBRANCH   4   7
ENDBRANCH   2   3
ENDBRANCH   1   2
BRANCH   1  26
ATOM     26  C   UNL A   1      32.626  32.484  27.372  1.00  0.00     0.118 C 
BRANCH  26  27
ATOM     27  N   UNL A   1      32.556  33.908  27.661  1.00  0.00    -0.352 N 
ATOM     28  C   UNL A   1      33.227  34.650  28.600  1.00  0.00     0.251 C 
ATOM     29  H   UNL A   1      31.931  34.418  27.095  1.00  0.00     0.163 HD
ATOM     30  O   UNL A   1      32.842  35.799  28.834  1.00  0.00    -0.269 OA
BRANCH  28  31
ATOM     31  C   UNL A   1      34.383  34.091  29.335  1.00  0.00     0.039 A 
ATOM     32  C   UNL A   1      34.148  33.181  30.372  1.00  0.00     0.014 A 
ATOM     33  C   UNL A   1      35.690  34.492  29.047  1.00  0.00     0.014 A 
ATOM     34  C   UNL A   1      35.222  32.641  31.083  1.00  0.00     0.010 A 
ATOM     35  C   UNL A   1      36.764  33.898  29.708  1.00  0.00     0.010 A 
ATOM     36  C   UNL A   1      36.542  32.975  30.741  1.00  0.00    -0.014 A 
BRANCH  36  37
ATOM     37  C   UNL A   1      37.701  32.389  31.463  1.00  0.00     0.031 A 
ATOM     38  C   UNL A   1      38.476  31.254  30.852  1.00  0.00     0.074 A 
ATOM     39  C   UNL A   1      38.015  32.835  32.695  1.00  0.00     0.049 A 
ATOM     40  N   UNL A   1      39.464  30.556  31.353  1.00  0.00    -0.248 NA
ATOM     41  C   UNL A   1      38.056  30.827  29.511  1.00  0.00     0.031 C 
ATOM     42  C   UNL A   1      37.320  33.911  33.405  1.00  0.00     0.029 A 
ATOM     43  N   UNL A   1      38.993  32.436  33.570  1.00  0.00    -0.354 N 
ATOM     44  C   UNL A   1      39.772  29.595  30.396  1.00  0.00     0.074 A 
ATOM     45  C   UNL A   1      38.819  29.762  29.318  1.00  0.00     0.031 C 
ATOM     46  C   UNL A   1      37.916  34.107  34.593  1.00  0.00     0.029 A 
ATOM     47  C   UNL A   1      38.999  33.142  34.750  1.00  0.00     0.049 A 
ATOM     48  H   UNL A   1      39.630  31.712  33.372  1.00  0.00     0.167 HD
ATOM     49  C   UNL A   1      40.771  28.675  30.403  1.00  0.00     0.034 A 
ATOM     50  C   UNL A   1      39.785  33.022  35.837  1.00  0.00     0.034 A 
ATOM     51  C   UNL A   1      41.715  28.530  31.487  1.00  0.00     0.049 A 
ATOM     52  C   UNL A   1      40.860  31.968  35.847  1.00  0.00     0.074 A 
ATOM     53  C   UNL A   1      42.802  27.678  31.579  1.00  0.00     0.029 A 
ATOM     54  N   UNL A   1      41.676  29.248  32.677  1.00  0.00    -0.354 N 
ATOM     55  N   UNL A   1      41.173  31.095  34.916  1.00  0.00    -0.248 NA
ATOM     56  C   UNL A   1      41.693  31.887  37.054  1.00  0.00     0.031 C 
ATOM     57  C   UNL A   1      43.374  27.829  32.848  1.00  0.00     0.029 A 
ATOM     58  C   UNL A   1      42.695  28.832  33.522  1.00  0.00     0.049 A 
ATOM     59  H   UNL A   1      41.021  29.952  32.889  1.00  0.00     0.167 HD
ATOM     60  C   UNL A   1      42.261  30.384  35.413  1.00  0.00     0.074 A 
ATOM     61  C   UNL A   1      42.552  30.934  36.722  1.00  0.00     0.031 C 
ATOM     62  C   UNL A   1      42.962  29.374  34.835  1.00  0.00     0.034 A 
BRANCH  49  63
ATOM     63  C   UNL A   1      40.853  27.737  29.219  1.00  0.00     0.023 A 
ATOM     64  C   UNL A   1      41.773  27.944  28.174  1.00  0.00     0.031 A 
ATOM     65  C   UNL A   1      39.956  26.662  29.094  1.00  0.00     0.131 A 
ATOM     66  C   UNL A   1      41.699  27.167  27.008  1.00  0.00     0.055 A 
ATOM     67  C   UNL A   1      39.954  25.827  27.972  1.00  0.00     0.041 A 
ATOM     68  F   UNL A   1      39.041  26.418  30.046  1.00  0.00    -0.206 F 
ATOM     69  C   UNL A   1      40.814  26.093  26.910  1.00  0.00     0.022 A 
BRANCH  66  70
ATOM     70  S   UNL A   1      42.637  27.708  25.552  1.00  0.00     0.124 S 
ATOM     71  O   UNL A   1      43.956  27.963  26.129  1.00  0.00    -0.237 OA
ATOM     72  O   UNL A   1      42.538  26.554  24.667  1.00  0.00    -0.237 OA
ATOM     73  O   UNL A   1      41.921  28.901  25.107  1.00  0.00    -0.744 OA
ENDBRANCH  66  70
ENDBRANCH  49  63
BRANCH  50  74
ATOM     74  C   UNL A   1      39.592  33.930  37.002  1.00  0.00     0.023 A 
ATOM     75  C   UNL A   1      38.960  33.473  38.168  1.00  0.00     0.031 A 
ATOM     76  C   UNL A   1      40.030  35.265  36.965  1.00  0.00     0.131 A 
ATOM     77  C   UNL A   1      38.756  34.351  39.243  1.00  0.00     0.055 A 
ATOM     78  C   UNL A   1      39.864  36.124  38.053  1.00  0.00     0.041 A 
ATOM     79  F   UNL A   1      40.649  35.747  35.876  1.00  0.00    -0.206 F 
ATOM     80  C   UNL A   1      39.215  35.670  39.198  1.00  0.00     0.022 A 
BRANCH  77  81
ATOM     81  S   UNL A   1      37.836  33.757  40.688  1.00  0.00     0.124 S 
ATOM     82  O   UNL A   1      37.412  35.007  41.306  1.00  0.00    -0.237 OA
ATOM     83  O   UNL A   1      36.784  32.957  40.070  1.00  0.00    -0.237 OA
ATOM     84  O   UNL A   1      38.835  32.997  41.437  1.00  0.00    -0.744 OA
ENDBRANCH  77  81
ENDBRANCH  50  74
BRANCH  62  85
ATOM     85  C   UNL A   1      44.142  28.834  35.606  1.00  0.00     0.023 A 
ATOM     86  C   UNL A   1      44.023  27.730  36.468  1.00  0.00     0.031 A 
ATOM     87  C   UNL A   1      45.403  29.446  35.486  1.00  0.00     0.131 A 
ATOM     88  C   UNL A   1      45.133  27.306  37.218  1.00  0.00     0.055 A 
ATOM     89  C   UNL A   1      46.516  28.982  36.187  1.00  0.00     0.041 A 
ATOM     90  F   UNL A   1      45.574  30.508  34.680  1.00  0.00    -0.206 F 
ATOM     91  C   UNL A   1      46.381  27.915  37.070  1.00  0.00     0.022 A 
BRANCH  88  92
ATOM     92  S   UNL A   1      44.899  26.006  38.460  1.00  0.00     0.124 S 
ATOM     93  O   UNL A   1      46.273  25.612  38.752  1.00  0.00    -0.237 OA
ATOM     94  O   UNL A   1      44.199  26.714  39.527  1.00  0.00    -0.237 OA
ATOM     95  O   UNL A   1      44.102  25.000  37.759  1.00  0.00    -0.744 OA
ENDBRANCH  88  92
ENDBRANCH  62  85
ENDBRANCH  36  37
ENDBRANCH  28  31
ENDBRANCH  26  27
ENDBRANCH   1  26
TORSDOF 16
ENDMDL
MODEL 2
REMARK VINA RESULT:     -12.1      2.333      8.094
REMARK SMILES Cn1ccc(C(=O)NCc2ccc(C(=O)NCCCNC(=O)c3ccc(-c4c5nc(c(-c6cc(S(=O)(=O)[O-])ccc6F)c6ccc([nH]6)c(-c6cc(S(=O)(=O)[O-])ccc6F)c6nc(c(-c7cc(S(=O)(=O)[O-])ccc7F)c7ccc4[nH]7)C=C6)C=C5)cc3)cc2)cc1=O
REMARK SMILES IDX 18 1 17 2 16 3 14 4 15 5 13 7 10 8 11 9 87 10 12 11 86 12
REMARK SMILES IDX 9 13 8 14 6 15 7 16 5 18 1 19 2 20 3 21 89 22 4 23 88 24
REMARK SMILES IDX 90 25 19 26 20 27 21 28 22 30 23 31 24 32 85 33 25 34 84 35
REMARK SMILES IDX 26 36 27 37 28 38 78 39 29 40 83 41 77 42 79 43 30 44 82 45
REMARK SMILES IDX 76 46 75 47 31 49 63 50 43 51 62 52 44 53 47 54 61 55 80 56
REMARK SMILES IDX 45 57 46 58 60 60 81 61 48 62 32 63 33 64 41 65 34 66 40 67
REMARK SMILES IDX 42 68 39 69 35 70 36 71 37 72 38 73 64 74 65 75 73 76 66 77
REMARK SMILES IDX 72 78 74 79 71 80 67 81 68 82 69 83 70 84 49 85 50 86 58 87
REMARK SMILES IDX 51 88 57 89 59 90 56 91 52 92 53 93 54 94 55 95
REMARK H PARENT 16 6 8 17 20 29 79 48 47 59
REMARK Flexibility Score: inf
ROOT
ATOM      1  C   UNL A   1      30.995  31.899  26.162  1.00  0.00     0.042 C 
ENDROOT
BRANCH   1   2
ATOM      2  C   UNL A   1      31.063  30.687  25.233  1.00  0.00     0.118 C 
BRANCH   2   3
ATOM      3  N   UNL A   1      30.255  30.872  24.039  1.00  0.00    -0.352 N 
ATOM      4  C   UNL A   1      29.653  29.975  23.191  1.00  0.00     0.251 C 
ATOM      5  O   UNL A   1      28.900  30.423  22.326  1.00  0.00    -0.269 OA
ATOM      6  H   UNL A   1      30.113  31.814  23.793  1.00  0.00     0.163 HD
BRANCH   4   7
ATOM      7  C   UNL A   1      29.843  28.500  23.284  1.00  0.00     0.039 A 
ATOM      8  C   UNL A   1      30.372  25.717  23.469  1.00  0.00    -0.029 A 
ATOM      9  C   UNL A   1      31.355  26.600  23.006  1.00  0.00     0.006 A 
ATOM     10  C   UNL A   1      29.143  26.255  23.877  1.00  0.00     0.006 A 
ATOM     11  C   UNL A   1      31.090  27.974  22.909  1.00  0.00     0.014 A 
ATOM     12  C   UNL A   1      28.889  27.627  23.800  1.00  0.00     0.014 A 
BRANCH   8  13
ATOM     13  C   UNL A   1      30.668  24.239  23.620  1.00  0.00     0.152 C 
BRANCH  13  14
ATOM     14  N   UNL A   1      30.529  23.807  24.998  1.00  0.00    -0.348 N 
ATOM     15  C   UNL A   1      31.068  24.199  26.176  1.00  0.00     0.251 C 
ATOM     16  O   UNL A   1      30.847  23.476  27.152  1.00  0.00    -0.269 OA
ATOM     17  H   UNL A   1      29.900  23.056  25.098  1.00  0.00     0.164 HD
BRANCH  15  18
ATOM     18  C   UNL A   1      31.798  25.493  26.374  1.00  0.00     0.046 A 
ATOM     19  C   UNL A   1      34.320  28.866  26.937  1.00  0.00     0.153 C 
ATOM     20  N   UNL A   1      33.430  27.739  26.714  1.00  0.00    -0.319 N 
ATOM     21  C   UNL A   1      33.923  26.633  26.054  1.00  0.00     0.089 A 
ATOM     22  C   UNL A   1      32.110  27.807  27.151  1.00  0.00     0.251 A 
ATOM     23  C   UNL A   1      33.166  25.546  25.879  1.00  0.00     0.032 A 
ATOM     24  C   UNL A   1      31.267  26.604  26.904  1.00  0.00     0.085 A 
ATOM     25  O   UNL A   1      31.614  28.768  27.734  1.00  0.00    -0.269 OA
ENDBRANCH  15  18
ENDBRANCH  13  14
ENDBRANCH   8  13
ENDBRANCH   4   7
ENDBRANCH   2   3
ENDBRANCH   1   2
BRANCH   1  26
ATOM     26  C   UNL A   1      32.306  32.203  26.881  1.00  0.00     0.118 C 
BRANCH  26  27
ATOM     27  N   UNL A   1      32.404  33.601  27.268  1.00  0.00    -0.352 N 
ATOM     28  C   UNL A   1      33.212  34.202  28.200  1.00  0.00     0.251 C 
ATOM     29  H   UNL A   1      31.799  34.211  26.787  1.00  0.00     0.163 HD
ATOM     30  O   UNL A   1      32.966  35.363  28.538  1.00  0.00    -0.269 OA
BRANCH  28  31
ATOM     31  C   UNL A   1      34.351  33.478  28.806  1.00  0.00     0.039 A 
ATOM     32  C   UNL A   1      35.649  33.947  28.576  1.00  0.00     0.014 A 
ATOM     33  C   UNL A   1      34.158  32.315  29.555  1.00  0.00     0.014 A 
ATOM     34  C   UNL A   1      36.743  33.280  29.133  1.00  0.00     0.010 A 
ATOM     35  C   UNL A   1      35.242  31.692  30.171  1.00  0.00     0.010 A 
ATOM     36  C   UNL A   1      36.547  32.161  29.958  1.00  0.00    -0.014 A 
BRANCH  36  37
ATOM     37  C   UNL A   1      37.693  31.453  30.587  1.00  0.00     0.031 A 
ATOM     38  C   UNL A   1      38.109  31.792  31.993  1.00  0.00     0.074 A 
ATOM     39  C   UNL A   1      38.397  30.556  29.872  1.00  0.00     0.049 A 
ATOM     40  N   UNL A   1      39.124  31.348  32.689  1.00  0.00    -0.248 NA
ATOM     41  C   UNL A   1      37.288  32.790  32.692  1.00  0.00     0.031 C 
ATOM     42  C   UNL A   1      38.110  30.164  28.491  1.00  0.00     0.029 A 
ATOM     43  N   UNL A   1      39.503  29.814  30.204  1.00  0.00    -0.354 N 
ATOM     44  C   UNL A   1      39.076  32.027  33.903  1.00  0.00     0.074 A 
ATOM     45  C   UNL A   1      37.970  32.958  33.814  1.00  0.00     0.031 C 
ATOM     46  C   UNL A   1      38.996  29.232  28.107  1.00  0.00     0.029 A 
ATOM     47  C   UNL A   1      39.942  28.995  29.192  1.00  0.00     0.049 A 
ATOM     48  H   UNL A   1      39.940  29.865  31.085  1.00  0.00     0.167 HD
ATOM     49  C   UNL A   1      39.865  31.872  34.998  1.00  0.00     0.034 A 
ATOM     50  C   UNL A   1      40.991  28.152  29.142  1.00  0.00     0.034 A 
ATOM     51  C   UNL A   1      40.959  30.931  35.066  1.00  0.00     0.049 A 
ATOM     52  C   UNL A   1      41.882  28.023  30.349  1.00  0.00     0.074 A 
ATOM     53  C   UNL A   1      41.786  30.643  36.139  1.00  0.00     0.029 A 
ATOM     54  N   UNL A   1      41.389  30.133  34.012  1.00  0.00    -0.354 N 
ATOM     55  N   UNL A   1      41.799  28.636  31.509  1.00  0.00    -0.248 NA
ATOM     56  C   UNL A   1      43.005  27.083  30.243  1.00  0.00     0.031 C 
ATOM     57  C   UNL A   1      42.758  29.729  35.713  1.00  0.00     0.029 A 
ATOM     58  C   UNL A   1      42.491  29.382  34.397  1.00  0.00     0.049 A 
ATOM     59  H   UNL A   1      40.972  30.103  33.121  1.00  0.00     0.167 HD
ATOM     60  C   UNL A   1      42.840  28.130  32.281  1.00  0.00     0.074 A 
ATOM     61  C   UNL A   1      43.533  27.158  31.456  1.00  0.00     0.031 C 
ATOM     62  C   UNL A   1      43.187  28.433  33.558  1.00  0.00     0.034 A 
BRANCH  49  63
ATOM     63  C   UNL A   1      39.586  32.772  36.182  1.00  0.00     0.023 A 
ATOM     64  C   UNL A   1      38.865  32.318  37.301  1.00  0.00     0.031 A 
ATOM     65  C   UNL A   1      39.983  34.121  36.164  1.00  0.00     0.131 A 
ATOM     66  C   UNL A   1      38.466  33.226  38.295  1.00  0.00     0.055 A 
ATOM     67  C   UNL A   1      39.669  34.997  37.206  1.00  0.00     0.041 A 
ATOM     68  F   UNL A   1      40.660  34.622  35.118  1.00  0.00    -0.206 F 
ATOM     69  C   UNL A   1      38.886  34.556  38.269  1.00  0.00     0.022 A 
BRANCH  66  70
ATOM     70  S   UNL A   1      37.230  32.685  39.509  1.00  0.00     0.124 S 
ATOM     71  O   UNL A   1      37.345  33.725  40.529  1.00  0.00    -0.237 OA
ATOM     72  O   UNL A   1      35.999  32.687  38.729  1.00  0.00    -0.237 OA
ATOM     73  O   UNL A   1      37.709  31.367  39.920  1.00  0.00    -0.744 OA
ENDBRANCH  66  70
ENDBRANCH  49  63
BRANCH  50  74
ATOM     74  C   UNL A   1      41.252  27.356  27.911  1.00  0.00     0.023 A 
ATOM     75  C   UNL A   1      40.993  25.977  27.882  1.00  0.00     0.031 A 
ATOM     76  C   UNL A   1      41.769  27.956  26.750  1.00  0.00     0.131 A 
ATOM     77  C   UNL A   1      41.277  25.236  26.725  1.00  0.00     0.055 A 
ATOM     78  C   UNL A   1      42.010  27.224  25.587  1.00  0.00     0.041 A 
ATOM     79  F   UNL A   1      42.024  29.274  26.723  1.00  0.00    -0.206 F 
ATOM     80  C   UNL A   1      41.771  25.851  25.573  1.00  0.00     0.022 A 
BRANCH  77  81
ATOM     81  S   UNL A   1      41.035  23.439  26.764  1.00  0.00     0.124 S 
ATOM     82  O   UNL A   1      41.433  23.114  28.129  1.00  0.00    -0.237 OA
ATOM     83  O   UNL A   1      39.613  23.318  26.463  1.00  0.00    -0.237 OA
ATOM     84  O   UNL A   1      41.934  22.953  25.719  1.00  0.00    -0.744 OA
ENDBRANCH  77  81
ENDBRANCH  50  74
BRANCH  62  85
ATOM     85  C   UNL A   1      44.344  27.666  34.152  1.00  0.00     0.023 A 
ATOM     86  C   UNL A   1      44.166  26.418  34.773  1.00  0.00     0.031 A 
ATOM     87  C   UNL A   1      45.643  28.203  34.107  1.00  0.00     0.131 A 
ATOM     88  C   UNL A   1      45.261  25.773  35.372  1.00  0.00     0.055 A 
ATOM     89  C   UNL A   1      46.737  27.530  34.650  1.00  0.00     0.041 A 
ATOM     90  F   UNL A   1      45.871  29.395  33.530  1.00  0.00    -0.206 F 
ATOM     91  C   UNL A   1      46.547  26.314  35.300  1.00  0.00     0.022 A 
BRANCH  88  92
ATOM     92  S   UNL A   1      44.965  24.262  36.330  1.00  0.00     0.124 S 
ATOM     93  O   UNL A   1      43.656  23.842  35.840  1.00  0.00    -0.237 OA
ATOM     94  O   UNL A   1      46.090  23.419  35.942  1.00  0.00    -0.237 OA
ATOM     95  O   UNL A   1      44.989  24.724  37.717  1.00  0.00    -0.744 OA
ENDBRANCH  88  92
ENDBRANCH  62  85
ENDBRANCH  36  37
ENDBRANCH  28  31
ENDBRANCH  26  27
ENDBRANCH   1  26
TORSDOF 16
ENDMDL
MODEL 3
REMARK VINA RESULT:     -12.1      2.468      3.364
REMARK SMILES Cn1ccc(C(=O)NCc2ccc(C(=O)NCCCNC(=O)c3ccc(-c4c5nc(c(-c6cc(S(=O)(=O)[O-])ccc6F)c6ccc([nH]6)c(-c6cc(S(=O)(=O)[O-])ccc6F)c6nc(c(-c7cc(S(=O)(=O)[O-])ccc7F)c7ccc4[nH]7)C=C6)C=C5)cc3)cc2)cc1=O
REMARK SMILES IDX 18 1 17 2 16 3 14 4 15 5 13 7 10 8 11 9 87 10 12 11 86 12
REMARK SMILES IDX 9 13 8 14 6 15 7 16 5 18 1 19 2 20 3 21 89 22 4 23 88 24
REMARK SMILES IDX 90 25 19 26 20 27 21 28 22 30 23 31 24 32 85 33 25 34 84 35
REMARK SMILES IDX 26 36 27 37 28 38 78 39 29 40 83 41 77 42 79 43 30 44 82 45
REMARK SMILES IDX 76 46 75 47 31 49 63 50 43 51 62 52 44 53 47 54 61 55 80 56
REMARK SMILES IDX 45 57 46 58 60 60 81 61 48 62 32 63 33 64 41 65 34 66 40 67
REMARK SMILES IDX 42 68 39 69 35 70 36 71 37 72 38 73 64 74 65 75 73 76 66 77
REMARK SMILES IDX 72 78 74 79 71 80 67 81 68 82 69 83 70 84 49 85 50 86 58 87
REMARK SMILES IDX 51 88 57 89 59 90 56 91 52 92 53 93 54 94 55 95
REMARK H PARENT 16 6 8 17 20 29 79 48 47 59
REMARK Flexibility Score: inf
ROOT
ATOM      1  C   UNL A   1      33.788  29.215  23.819  1.00  0.00     0.042 C 
ENDROOT
BRANCH   1   2
ATOM      2  C   UNL A   1      33.375  28.025  22.951  1.00  0.00     0.118 C 
BRANCH   2   3
ATOM      3  N   UNL A   1      32.046  28.200  22.388  1.00  0.00    -0.352 N 
ATOM      4  C   UNL A   1      30.868  27.525  22.593  1.00  0.00     0.251 C 
ATOM      5  O   UNL A   1      29.848  27.986  22.079  1.00  0.00    -0.269 OA
ATOM      6  H   UNL A   1      31.979  28.937  21.741  1.00  0.00     0.163 HD
BRANCH   4   7
ATOM      7  C   UNL A   1      30.759  26.292  23.421  1.00  0.00     0.039 A 
ATOM      8  C   UNL A   1      30.656  23.864  24.890  1.00  0.00    -0.029 A 
ATOM      9  C   UNL A   1      31.003  23.862  23.534  1.00  0.00     0.006 A 
ATOM     10  C   UNL A   1      30.407  25.100  25.504  1.00  0.00     0.006 A 
ATOM     11  C   UNL A   1      31.047  25.062  22.808  1.00  0.00     0.014 A 
ATOM     12  C   UNL A   1      30.473  26.296  24.784  1.00  0.00     0.014 A 
BRANCH   8  13
ATOM     13  C   UNL A   1      30.653  22.578  25.690  1.00  0.00     0.152 C 
BRANCH  13  14
ATOM     14  N   UNL A   1      31.375  22.727  26.940  1.00  0.00    -0.348 N 
ATOM     15  C   UNL A   1      32.669  22.585  27.313  1.00  0.00     0.251 C 
ATOM     16  O   UNL A   1      32.902  22.625  28.525  1.00  0.00    -0.269 OA
ATOM     17  H   UNL A   1      30.790  22.990  27.687  1.00  0.00     0.164 HD
BRANCH  15  18
ATOM     18  C   UNL A   1      33.814  22.504  26.349  1.00  0.00     0.046 A 
ATOM     19  C   UNL A   1      36.824  22.682  23.354  1.00  0.00     0.153 C 
ATOM     20  N   UNL A   1      35.829  22.613  24.412  1.00  0.00    -0.319 N 
ATOM     21  C   UNL A   1      35.128  23.757  24.730  1.00  0.00     0.089 A 
ATOM     22  C   UNL A   1      35.622  21.412  25.085  1.00  0.00     0.251 A 
ATOM     23  C   UNL A   1      34.159  23.734  25.650  1.00  0.00     0.032 A 
ATOM     24  C   UNL A   1      34.571  21.417  26.142  1.00  0.00     0.085 A 
ATOM     25  O   UNL A   1      36.222  20.365  24.853  1.00  0.00    -0.269 OA
ENDBRANCH  15  18
ENDBRANCH  13  14
ENDBRANCH   8  13
ENDBRANCH   4   7
ENDBRANCH   2   3
ENDBRANCH   1   2
BRANCH   1  26
ATOM     26  C   UNL A   1      33.267  29.147  25.251  1.00  0.00     0.118 C 
BRANCH  26  27
ATOM     27  N   UNL A   1      32.763  30.432  25.710  1.00  0.00    -0.352 N 
ATOM     28  C   UNL A   1      33.113  31.172  26.811  1.00  0.00     0.251 C 
ATOM     29  H   UNL A   1      32.064  30.832  25.144  1.00  0.00     0.163 HD
ATOM     30  O   UNL A   1      32.393  32.118  27.143  1.00  0.00    -0.269 OA
BRANCH  28  31
ATOM     31  C   UNL A   1      34.320  30.845  27.602  1.00  0.00     0.039 A 
ATOM     32  C   UNL A   1      35.328  31.807  27.725  1.00  0.00     0.014 A 
ATOM     33  C   UNL A   1      34.490  29.584  28.180  1.00  0.00     0.014 A 
ATOM     34  C   UNL A   1      36.479  31.522  28.463  1.00  0.00     0.010 A 
ATOM     35  C   UNL A   1      35.605  29.326  28.976  1.00  0.00     0.010 A 
ATOM     36  C   UNL A   1      36.616  30.288  29.118  1.00  0.00    -0.014 A 
BRANCH  36  37
ATOM     37  C   UNL A   1      37.818  29.974  29.935  1.00  0.00     0.031 A 
ATOM     38  C   UNL A   1      38.895  29.081  29.381  1.00  0.00     0.074 A 
ATOM     39  C   UNL A   1      37.907  30.437  31.196  1.00  0.00     0.049 A 
ATOM     40  N   UNL A   1      39.976  28.625  29.960  1.00  0.00    -0.248 NA
ATOM     41  C   UNL A   1      38.708  28.614  28.001  1.00  0.00     0.031 C 
ATOM     42  C   UNL A   1      36.914  31.288  31.854  1.00  0.00     0.029 A 
ATOM     43  N   UNL A   1      38.875  30.256  32.151  1.00  0.00    -0.354 N 
ATOM     44  C   UNL A   1      40.590  27.801  29.022  1.00  0.00     0.074 A 
ATOM     45  C   UNL A   1      39.720  27.771  27.864  1.00  0.00     0.031 C 
ATOM     46  C   UNL A   1      37.340  31.579  33.094  1.00  0.00     0.029 A 
ATOM     47  C   UNL A   1      38.609  30.900  33.336  1.00  0.00     0.049 A 
ATOM     48  H   UNL A   1      39.683  29.714  32.002  1.00  0.00     0.167 HD
ATOM     49  C   UNL A   1      41.778  27.149  29.108  1.00  0.00     0.034 A 
ATOM     50  C   UNL A   1      39.304  30.934  34.488  1.00  0.00     0.034 A 
ATOM     51  C   UNL A   1      42.633  27.199  30.271  1.00  0.00     0.049 A 
ATOM     52  C   UNL A   1      40.599  30.171  34.582  1.00  0.00     0.074 A 
ATOM     53  C   UNL A   1      43.884  26.631  30.450  1.00  0.00     0.029 A 
ATOM     54  N   UNL A   1      42.319  27.843  31.462  1.00  0.00    -0.354 N 
ATOM     55  N   UNL A   1      41.193  29.433  33.671  1.00  0.00    -0.248 NA
ATOM     56  C   UNL A   1      41.321  30.251  35.858  1.00  0.00     0.031 C 
ATOM     57  C   UNL A   1      44.291  26.870  31.768  1.00  0.00     0.029 A 
ATOM     58  C   UNL A   1      43.334  27.655  32.391  1.00  0.00     0.049 A 
ATOM     59  H   UNL A   1      41.497  28.360  31.624  1.00  0.00     0.167 HD
ATOM     60  C   UNL A   1      42.375  28.988  34.256  1.00  0.00     0.074 A 
ATOM     61  C   UNL A   1      42.411  29.546  35.594  1.00  0.00     0.031 C 
ATOM     62  C   UNL A   1      43.348  28.199  33.730  1.00  0.00     0.034 A 
BRANCH  49  63
ATOM     63  C   UNL A   1      42.187  26.302  27.923  1.00  0.00     0.023 A 
ATOM     64  C   UNL A   1      41.720  24.985  27.759  1.00  0.00     0.031 A 
ATOM     65  C   UNL A   1      43.112  26.788  26.981  1.00  0.00     0.131 A 
ATOM     66  C   UNL A   1      42.260  24.168  26.754  1.00  0.00     0.055 A 
ATOM     67  C   UNL A   1      43.571  26.000  25.922  1.00  0.00     0.041 A 
ATOM     68  F   UNL A   1      43.611  28.030  27.089  1.00  0.00    -0.206 F 
ATOM     69  C   UNL A   1      43.163  24.674  25.818  1.00  0.00     0.022 A 
BRANCH  66  70
ATOM     70  S   UNL A   1      41.915  22.387  26.815  1.00  0.00     0.124 S 
ATOM     71  O   UNL A   1      42.025  22.018  25.405  1.00  0.00    -0.237 OA
ATOM     72  O   UNL A   1      42.970  21.891  27.690  1.00  0.00    -0.237 OA
ATOM     73  O   UNL A   1      40.562  22.319  27.363  1.00  0.00    -0.744 OA
ENDBRANCH  66  70
ENDBRANCH  49  63
BRANCH  50  74
ATOM     74  C   UNL A   1      38.798  31.727  35.643  1.00  0.00     0.023 A 
ATOM     75  C   UNL A   1      38.153  31.094  36.717  1.00  0.00     0.031 A 
ATOM     76  C   UNL A   1      38.945  33.124  35.689  1.00  0.00     0.131 A 
ATOM     77  C   UNL A   1      37.652  31.860  37.780  1.00  0.00     0.055 A 
ATOM     78  C   UNL A   1      38.484  33.877  36.769  1.00  0.00     0.041 A 
ATOM     79  F   UNL A   1      39.564  33.774  34.691  1.00  0.00    -0.206 F 
ATOM     80  C   UNL A   1      37.824  33.245  37.820  1.00  0.00     0.022 A 
BRANCH  77  81
ATOM     81  S   UNL A   1      36.725  31.020  39.094  1.00  0.00     0.124 S 
ATOM     82  O   UNL A   1      36.498  29.706  38.505  1.00  0.00    -0.237 OA
ATOM     83  O   UNL A   1      37.665  31.071  40.208  1.00  0.00    -0.237 OA
ATOM     84  O   UNL A   1      35.532  31.850  39.250  1.00  0.00    -0.744 OA
ENDBRANCH  77  81
ENDBRANCH  50  74
BRANCH  62  85
ATOM     85  C   UNL A   1      44.554  27.933  34.598  1.00  0.00     0.023 A 
ATOM     86  C   UNL A   1      44.626  26.812  35.444  1.00  0.00     0.031 A 
ATOM     87  C   UNL A   1      45.641  28.825  34.588  1.00  0.00     0.131 A 
ATOM     88  C   UNL A   1      45.739  26.642  36.285  1.00  0.00     0.055 A 
ATOM     89  C   UNL A   1      46.770  28.618  35.381  1.00  0.00     0.041 A 
ATOM     90  F   UNL A   1      45.624  29.915  33.803  1.00  0.00    -0.206 F 
ATOM     91  C   UNL A   1      46.817  27.530  36.246  1.00  0.00     0.022 A 
BRANCH  88  92
ATOM     92  S   UNL A   1      45.715  25.296  37.500  1.00  0.00     0.124 S 
ATOM     93  O   UNL A   1      46.896  25.591  38.305  1.00  0.00    -0.237 OA
ATOM     94  O   UNL A   1      44.429  25.492  38.160  1.00  0.00    -0.237 OA
ATOM     95  O   UNL A   1      45.810  24.090  36.678  1.00  0.00    -0.744 OA
ENDBRANCH  88  92
ENDBRANCH  62  85
ENDBRANCH  36  37
ENDBRANCH  28  31
ENDBRANCH  26  27
ENDBRANCH   1  26
TORSDOF 16
ENDMDL
