MODEL 1
REMARK VINA RESULT:     -12.9      0.000      0.000
REMARK SMILES COc1cc2c(cc1OC)[C@@H](CC(=O)NCCCNC(=O)c1ccc(-c3c4nc(c(-c5cc(S(=O)(=O)[O-])ccc5F)c5ccc([nH]5)c(-c5cc(S(=O)(=O)[O-])ccc5F)c5nc(c(-c6cc(S(=O)(=O)[O-])ccc6F)c6ccc3[nH]6)C=C5)C=C4)cc1)N(C(=O)Nc1ccc(Cl)cc1)CC2
REMARK SMILES IDX 17 1 16 2 15 3 13 4 14 5 12 7 11 8 3 9 4 10 8 11 5 12 7 13
REMARK SMILES IDX 6 14 97 15 96 16 85 17 2 18 1 19 9 20 10 21 86 22 87 23
REMARK SMILES IDX 88 24 89 26 90 27 95 28 91 29 94 30 92 31 93 32 18 33 19 34
REMARK SMILES IDX 20 35 21 37 22 38 23 39 84 40 24 41 83 42 25 43 26 44 27 45
REMARK SMILES IDX 77 46 28 47 82 48 76 49 78 50 29 51 81 52 75 53 74 54 30 56
REMARK SMILES IDX 62 57 42 58 61 59 43 60 46 61 60 62 79 63 44 64 45 65 59 67
REMARK SMILES IDX 80 68 47 69 31 70 32 71 40 72 33 73 39 74 41 75 38 76 34 77
REMARK SMILES IDX 35 78 36 79 37 80 63 81 64 82 72 83 65 84 71 85 73 86 70 87
REMARK SMILES IDX 66 88 67 89 68 90 69 91 48 92 49 93 57 94 50 95 56 96 58 97
REMARK SMILES IDX 55 98 51 99 52 100 53 101 54 102
REMARK H PARENT 15 6 88 25 19 36 78 55 46 66
REMARK Flexibility Score: inf
ROOT
ATOM      1  C   UNL A   1      39.236  21.378  26.098  1.00  0.00     0.042 C 
ENDROOT
BRANCH   1   2
ATOM      2  C   UNL A   1      37.923  22.173  25.996  1.00  0.00     0.117 C 
BRANCH   2   3
ATOM      3  N   UNL A   1      37.587  22.451  24.600  1.00  0.00    -0.356 N 
ATOM      4  C   UNL A   1      36.477  22.978  24.015  1.00  0.00     0.222 C 
ATOM      5  O   UNL A   1      36.406  22.947  22.782  1.00  0.00    -0.275 OA
ATOM      6  H   UNL A   1      38.299  22.211  23.964  1.00  0.00     0.163 HD
BRANCH   4   7
ATOM      7  C   UNL A   1      35.399  23.682  24.816  1.00  0.00     0.130 C 
BRANCH   7   8
ATOM      8  C   UNL A   1      33.969  23.302  24.348  1.00  0.00     0.127 C 
ATOM      9  C   UNL A   1      31.632  26.303  22.175  1.00  0.00     0.161 A 
ATOM     10  C   UNL A   1      31.020  25.215  22.775  1.00  0.00     0.054 A 
ATOM     11  C   UNL A   1      33.030  26.399  22.137  1.00  0.00     0.161 A 
ATOM     12  C   UNL A   1      31.801  24.257  23.419  1.00  0.00    -0.037 A 
ATOM     13  C   UNL A   1      33.815  25.395  22.747  1.00  0.00     0.056 A 
ATOM     14  C   UNL A   1      33.218  24.343  23.464  1.00  0.00    -0.018 A 
ATOM     15  C   UNL A   1      31.120  23.250  24.300  1.00  0.00     0.057 C 
ATOM     16  C   UNL A   1      31.780  23.480  25.645  1.00  0.00     0.127 C 
ATOM     17  N   UNL A   1      33.166  23.006  25.580  1.00  0.00    -0.317 N 
BRANCH   9  18
ATOM     18  O   UNL A   1      30.778  27.311  21.807  1.00  0.00    -0.493 OA
ATOM     19  C   UNL A   1      30.189  27.970  22.920  1.00  0.00     0.278 C 
ENDBRANCH   9  18
BRANCH  11  20
ATOM     20  O   UNL A   1      33.529  27.529  21.541  1.00  0.00    -0.493 OA
ATOM     21  C   UNL A   1      34.142  28.501  22.372  1.00  0.00     0.278 C 
ENDBRANCH  11  20
BRANCH  17  22
ATOM     22  C   UNL A   1      33.385  21.861  26.327  1.00  0.00     0.322 C 
ATOM     23  O   UNL A   1      34.193  21.802  27.251  1.00  0.00    -0.248 OA
ATOM     24  N   UNL A   1      32.584  20.836  25.874  1.00  0.00    -0.308 N 
ATOM     25  H   UNL A   1      31.611  20.970  25.933  1.00  0.00     0.171 HD
BRANCH  24  26
ATOM     26  C   UNL A   1      33.026  19.620  25.337  1.00  0.00     0.042 A 
ATOM     27  C   UNL A   1      34.317  19.604  24.794  1.00  0.00     0.028 A 
ATOM     28  C   UNL A   1      32.328  18.425  25.517  1.00  0.00     0.028 A 
ATOM     29  C   UNL A   1      34.945  18.390  24.524  1.00  0.00     0.022 A 
ATOM     30  C   UNL A   1      32.963  17.210  25.255  1.00  0.00     0.022 A 
ATOM     31  C   UNL A   1      34.276  17.197  24.784  1.00  0.00     0.041 A 
ATOM     32  Cl  UNL A   1      35.099  15.706  24.565  1.00  0.00    -0.084 Cl
ENDBRANCH  24  26
ENDBRANCH  17  22
ENDBRANCH   7   8
ENDBRANCH   4   7
ENDBRANCH   2   3
ENDBRANCH   1   2
BRANCH   1  33
ATOM     33  C   UNL A   1      39.172  19.976  25.507  1.00  0.00     0.118 C 
BRANCH  33  34
ATOM     34  N   UNL A   1      40.345  19.185  25.837  1.00  0.00    -0.352 N 
ATOM     35  C   UNL A   1      41.666  19.460  26.105  1.00  0.00     0.251 C 
ATOM     36  H   UNL A   1      40.149  18.222  25.877  1.00  0.00     0.163 HD
ATOM     37  O   UNL A   1      42.402  18.469  26.159  1.00  0.00    -0.269 OA
BRANCH  35  38
ATOM     38  C   UNL A   1      42.271  20.815  26.325  1.00  0.00     0.039 A 
ATOM     39  C   UNL A   1      42.464  21.214  27.662  1.00  0.00     0.014 A 
ATOM     40  C   UNL A   1      42.579  21.745  25.335  1.00  0.00     0.014 A 
ATOM     41  C   UNL A   1      42.938  22.496  27.991  1.00  0.00     0.010 A 
ATOM     42  C   UNL A   1      43.127  22.998  25.657  1.00  0.00     0.010 A 
ATOM     43  C   UNL A   1      43.293  23.405  26.987  1.00  0.00    -0.014 A 
BRANCH  43  44
ATOM     44  C   UNL A   1      43.806  24.775  27.301  1.00  0.00     0.031 A 
ATOM     45  C   UNL A   1      42.888  25.829  27.874  1.00  0.00     0.074 A 
ATOM     46  C   UNL A   1      45.078  25.110  27.003  1.00  0.00     0.049 A 
ATOM     47  N   UNL A   1      43.111  27.103  28.092  1.00  0.00    -0.248 NA
ATOM     48  C   UNL A   1      41.523  25.399  28.204  1.00  0.00     0.031 C 
ATOM     49  C   UNL A   1      46.063  24.212  26.403  1.00  0.00     0.029 A 
ATOM     50  N   UNL A   1      45.755  26.298  27.141  1.00  0.00    -0.354 N 
ATOM     51  C   UNL A   1      41.905  27.633  28.542  1.00  0.00     0.074 A 
ATOM     52  C   UNL A   1      40.944  26.550  28.510  1.00  0.00     0.031 C 
ATOM     53  C   UNL A   1      47.218  24.874  26.232  1.00  0.00     0.029 A 
ATOM     54  C   UNL A   1      47.046  26.257  26.668  1.00  0.00     0.049 A 
ATOM     55  H   UNL A   1      45.354  27.103  27.543  1.00  0.00     0.167 HD
ATOM     56  C   UNL A   1      41.626  28.897  28.960  1.00  0.00     0.034 A 
ATOM     57  C   UNL A   1      47.985  27.218  26.572  1.00  0.00     0.034 A 
ATOM     58  C   UNL A   1      42.606  29.957  29.025  1.00  0.00     0.049 A 
ATOM     59  C   UNL A   1      47.673  28.605  27.066  1.00  0.00     0.074 A 
ATOM     60  C   UNL A   1      42.457  31.240  29.525  1.00  0.00     0.029 A 
ATOM     61  N   UNL A   1      43.915  29.864  28.568  1.00  0.00    -0.354 N 
ATOM     62  N   UNL A   1      46.545  29.075  27.546  1.00  0.00    -0.248 NA
ATOM     63  C   UNL A   1      48.763  29.586  27.017  1.00  0.00     0.031 C 
ATOM     64  C   UNL A   1      43.650  31.941  29.310  1.00  0.00     0.029 A 
ATOM     65  C   UNL A   1      44.572  31.075  28.744  1.00  0.00     0.049 A 
ATOM     66  H   UNL A   1      44.319  29.057  28.177  1.00  0.00     0.167 HD
ATOM     67  C   UNL A   1      46.797  30.404  27.873  1.00  0.00     0.074 A 
ATOM     68  C   UNL A   1      48.187  30.655  27.551  1.00  0.00     0.031 C 
ATOM     69  C   UNL A   1      45.953  31.329  28.397  1.00  0.00     0.034 A 
BRANCH  56  70
ATOM     70  C   UNL A   1      40.193  29.202  29.346  1.00  0.00     0.023 A 
ATOM     71  C   UNL A   1      39.774  29.235  30.688  1.00  0.00     0.031 A 
ATOM     72  C   UNL A   1      39.218  29.412  28.354  1.00  0.00     0.131 A 
ATOM     73  C   UNL A   1      38.411  29.358  30.997  1.00  0.00     0.055 A 
ATOM     74  C   UNL A   1      37.875  29.634  28.672  1.00  0.00     0.041 A 
ATOM     75  F   UNL A   1      39.546  29.382  27.053  1.00  0.00    -0.206 F 
ATOM     76  C   UNL A   1      37.460  29.583  29.999  1.00  0.00     0.022 A 
BRANCH  73  77
ATOM     77  S   UNL A   1      37.879  29.029  32.700  1.00  0.00     0.124 S 
ATOM     78  O   UNL A   1      36.606  29.744  32.755  1.00  0.00    -0.237 OA
ATOM     79  O   UNL A   1      37.797  27.574  32.729  1.00  0.00    -0.237 OA
ATOM     80  O   UNL A   1      38.946  29.612  33.511  1.00  0.00    -0.744 OA
ENDBRANCH  73  77
ENDBRANCH  56  70
BRANCH  57  81
ATOM     81  C   UNL A   1      49.309  26.901  25.963  1.00  0.00     0.023 A 
ATOM     82  C   UNL A   1      49.625  27.305  24.658  1.00  0.00     0.031 A 
ATOM     83  C   UNL A   1      50.281  26.192  26.692  1.00  0.00     0.131 A 
ATOM     84  C   UNL A   1      50.876  26.977  24.109  1.00  0.00     0.055 A 
ATOM     85  C   UNL A   1      51.537  25.904  26.158  1.00  0.00     0.041 A 
ATOM     86  F   UNL A   1      50.031  25.794  27.950  1.00  0.00    -0.206 F 
ATOM     87  C   UNL A   1      51.839  26.291  24.856  1.00  0.00     0.022 A 
BRANCH  84  88
ATOM     88  S   UNL A   1      51.217  27.423  22.384  1.00  0.00     0.124 S 
ATOM     89  O   UNL A   1      51.191  28.880  22.443  1.00  0.00    -0.237 OA
ATOM     90  O   UNL A   1      52.525  26.814  22.164  1.00  0.00    -0.237 OA
ATOM     91  O   UNL A   1      50.115  26.808  21.649  1.00  0.00    -0.744 OA
ENDBRANCH  84  88
ENDBRANCH  57  81
BRANCH  69  92
ATOM     92  C   UNL A   1      46.526  32.697  28.683  1.00  0.00     0.023 A 
ATOM     93  C   UNL A   1      46.517  33.719  27.717  1.00  0.00     0.031 A 
ATOM     94  C   UNL A   1      47.104  32.975  29.934  1.00  0.00     0.131 A 
ATOM     95  C   UNL A   1      47.122  34.954  28.001  1.00  0.00     0.055 A 
ATOM     96  C   UNL A   1      47.653  34.224  30.231  1.00  0.00     0.041 A 
ATOM     97  F   UNL A   1      47.144  32.035  30.892  1.00  0.00    -0.206 F 
ATOM     98  C   UNL A   1      47.674  35.218  29.257  1.00  0.00     0.022 A 
BRANCH  95  99
ATOM     99  S   UNL A   1      47.256  36.186  26.675  1.00  0.00     0.124 S 
ATOM    100  O   UNL A   1      45.892  36.698  26.597  1.00  0.00    -0.237 OA
ATOM    101  O   UNL A   1      48.255  37.108  27.205  1.00  0.00    -0.237 OA
ATOM    102  O   UNL A   1      47.690  35.401  25.520  1.00  0.00    -0.744 OA
ENDBRANCH  95  99
ENDBRANCH  69  92
ENDBRANCH  43  44
ENDBRANCH  35  38
ENDBRANCH  33  34
ENDBRANCH   1  33
TORSDOF 18
ENDMDL
MODEL 2
REMARK VINA RESULT:     -12.8      5.890     11.802
REMARK SMILES COc1cc2c(cc1OC)[C@@H](CC(=O)NCCCNC(=O)c1ccc(-c3c4nc(c(-c5cc(S(=O)(=O)[O-])ccc5F)c5ccc([nH]5)c(-c5cc(S(=O)(=O)[O-])ccc5F)c5nc(c(-c6cc(S(=O)(=O)[O-])ccc6F)c6ccc3[nH]6)C=C5)C=C4)cc1)N(C(=O)Nc1ccc(Cl)cc1)CC2
REMARK SMILES IDX 17 1 16 2 15 3 13 4 14 5 12 7 11 8 3 9 4 10 8 11 5 12 7 13
REMARK SMILES IDX 6 14 97 15 96 16 85 17 2 18 1 19 9 20 10 21 86 22 87 23
REMARK SMILES IDX 88 24 89 26 90 27 95 28 91 29 94 30 92 31 93 32 18 33 19 34
REMARK SMILES IDX 20 35 21 37 22 38 23 39 84 40 24 41 83 42 25 43 26 44 27 45
REMARK SMILES IDX 77 46 28 47 82 48 76 49 78 50 29 51 81 52 75 53 74 54 30 56
REMARK SMILES IDX 62 57 42 58 61 59 43 60 46 61 60 62 79 63 44 64 45 65 59 67
REMARK SMILES IDX 80 68 47 69 31 70 32 71 40 72 33 73 39 74 41 75 38 76 34 77
REMARK SMILES IDX 35 78 36 79 37 80 63 81 64 82 72 83 65 84 71 85 73 86 70 87
REMARK SMILES IDX 66 88 67 89 68 90 69 91 48 92 49 93 57 94 50 95 56 96 58 97
REMARK SMILES IDX 55 98 51 99 52 100 53 101 54 102
REMARK H PARENT 15 6 88 25 19 36 78 55 46 66
REMARK Flexibility Score: inf
ROOT
ATOM      1  C   UNL A   1      33.637  31.530  27.494  1.00  0.00     0.042 C 
ENDROOT
BRANCH   1   2
ATOM      2  C   UNL A   1      33.693  30.165  26.787  1.00  0.00     0.117 C 
BRANCH   2   3
ATOM      3  N   UNL A   1      32.726  29.236  27.369  1.00  0.00    -0.356 N 
ATOM      4  C   UNL A   1      32.308  27.997  26.991  1.00  0.00     0.222 C 
ATOM      5  O   UNL A   1      31.347  27.504  27.591  1.00  0.00    -0.275 OA
ATOM      6  H   UNL A   1      32.295  29.570  28.188  1.00  0.00     0.163 HD
BRANCH   4   7
ATOM      7  C   UNL A   1      33.045  27.180  25.947  1.00  0.00     0.130 C 
BRANCH   7   8
ATOM      8  C   UNL A   1      32.079  26.416  25.002  1.00  0.00     0.127 C 
ATOM      9  C   UNL A   1      31.776  22.066  25.424  1.00  0.00     0.161 A 
ATOM     10  C   UNL A   1      31.357  22.705  24.269  1.00  0.00     0.054 A 
ATOM     11  C   UNL A   1      32.186  22.812  26.539  1.00  0.00     0.161 A 
ATOM     12  C   UNL A   1      31.427  24.095  24.189  1.00  0.00    -0.037 A 
ATOM     13  C   UNL A   1      32.203  24.223  26.465  1.00  0.00     0.056 A 
ATOM     14  C   UNL A   1      31.895  24.891  25.267  1.00  0.00    -0.018 A 
ATOM     15  C   UNL A   1      31.244  24.746  22.849  1.00  0.00     0.057 C 
ATOM     16  C   UNL A   1      32.544  25.505  22.665  1.00  0.00     0.127 C 
ATOM     17  N   UNL A   1      32.570  26.633  23.601  1.00  0.00    -0.317 N 
BRANCH   9  18
ATOM     18  O   UNL A   1      31.918  20.707  25.309  1.00  0.00    -0.493 OA
ATOM     19  C   UNL A   1      32.456  20.311  24.055  1.00  0.00     0.278 C 
ENDBRANCH   9  18
BRANCH  11  20
ATOM     20  O   UNL A   1      32.604  22.078  27.619  1.00  0.00    -0.493 OA
ATOM     21  C   UNL A   1      33.966  22.179  28.002  1.00  0.00     0.278 C 
ENDBRANCH  11  20
BRANCH  17  22
ATOM     22  C   UNL A   1      32.445  27.862  22.976  1.00  0.00     0.322 C 
ATOM     23  O   UNL A   1      33.216  28.800  23.169  1.00  0.00    -0.248 OA
ATOM     24  N   UNL A   1      31.350  27.863  22.140  1.00  0.00    -0.308 N 
ATOM     25  H   UNL A   1      31.357  27.222  21.393  1.00  0.00     0.171 HD
BRANCH  24  26
ATOM     26  C   UNL A   1      30.226  28.692  22.253  1.00  0.00     0.042 A 
ATOM     27  C   UNL A   1      29.167  28.214  23.035  1.00  0.00     0.028 A 
ATOM     28  C   UNL A   1      30.225  30.014  21.806  1.00  0.00     0.028 A 
ATOM     29  C   UNL A   1      28.159  29.083  23.450  1.00  0.00     0.022 A 
ATOM     30  C   UNL A   1      29.219  30.884  22.231  1.00  0.00     0.022 A 
ATOM     31  C   UNL A   1      28.206  30.421  23.071  1.00  0.00     0.041 A 
ATOM     32  Cl  UNL A   1      27.030  31.512  23.686  1.00  0.00    -0.084 Cl
ENDBRANCH  24  26
ENDBRANCH  17  22
ENDBRANCH   7   8
ENDBRANCH   4   7
ENDBRANCH   2   3
ENDBRANCH   1   2
BRANCH   1  33
ATOM     33  C   UNL A   1      32.374  32.334  27.215  1.00  0.00     0.118 C 
BRANCH  33  34
ATOM     34  N   UNL A   1      32.507  33.725  27.614  1.00  0.00    -0.352 N 
ATOM     35  C   UNL A   1      33.253  34.407  28.547  1.00  0.00     0.251 C 
ATOM     36  H   UNL A   1      31.924  34.322  27.093  1.00  0.00     0.163 HD
ATOM     37  O   UNL A   1      32.933  35.591  28.702  1.00  0.00    -0.269 OA
BRANCH  35  38
ATOM     38  C   UNL A   1      34.378  33.856  29.371  1.00  0.00     0.039 A 
ATOM     39  C   UNL A   1      35.683  34.241  29.001  1.00  0.00     0.014 A 
ATOM     40  C   UNL A   1      34.260  32.934  30.408  1.00  0.00     0.014 A 
ATOM     41  C   UNL A   1      36.819  33.717  29.641  1.00  0.00     0.010 A 
ATOM     42  C   UNL A   1      35.390  32.468  31.102  1.00  0.00     0.010 A 
ATOM     43  C   UNL A   1      36.687  32.829  30.716  1.00  0.00    -0.014 A 
BRANCH  43  44
ATOM     44  C   UNL A   1      37.874  32.256  31.424  1.00  0.00     0.031 A 
ATOM     45  C   UNL A   1      38.706  31.173  30.779  1.00  0.00     0.074 A 
ATOM     46  C   UNL A   1      38.170  32.645  32.680  1.00  0.00     0.049 A 
ATOM     47  N   UNL A   1      39.690  30.465  31.280  1.00  0.00    -0.248 NA
ATOM     48  C   UNL A   1      38.354  30.810  29.400  1.00  0.00     0.031 C 
ATOM     49  C   UNL A   1      37.428  33.645  33.446  1.00  0.00     0.029 A 
ATOM     50  N   UNL A   1      39.157  32.234  33.544  1.00  0.00    -0.354 N 
ATOM     51  C   UNL A   1      40.042  29.546  30.295  1.00  0.00     0.074 A 
ATOM     52  C   UNL A   1      39.127  29.756  29.192  1.00  0.00     0.031 C 
ATOM     53  C   UNL A   1      37.987  33.777  34.659  1.00  0.00     0.029 A 
ATOM     54  C   UNL A   1      39.100  32.841  34.778  1.00  0.00     0.049 A 
ATOM     55  H   UNL A   1      39.841  31.568  33.303  1.00  0.00     0.167 HD
ATOM     56  C   UNL A   1      41.044  28.626  30.300  1.00  0.00     0.034 A 
ATOM     57  C   UNL A   1      39.840  32.658  35.889  1.00  0.00     0.034 A 
ATOM     58  C   UNL A   1      41.976  28.456  31.391  1.00  0.00     0.049 A 
ATOM     59  C   UNL A   1      40.964  31.658  35.870  1.00  0.00     0.074 A 
ATOM     60  C   UNL A   1      43.084  27.628  31.458  1.00  0.00     0.029 A 
ATOM     61  N   UNL A   1      41.905  29.117  32.612  1.00  0.00    -0.354 N 
ATOM     62  N   UNL A   1      41.324  30.840  34.908  1.00  0.00    -0.248 NA
ATOM     63  C   UNL A   1      41.790  31.568  37.080  1.00  0.00     0.031 C 
ATOM     64  C   UNL A   1      43.642  27.739  32.738  1.00  0.00     0.029 A 
ATOM     65  C   UNL A   1      42.928  28.691  33.448  1.00  0.00     0.049 A 
ATOM     66  H   UNL A   1      41.228  29.790  32.849  1.00  0.00     0.167 HD
ATOM     67  C   UNL A   1      42.430  30.149  35.393  1.00  0.00     0.074 A 
ATOM     68  C   UNL A   1      42.688  30.659  36.725  1.00  0.00     0.031 C 
ATOM     69  C   UNL A   1      43.167  29.183  34.787  1.00  0.00     0.034 A 
BRANCH  56  70
ATOM     70  C   UNL A   1      41.156  27.714  29.095  1.00  0.00     0.023 A 
ATOM     71  C   UNL A   1      42.167  27.874  28.130  1.00  0.00     0.031 A 
ATOM     72  C   UNL A   1      40.206  26.698  28.880  1.00  0.00     0.131 A 
ATOM     73  C   UNL A   1      42.139  27.117  26.949  1.00  0.00     0.055 A 
ATOM     74  C   UNL A   1      40.242  25.880  27.748  1.00  0.00     0.041 A 
ATOM     75  F   UNL A   1      39.209  26.498  29.755  1.00  0.00    -0.206 F 
ATOM     76  C   UNL A   1      41.199  26.102  26.762  1.00  0.00     0.022 A 
BRANCH  73  77
ATOM     77  S   UNL A   1      43.230  27.607  25.585  1.00  0.00     0.124 S 
ATOM     78  O   UNL A   1      42.266  28.059  24.584  1.00  0.00    -0.237 OA
ATOM     79  O   UNL A   1      44.053  28.644  26.195  1.00  0.00    -0.237 OA
ATOM     80  O   UNL A   1      43.931  26.370  25.245  1.00  0.00    -0.744 OA
ENDBRANCH  73  77
ENDBRANCH  56  70
BRANCH  57  81
ATOM     81  C   UNL A   1      39.523  33.433  37.123  1.00  0.00     0.023 A 
ATOM     82  C   UNL A   1      38.830  32.846  38.193  1.00  0.00     0.031 A 
ATOM     83  C   UNL A   1      39.922  34.775  37.249  1.00  0.00     0.131 A 
ATOM     84  C   UNL A   1      38.535  33.609  39.335  1.00  0.00     0.055 A 
ATOM     85  C   UNL A   1      39.663  35.517  38.402  1.00  0.00     0.041 A 
ATOM     86  F   UNL A   1      40.599  35.378  36.258  1.00  0.00    -0.206 F 
ATOM     87  C   UNL A   1      38.959  34.936  39.452  1.00  0.00     0.022 A 
BRANCH  84  88
ATOM     88  S   UNL A   1      37.549  32.854  40.658  1.00  0.00     0.124 S 
ATOM     89  O   UNL A   1      37.826  33.742  41.781  1.00  0.00    -0.237 OA
ATOM     90  O   UNL A   1      36.198  32.920  40.107  1.00  0.00    -0.237 OA
ATOM     91  O   UNL A   1      38.106  31.508  40.773  1.00  0.00    -0.744 OA
ENDBRANCH  84  88
ENDBRANCH  57  81
BRANCH  69  92
ATOM     92  C   UNL A   1      44.347  28.636  35.555  1.00  0.00     0.023 A 
ATOM     93  C   UNL A   1      44.199  27.609  36.504  1.00  0.00     0.031 A 
ATOM     94  C   UNL A   1      45.634  29.163  35.345  1.00  0.00     0.131 A 
ATOM     95  C   UNL A   1      45.311  27.177  37.245  1.00  0.00     0.055 A 
ATOM     96  C   UNL A   1      46.745  28.690  36.044  1.00  0.00     0.041 A 
ATOM     97  F   UNL A   1      45.832  30.147  34.454  1.00  0.00    -0.206 F 
ATOM     98  C   UNL A   1      46.586  27.699  37.009  1.00  0.00     0.022 A 
BRANCH  95  99
ATOM     99  S   UNL A   1      45.056  25.983  38.587  1.00  0.00     0.124 S 
ATOM    100  O   UNL A   1      44.432  24.866  37.885  1.00  0.00    -0.237 OA
ATOM    101  O   UNL A   1      46.415  25.757  39.067  1.00  0.00    -0.237 OA
ATOM    102  O   UNL A   1      44.182  26.695  39.518  1.00  0.00    -0.744 OA
ENDBRANCH  95  99
ENDBRANCH  69  92
ENDBRANCH  43  44
ENDBRANCH  35  38
ENDBRANCH  33  34
ENDBRANCH   1  33
TORSDOF 18
ENDMDL
MODEL 3
REMARK VINA RESULT:     -12.7      1.465      1.712
REMARK SMILES COc1cc2c(cc1OC)[C@@H](CC(=O)NCCCNC(=O)c1ccc(-c3c4nc(c(-c5cc(S(=O)(=O)[O-])ccc5F)c5ccc([nH]5)c(-c5cc(S(=O)(=O)[O-])ccc5F)c5nc(c(-c6cc(S(=O)(=O)[O-])ccc6F)c6ccc3[nH]6)C=C5)C=C4)cc1)N(C(=O)Nc1ccc(Cl)cc1)CC2
REMARK SMILES IDX 17 1 16 2 15 3 13 4 14 5 12 7 11 8 3 9 4 10 8 11 5 12 7 13
REMARK SMILES IDX 6 14 97 15 96 16 85 17 2 18 1 19 9 20 10 21 86 22 87 23
REMARK SMILES IDX 88 24 89 26 90 27 95 28 91 29 94 30 92 31 93 32 18 33 19 34
REMARK SMILES IDX 20 35 21 37 22 38 23 39 84 40 24 41 83 42 25 43 26 44 27 45
REMARK SMILES IDX 77 46 28 47 82 48 76 49 78 50 29 51 81 52 75 53 74 54 30 56
REMARK SMILES IDX 62 57 42 58 61 59 43 60 46 61 60 62 79 63 44 64 45 65 59 67
REMARK SMILES IDX 80 68 47 69 31 70 32 71 40 72 33 73 39 74 41 75 38 76 34 77
REMARK SMILES IDX 35 78 36 79 37 80 63 81 64 82 72 83 65 84 71 85 73 86 70 87
REMARK SMILES IDX 66 88 67 89 68 90 69 91 48 92 49 93 57 94 50 95 56 96 58 97
REMARK SMILES IDX 55 98 51 99 52 100 53 101 54 102
REMARK H PARENT 15 6 88 25 19 36 78 55 46 66
REMARK Flexibility Score: inf
ROOT
ATOM      1  C   UNL A   1      38.040  20.837  26.066  1.00  0.00     0.042 C 
ENDROOT
BRANCH   1   2
ATOM      2  C   UNL A   1      38.123  22.330  25.705  1.00  0.00     0.117 C 
BRANCH   2   3
ATOM      3  N   UNL A   1      37.613  22.570  24.356  1.00  0.00    -0.356 N 
ATOM      4  C   UNL A   1      36.410  23.015  23.900  1.00  0.00     0.222 C 
ATOM      5  O   UNL A   1      36.202  22.968  22.683  1.00  0.00    -0.275 OA
ATOM      6  H   UNL A   1      38.262  22.372  23.644  1.00  0.00     0.163 HD
BRANCH   4   7
ATOM      7  C   UNL A   1      35.385  23.653  24.817  1.00  0.00     0.130 C 
BRANCH   7   8
ATOM      8  C   UNL A   1      33.927  23.320  24.400  1.00  0.00     0.127 C 
ATOM      9  C   UNL A   1      31.628  26.382  22.272  1.00  0.00     0.161 A 
ATOM     10  C   UNL A   1      30.999  25.323  22.903  1.00  0.00     0.054 A 
ATOM     11  C   UNL A   1      33.027  26.428  22.188  1.00  0.00     0.161 A 
ATOM     12  C   UNL A   1      31.766  24.343  23.532  1.00  0.00    -0.037 A 
ATOM     13  C   UNL A   1      33.795  25.402  22.783  1.00  0.00     0.056 A 
ATOM     14  C   UNL A   1      33.185  24.379  23.529  1.00  0.00    -0.018 A 
ATOM     15  C   UNL A   1      31.078  23.370  24.445  1.00  0.00     0.057 C 
ATOM     16  C   UNL A   1      31.791  23.590  25.766  1.00  0.00     0.127 C 
ATOM     17  N   UNL A   1      33.155  23.066  25.661  1.00  0.00    -0.317 N 
BRANCH   9  18
ATOM     18  O   UNL A   1      30.799  27.417  21.921  1.00  0.00    -0.493 OA
ATOM     19  C   UNL A   1      29.942  27.822  22.980  1.00  0.00     0.278 C 
ENDBRANCH   9  18
BRANCH  11  20
ATOM     20  O   UNL A   1      33.546  27.533  21.564  1.00  0.00    -0.493 OA
ATOM     21  C   UNL A   1      34.111  28.550  22.376  1.00  0.00     0.278 C 
ENDBRANCH  11  20
BRANCH  17  22
ATOM     22  C   UNL A   1      33.358  21.921  26.412  1.00  0.00     0.322 C 
ATOM     23  O   UNL A   1      34.137  21.866  27.362  1.00  0.00    -0.248 OA
ATOM     24  N   UNL A   1      32.579  20.891  25.932  1.00  0.00    -0.308 N 
ATOM     25  H   UNL A   1      31.604  21.018  25.960  1.00  0.00     0.171 HD
BRANCH  24  26
ATOM     26  C   UNL A   1      33.047  19.679  25.408  1.00  0.00     0.042 A 
ATOM     27  C   UNL A   1      34.337  19.685  24.863  1.00  0.00     0.028 A 
ATOM     28  C   UNL A   1      32.375  18.472  25.602  1.00  0.00     0.028 A 
ATOM     29  C   UNL A   1      34.990  18.482  24.605  1.00  0.00     0.022 A 
ATOM     30  C   UNL A   1      33.035  17.267  25.351  1.00  0.00     0.022 A 
ATOM     31  C   UNL A   1      34.347  17.277  24.879  1.00  0.00     0.041 A 
ATOM     32  Cl  UNL A   1      35.202  15.802  24.675  1.00  0.00    -0.084 Cl
ENDBRANCH  24  26
ENDBRANCH  17  22
ENDBRANCH   7   8
ENDBRANCH   4   7
ENDBRANCH   2   3
ENDBRANCH   1   2
BRANCH   1  33
ATOM     33  C   UNL A   1      38.709  19.906  25.064  1.00  0.00     0.118 C 
BRANCH  33  34
ATOM     34  N   UNL A   1      39.815  19.169  25.651  1.00  0.00    -0.352 N 
ATOM     35  C   UNL A   1      41.061  19.495  26.134  1.00  0.00     0.251 C 
ATOM     36  H   UNL A   1      39.629  18.205  25.719  1.00  0.00     0.163 HD
ATOM     37  O   UNL A   1      41.790  18.529  26.385  1.00  0.00    -0.269 OA
BRANCH  35  38
ATOM     38  C   UNL A   1      41.597  20.876  26.369  1.00  0.00     0.039 A 
ATOM     39  C   UNL A   1      41.895  21.223  27.702  1.00  0.00     0.014 A 
ATOM     40  C   UNL A   1      41.745  21.872  25.407  1.00  0.00     0.014 A 
ATOM     41  C   UNL A   1      42.315  22.517  28.054  1.00  0.00     0.010 A 
ATOM     42  C   UNL A   1      42.241  23.143  25.744  1.00  0.00     0.010 A 
ATOM     43  C   UNL A   1      42.509  23.496  27.073  1.00  0.00    -0.014 A 
BRANCH  43  44
ATOM     44  C   UNL A   1      42.962  24.882  27.411  1.00  0.00     0.031 A 
ATOM     45  C   UNL A   1      42.020  25.859  28.075  1.00  0.00     0.074 A 
ATOM     46  C   UNL A   1      44.193  25.301  27.057  1.00  0.00     0.049 A 
ATOM     47  N   UNL A   1      42.184  27.135  28.330  1.00  0.00    -0.248 NA
ATOM     48  C   UNL A   1      40.703  25.338  28.463  1.00  0.00     0.031 C 
ATOM     49  C   UNL A   1      45.192  24.484  26.369  1.00  0.00     0.029 A 
ATOM     50  N   UNL A   1      44.809  26.520  27.204  1.00  0.00    -0.354 N 
ATOM     51  C   UNL A   1      40.977  27.577  28.866  1.00  0.00     0.074 A 
ATOM     52  C   UNL A   1      40.078  26.441  28.845  1.00  0.00     0.031 C 
ATOM     53  C   UNL A   1      46.296  25.219  26.161  1.00  0.00     0.029 A 
ATOM     54  C   UNL A   1      46.072  26.572  26.660  1.00  0.00     0.049 A 
ATOM     55  H   UNL A   1      44.387  27.286  27.658  1.00  0.00     0.167 HD
ATOM     56  C   UNL A   1      40.652  28.807  29.347  1.00  0.00     0.034 A 
ATOM     57  C   UNL A   1      46.948  27.590  26.549  1.00  0.00     0.034 A 
ATOM     58  C   UNL A   1      41.572  29.919  29.400  1.00  0.00     0.049 A 
ATOM     59  C   UNL A   1      46.587  28.937  27.113  1.00  0.00     0.074 A 
ATOM     60  C   UNL A   1      41.379  31.173  29.957  1.00  0.00     0.029 A 
ATOM     61  N   UNL A   1      42.856  29.920  28.869  1.00  0.00    -0.354 N 
ATOM     62  N   UNL A   1      45.463  29.322  27.673  1.00  0.00    -0.248 NA
ATOM     63  C   UNL A   1      47.616  29.982  27.044  1.00  0.00     0.031 C 
ATOM     64  C   UNL A   1      42.518  31.949  29.705  1.00  0.00     0.029 A 
ATOM     65  C   UNL A   1      43.453  31.159  29.055  1.00  0.00     0.049 A 
ATOM     66  H   UNL A   1      43.282  29.152  28.425  1.00  0.00     0.167 HD
ATOM     67  C   UNL A   1      45.658  30.652  28.037  1.00  0.00     0.074 A 
ATOM     68  C   UNL A   1      47.011  30.995  27.649  1.00  0.00     0.031 C 
ATOM     69  C   UNL A   1      44.794  31.506  28.643  1.00  0.00     0.034 A 
BRANCH  56  70
ATOM     70  C   UNL A   1      39.228  29.013  29.823  1.00  0.00     0.023 A 
ATOM     71  C   UNL A   1      38.253  29.624  29.014  1.00  0.00     0.031 A 
ATOM     72  C   UNL A   1      38.852  28.640  31.127  1.00  0.00     0.131 A 
ATOM     73  C   UNL A   1      36.996  29.945  29.548  1.00  0.00     0.055 A 
ATOM     74  C   UNL A   1      37.565  28.873  31.620  1.00  0.00     0.041 A 
ATOM     75  F   UNL A   1      39.735  28.064  31.956  1.00  0.00    -0.206 F 
ATOM     76  C   UNL A   1      36.635  29.551  30.838  1.00  0.00     0.022 A 
BRANCH  73  77
ATOM     77  S   UNL A   1      35.912  31.049  28.600  1.00  0.00     0.124 S 
ATOM     78  O   UNL A   1      36.877  31.977  28.013  1.00  0.00    -0.237 OA
ATOM     79  O   UNL A   1      35.261  30.132  27.673  1.00  0.00    -0.237 OA
ATOM     80  O   UNL A   1      35.042  31.633  29.618  1.00  0.00    -0.744 OA
ENDBRANCH  73  77
ENDBRANCH  56  70
BRANCH  57  81
ATOM     81  C   UNL A   1      48.250  27.372  25.856  1.00  0.00     0.023 A 
ATOM     82  C   UNL A   1      48.358  27.470  24.461  1.00  0.00     0.031 A 
ATOM     83  C   UNL A   1      49.411  27.072  26.592  1.00  0.00     0.131 A 
ATOM     84  C   UNL A   1      49.597  27.244  23.839  1.00  0.00     0.055 A 
ATOM     85  C   UNL A   1      50.649  26.890  25.973  1.00  0.00     0.041 A 
ATOM     86  F   UNL A   1      49.363  26.981  27.931  1.00  0.00    -0.206 F 
ATOM     87  C   UNL A   1      50.745  26.969  24.587  1.00  0.00     0.022 A 
BRANCH  84  88
ATOM     88  S   UNL A   1      49.682  27.276  22.027  1.00  0.00     0.124 S 
ATOM     89  O   UNL A   1      49.225  28.629  21.731  1.00  0.00    -0.237 OA
ATOM     90  O   UNL A   1      51.097  27.010  21.784  1.00  0.00    -0.237 OA
ATOM     91  O   UNL A   1      48.772  26.206  21.625  1.00  0.00    -0.744 OA
ENDBRANCH  84  88
ENDBRANCH  57  81
BRANCH  69  92
ATOM     92  C   UNL A   1      45.305  32.895  28.950  1.00  0.00     0.023 A 
ATOM     93  C   UNL A   1      45.114  33.966  28.060  1.00  0.00     0.031 A 
ATOM     94  C   UNL A   1      46.008  33.143  30.143  1.00  0.00     0.131 A 
ATOM     95  C   UNL A   1      45.664  35.225  28.353  1.00  0.00     0.055 A 
ATOM     96  C   UNL A   1      46.503  34.409  30.455  1.00  0.00     0.041 A 
ATOM     97  F   UNL A   1      46.223  32.155  31.027  1.00  0.00    -0.206 F 
ATOM     98  C   UNL A   1      46.343  35.457  29.552  1.00  0.00     0.022 A 
BRANCH  95  99
ATOM     99  S   UNL A   1      45.559  36.537  27.104  1.00  0.00     0.124 S 
ATOM    100  O   UNL A   1      46.320  35.964  25.998  1.00  0.00    -0.237 OA
ATOM    101  O   UNL A   1      44.120  36.656  26.896  1.00  0.00    -0.237 OA
ATOM    102  O   UNL A   1      46.186  37.684  27.758  1.00  0.00    -0.744 OA
ENDBRANCH  95  99
ENDBRANCH  69  92
ENDBRANCH  43  44
ENDBRANCH  35  38
ENDBRANCH  33  34
ENDBRANCH   1  33
TORSDOF 18
ENDMDL
