MODEL 1
REMARK VINA RESULT:     -13.4      0.000      0.000
REMARK SMILES O=C(NCCCNC(=O)c1cc(Cl)ccc1N1C(=O)CC2(CCCC2)C1=O)c1ccc(-c2c3nc(c(-c4cc(S(=O)(=O)[O-])ccc4F)c4ccc([nH]4)c(-c4cc(S(=O)(=O)[O-])ccc4F)c4nc(c(-c5cc(S(=O)(=O)[O-])ccc5F)c5ccc2[nH]5)C=C4)C=C3)cc1
REMARK SMILES IDX 4 1 3 2 1 3 2 4 28 6 29 7 90 8 30 9 89 10 31 11 32 12 33 13
REMARK SMILES IDX 83 14 34 15 88 16 82 17 84 18 35 19 87 20 81 21 80 22 36 24
REMARK SMILES IDX 68 25 48 26 67 27 49 28 52 29 66 30 85 31 50 32 51 33 65 35
REMARK SMILES IDX 86 36 53 37 37 38 38 39 46 40 39 41 45 42 47 43 44 44 40 45
REMARK SMILES IDX 41 46 42 47 43 48 69 49 70 50 78 51 71 52 77 53 79 54 76 55
REMARK SMILES IDX 72 56 73 57 74 58 75 59 54 60 55 61 63 62 56 63 62 64 64 65
REMARK SMILES IDX 61 66 57 67 58 68 59 69 60 70 5 71 6 72 7 73 8 74 9 76 10 77
REMARK SMILES IDX 11 78 16 79 12 80 15 81 13 82 14 83 17 84 18 85 26 86 19 87
REMARK SMILES IDX 20 88 21 89 27 90 22 91 25 92 23 93 24 94
REMARK H PARENT 3 5 84 23 52 34 7 75
REMARK Flexibility Score: inf
ROOT
ATOM      1  C   UNL A   1      32.840  32.485  27.010  1.00  0.00     0.118 C 
ENDROOT
BRANCH   1   2
ATOM      2  N   UNL A   1      32.554  33.823  27.514  1.00  0.00    -0.352 N 
ATOM      3  O   UNL A   1      32.565  35.546  28.958  1.00  0.00    -0.269 OA
ATOM      4  C   UNL A   1      33.091  34.502  28.580  1.00  0.00     0.251 C 
ATOM      5  H   UNL A   1      31.868  34.318  27.010  1.00  0.00     0.163 HD
BRANCH   4   6
ATOM      6  C   UNL A   1      34.289  33.979  29.272  1.00  0.00     0.039 A 
ATOM      7  C   UNL A   1      34.163  33.070  30.324  1.00  0.00     0.014 A 
ATOM      8  C   UNL A   1      35.560  34.363  28.831  1.00  0.00     0.014 A 
ATOM      9  C   UNL A   1      35.288  32.655  31.025  1.00  0.00     0.010 A 
ATOM     10  C   UNL A   1      36.698  33.865  29.473  1.00  0.00     0.010 A 
ATOM     11  C   UNL A   1      36.569  33.016  30.583  1.00  0.00    -0.014 A 
BRANCH  11  12
ATOM     12  C   UNL A   1      37.756  32.391  31.221  1.00  0.00     0.031 A 
ATOM     13  C   UNL A   1      38.492  31.262  30.560  1.00  0.00     0.074 A 
ATOM     14  C   UNL A   1      38.156  32.866  32.419  1.00  0.00     0.049 A 
ATOM     15  N   UNL A   1      39.518  30.583  31.003  1.00  0.00    -0.248 NA
ATOM     16  C   UNL A   1      38.013  30.831  29.238  1.00  0.00     0.031 C 
ATOM     17  C   UNL A   1      37.506  33.963  33.147  1.00  0.00     0.029 A 
ATOM     18  N   UNL A   1      39.193  32.501  33.237  1.00  0.00    -0.354 N 
ATOM     19  C   UNL A   1      39.797  29.629  30.031  1.00  0.00     0.074 A 
ATOM     20  C   UNL A   1      38.820  29.810  28.977  1.00  0.00     0.031 C 
ATOM     21  C   UNL A   1      38.171  34.193  34.285  1.00  0.00     0.029 A 
ATOM     22  C   UNL A   1      39.240  33.211  34.415  1.00  0.00     0.049 A 
ATOM     23  H   UNL A   1      39.842  31.798  33.005  1.00  0.00     0.167 HD
ATOM     24  C   UNL A   1      40.777  28.693  30.029  1.00  0.00     0.034 A 
ATOM     25  C   UNL A   1      40.020  33.061  35.502  1.00  0.00     0.034 A 
ATOM     26  C   UNL A   1      41.745  28.544  31.090  1.00  0.00     0.049 A 
ATOM     27  C   UNL A   1      41.058  31.971  35.492  1.00  0.00     0.074 A 
ATOM     28  C   UNL A   1      42.830  27.685  31.149  1.00  0.00     0.029 A 
ATOM     29  N   UNL A   1      41.734  29.249  32.286  1.00  0.00    -0.354 N 
ATOM     30  N   UNL A   1      41.348  31.121  34.534  1.00  0.00    -0.248 NA
ATOM     31  C   UNL A   1      41.871  31.817  36.704  1.00  0.00     0.031 C 
ATOM     32  C   UNL A   1      43.418  27.808  32.412  1.00  0.00     0.029 A 
ATOM     33  C   UNL A   1      42.755  28.802  33.112  1.00  0.00     0.049 A 
ATOM     34  H   UNL A   1      41.095  29.962  32.516  1.00  0.00     0.167 HD
ATOM     35  C   UNL A   1      42.387  30.338  35.027  1.00  0.00     0.074 A 
ATOM     36  C   UNL A   1      42.691  30.838  36.352  1.00  0.00     0.031 C 
ATOM     37  C   UNL A   1      43.030  29.299  34.439  1.00  0.00     0.034 A 
BRANCH  24  38
ATOM     38  C   UNL A   1      40.829  27.715  28.880  1.00  0.00     0.023 A 
ATOM     39  C   UNL A   1      41.768  27.827  27.842  1.00  0.00     0.031 A 
ATOM     40  C   UNL A   1      39.939  26.625  28.851  1.00  0.00     0.131 A 
ATOM     41  C   UNL A   1      41.771  26.886  26.799  1.00  0.00     0.055 A 
ATOM     42  C   UNL A   1      39.990  25.657  27.847  1.00  0.00     0.041 A 
ATOM     43  F   UNL A   1      39.007  26.479  29.807  1.00  0.00    -0.206 F 
ATOM     44  C   UNL A   1      40.906  25.788  26.808  1.00  0.00     0.022 A 
BRANCH  41  45
ATOM     45  S   UNL A   1      42.863  27.162  25.377  1.00  0.00     0.124 S 
ATOM     46  O   UNL A   1      42.797  25.871  24.697  1.00  0.00    -0.237 OA
ATOM     47  O   UNL A   1      42.215  28.276  24.693  1.00  0.00    -0.237 OA
ATOM     48  O   UNL A   1      44.154  27.472  25.987  1.00  0.00    -0.744 OA
ENDBRANCH  41  45
ENDBRANCH  24  38
BRANCH  25  49
ATOM     49  C   UNL A   1      39.800  33.904  36.713  1.00  0.00     0.023 A 
ATOM     50  C   UNL A   1      39.226  33.371  37.875  1.00  0.00     0.031 A 
ATOM     51  C   UNL A   1      40.113  35.277  36.703  1.00  0.00     0.131 A 
ATOM     52  C   UNL A   1      38.931  34.214  38.958  1.00  0.00     0.055 A 
ATOM     53  C   UNL A   1      39.880  36.096  37.808  1.00  0.00     0.041 A 
ATOM     54  F   UNL A   1      40.662  35.843  35.616  1.00  0.00    -0.206 F 
ATOM     55  C   UNL A   1      39.269  35.569  38.939  1.00  0.00     0.022 A 
BRANCH  52  56
ATOM     56  S   UNL A   1      37.982  33.535  40.347  1.00  0.00     0.124 S 
ATOM     57  O   UNL A   1      38.886  32.506  40.849  1.00  0.00    -0.237 OA
ATOM     58  O   UNL A   1      37.810  34.709  41.196  1.00  0.00    -0.237 OA
ATOM     59  O   UNL A   1      36.762  33.039  39.713  1.00  0.00    -0.744 OA
ENDBRANCH  52  56
ENDBRANCH  25  49
BRANCH  37  60
ATOM     60  C   UNL A   1      44.140  28.652  35.228  1.00  0.00     0.023 A 
ATOM     61  C   UNL A   1      43.886  27.606  36.131  1.00  0.00     0.031 A 
ATOM     62  C   UNL A   1      45.466  29.093  35.078  1.00  0.00     0.131 A 
ATOM     63  C   UNL A   1      44.937  27.064  36.884  1.00  0.00     0.055 A 
ATOM     64  C   UNL A   1      46.517  28.507  35.785  1.00  0.00     0.041 A 
ATOM     65  F   UNL A   1      45.763  30.093  34.233  1.00  0.00    -0.206 F 
ATOM     66  C   UNL A   1      46.254  27.494  36.703  1.00  0.00     0.022 A 
BRANCH  63  67
ATOM     67  S   UNL A   1      44.551  25.834  38.160  1.00  0.00     0.124 S 
ATOM     68  O   UNL A   1      43.777  26.623  39.114  1.00  0.00    -0.237 OA
ATOM     69  O   UNL A   1      43.806  24.828  37.412  1.00  0.00    -0.237 OA
ATOM     70  O   UNL A   1      45.867  25.406  38.633  1.00  0.00    -0.744 OA
ENDBRANCH  63  67
ENDBRANCH  37  60
ENDBRANCH  11  12
ENDBRANCH   4   6
ENDBRANCH   1   2
BRANCH   1  71
ATOM     71  C   UNL A   1      31.578  31.681  26.738  1.00  0.00     0.042 C 
BRANCH  71  72
ATOM     72  C   UNL A   1      31.829  30.200  26.506  1.00  0.00     0.118 C 
BRANCH  72  73
ATOM     73  N   UNL A   1      32.643  29.940  25.324  1.00  0.00    -0.352 N 
ATOM     74  C   UNL A   1      32.353  29.218  24.194  1.00  0.00     0.253 C 
ATOM     75  H   UNL A   1      33.540  30.346  25.340  1.00  0.00     0.163 HD
ATOM     76  O   UNL A   1      33.232  28.991  23.364  1.00  0.00    -0.269 OA
BRANCH  74  77
ATOM     77  C   UNL A   1      30.975  28.740  23.940  1.00  0.00     0.065 A 
ATOM     78  C   UNL A   1      30.097  29.615  23.275  1.00  0.00     0.036 A 
ATOM     79  C   UNL A   1      30.602  27.398  24.156  1.00  0.00     0.065 A 
ATOM     80  C   UNL A   1      28.816  29.197  22.934  1.00  0.00     0.041 A 
ATOM     81  C   UNL A   1      29.318  26.987  23.757  1.00  0.00     0.029 A 
ATOM     82  Cl  UNL A   1      27.729  30.304  22.193  1.00  0.00    -0.084 Cl
ATOM     83  C   UNL A   1      28.420  27.889  23.180  1.00  0.00     0.023 A 
BRANCH  79  84
ATOM     84  N   UNL A   1      31.471  26.441  24.740  1.00  0.00    -0.249 N 
ATOM     85  C   UNL A   1      31.555  26.223  26.093  1.00  0.00     0.234 C 
ATOM     86  C   UNL A   1      32.333  25.644  24.021  1.00  0.00     0.240 C 
ATOM     87  O   UNL A   1      30.989  26.830  26.995  1.00  0.00    -0.274 OA
ATOM     88  C   UNL A   1      32.417  25.018  26.335  1.00  0.00     0.118 C 
ATOM     89  C   UNL A   1      33.122  24.797  25.001  1.00  0.00     0.059 C 
ATOM     90  O   UNL A   1      32.547  25.683  22.817  1.00  0.00    -0.273 OA
ATOM     91  C   UNL A   1      34.596  25.213  25.053  1.00  0.00     0.017 C 
ATOM     92  C   UNL A   1      33.213  23.333  24.584  1.00  0.00     0.017 C 
ATOM     93  C   UNL A   1      35.325  23.993  25.612  1.00  0.00     0.001 C 
ATOM     94  C   UNL A   1      34.422  22.790  25.338  1.00  0.00     0.001 C 
ENDBRANCH  79  84
ENDBRANCH  74  77
ENDBRANCH  72  73
ENDBRANCH  71  72
ENDBRANCH   1  71
TORSDOF 14
ENDMDL
MODEL 2
REMARK VINA RESULT:     -13.3      1.258      1.556
REMARK SMILES O=C(NCCCNC(=O)c1cc(Cl)ccc1N1C(=O)CC2(CCCC2)C1=O)c1ccc(-c2c3nc(c(-c4cc(S(=O)(=O)[O-])ccc4F)c4ccc([nH]4)c(-c4cc(S(=O)(=O)[O-])ccc4F)c4nc(c(-c5cc(S(=O)(=O)[O-])ccc5F)c5ccc2[nH]5)C=C4)C=C3)cc1
REMARK SMILES IDX 4 1 3 2 1 3 2 4 28 6 29 7 90 8 30 9 89 10 31 11 32 12 33 13
REMARK SMILES IDX 83 14 34 15 88 16 82 17 84 18 35 19 87 20 81 21 80 22 36 24
REMARK SMILES IDX 68 25 48 26 67 27 49 28 52 29 66 30 85 31 50 32 51 33 65 35
REMARK SMILES IDX 86 36 53 37 37 38 38 39 46 40 39 41 45 42 47 43 44 44 40 45
REMARK SMILES IDX 41 46 42 47 43 48 69 49 70 50 78 51 71 52 77 53 79 54 76 55
REMARK SMILES IDX 72 56 73 57 74 58 75 59 54 60 55 61 63 62 56 63 62 64 64 65
REMARK SMILES IDX 61 66 57 67 58 68 59 69 60 70 5 71 6 72 7 73 8 74 9 76 10 77
REMARK SMILES IDX 11 78 16 79 12 80 15 81 13 82 14 83 17 84 18 85 26 86 19 87
REMARK SMILES IDX 20 88 21 89 27 90 22 91 25 92 23 93 24 94
REMARK H PARENT 3 5 84 23 52 34 7 75
REMARK Flexibility Score: inf
ROOT
ATOM      1  C   UNL A   1      32.848  32.627  27.090  1.00  0.00     0.118 C 
ENDROOT
BRANCH   1   2
ATOM      2  N   UNL A   1      32.567  33.956  27.620  1.00  0.00    -0.352 N 
ATOM      3  O   UNL A   1      32.579  35.648  29.100  1.00  0.00    -0.269 OA
ATOM      4  C   UNL A   1      33.101  34.608  28.705  1.00  0.00     0.251 C 
ATOM      5  H   UNL A   1      31.889  34.468  27.121  1.00  0.00     0.163 HD
BRANCH   4   6
ATOM      6  C   UNL A   1      34.289  34.062  29.394  1.00  0.00     0.039 A 
ATOM      7  C   UNL A   1      34.149  33.124  30.419  1.00  0.00     0.014 A 
ATOM      8  C   UNL A   1      35.566  34.455  28.978  1.00  0.00     0.014 A 
ATOM      9  C   UNL A   1      35.266  32.687  31.119  1.00  0.00     0.010 A 
ATOM     10  C   UNL A   1      36.696  33.935  29.618  1.00  0.00     0.010 A 
ATOM     11  C   UNL A   1      36.552  33.056  30.703  1.00  0.00    -0.014 A 
BRANCH  11  12
ATOM     12  C   UNL A   1      37.730  32.410  31.335  1.00  0.00     0.031 A 
ATOM     13  C   UNL A   1      38.466  31.293  30.653  1.00  0.00     0.074 A 
ATOM     14  C   UNL A   1      38.122  32.853  32.548  1.00  0.00     0.049 A 
ATOM     15  N   UNL A   1      39.485  30.598  31.089  1.00  0.00    -0.248 NA
ATOM     16  C   UNL A   1      37.997  30.897  29.317  1.00  0.00     0.031 C 
ATOM     17  C   UNL A   1      37.470  33.934  33.297  1.00  0.00     0.029 A 
ATOM     18  N   UNL A   1      39.149  32.463  33.366  1.00  0.00    -0.354 N 
ATOM     19  C   UNL A   1      39.768  29.667  30.096  1.00  0.00     0.074 A 
ATOM     20  C   UNL A   1      38.802  29.879  29.038  1.00  0.00     0.031 C 
ATOM     21  C   UNL A   1      38.127  34.134  34.446  1.00  0.00     0.029 A 
ATOM     22  C   UNL A   1      39.189  33.143  34.561  1.00  0.00     0.049 A 
ATOM     23  H   UNL A   1      39.797  31.762  33.122  1.00  0.00     0.167 HD
ATOM     24  C   UNL A   1      40.743  28.726  30.079  1.00  0.00     0.034 A 
ATOM     25  C   UNL A   1      39.958  32.962  35.651  1.00  0.00     0.034 A 
ATOM     26  C   UNL A   1      41.702  28.546  31.145  1.00  0.00     0.049 A 
ATOM     27  C   UNL A   1      40.992  31.868  35.624  1.00  0.00     0.074 A 
ATOM     28  C   UNL A   1      42.781  27.681  31.193  1.00  0.00     0.029 A 
ATOM     29  N   UNL A   1      41.683  29.222  32.358  1.00  0.00    -0.354 N 
ATOM     30  N   UNL A   1      41.286  31.040  34.648  1.00  0.00    -0.248 NA
ATOM     31  C   UNL A   1      41.793  31.680  36.839  1.00  0.00     0.031 C 
ATOM     32  C   UNL A   1      43.359  27.769  32.463  1.00  0.00     0.029 A 
ATOM     33  C   UNL A   1      42.695  28.750  33.182  1.00  0.00     0.049 A 
ATOM     34  H   UNL A   1      41.046  29.932  32.599  1.00  0.00     0.167 HD
ATOM     35  C   UNL A   1      42.317  30.240  35.130  1.00  0.00     0.074 A 
ATOM     36  C   UNL A   1      42.611  30.706  36.470  1.00  0.00     0.031 C 
ATOM     37  C   UNL A   1      42.960  29.212  34.523  1.00  0.00     0.034 A 
BRANCH  24  38
ATOM     38  C   UNL A   1      40.801  27.777  28.907  1.00  0.00     0.023 A 
ATOM     39  C   UNL A   1      41.744  27.914  27.875  1.00  0.00     0.031 A 
ATOM     40  C   UNL A   1      39.913  26.687  28.849  1.00  0.00     0.131 A 
ATOM     41  C   UNL A   1      41.753  26.999  26.810  1.00  0.00     0.055 A 
ATOM     42  C   UNL A   1      39.968  25.743  27.821  1.00  0.00     0.041 A 
ATOM     43  F   UNL A   1      38.978  26.517  29.797  1.00  0.00    -0.206 F 
ATOM     44  C   UNL A   1      40.888  25.901  26.790  1.00  0.00     0.022 A 
BRANCH  41  45
ATOM     45  S   UNL A   1      42.849  27.312  25.399  1.00  0.00     0.124 S 
ATOM     46  O   UNL A   1      44.091  27.693  26.067  1.00  0.00    -0.237 OA
ATOM     47  O   UNL A   1      42.861  26.022  24.717  1.00  0.00    -0.237 OA
ATOM     48  O   UNL A   1      42.182  28.392  24.676  1.00  0.00    -0.744 OA
ENDBRANCH  41  45
ENDBRANCH  24  38
BRANCH  25  49
ATOM     49  C   UNL A   1      39.732  33.776  36.881  1.00  0.00     0.023 A 
ATOM     50  C   UNL A   1      40.547  34.875  37.185  1.00  0.00     0.031 A 
ATOM     51  C   UNL A   1      38.726  33.426  37.802  1.00  0.00     0.131 A 
ATOM     52  C   UNL A   1      40.379  35.552  38.403  1.00  0.00     0.055 A 
ATOM     53  C   UNL A   1      38.520  34.146  38.980  1.00  0.00     0.041 A 
ATOM     54  F   UNL A   1      37.918  32.380  37.565  1.00  0.00    -0.206 F 
ATOM     55  C   UNL A   1      39.361  35.206  39.294  1.00  0.00     0.022 A 
BRANCH  52  56
ATOM     56  S   UNL A   1      41.596  36.817  38.862  1.00  0.00     0.124 S 
ATOM     57  O   UNL A   1      40.735  37.935  39.234  1.00  0.00    -0.237 OA
ATOM     58  O   UNL A   1      42.310  36.166  39.955  1.00  0.00    -0.237 OA
ATOM     59  O   UNL A   1      42.368  37.004  37.636  1.00  0.00    -0.744 OA
ENDBRANCH  52  56
ENDBRANCH  25  49
BRANCH  37  60
ATOM     60  C   UNL A   1      44.059  28.541  35.306  1.00  0.00     0.023 A 
ATOM     61  C   UNL A   1      43.793  27.471  36.177  1.00  0.00     0.031 A 
ATOM     62  C   UNL A   1      45.389  28.981  35.182  1.00  0.00     0.131 A 
ATOM     63  C   UNL A   1      44.834  26.905  36.926  1.00  0.00     0.055 A 
ATOM     64  C   UNL A   1      46.431  28.373  35.883  1.00  0.00     0.041 A 
ATOM     65  F   UNL A   1      45.698  30.003  34.367  1.00  0.00    -0.206 F 
ATOM     66  C   UNL A   1      46.154  27.336  36.770  1.00  0.00     0.022 A 
BRANCH  63  67
ATOM     67  S   UNL A   1      44.431  25.643  38.164  1.00  0.00     0.124 S 
ATOM     68  O   UNL A   1      43.345  24.917  37.512  1.00  0.00    -0.237 OA
ATOM     69  O   UNL A   1      45.691  24.920  38.298  1.00  0.00    -0.237 OA
ATOM     70  O   UNL A   1      44.039  26.425  39.336  1.00  0.00    -0.744 OA
ENDBRANCH  63  67
ENDBRANCH  37  60
ENDBRANCH  11  12
ENDBRANCH   4   6
ENDBRANCH   1   2
BRANCH   1  71
ATOM     71  C   UNL A   1      31.591  31.902  26.635  1.00  0.00     0.042 C 
BRANCH  71  72
ATOM     72  C   UNL A   1      31.768  30.401  26.479  1.00  0.00     0.118 C 
BRANCH  72  73
ATOM     73  N   UNL A   1      32.620  30.044  25.351  1.00  0.00    -0.352 N 
ATOM     74  C   UNL A   1      32.361  29.240  24.268  1.00  0.00     0.253 C 
ATOM     75  H   UNL A   1      33.521  30.441  25.368  1.00  0.00     0.163 HD
ATOM     76  O   UNL A   1      33.266  28.943  23.490  1.00  0.00    -0.269 OA
BRANCH  74  77
ATOM     77  C   UNL A   1      30.987  28.759  24.000  1.00  0.00     0.065 A 
ATOM     78  C   UNL A   1      30.113  29.631  23.327  1.00  0.00     0.036 A 
ATOM     79  C   UNL A   1      30.616  27.416  24.214  1.00  0.00     0.065 A 
ATOM     80  C   UNL A   1      28.837  29.211  22.974  1.00  0.00     0.041 A 
ATOM     81  C   UNL A   1      29.337  27.002  23.802  1.00  0.00     0.029 A 
ATOM     82  Cl  UNL A   1      27.754  30.314  22.222  1.00  0.00    -0.084 Cl
ATOM     83  C   UNL A   1      28.441  27.902  23.216  1.00  0.00     0.023 A 
BRANCH  79  84
ATOM     84  N   UNL A   1      31.481  26.461  24.806  1.00  0.00    -0.249 N 
ATOM     85  C   UNL A   1      31.597  26.287  26.163  1.00  0.00     0.234 C 
ATOM     86  C   UNL A   1      32.309  25.625  24.092  1.00  0.00     0.240 C 
ATOM     87  O   UNL A   1      31.068  26.933  27.059  1.00  0.00    -0.274 OA
ATOM     88  C   UNL A   1      32.442  25.073  26.422  1.00  0.00     0.118 C 
ATOM     89  C   UNL A   1      33.107  24.795  25.078  1.00  0.00     0.059 C 
ATOM     90  O   UNL A   1      32.491  25.620  22.882  1.00  0.00    -0.273 OA
ATOM     91  C   UNL A   1      34.590  25.183  25.078  1.00  0.00     0.017 C 
ATOM     92  C   UNL A   1      33.159  23.316  24.708  1.00  0.00     0.017 C 
ATOM     93  C   UNL A   1      35.310  23.967  25.658  1.00  0.00     0.001 C 
ATOM     94  C   UNL A   1      34.377  22.774  25.447  1.00  0.00     0.001 C 
ENDBRANCH  79  84
ENDBRANCH  74  77
ENDBRANCH  72  73
ENDBRANCH  71  72
ENDBRANCH   1  71
TORSDOF 14
ENDMDL
MODEL 3
REMARK VINA RESULT:     -13.2      5.923     11.711
REMARK SMILES O=C(NCCCNC(=O)c1cc(Cl)ccc1N1C(=O)CC2(CCCC2)C1=O)c1ccc(-c2c3nc(c(-c4cc(S(=O)(=O)[O-])ccc4F)c4ccc([nH]4)c(-c4cc(S(=O)(=O)[O-])ccc4F)c4nc(c(-c5cc(S(=O)(=O)[O-])ccc5F)c5ccc2[nH]5)C=C4)C=C3)cc1
REMARK SMILES IDX 4 1 3 2 1 3 2 4 28 6 29 7 90 8 30 9 89 10 31 11 32 12 33 13
REMARK SMILES IDX 83 14 34 15 88 16 82 17 84 18 35 19 87 20 81 21 80 22 36 24
REMARK SMILES IDX 68 25 48 26 67 27 49 28 52 29 66 30 85 31 50 32 51 33 65 35
REMARK SMILES IDX 86 36 53 37 37 38 38 39 46 40 39 41 45 42 47 43 44 44 40 45
REMARK SMILES IDX 41 46 42 47 43 48 69 49 70 50 78 51 71 52 77 53 79 54 76 55
REMARK SMILES IDX 72 56 73 57 74 58 75 59 54 60 55 61 63 62 56 63 62 64 64 65
REMARK SMILES IDX 61 66 57 67 58 68 59 69 60 70 5 71 6 72 7 73 8 74 9 76 10 77
REMARK SMILES IDX 11 78 16 79 12 80 15 81 13 82 14 83 17 84 18 85 26 86 19 87
REMARK SMILES IDX 20 88 21 89 27 90 22 91 25 92 23 93 24 94
REMARK H PARENT 3 5 84 23 52 34 7 75
REMARK Flexibility Score: inf
ROOT
ATOM      1  C   UNL A   1      39.048  20.366  25.905  1.00  0.00     0.118 C 
ENDROOT
BRANCH   1   2
ATOM      2  N   UNL A   1      40.124  19.383  25.947  1.00  0.00    -0.352 N 
ATOM      3  O   UNL A   1      42.233  18.606  25.871  1.00  0.00    -0.269 OA
ATOM      4  C   UNL A   1      41.482  19.561  26.058  1.00  0.00     0.251 C 
ATOM      5  H   UNL A   1      39.832  18.444  25.890  1.00  0.00     0.163 HD
BRANCH   4   6
ATOM      6  C   UNL A   1      42.037  20.890  26.393  1.00  0.00     0.039 A 
ATOM      7  C   UNL A   1      42.266  21.838  25.395  1.00  0.00     0.014 A 
ATOM      8  C   UNL A   1      42.286  21.212  27.731  1.00  0.00     0.014 A 
ATOM      9  C   UNL A   1      42.870  23.048  25.709  1.00  0.00     0.010 A 
ATOM     10  C   UNL A   1      42.801  22.471  28.058  1.00  0.00     0.010 A 
ATOM     11  C   UNL A   1      43.108  23.394  27.047  1.00  0.00    -0.014 A 
BRANCH  11  12
ATOM     12  C   UNL A   1      43.560  24.771  27.368  1.00  0.00     0.031 A 
ATOM     13  C   UNL A   1      42.606  25.798  27.907  1.00  0.00     0.074 A 
ATOM     14  C   UNL A   1      44.856  25.080  27.158  1.00  0.00     0.049 A 
ATOM     15  N   UNL A   1      42.832  27.052  28.199  1.00  0.00    -0.248 NA
ATOM     16  C   UNL A   1      41.220  25.367  28.144  1.00  0.00     0.031 C 
ATOM     17  C   UNL A   1      45.865  24.151  26.632  1.00  0.00     0.029 A 
ATOM     18  N   UNL A   1      45.554  26.243  27.352  1.00  0.00    -0.354 N 
ATOM     19  C   UNL A   1      41.617  27.572  28.630  1.00  0.00     0.074 A 
ATOM     20  C   UNL A   1      40.651  26.496  28.549  1.00  0.00     0.031 C 
ATOM     21  C   UNL A   1      47.049  24.773  26.572  1.00  0.00     0.029 A 
ATOM     22  C   UNL A   1      46.872  26.164  26.968  1.00  0.00     0.049 A 
ATOM     23  H   UNL A   1      45.149  27.057  27.732  1.00  0.00     0.167 HD
ATOM     24  C   UNL A   1      41.343  28.832  29.049  1.00  0.00     0.034 A 
ATOM     25  C   UNL A   1      47.824  27.114  26.892  1.00  0.00     0.034 A 
ATOM     26  C   UNL A   1      42.331  29.882  29.130  1.00  0.00     0.049 A 
ATOM     27  C   UNL A   1      47.470  28.517  27.307  1.00  0.00     0.074 A 
ATOM     28  C   UNL A   1      42.180  31.168  29.620  1.00  0.00     0.029 A 
ATOM     29  N   UNL A   1      43.645  29.779  28.690  1.00  0.00    -0.354 N 
ATOM     30  N   UNL A   1      46.330  28.973  27.773  1.00  0.00    -0.248 NA
ATOM     31  C   UNL A   1      48.523  29.531  27.184  1.00  0.00     0.031 C 
ATOM     32  C   UNL A   1      43.370  31.867  29.395  1.00  0.00     0.029 A 
ATOM     33  C   UNL A   1      44.294  30.995  28.841  1.00  0.00     0.049 A 
ATOM     34  H   UNL A   1      44.055  28.963  28.323  1.00  0.00     0.167 HD
ATOM     35  C   UNL A   1      46.536  30.328  28.011  1.00  0.00     0.074 A 
ATOM     36  C   UNL A   1      47.915  30.605  27.665  1.00  0.00     0.031 C 
ATOM     37  C   UNL A   1      45.664  31.259  28.470  1.00  0.00     0.034 A 
BRANCH  24  38
ATOM     38  C   UNL A   1      39.916  29.173  29.401  1.00  0.00     0.023 A 
ATOM     39  C   UNL A   1      39.479  29.297  30.730  1.00  0.00     0.031 A 
ATOM     40  C   UNL A   1      38.985  29.420  28.375  1.00  0.00     0.131 A 
ATOM     41  C   UNL A   1      38.139  29.620  30.998  1.00  0.00     0.055 A 
ATOM     42  C   UNL A   1      37.670  29.803  28.646  1.00  0.00     0.041 A 
ATOM     43  F   UNL A   1      39.341  29.297  27.086  1.00  0.00    -0.206 F 
ATOM     44  C   UNL A   1      37.239  29.898  29.965  1.00  0.00     0.022 A 
BRANCH  41  45
ATOM     45  S   UNL A   1      37.558  29.582  32.716  1.00  0.00     0.124 S 
ATOM     46  O   UNL A   1      36.276  30.274  32.611  1.00  0.00    -0.237 OA
ATOM     47  O   UNL A   1      37.490  28.152  32.995  1.00  0.00    -0.237 OA
ATOM     48  O   UNL A   1      38.593  30.311  33.447  1.00  0.00    -0.744 OA
ENDBRANCH  41  45
ENDBRANCH  24  38
BRANCH  25  49
ATOM     49  C   UNL A   1      49.169  26.793  26.333  1.00  0.00     0.023 A 
ATOM     50  C   UNL A   1      49.570  27.276  25.079  1.00  0.00     0.031 A 
ATOM     51  C   UNL A   1      50.056  25.946  27.026  1.00  0.00     0.131 A 
ATOM     52  C   UNL A   1      50.796  26.867  24.533  1.00  0.00     0.055 A 
ATOM     53  C   UNL A   1      51.303  25.597  26.508  1.00  0.00     0.041 A 
ATOM     54  F   UNL A   1      49.723  25.450  28.229  1.00  0.00    -0.206 F 
ATOM     55  C   UNL A   1      51.673  26.044  25.245  1.00  0.00     0.022 A 
BRANCH  52  56
ATOM     56  S   UNL A   1      51.174  27.326  22.819  1.00  0.00     0.124 S 
ATOM     57  O   UNL A   1      52.475  26.697  22.623  1.00  0.00    -0.237 OA
ATOM     58  O   UNL A   1      50.057  26.731  22.094  1.00  0.00    -0.237 OA
ATOM     59  O   UNL A   1      51.187  28.787  22.856  1.00  0.00    -0.744 OA
ENDBRANCH  52  56
ENDBRANCH  25  49
BRANCH  37  60
ATOM     60  C   UNL A   1      46.193  32.660  28.641  1.00  0.00     0.023 A 
ATOM     61  C   UNL A   1      46.143  33.596  27.595  1.00  0.00     0.031 A 
ATOM     62  C   UNL A   1      46.760  33.060  29.864  1.00  0.00     0.131 A 
ATOM     63  C   UNL A   1      46.691  34.875  27.775  1.00  0.00     0.055 A 
ATOM     64  C   UNL A   1      47.247  34.353  30.058  1.00  0.00     0.041 A 
ATOM     65  F   UNL A   1      46.837  32.203  30.895  1.00  0.00    -0.206 F 
ATOM     66  C   UNL A   1      47.225  35.265  29.006  1.00  0.00     0.022 A 
BRANCH  63  67
ATOM     67  S   UNL A   1      46.763  36.000  26.355  1.00  0.00     0.124 S 
ATOM     68  O   UNL A   1      46.331  35.135  25.262  1.00  0.00    -0.237 OA
ATOM     69  O   UNL A   1      45.830  37.053  26.741  1.00  0.00    -0.237 OA
ATOM     70  O   UNL A   1      48.167  36.405  26.309  1.00  0.00    -0.744 OA
ENDBRANCH  63  67
ENDBRANCH  37  60
ENDBRANCH  11  12
ENDBRANCH   4   6
ENDBRANCH   1   2
BRANCH   1  71
ATOM     71  C   UNL A   1      37.918  19.955  24.973  1.00  0.00     0.042 C 
BRANCH  71  72
ATOM     72  C   UNL A   1      36.875  21.038  24.755  1.00  0.00     0.118 C 
BRANCH  72  73
ATOM     73  N   UNL A   1      35.951  21.171  25.876  1.00  0.00    -0.352 N 
ATOM     74  C   UNL A   1      34.599  20.947  25.936  1.00  0.00     0.253 C 
ATOM     75  H   UNL A   1      36.362  21.466  26.720  1.00  0.00     0.163 HD
ATOM     76  O   UNL A   1      33.966  21.257  26.944  1.00  0.00    -0.269 OA
BRANCH  74  77
ATOM     77  C   UNL A   1      33.893  20.294  24.810  1.00  0.00     0.065 A 
ATOM     78  C   UNL A   1      33.993  18.895  24.706  1.00  0.00     0.036 A 
ATOM     79  C   UNL A   1      32.986  20.999  23.993  1.00  0.00     0.065 A 
ATOM     80  C   UNL A   1      33.289  18.214  23.721  1.00  0.00     0.041 A 
ATOM     81  C   UNL A   1      32.248  20.278  23.037  1.00  0.00     0.029 A 
ATOM     82  Cl  UNL A   1      33.484  16.513  23.557  1.00  0.00    -0.084 Cl
ATOM     83  C   UNL A   1      32.423  18.900  22.880  1.00  0.00     0.023 A 
BRANCH  79  84
ATOM     84  N   UNL A   1      32.770  22.395  24.106  1.00  0.00    -0.249 N 
ATOM     85  C   UNL A   1      33.541  23.332  23.465  1.00  0.00     0.234 C 
ATOM     86  C   UNL A   1      31.784  22.962  24.882  1.00  0.00     0.240 C 
ATOM     87  O   UNL A   1      34.542  23.152  22.782  1.00  0.00    -0.274 OA
ATOM     88  C   UNL A   1      32.913  24.683  23.651  1.00  0.00     0.118 C 
ATOM     89  C   UNL A   1      31.911  24.469  24.781  1.00  0.00     0.059 C 
ATOM     90  O   UNL A   1      31.012  22.385  25.637  1.00  0.00    -0.273 OA
ATOM     91  C   UNL A   1      32.388  25.090  26.098  1.00  0.00     0.017 C 
ATOM     92  C   UNL A   1      30.571  25.167  24.560  1.00  0.00     0.017 C 
ATOM     93  C   UNL A   1      31.951  26.551  26.021  1.00  0.00     0.001 C 
ATOM     94  C   UNL A   1      30.805  26.604  25.011  1.00  0.00     0.001 C 
ENDBRANCH  79  84
ENDBRANCH  74  77
ENDBRANCH  72  73
ENDBRANCH  71  72
ENDBRANCH   1  71
TORSDOF 14
ENDMDL
