MODEL 1
REMARK VINA RESULT:     -12.5      0.000      0.000
REMARK SMILES CC1CC[NH+](CC(=O)N[C@H](Cc2cccc(F)c2)C(=O)NCCCNC(=O)c2ccc(-c3c4nc(c(-c5cc(S(=O)(=O)[O-])ccc5F)c5ccc([nH]5)c(-c5cc(S(=O)(=O)[O-])ccc5F)c5nc(c(-c6cc(S(=O)(=O)[O-])ccc6F)c6ccc3[nH]6)C=C5)C=C4)cc2)CC1
REMARK SMILES IDX 23 1 22 2 21 3 19 4 20 5 10 7 9 8 7 9 8 10 6 12 5 13 1 14
REMARK SMILES IDX 2 15 3 16 92 17 4 18 91 19 11 21 12 22 13 23 18 24 14 25
REMARK SMILES IDX 16 26 15 27 17 28 24 29 25 30 26 31 27 33 28 34 29 35 90 36
REMARK SMILES IDX 30 37 89 38 31 39 32 40 33 41 83 42 34 43 88 44 82 45 84 46
REMARK SMILES IDX 35 47 87 48 81 49 80 50 36 52 68 53 48 54 67 55 49 56 52 57
REMARK SMILES IDX 66 58 85 59 50 60 51 61 65 63 86 64 53 65 37 66 38 67 46 68
REMARK SMILES IDX 39 69 45 70 47 71 44 72 40 73 41 74 42 75 43 76 69 77 70 78
REMARK SMILES IDX 78 79 71 80 77 81 79 82 76 83 72 84 73 85 74 86 75 87 54 88
REMARK SMILES IDX 55 89 63 90 56 91 62 92 64 93 61 94 57 95 58 96 59 97 60 98
REMARK H PARENT 21 6 9 11 5 20 25 32 84 51 52 62
REMARK Flexibility Score: inf
ROOT
ATOM      1  C   UNL A   1      37.139  20.492  24.909  1.00  0.00     0.042 C 
ENDROOT
BRANCH   1   2
ATOM      2  C   UNL A   1      35.961  21.444  25.031  1.00  0.00     0.117 C 
BRANCH   2   3
ATOM      3  N   UNL A   1      35.426  21.417  26.387  1.00  0.00    -0.354 N 
ATOM      4  C   UNL A   1      34.120  21.334  26.787  1.00  0.00     0.242 C 
ATOM      5  O   UNL A   1      33.811  21.800  27.884  1.00  0.00    -0.273 OA
ATOM      6  H   UNL A   1      36.093  21.464  27.110  1.00  0.00     0.163 HD
BRANCH   4   7
ATOM      7  C   UNL A   1      33.077  20.691  25.855  1.00  0.00     0.175 C 
BRANCH   7   8
ATOM      8  N   UNL A   1      31.900  21.582  25.952  1.00  0.00    -0.339 N 
ATOM      9  C   UNL A   1      31.519  22.750  25.383  1.00  0.00     0.275 C 
ATOM     10  O   UNL A   1      30.516  23.284  25.867  1.00  0.00    -0.268 OA
ATOM     11  H   UNL A   1      31.228  21.241  26.586  1.00  0.00     0.164 HD
BRANCH   9  12
ATOM     12  C   UNL A   1      32.229  23.336  24.179  1.00  0.00     0.363 C 
BRANCH  12  13
ATOM     13  N   UNL A   1      33.568  23.917  24.355  1.00  0.00    -0.327 N 
ATOM     14  C   UNL A   1      32.538  27.946  23.759  1.00  0.00     0.008 C 
ATOM     15  C   UNL A   1      33.565  26.840  24.023  1.00  0.00    -0.003 C 
ATOM     16  C   UNL A   1      33.590  25.872  22.828  1.00  0.00     0.065 C 
ATOM     17  C   UNL A   1      33.265  26.181  25.377  1.00  0.00     0.065 C 
ATOM     18  C   UNL A   1      34.150  24.498  23.158  1.00  0.00     0.262 C 
ATOM     19  C   UNL A   1      33.811  24.762  25.511  1.00  0.00     0.262 C 
ATOM     20  H   UNL A   1      34.069  23.056  24.572  1.00  0.00     0.348 HD
ENDBRANCH  12  13
ENDBRANCH   9  12
ENDBRANCH   7   8
BRANCH   7  21
ATOM     21  C   UNL A   1      32.885  19.193  26.178  1.00  0.00     0.070 C 
BRANCH  21  22
ATOM     22  C   UNL A   1      33.042  18.302  24.958  1.00  0.00    -0.043 A 
ATOM     23  C   UNL A   1      33.898  17.188  24.991  1.00  0.00     0.004 A 
ATOM     24  C   UNL A   1      32.435  18.647  23.743  1.00  0.00     0.043 A 
ATOM     25  C   UNL A   1      34.254  16.530  23.811  1.00  0.00     0.003 A 
ATOM     26  C   UNL A   1      32.822  18.005  22.569  1.00  0.00     0.123 A 
ATOM     27  C   UNL A   1      33.745  16.966  22.590  1.00  0.00     0.039 A 
ATOM     28  F   UNL A   1      32.362  18.453  21.395  1.00  0.00    -0.207 F 
ENDBRANCH  21  22
ENDBRANCH   7  21
ENDBRANCH   4   7
ENDBRANCH   2   3
ENDBRANCH   1   2
BRANCH   1  29
ATOM     29  C   UNL A   1      38.448  21.153  25.312  1.00  0.00     0.118 C 
BRANCH  29  30
ATOM     30  N   UNL A   1      39.304  20.234  26.052  1.00  0.00    -0.352 N 
ATOM     31  C   UNL A   1      40.418  20.520  26.802  1.00  0.00     0.251 C 
ATOM     32  H   UNL A   1      39.050  19.284  26.009  1.00  0.00     0.163 HD
ATOM     33  O   UNL A   1      41.208  19.628  27.101  1.00  0.00    -0.269 OA
BRANCH  31  34
ATOM     34  C   UNL A   1      40.654  21.915  27.216  1.00  0.00     0.039 A 
ATOM     35  C   UNL A   1      41.582  22.194  28.218  1.00  0.00     0.014 A 
ATOM     36  C   UNL A   1      39.989  22.950  26.553  1.00  0.00     0.014 A 
ATOM     37  C   UNL A   1      41.909  23.523  28.492  1.00  0.00     0.010 A 
ATOM     38  C   UNL A   1      40.392  24.260  26.752  1.00  0.00     0.010 A 
ATOM     39  C   UNL A   1      41.357  24.561  27.722  1.00  0.00    -0.014 A 
BRANCH  39  40
ATOM     40  C   UNL A   1      41.777  25.972  27.893  1.00  0.00     0.031 A 
ATOM     41  C   UNL A   1      43.139  26.405  27.428  1.00  0.00     0.074 A 
ATOM     42  C   UNL A   1      40.972  26.832  28.545  1.00  0.00     0.049 A 
ATOM     43  N   UNL A   1      43.749  27.545  27.612  1.00  0.00    -0.248 NA
ATOM     44  C   UNL A   1      43.930  25.411  26.684  1.00  0.00     0.031 C 
ATOM     45  C   UNL A   1      39.638  26.516  29.066  1.00  0.00     0.029 A 
ATOM     46  N   UNL A   1      41.157  28.146  28.890  1.00  0.00    -0.354 N 
ATOM     47  C   UNL A   1      44.997  27.406  27.017  1.00  0.00     0.074 A 
ATOM     48  C   UNL A   1      45.079  26.049  26.522  1.00  0.00     0.031 C 
ATOM     49  C   UNL A   1      39.115  27.615  29.631  1.00  0.00     0.029 A 
ATOM     50  C   UNL A   1      40.095  28.695  29.569  1.00  0.00     0.049 A 
ATOM     51  H   UNL A   1      41.974  28.650  28.673  1.00  0.00     0.167 HD
ATOM     52  C   UNL A   1      45.974  28.334  26.876  1.00  0.00     0.034 A 
ATOM     53  C   UNL A   1      39.931  29.923  30.098  1.00  0.00     0.034 A 
ATOM     54  C   UNL A   1      45.871  29.684  27.368  1.00  0.00     0.049 A 
ATOM     55  C   UNL A   1      41.046  30.924  29.968  1.00  0.00     0.074 A 
ATOM     56  C   UNL A   1      46.789  30.712  27.255  1.00  0.00     0.029 A 
ATOM     57  N   UNL A   1      44.785  30.196  28.067  1.00  0.00    -0.354 N 
ATOM     58  N   UNL A   1      42.225  30.776  29.410  1.00  0.00    -0.248 NA
ATOM     59  C   UNL A   1      40.808  32.256  30.537  1.00  0.00     0.031 C 
ATOM     60  C   UNL A   1      46.290  31.822  27.941  1.00  0.00     0.029 A 
ATOM     61  C   UNL A   1      45.022  31.518  28.412  1.00  0.00     0.049 A 
ATOM     62  H   UNL A   1      43.966  29.694  28.285  1.00  0.00     0.167 HD
ATOM     63  C   UNL A   1      42.861  32.007  29.535  1.00  0.00     0.074 A 
ATOM     64  C   UNL A   1      41.933  32.884  30.220  1.00  0.00     0.031 C 
ATOM     65  C   UNL A   1      44.096  32.377  29.111  1.00  0.00     0.034 A 
BRANCH  52  66
ATOM     66  C   UNL A   1      47.241  27.909  26.178  1.00  0.00     0.023 A 
ATOM     67  C   UNL A   1      47.393  28.033  24.786  1.00  0.00     0.031 A 
ATOM     68  C   UNL A   1      48.316  27.380  26.915  1.00  0.00     0.131 A 
ATOM     69  C   UNL A   1      48.570  27.588  24.168  1.00  0.00     0.055 A 
ATOM     70  C   UNL A   1      49.512  27.003  26.301  1.00  0.00     0.041 A 
ATOM     71  F   UNL A   1      48.218  27.216  28.243  1.00  0.00    -0.206 F 
ATOM     72  C   UNL A   1      49.640  27.098  24.919  1.00  0.00     0.022 A 
BRANCH  69  73
ATOM     73  S   UNL A   1      48.645  27.567  22.356  1.00  0.00     0.124 S 
ATOM     74  O   UNL A   1      47.427  28.291  22.003  1.00  0.00    -0.237 OA
ATOM     75  O   UNL A   1      49.901  28.257  22.084  1.00  0.00    -0.237 OA
ATOM     76  O   UNL A   1      48.633  26.143  22.030  1.00  0.00    -0.744 OA
ENDBRANCH  69  73
ENDBRANCH  52  66
BRANCH  53  77
ATOM     77  C   UNL A   1      38.661  30.263  30.793  1.00  0.00     0.023 A 
ATOM     78  C   UNL A   1      37.671  31.024  30.151  1.00  0.00     0.031 A 
ATOM     79  C   UNL A   1      38.401  29.800  32.096  1.00  0.00     0.131 A 
ATOM     80  C   UNL A   1      36.471  31.312  30.819  1.00  0.00     0.055 A 
ATOM     81  C   UNL A   1      37.191  30.058  32.742  1.00  0.00     0.041 A 
ATOM     82  F   UNL A   1      39.311  29.055  32.744  1.00  0.00    -0.206 F 
ATOM     83  C   UNL A   1      36.218  30.822  32.103  1.00  0.00     0.022 A 
BRANCH  80  84
ATOM     84  S   UNL A   1      35.238  32.347  29.985  1.00  0.00     0.124 S 
ATOM     85  O   UNL A   1      34.737  31.443  28.957  1.00  0.00    -0.237 OA
ATOM     86  O   UNL A   1      34.316  32.659  31.072  1.00  0.00    -0.237 OA
ATOM     87  O   UNL A   1      36.022  33.480  29.495  1.00  0.00    -0.744 OA
ENDBRANCH  80  84
ENDBRANCH  53  77
BRANCH  65  88
ATOM     88  C   UNL A   1      44.503  33.811  29.337  1.00  0.00     0.023 A 
ATOM     89  C   UNL A   1      44.166  34.828  28.429  1.00  0.00     0.031 A 
ATOM     90  C   UNL A   1      45.221  34.164  30.494  1.00  0.00     0.131 A 
ATOM     91  C   UNL A   1      44.583  36.145  28.673  1.00  0.00     0.055 A 
ATOM     92  C   UNL A   1      45.583  35.485  30.759  1.00  0.00     0.041 A 
ATOM     93  F   UNL A   1      45.570  33.230  31.393  1.00  0.00    -0.206 F 
ATOM     94  C   UNL A   1      45.272  36.483  29.841  1.00  0.00     0.022 A 
BRANCH  91  95
ATOM     95  S   UNL A   1      44.270  37.407  27.408  1.00  0.00     0.124 S 
ATOM     96  O   UNL A   1      43.998  38.588  28.221  1.00  0.00    -0.237 OA
ATOM     97  O   UNL A   1      45.524  37.421  26.662  1.00  0.00    -0.237 OA
ATOM     98  O   UNL A   1      43.121  36.880  26.675  1.00  0.00    -0.744 OA
ENDBRANCH  91  95
ENDBRANCH  65  88
ENDBRANCH  39  40
ENDBRANCH  31  34
ENDBRANCH  29  30
ENDBRANCH   1  29
TORSDOF 18
ENDMDL
MODEL 2
REMARK VINA RESULT:     -12.5      5.197      8.554
REMARK SMILES CC1CC[NH+](CC(=O)N[C@H](Cc2cccc(F)c2)C(=O)NCCCNC(=O)c2ccc(-c3c4nc(c(-c5cc(S(=O)(=O)[O-])ccc5F)c5ccc([nH]5)c(-c5cc(S(=O)(=O)[O-])ccc5F)c5nc(c(-c6cc(S(=O)(=O)[O-])ccc6F)c6ccc3[nH]6)C=C5)C=C4)cc2)CC1
REMARK SMILES IDX 23 1 22 2 21 3 19 4 20 5 10 7 9 8 7 9 8 10 6 12 5 13 1 14
REMARK SMILES IDX 2 15 3 16 92 17 4 18 91 19 11 21 12 22 13 23 18 24 14 25
REMARK SMILES IDX 16 26 15 27 17 28 24 29 25 30 26 31 27 33 28 34 29 35 90 36
REMARK SMILES IDX 30 37 89 38 31 39 32 40 33 41 83 42 34 43 88 44 82 45 84 46
REMARK SMILES IDX 35 47 87 48 81 49 80 50 36 52 68 53 48 54 67 55 49 56 52 57
REMARK SMILES IDX 66 58 85 59 50 60 51 61 65 63 86 64 53 65 37 66 38 67 46 68
REMARK SMILES IDX 39 69 45 70 47 71 44 72 40 73 41 74 42 75 43 76 69 77 70 78
REMARK SMILES IDX 78 79 71 80 77 81 79 82 76 83 72 84 73 85 74 86 75 87 54 88
REMARK SMILES IDX 55 89 63 90 56 91 62 92 64 93 61 94 57 95 58 96 59 97 60 98
REMARK H PARENT 21 6 9 11 5 20 25 32 84 51 52 62
REMARK Flexibility Score: inf
ROOT
ATOM      1  C   UNL A   1      31.474  29.564  27.116  1.00  0.00     0.042 C 
ENDROOT
BRANCH   1   2
ATOM      2  C   UNL A   1      32.028  28.209  27.519  1.00  0.00     0.117 C 
BRANCH   2   3
ATOM      3  N   UNL A   1      32.612  27.536  26.365  1.00  0.00    -0.354 N 
ATOM      4  C   UNL A   1      32.133  26.457  25.674  1.00  0.00     0.242 C 
ATOM      5  O   UNL A   1      32.935  25.737  25.078  1.00  0.00    -0.273 OA
ATOM      6  H   UNL A   1      33.464  27.909  26.039  1.00  0.00     0.163 HD
BRANCH   4   7
ATOM      7  C   UNL A   1      30.623  26.156  25.681  1.00  0.00     0.175 C 
BRANCH   7   8
ATOM      8  N   UNL A   1      30.481  25.012  26.609  1.00  0.00    -0.339 N 
ATOM      9  C   UNL A   1      30.442  23.664  26.487  1.00  0.00     0.275 C 
ATOM     10  O   UNL A   1      30.125  23.039  27.504  1.00  0.00    -0.268 OA
ATOM     11  H   UNL A   1      30.392  25.304  27.545  1.00  0.00     0.164 HD
BRANCH   9  12
ATOM     12  C   UNL A   1      30.833  22.954  25.208  1.00  0.00     0.363 C 
BRANCH  12  13
ATOM     13  N   UNL A   1      32.257  22.862  24.851  1.00  0.00    -0.327 N 
ATOM     14  C   UNL A   1      32.452  18.703  24.297  1.00  0.00     0.008 C 
ATOM     15  C   UNL A   1      33.100  20.090  24.340  1.00  0.00    -0.003 C 
ATOM     16  C   UNL A   1      32.973  20.667  25.760  1.00  0.00     0.065 C 
ATOM     17  C   UNL A   1      32.495  20.967  23.235  1.00  0.00     0.065 C 
ATOM     18  C   UNL A   1      33.094  22.181  25.824  1.00  0.00     0.262 C 
ATOM     19  C   UNL A   1      32.609  22.466  23.499  1.00  0.00     0.262 C 
ATOM     20  H   UNL A   1      32.475  23.857  24.879  1.00  0.00     0.348 HD
ENDBRANCH  12  13
ENDBRANCH   9  12
ENDBRANCH   7   8
BRANCH   7  21
ATOM     21  C   UNL A   1      30.075  26.002  24.245  1.00  0.00     0.070 C 
BRANCH  21  22
ATOM     22  C   UNL A   1      29.469  27.285  23.704  1.00  0.00    -0.043 A 
ATOM     23  C   UNL A   1      28.079  27.486  23.729  1.00  0.00     0.004 A 
ATOM     24  C   UNL A   1      30.274  28.233  23.059  1.00  0.00     0.043 A 
ATOM     25  C   UNL A   1      27.498  28.527  23.000  1.00  0.00     0.003 A 
ATOM     26  C   UNL A   1      29.682  29.247  22.309  1.00  0.00     0.123 A 
ATOM     27  C   UNL A   1      28.301  29.386  22.253  1.00  0.00     0.039 A 
ATOM     28  F   UNL A   1      30.455  30.045  21.561  1.00  0.00    -0.207 F 
ENDBRANCH  21  22
ENDBRANCH   7  21
ENDBRANCH   4   7
ENDBRANCH   2   3
ENDBRANCH   1   2
BRANCH   1  29
ATOM     29  C   UNL A   1      32.497  30.394  26.357  1.00  0.00     0.118 C 
BRANCH  29  30
ATOM     30  N   UNL A   1      32.323  31.819  26.612  1.00  0.00    -0.352 N 
ATOM     31  C   UNL A   1      33.056  32.635  27.439  1.00  0.00     0.251 C 
ATOM     32  H   UNL A   1      31.584  32.253  26.128  1.00  0.00     0.163 HD
ATOM     33  O   UNL A   1      32.606  33.723  27.791  1.00  0.00    -0.269 OA
BRANCH  31  34
ATOM     34  C   UNL A   1      34.373  32.169  27.908  1.00  0.00     0.039 A 
ATOM     35  C   UNL A   1      35.441  33.062  27.979  1.00  0.00     0.014 A 
ATOM     36  C   UNL A   1      34.520  30.847  28.338  1.00  0.00     0.014 A 
ATOM     37  C   UNL A   1      36.636  32.649  28.569  1.00  0.00     0.010 A 
ATOM     38  C   UNL A   1      35.668  30.472  29.017  1.00  0.00     0.010 A 
ATOM     39  C   UNL A   1      36.737  31.369  29.141  1.00  0.00    -0.014 A 
BRANCH  39  40
ATOM     40  C   UNL A   1      37.941  30.939  29.892  1.00  0.00     0.031 A 
ATOM     41  C   UNL A   1      38.887  29.946  29.277  1.00  0.00     0.074 A 
ATOM     42  C   UNL A   1      38.130  31.372  31.153  1.00  0.00     0.049 A 
ATOM     43  N   UNL A   1      39.908  29.336  29.816  1.00  0.00    -0.248 NA
ATOM     44  C   UNL A   1      38.627  29.565  27.878  1.00  0.00     0.031 C 
ATOM     45  C   UNL A   1      37.263  32.316  31.864  1.00  0.00     0.029 A 
ATOM     46  N   UNL A   1      39.107  31.069  32.067  1.00  0.00    -0.354 N 
ATOM     47  C   UNL A   1      40.409  28.495  28.830  1.00  0.00     0.074 A 
ATOM     48  C   UNL A   1      39.540  28.626  27.681  1.00  0.00     0.031 C 
ATOM     49  C   UNL A   1      37.766  32.541  33.087  1.00  0.00     0.029 A 
ATOM     50  C   UNL A   1      38.954  31.714  33.272  1.00  0.00     0.049 A 
ATOM     51  H   UNL A   1      39.846  30.449  31.878  1.00  0.00     0.167 HD
ATOM     52  C   UNL A   1      41.508  27.703  28.874  1.00  0.00     0.034 A 
ATOM     53  C   UNL A   1      39.678  31.637  34.405  1.00  0.00     0.034 A 
ATOM     54  C   UNL A   1      42.367  27.591  30.025  1.00  0.00     0.049 A 
ATOM     55  C   UNL A   1      40.870  30.720  34.446  1.00  0.00     0.074 A 
ATOM     56  C   UNL A   1      43.521  26.841  30.165  1.00  0.00     0.029 A 
ATOM     57  N   UNL A   1      42.169  28.247  31.233  1.00  0.00    -0.354 N 
ATOM     58  N   UNL A   1      41.327  29.922  33.509  1.00  0.00    -0.248 NA
ATOM     59  C   UNL A   1      41.641  30.692  35.694  1.00  0.00     0.031 C 
ATOM     60  C   UNL A   1      43.982  26.990  31.476  1.00  0.00     0.029 A 
ATOM     61  C   UNL A   1      43.166  27.899  32.132  1.00  0.00     0.049 A 
ATOM     62  H   UNL A   1      41.429  28.868  31.424  1.00  0.00     0.167 HD
ATOM     63  C   UNL A   1      42.460  29.318  34.045  1.00  0.00     0.074 A 
ATOM     64  C   UNL A   1      42.614  29.845  35.386  1.00  0.00     0.031 C 
ATOM     65  C   UNL A   1      43.299  28.418  33.473  1.00  0.00     0.034 A 
BRANCH  52  66
ATOM     66  C   UNL A   1      41.826  26.887  27.647  1.00  0.00     0.023 A 
ATOM     67  C   UNL A   1      41.535  25.513  27.581  1.00  0.00     0.031 A 
ATOM     68  C   UNL A   1      42.419  27.490  26.524  1.00  0.00     0.131 A 
ATOM     69  C   UNL A   1      41.884  24.778  26.439  1.00  0.00     0.055 A 
ATOM     70  C   UNL A   1      42.700  26.768  25.364  1.00  0.00     0.041 A 
ATOM     71  F   UNL A   1      42.740  28.794  26.540  1.00  0.00    -0.206 F 
ATOM     72  C   UNL A   1      42.441  25.401  25.320  1.00  0.00     0.022 A 
BRANCH  69  73
ATOM     73  S   UNL A   1      41.690  22.975  26.473  1.00  0.00     0.124 S 
ATOM     74  O   UNL A   1      42.312  22.589  25.209  1.00  0.00    -0.237 OA
ATOM     75  O   UNL A   1      42.413  22.602  27.682  1.00  0.00    -0.237 OA
ATOM     76  O   UNL A   1      40.242  22.788  26.530  1.00  0.00    -0.744 OA
ENDBRANCH  69  73
ENDBRANCH  52  66
BRANCH  53  77
ATOM     77  C   UNL A   1      39.290  32.456  35.585  1.00  0.00     0.023 A 
ATOM     78  C   UNL A   1      39.803  33.751  35.761  1.00  0.00     0.031 A 
ATOM     79  C   UNL A   1      38.372  31.971  36.533  1.00  0.00     0.131 A 
ATOM     80  C   UNL A   1      39.403  34.514  36.869  1.00  0.00     0.055 A 
ATOM     81  C   UNL A   1      37.950  32.747  37.614  1.00  0.00     0.041 A 
ATOM     82  F   UNL A   1      37.843  30.744  36.399  1.00  0.00    -0.206 F 
ATOM     83  C   UNL A   1      38.469  34.027  37.788  1.00  0.00     0.022 A 
BRANCH  80  84
ATOM     84  S   UNL A   1      40.129  36.159  37.101  1.00  0.00     0.124 S 
ATOM     85  O   UNL A   1      41.512  35.830  37.425  1.00  0.00    -0.237 OA
ATOM     86  O   UNL A   1      39.903  36.778  35.798  1.00  0.00    -0.237 OA
ATOM     87  O   UNL A   1      39.346  36.724  38.198  1.00  0.00    -0.744 OA
ENDBRANCH  80  84
ENDBRANCH  53  77
BRANCH  65  88
ATOM     88  C   UNL A   1      44.492  27.974  34.281  1.00  0.00     0.023 A 
ATOM     89  C   UNL A   1      44.439  26.848  35.120  1.00  0.00     0.031 A 
ATOM     90  C   UNL A   1      45.705  28.678  34.189  1.00  0.00     0.131 A 
ATOM     91  C   UNL A   1      45.570  26.484  35.867  1.00  0.00     0.055 A 
ATOM     92  C   UNL A   1      46.843  28.277  34.890  1.00  0.00     0.041 A 
ATOM     93  F   UNL A   1      45.809  29.761  33.403  1.00  0.00    -0.206 F 
ATOM     94  C   UNL A   1      46.776  27.178  35.742  1.00  0.00     0.022 A 
BRANCH  91  95
ATOM     95  S   UNL A   1      45.425  25.124  37.058  1.00  0.00     0.124 S 
ATOM     96  O   UNL A   1      46.365  25.532  38.098  1.00  0.00    -0.237 OA
ATOM     97  O   UNL A   1      44.012  25.173  37.421  1.00  0.00    -0.237 OA
ATOM     98  O   UNL A   1      45.825  23.948  36.287  1.00  0.00    -0.744 OA
ENDBRANCH  91  95
ENDBRANCH  65  88
ENDBRANCH  39  40
ENDBRANCH  31  34
ENDBRANCH  29  30
ENDBRANCH   1  29
TORSDOF 18
ENDMDL
MODEL 3
REMARK VINA RESULT:     -12.4      1.671      7.634
REMARK SMILES CC1CC[NH+](CC(=O)N[C@H](Cc2cccc(F)c2)C(=O)NCCCNC(=O)c2ccc(-c3c4nc(c(-c5cc(S(=O)(=O)[O-])ccc5F)c5ccc([nH]5)c(-c5cc(S(=O)(=O)[O-])ccc5F)c5nc(c(-c6cc(S(=O)(=O)[O-])ccc6F)c6ccc3[nH]6)C=C5)C=C4)cc2)CC1
REMARK SMILES IDX 23 1 22 2 21 3 19 4 20 5 10 7 9 8 7 9 8 10 6 12 5 13 1 14
REMARK SMILES IDX 2 15 3 16 92 17 4 18 91 19 11 21 12 22 13 23 18 24 14 25
REMARK SMILES IDX 16 26 15 27 17 28 24 29 25 30 26 31 27 33 28 34 29 35 90 36
REMARK SMILES IDX 30 37 89 38 31 39 32 40 33 41 83 42 34 43 88 44 82 45 84 46
REMARK SMILES IDX 35 47 87 48 81 49 80 50 36 52 68 53 48 54 67 55 49 56 52 57
REMARK SMILES IDX 66 58 85 59 50 60 51 61 65 63 86 64 53 65 37 66 38 67 46 68
REMARK SMILES IDX 39 69 45 70 47 71 44 72 40 73 41 74 42 75 43 76 69 77 70 78
REMARK SMILES IDX 78 79 71 80 77 81 79 82 76 83 72 84 73 85 74 86 75 87 54 88
REMARK SMILES IDX 55 89 63 90 56 91 62 92 64 93 61 94 57 95 58 96 59 97 60 98
REMARK H PARENT 21 6 9 11 5 20 25 32 84 51 52 62
REMARK Flexibility Score: inf
ROOT
ATOM      1  C   UNL A   1      36.176  21.553  24.964  1.00  0.00     0.042 C 
ENDROOT
BRANCH   1   2
ATOM      2  C   UNL A   1      35.571  22.785  25.616  1.00  0.00     0.117 C 
BRANCH   2   3
ATOM      3  N   UNL A   1      35.066  22.459  26.944  1.00  0.00    -0.354 N 
ATOM      4  C   UNL A   1      33.789  22.135  27.315  1.00  0.00     0.242 C 
ATOM      5  O   UNL A   1      33.438  22.365  28.473  1.00  0.00    -0.273 OA
ATOM      6  H   UNL A   1      35.732  22.474  27.669  1.00  0.00     0.163 HD
BRANCH   4   7
ATOM      7  C   UNL A   1      32.827  21.523  26.281  1.00  0.00     0.175 C 
BRANCH   7   8
ATOM      8  N   UNL A   1      31.508  22.101  26.620  1.00  0.00    -0.339 N 
ATOM      9  C   UNL A   1      31.005  23.350  26.766  1.00  0.00     0.275 C 
ATOM     10  O   UNL A   1      29.867  23.422  27.240  1.00  0.00    -0.268 OA
ATOM     11  H   UNL A   1      30.828  21.406  26.778  1.00  0.00     0.164 HD
BRANCH   9  12
ATOM     12  C   UNL A   1      31.755  24.584  26.308  1.00  0.00     0.363 C 
BRANCH  12  13
ATOM     13  N   UNL A   1      31.319  25.269  25.083  1.00  0.00    -0.327 N 
ATOM     14  C   UNL A   1      33.767  23.209  22.360  1.00  0.00     0.008 C 
ATOM     15  C   UNL A   1      32.726  24.282  22.695  1.00  0.00    -0.003 C 
ATOM     16  C   UNL A   1      33.346  25.313  23.653  1.00  0.00     0.065 C 
ATOM     17  C   UNL A   1      31.450  23.607  23.217  1.00  0.00     0.065 C 
ATOM     18  C   UNL A   1      32.325  26.107  24.452  1.00  0.00     0.262 C 
ATOM     19  C   UNL A   1      30.581  24.510  24.089  1.00  0.00     0.262 C 
ATOM     20  H   UNL A   1      30.613  25.874  25.501  1.00  0.00     0.348 HD
ENDBRANCH  12  13
ENDBRANCH   9  12
ENDBRANCH   7   8
BRANCH   7  21
ATOM     21  C   UNL A   1      32.958  19.984  26.235  1.00  0.00     0.070 C 
BRANCH  21  22
ATOM     22  C   UNL A   1      33.027  19.441  24.819  1.00  0.00    -0.043 A 
ATOM     23  C   UNL A   1      32.405  20.122  23.759  1.00  0.00     0.004 A 
ATOM     24  C   UNL A   1      33.605  18.189  24.566  1.00  0.00     0.043 A 
ATOM     25  C   UNL A   1      32.233  19.501  22.518  1.00  0.00     0.003 A 
ATOM     26  C   UNL A   1      33.399  17.568  23.336  1.00  0.00     0.123 A 
ATOM     27  C   UNL A   1      32.697  18.203  22.320  1.00  0.00     0.039 A 
ATOM     28  F   UNL A   1      33.811  16.306  23.163  1.00  0.00    -0.207 F 
ENDBRANCH  21  22
ENDBRANCH   7  21
ENDBRANCH   4   7
ENDBRANCH   2   3
ENDBRANCH   1   2
BRANCH   1  29
ATOM     29  C   UNL A   1      37.677  21.692  24.770  1.00  0.00     0.118 C 
BRANCH  29  30
ATOM     30  N   UNL A   1      38.398  20.567  25.352  1.00  0.00    -0.352 N 
ATOM     31  C   UNL A   1      39.557  20.583  26.089  1.00  0.00     0.251 C 
ATOM     32  H   UNL A   1      38.002  19.679  25.198  1.00  0.00     0.163 HD
ATOM     33  O   UNL A   1      40.207  19.552  26.240  1.00  0.00    -0.269 OA
BRANCH  31  34
ATOM     34  C   UNL A   1      40.010  21.860  26.668  1.00  0.00     0.039 A 
ATOM     35  C   UNL A   1      40.956  21.861  27.693  1.00  0.00     0.014 A 
ATOM     36  C   UNL A   1      39.531  23.062  26.139  1.00  0.00     0.014 A 
ATOM     37  C   UNL A   1      41.490  23.076  28.125  1.00  0.00     0.010 A 
ATOM     38  C   UNL A   1      40.139  24.256  26.494  1.00  0.00     0.010 A 
ATOM     39  C   UNL A   1      41.125  24.275  27.489  1.00  0.00    -0.014 A 
BRANCH  39  40
ATOM     40  C   UNL A   1      41.766  25.568  27.828  1.00  0.00     0.031 A 
ATOM     41  C   UNL A   1      40.971  26.631  28.534  1.00  0.00     0.074 A 
ATOM     42  C   UNL A   1      43.025  25.815  27.420  1.00  0.00     0.049 A 
ATOM     43  N   UNL A   1      41.295  27.870  28.790  1.00  0.00    -0.248 NA
ATOM     44  C   UNL A   1      39.619  26.256  28.982  1.00  0.00     0.031 C 
ATOM     45  C   UNL A   1      43.885  24.868  26.703  1.00  0.00     0.029 A 
ATOM     46  N   UNL A   1      43.802  26.938  27.542  1.00  0.00    -0.354 N 
ATOM     47  C   UNL A   1      40.189  28.426  29.421  1.00  0.00     0.074 A 
ATOM     48  C   UNL A   1      39.162  27.407  29.450  1.00  0.00     0.031 C 
ATOM     49  C   UNL A   1      45.079  25.439  26.481  1.00  0.00     0.029 A 
ATOM     50  C   UNL A   1      45.052  26.809  26.983  1.00  0.00     0.049 A 
ATOM     51  H   UNL A   1      43.494  27.760  27.987  1.00  0.00     0.167 HD
ATOM     52  C   UNL A   1      40.053  29.667  29.947  1.00  0.00     0.034 A 
ATOM     53  C   UNL A   1      46.059  27.696  26.872  1.00  0.00     0.034 A 
ATOM     54  C   UNL A   1      41.089  30.667  29.915  1.00  0.00     0.049 A 
ATOM     55  C   UNL A   1      45.871  29.083  27.425  1.00  0.00     0.074 A 
ATOM     56  C   UNL A   1      41.066  31.946  30.444  1.00  0.00     0.029 A 
ATOM     57  N   UNL A   1      42.336  30.504  29.324  1.00  0.00    -0.354 N 
ATOM     58  N   UNL A   1      44.816  29.599  28.011  1.00  0.00    -0.248 NA
ATOM     59  C   UNL A   1      47.007  30.003  27.303  1.00  0.00     0.031 C 
ATOM     60  C   UNL A   1      42.269  32.577  30.115  1.00  0.00     0.029 A 
ATOM     61  C   UNL A   1      43.079  31.666  29.454  1.00  0.00     0.049 A 
ATOM     62  H   UNL A   1      42.646  29.682  28.879  1.00  0.00     0.167 HD
ATOM     63  C   UNL A   1      45.172  30.899  28.355  1.00  0.00     0.074 A 
ATOM     64  C   UNL A   1      46.538  31.086  27.911  1.00  0.00     0.031 C 
ATOM     65  C   UNL A   1      44.436  31.846  28.990  1.00  0.00     0.034 A 
BRANCH  52  66
ATOM     66  C   UNL A   1      38.729  30.012  30.583  1.00  0.00     0.023 A 
ATOM     67  C   UNL A   1      37.731  30.704  29.876  1.00  0.00     0.031 A 
ATOM     68  C   UNL A   1      38.458  29.636  31.910  1.00  0.00     0.131 A 
ATOM     69  C   UNL A   1      36.529  31.044  30.514  1.00  0.00     0.055 A 
ATOM     70  C   UNL A   1      37.233  29.916  32.517  1.00  0.00     0.041 A 
ATOM     71  F   UNL A   1      39.384  28.994  32.640  1.00  0.00    -0.206 F 
ATOM     72  C   UNL A   1      36.263  30.632  31.821  1.00  0.00     0.022 A 
BRANCH  69  73
ATOM     73  S   UNL A   1      35.356  32.117  29.642  1.00  0.00     0.124 S 
ATOM     74  O   UNL A   1      36.229  33.194  29.182  1.00  0.00    -0.237 OA
ATOM     75  O   UNL A   1      34.828  31.236  28.608  1.00  0.00    -0.237 OA
ATOM     76  O   UNL A   1      34.404  32.498  30.683  1.00  0.00    -0.744 OA
ENDBRANCH  69  73
ENDBRANCH  52  66
BRANCH  53  77
ATOM     77  C   UNL A   1      47.329  27.292  26.211  1.00  0.00     0.023 A 
ATOM     78  C   UNL A   1      48.316  26.587  26.918  1.00  0.00     0.031 A 
ATOM     79  C   UNL A   1      47.559  27.570  24.851  1.00  0.00     0.131 A 
ATOM     80  C   UNL A   1      49.494  26.195  26.267  1.00  0.00     0.055 A 
ATOM     81  C   UNL A   1      48.717  27.146  24.198  1.00  0.00     0.041 A 
ATOM     82  F   UNL A   1      46.637  28.228  24.129  1.00  0.00    -0.206 F 
ATOM     83  C   UNL A   1      49.695  26.457  24.908  1.00  0.00     0.022 A 
BRANCH  80  84
ATOM     84  S   UNL A   1      50.775  25.340  27.224  1.00  0.00     0.124 S 
ATOM     85  O   UNL A   1      51.237  26.398  28.114  1.00  0.00    -0.237 OA
ATOM     86  O   UNL A   1      50.018  24.259  27.849  1.00  0.00    -0.237 OA
ATOM     87  O   UNL A   1      51.733  24.915  26.205  1.00  0.00    -0.744 OA
ENDBRANCH  80  84
ENDBRANCH  53  77
BRANCH  65  88
ATOM     88  C   UNL A   1      45.108  33.163  29.284  1.00  0.00     0.023 A 
ATOM     89  C   UNL A   1      45.164  34.194  28.331  1.00  0.00     0.031 A 
ATOM     90  C   UNL A   1      45.680  33.394  30.547  1.00  0.00     0.131 A 
ATOM     91  C   UNL A   1      45.817  35.396  28.644  1.00  0.00     0.055 A 
ATOM     92  C   UNL A   1      46.277  34.613  30.872  1.00  0.00     0.041 A 
ATOM     93  F   UNL A   1      45.655  32.442  31.493  1.00  0.00    -0.206 F 
ATOM     94  C   UNL A   1      46.356  35.619  29.914  1.00  0.00     0.022 A 
BRANCH  91  95
ATOM     95  S   UNL A   1      46.011  36.645  27.344  1.00  0.00     0.124 S 
ATOM     96  O   UNL A   1      47.408  37.035  27.506  1.00  0.00    -0.237 OA
ATOM     97  O   UNL A   1      45.696  35.891  26.134  1.00  0.00    -0.237 OA
ATOM     98  O   UNL A   1      45.034  37.671  27.705  1.00  0.00    -0.744 OA
ENDBRANCH  91  95
ENDBRANCH  65  88
ENDBRANCH  39  40
ENDBRANCH  31  34
ENDBRANCH  29  30
ENDBRANCH   1  29
TORSDOF 18
ENDMDL
