MODEL 1
REMARK VINA RESULT:     -13.1      0.000      0.000
REMARK SMILES CS(=O)(=O)c1ccc(/C=C(/C(=O)NCCCNC(=O)c2ccc(-c3c4nc(c(-c5cc(S(=O)(=O)[O-])ccc5F)c5ccc([nH]5)c(-c5cc(S(=O)(=O)[O-])ccc5F)c5nc(c(-c6cc(S(=O)(=O)[O-])ccc6F)c6ccc3[nH]6)C=C5)C=C4)cc2)c2ccc(-c3ccc(F)cc3F)cc2)cc1
REMARK SMILES IDX 15 1 14 2 13 3 11 4 12 5 10 7 9 8 8 9 5 10 6 11 98 12 7 13
REMARK SMILES IDX 97 14 2 15 1 16 3 17 4 18 83 19 84 20 96 21 85 22 95 23
REMARK SMILES IDX 86 24 87 25 88 26 93 27 89 28 92 29 94 30 90 31 91 32 16 33
REMARK SMILES IDX 17 34 18 35 19 37 20 38 21 39 82 40 22 41 81 42 23 43 24 44
REMARK SMILES IDX 25 45 75 46 26 47 80 48 74 49 76 50 27 51 79 52 73 53 72 54
REMARK SMILES IDX 28 56 60 57 40 58 59 59 41 60 44 61 58 62 77 63 42 64 43 65
REMARK SMILES IDX 57 67 78 68 45 69 29 70 30 71 38 72 31 73 37 74 39 75 36 76
REMARK SMILES IDX 32 77 33 78 34 79 35 80 61 81 62 82 70 83 63 84 69 85 71 86
REMARK SMILES IDX 68 87 64 88 65 89 66 90 67 91 46 92 47 93 55 94 48 95 54 96
REMARK SMILES IDX 56 97 53 98 49 99 50 100 51 101 52 102
REMARK H PARENT 13 6 17 36 76 55 44 66
REMARK Flexibility Score: inf
ROOT
ATOM      1  C   UNL A   1      33.332  27.458  25.889  1.00  0.00     0.042 C 
ENDROOT
BRANCH   1   2
ATOM      2  C   UNL A   1      32.304  26.830  24.945  1.00  0.00     0.118 C 
BRANCH   2   3
ATOM      3  N   UNL A   1      32.800  26.814  23.583  1.00  0.00    -0.352 N 
ATOM      4  C   UNL A   1      33.397  25.880  22.800  1.00  0.00     0.251 C 
ATOM      5  O   UNL A   1      33.708  26.252  21.665  1.00  0.00    -0.269 OA
ATOM      6  H   UNL A   1      32.675  27.675  23.120  1.00  0.00     0.163 HD
BRANCH   4   7
ATOM      7  C   UNL A   1      33.609  24.439  23.215  1.00  0.00     0.047 C 
ATOM      8  C   UNL A   1      32.597  23.542  23.260  1.00  0.00     0.022 C 
BRANCH   8   9
ATOM      9  C   UNL A   1      32.619  22.088  23.553  1.00  0.00    -0.025 A 
ATOM     10  C   UNL A   1      32.740  19.297  23.893  1.00  0.00     0.067 A 
ATOM     11  C   UNL A   1      33.142  20.140  24.926  1.00  0.00     0.021 A 
ATOM     12  C   UNL A   1      32.213  19.827  22.715  1.00  0.00     0.021 A 
ATOM     13  C   UNL A   1      33.052  21.527  24.763  1.00  0.00     0.009 A 
ATOM     14  C   UNL A   1      32.163  21.216  22.548  1.00  0.00     0.009 A 
BRANCH  10  15
ATOM     15  S   UNL A   1      32.870  17.536  24.076  1.00  0.00     0.175 S 
ATOM     16  C   UNL A   1      34.504  17.294  24.728  1.00  0.00     0.163 C 
ATOM     17  O   UNL A   1      32.824  16.960  22.748  1.00  0.00    -0.224 OA
ATOM     18  O   UNL A   1      31.932  17.123  25.105  1.00  0.00    -0.224 OA
ENDBRANCH  10  15
ENDBRANCH   8   9
BRANCH   7  19
ATOM     19  C   UNL A   1      34.942  24.104  23.776  1.00  0.00    -0.013 A 
ATOM     20  C   UNL A   1      35.209  24.472  25.102  1.00  0.00     0.009 A 
ATOM     21  C   UNL A   1      35.893  23.348  23.084  1.00  0.00     0.009 A 
ATOM     22  C   UNL A   1      36.366  24.038  25.745  1.00  0.00     0.009 A 
ATOM     23  C   UNL A   1      37.045  22.891  23.746  1.00  0.00     0.009 A 
ATOM     24  C   UNL A   1      37.285  23.197  25.099  1.00  0.00    -0.015 A 
BRANCH  24  25
ATOM     25  C   UNL A   1      38.418  22.621  25.850  1.00  0.00     0.018 A 
ATOM     26  C   UNL A   1      39.158  23.428  26.741  1.00  0.00     0.015 A 
ATOM     27  C   UNL A   1      38.807  21.277  25.729  1.00  0.00     0.133 A 
ATOM     28  C   UNL A   1      40.243  22.917  27.457  1.00  0.00     0.040 A 
ATOM     29  C   UNL A   1      39.886  20.757  26.443  1.00  0.00     0.079 A 
ATOM     30  F   UNL A   1      38.147  20.449  24.905  1.00  0.00    -0.206 F 
ATOM     31  C   UNL A   1      40.597  21.585  27.298  1.00  0.00     0.126 A 
ATOM     32  F   UNL A   1      41.637  21.093  27.982  1.00  0.00    -0.207 F 
ENDBRANCH  24  25
ENDBRANCH   7  19
ENDBRANCH   4   7
ENDBRANCH   2   3
ENDBRANCH   1   2
BRANCH   1  33
ATOM     33  C   UNL A   1      33.961  28.743  25.347  1.00  0.00     0.118 C 
BRANCH  33  34
ATOM     34  N   UNL A   1      33.273  29.933  25.825  1.00  0.00    -0.352 N 
ATOM     35  C   UNL A   1      33.532  30.727  26.913  1.00  0.00     0.251 C 
ATOM     36  H   UNL A   1      32.499  30.210  25.283  1.00  0.00     0.163 HD
ATOM     37  O   UNL A   1      32.675  31.529  27.277  1.00  0.00    -0.269 OA
BRANCH  35  38
ATOM     38  C   UNL A   1      34.814  30.623  27.648  1.00  0.00     0.039 A 
ATOM     39  C   UNL A   1      35.670  31.729  27.663  1.00  0.00     0.014 A 
ATOM     40  C   UNL A   1      35.206  29.432  28.265  1.00  0.00     0.014 A 
ATOM     41  C   UNL A   1      36.894  31.654  28.335  1.00  0.00     0.010 A 
ATOM     42  C   UNL A   1      36.398  29.380  28.990  1.00  0.00     0.010 A 
ATOM     43  C   UNL A   1      37.258  30.488  29.026  1.00  0.00    -0.014 A 
BRANCH  43  44
ATOM     44  C   UNL A   1      38.539  30.412  29.777  1.00  0.00     0.031 A 
ATOM     45  C   UNL A   1      39.717  29.675  29.196  1.00  0.00     0.074 A 
ATOM     46  C   UNL A   1      38.625  30.967  31.002  1.00  0.00     0.049 A 
ATOM     47  N   UNL A   1      40.896  29.453  29.721  1.00  0.00    -0.248 NA
ATOM     48  C   UNL A   1      39.534  29.088  27.861  1.00  0.00     0.031 C 
ATOM     49  C   UNL A   1      37.539  31.673  31.686  1.00  0.00     0.029 A 
ATOM     50  N   UNL A   1      39.668  31.021  31.892  1.00  0.00    -0.354 N 
ATOM     51  C   UNL A   1      41.591  28.691  28.786  1.00  0.00     0.074 A 
ATOM     52  C   UNL A   1      40.676  28.441  27.691  1.00  0.00     0.031 C 
ATOM     53  C   UNL A   1      37.980  32.109  32.877  1.00  0.00     0.029 A 
ATOM     54  C   UNL A   1      39.362  31.680  33.062  1.00  0.00     0.049 A 
ATOM     55  H   UNL A   1      40.551  30.628  31.712  1.00  0.00     0.167 HD
ATOM     56  C   UNL A   1      42.878  28.263  28.826  1.00  0.00     0.034 A 
ATOM     57  C   UNL A   1      40.109  31.904  34.161  1.00  0.00     0.034 A 
ATOM     58  C   UNL A   1      43.779  28.531  29.921  1.00  0.00     0.049 A 
ATOM     59  C   UNL A   1      41.531  31.406  34.189  1.00  0.00     0.074 A 
ATOM     60  C   UNL A   1      45.114  28.183  30.047  1.00  0.00     0.029 A 
ATOM     61  N   UNL A   1      43.437  29.208  31.085  1.00  0.00    -0.354 N 
ATOM     62  N   UNL A   1      42.188  30.729  33.276  1.00  0.00    -0.248 NA
ATOM     63  C   UNL A   1      42.317  31.720  35.389  1.00  0.00     0.031 C 
ATOM     64  C   UNL A   1      45.559  28.593  31.309  1.00  0.00     0.029 A 
ATOM     65  C   UNL A   1      44.526  29.265  31.943  1.00  0.00     0.049 A 
ATOM     66  H   UNL A   1      42.551  29.591  31.274  1.00  0.00     0.167 HD
ATOM     67  C   UNL A   1      43.474  30.562  33.781  1.00  0.00     0.074 A 
ATOM     68  C   UNL A   1      43.504  31.226  35.067  1.00  0.00     0.031 C 
ATOM     69  C   UNL A   1      44.537  29.920  33.230  1.00  0.00     0.034 A 
BRANCH  56  70
ATOM     70  C   UNL A   1      43.371  27.440  27.657  1.00  0.00     0.023 A 
ATOM     71  C   UNL A   1      43.398  26.035  27.702  1.00  0.00     0.031 A 
ATOM     72  C   UNL A   1      43.850  28.067  26.492  1.00  0.00     0.131 A 
ATOM     73  C   UNL A   1      43.967  25.308  26.645  1.00  0.00     0.055 A 
ATOM     74  C   UNL A   1      44.335  27.334  25.406  1.00  0.00     0.041 A 
ATOM     75  F   UNL A   1      43.867  29.406  26.394  1.00  0.00    -0.206 F 
ATOM     76  C   UNL A   1      44.412  25.946  25.486  1.00  0.00     0.022 A 
BRANCH  73  77
ATOM     77  S   UNL A   1      44.252  23.532  26.871  1.00  0.00     0.124 S 
ATOM     78  O   UNL A   1      43.386  22.961  25.842  1.00  0.00    -0.237 OA
ATOM     79  O   UNL A   1      45.687  23.410  26.638  1.00  0.00    -0.237 OA
ATOM     80  O   UNL A   1      43.819  23.287  28.245  1.00  0.00    -0.744 OA
ENDBRANCH  73  77
ENDBRANCH  56  70
BRANCH  57  81
ATOM     81  C   UNL A   1      39.533  32.630  35.330  1.00  0.00     0.023 A 
ATOM     82  C   UNL A   1      38.876  31.938  36.359  1.00  0.00     0.031 A 
ATOM     83  C   UNL A   1      39.594  34.033  35.412  1.00  0.00     0.131 A 
ATOM     84  C   UNL A   1      38.264  32.651  37.402  1.00  0.00     0.055 A 
ATOM     85  C   UNL A   1      39.030  34.734  36.479  1.00  0.00     0.041 A 
ATOM     86  F   UNL A   1      40.218  34.742  34.459  1.00  0.00    -0.206 F 
ATOM     87  C   UNL A   1      38.348  34.043  37.475  1.00  0.00     0.022 A 
BRANCH  84  88
ATOM     88  S   UNL A   1      37.280  31.734  38.619  1.00  0.00     0.124 S 
ATOM     89  O   UNL A   1      36.078  32.554  38.709  1.00  0.00    -0.237 OA
ATOM     90  O   UNL A   1      37.127  30.439  37.967  1.00  0.00    -0.237 OA
ATOM     91  O   UNL A   1      38.127  31.734  39.810  1.00  0.00    -0.744 OA
ENDBRANCH  84  88
ENDBRANCH  57  81
BRANCH  69  92
ATOM     92  C   UNL A   1      45.831  29.953  34.008  1.00  0.00     0.023 A 
ATOM     93  C   UNL A   1      46.156  28.957  34.945  1.00  0.00     0.031 A 
ATOM     94  C   UNL A   1      46.737  31.013  33.826  1.00  0.00     0.131 A 
ATOM     95  C   UNL A   1      47.326  29.075  35.711  1.00  0.00     0.055 A 
ATOM     96  C   UNL A   1      47.930  31.091  34.546  1.00  0.00     0.041 A 
ATOM     97  F   UNL A   1      46.477  31.993  32.945  1.00  0.00    -0.206 F 
ATOM     98  C   UNL A   1      48.223  30.126  35.506  1.00  0.00     0.022 A 
BRANCH  95  99
ATOM     99  S   UNL A   1      47.610  27.888  37.054  1.00  0.00     0.124 S 
ATOM    100  O   UNL A   1      46.285  27.793  37.659  1.00  0.00    -0.237 OA
ATOM    101  O   UNL A   1      48.067  26.705  36.333  1.00  0.00    -0.237 OA
ATOM    102  O   UNL A   1      48.624  28.540  37.880  1.00  0.00    -0.744 OA
ENDBRANCH  95  99
ENDBRANCH  69  92
ENDBRANCH  43  44
ENDBRANCH  35  38
ENDBRANCH  33  34
ENDBRANCH   1  33
TORSDOF 17
ENDMDL
MODEL 2
REMARK VINA RESULT:     -12.7      5.006      7.553
REMARK SMILES CS(=O)(=O)c1ccc(/C=C(/C(=O)NCCCNC(=O)c2ccc(-c3c4nc(c(-c5cc(S(=O)(=O)[O-])ccc5F)c5ccc([nH]5)c(-c5cc(S(=O)(=O)[O-])ccc5F)c5nc(c(-c6cc(S(=O)(=O)[O-])ccc6F)c6ccc3[nH]6)C=C5)C=C4)cc2)c2ccc(-c3ccc(F)cc3F)cc2)cc1
REMARK SMILES IDX 15 1 14 2 13 3 11 4 12 5 10 7 9 8 8 9 5 10 6 11 98 12 7 13
REMARK SMILES IDX 97 14 2 15 1 16 3 17 4 18 83 19 84 20 96 21 85 22 95 23
REMARK SMILES IDX 86 24 87 25 88 26 93 27 89 28 92 29 94 30 90 31 91 32 16 33
REMARK SMILES IDX 17 34 18 35 19 37 20 38 21 39 82 40 22 41 81 42 23 43 24 44
REMARK SMILES IDX 25 45 75 46 26 47 80 48 74 49 76 50 27 51 79 52 73 53 72 54
REMARK SMILES IDX 28 56 60 57 40 58 59 59 41 60 44 61 58 62 77 63 42 64 43 65
REMARK SMILES IDX 57 67 78 68 45 69 29 70 30 71 38 72 31 73 37 74 39 75 36 76
REMARK SMILES IDX 32 77 33 78 34 79 35 80 61 81 62 82 70 83 63 84 69 85 71 86
REMARK SMILES IDX 68 87 64 88 65 89 66 90 67 91 46 92 47 93 55 94 48 95 54 96
REMARK SMILES IDX 56 97 53 98 49 99 50 100 51 101 52 102
REMARK H PARENT 13 6 17 36 76 55 44 66
REMARK Flexibility Score: inf
ROOT
ATOM      1  C   UNL A   1      35.443  23.168  25.971  1.00  0.00     0.042 C 
ENDROOT
BRANCH   1   2
ATOM      2  C   UNL A   1      34.336  23.228  24.917  1.00  0.00     0.118 C 
BRANCH   2   3
ATOM      3  N   UNL A   1      33.090  22.712  25.449  1.00  0.00    -0.352 N 
ATOM      4  C   UNL A   1      31.856  23.237  25.658  1.00  0.00     0.251 C 
ATOM      5  O   UNL A   1      31.030  22.475  26.168  1.00  0.00    -0.269 OA
ATOM      6  H   UNL A   1      33.153  21.767  25.721  1.00  0.00     0.163 HD
BRANCH   4   7
ATOM      7  C   UNL A   1      31.446  24.630  25.229  1.00  0.00     0.047 C 
ATOM      8  C   UNL A   1      30.655  24.854  24.154  1.00  0.00     0.022 C 
BRANCH   8   9
ATOM      9  C   UNL A   1      30.083  26.120  23.634  1.00  0.00    -0.025 A 
ATOM     10  C   UNL A   1      28.894  28.548  22.854  1.00  0.00     0.067 A 
ATOM     11  C   UNL A   1      30.206  28.266  22.481  1.00  0.00     0.021 A 
ATOM     12  C   UNL A   1      28.141  27.604  23.553  1.00  0.00     0.021 A 
ATOM     13  C   UNL A   1      30.782  27.044  22.847  1.00  0.00     0.009 A 
ATOM     14  C   UNL A   1      28.740  26.402  23.946  1.00  0.00     0.009 A 
BRANCH  10  15
ATOM     15  S   UNL A   1      28.157  30.103  22.418  1.00  0.00     0.175 S 
ATOM     16  C   UNL A   1      29.342  31.306  22.968  1.00  0.00     0.163 C 
ATOM     17  O   UNL A   1      26.958  30.251  23.218  1.00  0.00    -0.224 OA
ATOM     18  O   UNL A   1      28.106  30.183  20.969  1.00  0.00    -0.224 OA
ENDBRANCH  10  15
ENDBRANCH   8   9
BRANCH   7  19
ATOM     19  C   UNL A   1      32.125  25.758  25.916  1.00  0.00    -0.013 A 
ATOM     20  C   UNL A   1      33.362  26.184  25.415  1.00  0.00     0.009 A 
ATOM     21  C   UNL A   1      31.540  26.477  26.962  1.00  0.00     0.009 A 
ATOM     22  C   UNL A   1      33.969  27.342  25.898  1.00  0.00     0.009 A 
ATOM     23  C   UNL A   1      32.142  27.658  27.427  1.00  0.00     0.009 A 
ATOM     24  C   UNL A   1      33.349  28.131  26.878  1.00  0.00    -0.015 A 
BRANCH  24  25
ATOM     25  C   UNL A   1      33.932  29.434  27.258  1.00  0.00     0.018 A 
ATOM     26  C   UNL A   1      35.290  29.517  27.637  1.00  0.00     0.015 A 
ATOM     27  C   UNL A   1      33.194  30.628  27.257  1.00  0.00     0.133 A 
ATOM     28  C   UNL A   1      35.868  30.731  28.014  1.00  0.00     0.040 A 
ATOM     29  C   UNL A   1      33.764  31.845  27.627  1.00  0.00     0.079 A 
ATOM     30  F   UNL A   1      31.899  30.627  26.904  1.00  0.00    -0.206 F 
ATOM     31  C   UNL A   1      35.096  31.884  28.006  1.00  0.00     0.126 A 
ATOM     32  F   UNL A   1      35.649  33.049  28.368  1.00  0.00    -0.207 F 
ENDBRANCH  24  25
ENDBRANCH   7  19
ENDBRANCH   4   7
ENDBRANCH   2   3
ENDBRANCH   1   2
BRANCH   1  33
ATOM     33  C   UNL A   1      36.854  23.121  25.380  1.00  0.00     0.118 C 
BRANCH  33  34
ATOM     34  N   UNL A   1      37.646  22.038  25.942  1.00  0.00    -0.352 N 
ATOM     35  C   UNL A   1      38.923  22.043  26.443  1.00  0.00     0.251 C 
ATOM     36  H   UNL A   1      37.194  21.163  25.967  1.00  0.00     0.163 HD
ATOM     37  O   UNL A   1      39.489  20.969  26.630  1.00  0.00    -0.269 OA
BRANCH  35  38
ATOM     38  C   UNL A   1      39.619  23.314  26.747  1.00  0.00     0.039 A 
ATOM     39  C   UNL A   1      40.547  23.337  27.792  1.00  0.00     0.014 A 
ATOM     40  C   UNL A   1      39.321  24.493  26.056  1.00  0.00     0.014 A 
ATOM     41  C   UNL A   1      41.208  24.527  28.114  1.00  0.00     0.010 A 
ATOM     42  C   UNL A   1      40.029  25.664  26.334  1.00  0.00     0.010 A 
ATOM     43  C   UNL A   1      40.974  25.695  27.371  1.00  0.00    -0.014 A 
BRANCH  43  44
ATOM     44  C   UNL A   1      41.700  26.956  27.678  1.00  0.00     0.031 A 
ATOM     45  C   UNL A   1      43.112  27.156  27.194  1.00  0.00     0.074 A 
ATOM     46  C   UNL A   1      41.103  27.900  28.432  1.00  0.00     0.049 A 
ATOM     47  N   UNL A   1      43.926  28.159  27.405  1.00  0.00    -0.248 NA
ATOM     48  C   UNL A   1      43.692  26.072  26.389  1.00  0.00     0.031 C 
ATOM     49  C   UNL A   1      39.753  27.803  28.992  1.00  0.00     0.029 A 
ATOM     50  N   UNL A   1      41.553  29.122  28.864  1.00  0.00    -0.354 N 
ATOM     51  C   UNL A   1      45.118  27.822  26.770  1.00  0.00     0.074 A 
ATOM     52  C   UNL A   1      44.935  26.495  26.220  1.00  0.00     0.031 C 
ATOM     53  C   UNL A   1      39.477  28.927  29.672  1.00  0.00     0.029 A 
ATOM     54  C   UNL A   1      40.641  29.807  29.635  1.00  0.00     0.049 A 
ATOM     55  H   UNL A   1      42.445  29.477  28.643  1.00  0.00     0.167 HD
ATOM     56  C   UNL A   1      46.249  28.561  26.637  1.00  0.00     0.034 A 
ATOM     57  C   UNL A   1      40.736  31.002  30.249  1.00  0.00     0.034 A 
ATOM     58  C   UNL A   1      46.410  29.887  27.184  1.00  0.00     0.049 A 
ATOM     59  C   UNL A   1      42.007  31.798  30.099  1.00  0.00     0.074 A 
ATOM     60  C   UNL A   1      47.495  30.741  27.073  1.00  0.00     0.029 A 
ATOM     61  N   UNL A   1      45.462  30.551  27.952  1.00  0.00    -0.354 N 
ATOM     62  N   UNL A   1      43.107  31.486  29.454  1.00  0.00    -0.248 NA
ATOM     63  C   UNL A   1      42.041  33.117  30.745  1.00  0.00     0.031 C 
ATOM     64  C   UNL A   1      47.227  31.892  27.824  1.00  0.00     0.029 A 
ATOM     65  C   UNL A   1      45.946  31.792  28.342  1.00  0.00     0.049 A 
ATOM     66  H   UNL A   1      44.575  30.194  28.185  1.00  0.00     0.167 HD
ATOM     67  C   UNL A   1      43.953  32.583  29.594  1.00  0.00     0.074 A 
ATOM     68  C   UNL A   1      43.226  33.570  30.366  1.00  0.00     0.031 C 
ATOM     69  C   UNL A   1      45.214  32.761  29.124  1.00  0.00     0.034 A 
BRANCH  56  70
ATOM     70  C   UNL A   1      47.403  27.932  25.889  1.00  0.00     0.023 A 
ATOM     71  C   UNL A   1      47.600  28.153  24.514  1.00  0.00     0.031 A 
ATOM     72  C   UNL A   1      48.302  27.076  26.550  1.00  0.00     0.131 A 
ATOM     73  C   UNL A   1      48.613  27.464  23.830  1.00  0.00     0.055 A 
ATOM     74  C   UNL A   1      49.362  26.461  25.880  1.00  0.00     0.041 A 
ATOM     75  F   UNL A   1      48.158  26.810  27.858  1.00  0.00    -0.206 F 
ATOM     76  C   UNL A   1      49.512  26.640  24.508  1.00  0.00     0.022 A 
BRANCH  73  77
ATOM     77  S   UNL A   1      48.644  27.547  22.019  1.00  0.00     0.124 S 
ATOM     78  O   UNL A   1      48.807  26.139  21.663  1.00  0.00    -0.237 OA
ATOM     79  O   UNL A   1      47.347  28.138  21.707  1.00  0.00    -0.237 OA
ATOM     80  O   UNL A   1      49.801  28.392  21.733  1.00  0.00    -0.744 OA
ENDBRANCH  73  77
ENDBRANCH  56  70
BRANCH  57  81
ATOM     81  C   UNL A   1      39.601  31.525  31.064  1.00  0.00     0.023 A 
ATOM     82  C   UNL A   1      39.588  31.382  32.460  1.00  0.00     0.031 A 
ATOM     83  C   UNL A   1      38.493  32.137  30.452  1.00  0.00     0.131 A 
ATOM     84  C   UNL A   1      38.468  31.802  33.195  1.00  0.00     0.055 A 
ATOM     85  C   UNL A   1      37.404  32.600  31.193  1.00  0.00     0.041 A 
ATOM     86  F   UNL A   1      38.458  32.305  29.121  1.00  0.00    -0.206 F 
ATOM     87  C   UNL A   1      37.382  32.420  32.572  1.00  0.00     0.022 A 
BRANCH  84  88
ATOM     88  S   UNL A   1      38.415  31.445  34.973  1.00  0.00     0.124 S 
ATOM     89  O   UNL A   1      38.386  29.988  34.984  1.00  0.00    -0.237 OA
ATOM     90  O   UNL A   1      39.649  32.067  35.441  1.00  0.00    -0.237 OA
ATOM     91  O   UNL A   1      37.185  32.099  35.414  1.00  0.00    -0.744 OA
ENDBRANCH  84  88
ENDBRANCH  57  81
BRANCH  69  92
ATOM     92  C   UNL A   1      45.863  34.097  29.400  1.00  0.00     0.023 A 
ATOM     93  C   UNL A   1      45.786  35.160  28.484  1.00  0.00     0.031 A 
ATOM     94  C   UNL A   1      46.591  34.296  30.587  1.00  0.00     0.131 A 
ATOM     95  C   UNL A   1      46.480  36.353  28.740  1.00  0.00     0.055 A 
ATOM     96  C   UNL A   1      47.226  35.507  30.864  1.00  0.00     0.041 A 
ATOM     97  F   UNL A   1      46.699  33.313  31.496  1.00  0.00    -0.206 F 
ATOM     98  C   UNL A   1      47.186  36.539  29.930  1.00  0.00     0.022 A 
BRANCH  95  99
ATOM     99  S   UNL A   1      46.532  37.623  27.446  1.00  0.00     0.124 S 
ATOM    100  O   UNL A   1      45.470  38.530  27.868  1.00  0.00    -0.237 OA
ATOM    101  O   UNL A   1      47.893  38.136  27.567  1.00  0.00    -0.237 OA
ATOM    102  O   UNL A   1      46.258  36.877  26.220  1.00  0.00    -0.744 OA
ENDBRANCH  95  99
ENDBRANCH  69  92
ENDBRANCH  43  44
ENDBRANCH  35  38
ENDBRANCH  33  34
ENDBRANCH   1  33
TORSDOF 17
ENDMDL
MODEL 3
REMARK VINA RESULT:     -12.6      1.608      7.378
REMARK SMILES CS(=O)(=O)c1ccc(/C=C(/C(=O)NCCCNC(=O)c2ccc(-c3c4nc(c(-c5cc(S(=O)(=O)[O-])ccc5F)c5ccc([nH]5)c(-c5cc(S(=O)(=O)[O-])ccc5F)c5nc(c(-c6cc(S(=O)(=O)[O-])ccc6F)c6ccc3[nH]6)C=C5)C=C4)cc2)c2ccc(-c3ccc(F)cc3F)cc2)cc1
REMARK SMILES IDX 15 1 14 2 13 3 11 4 12 5 10 7 9 8 8 9 5 10 6 11 98 12 7 13
REMARK SMILES IDX 97 14 2 15 1 16 3 17 4 18 83 19 84 20 96 21 85 22 95 23
REMARK SMILES IDX 86 24 87 25 88 26 93 27 89 28 92 29 94 30 90 31 91 32 16 33
REMARK SMILES IDX 17 34 18 35 19 37 20 38 21 39 82 40 22 41 81 42 23 43 24 44
REMARK SMILES IDX 25 45 75 46 26 47 80 48 74 49 76 50 27 51 79 52 73 53 72 54
REMARK SMILES IDX 28 56 60 57 40 58 59 59 41 60 44 61 58 62 77 63 42 64 43 65
REMARK SMILES IDX 57 67 78 68 45 69 29 70 30 71 38 72 31 73 37 74 39 75 36 76
REMARK SMILES IDX 32 77 33 78 34 79 35 80 61 81 62 82 70 83 63 84 69 85 71 86
REMARK SMILES IDX 68 87 64 88 65 89 66 90 67 91 46 92 47 93 55 94 48 95 54 96
REMARK SMILES IDX 56 97 53 98 49 99 50 100 51 101 52 102
REMARK H PARENT 13 6 17 36 76 55 44 66
REMARK Flexibility Score: inf
ROOT
ATOM      1  C   UNL A   1      33.750  28.108  24.858  1.00  0.00     0.042 C 
ENDROOT
BRANCH   1   2
ATOM      2  C   UNL A   1      32.849  26.877  24.745  1.00  0.00     0.118 C 
BRANCH   2   3
ATOM      3  N   UNL A   1      32.518  26.606  23.360  1.00  0.00    -0.352 N 
ATOM      4  C   UNL A   1      32.585  25.509  22.564  1.00  0.00     0.251 C 
ATOM      5  O   UNL A   1      32.227  25.673  21.395  1.00  0.00    -0.269 OA
ATOM      6  H   UNL A   1      32.166  27.397  22.889  1.00  0.00     0.163 HD
BRANCH   4   7
ATOM      7  C   UNL A   1      32.981  24.132  23.054  1.00  0.00     0.047 C 
ATOM      8  C   UNL A   1      32.096  23.113  23.145  1.00  0.00     0.022 C 
BRANCH   8   9
ATOM      9  C   UNL A   1      32.307  21.691  23.514  1.00  0.00    -0.025 A 
ATOM     10  C   UNL A   1      32.813  18.968  24.008  1.00  0.00     0.067 A 
ATOM     11  C   UNL A   1      32.963  19.900  25.033  1.00  0.00     0.021 A 
ATOM     12  C   UNL A   1      32.347  19.367  22.755  1.00  0.00     0.021 A 
ATOM     13  C   UNL A   1      32.681  21.249  24.790  1.00  0.00     0.009 A 
ATOM     14  C   UNL A   1      32.105  20.724  22.513  1.00  0.00     0.009 A 
BRANCH  10  15
ATOM     15  S   UNL A   1      33.190  17.257  24.295  1.00  0.00     0.175 S 
ATOM     16  C   UNL A   1      34.882  17.276  24.830  1.00  0.00     0.163 C 
ATOM     17  O   UNL A   1      33.127  16.581  23.015  1.00  0.00    -0.224 OA
ATOM     18  O   UNL A   1      32.390  16.806  25.420  1.00  0.00    -0.224 OA
ENDBRANCH  10  15
ENDBRANCH   8   9
BRANCH   7  19
ATOM     19  C   UNL A   1      34.343  24.005  23.633  1.00  0.00    -0.013 A 
ATOM     20  C   UNL A   1      34.519  24.348  24.980  1.00  0.00     0.009 A 
ATOM     21  C   UNL A   1      35.422  23.461  22.932  1.00  0.00     0.009 A 
ATOM     22  C   UNL A   1      35.722  24.088  25.633  1.00  0.00     0.009 A 
ATOM     23  C   UNL A   1      36.625  23.177  23.600  1.00  0.00     0.009 A 
ATOM     24  C   UNL A   1      36.784  23.452  24.972  1.00  0.00    -0.015 A 
BRANCH  24  25
ATOM     25  C   UNL A   1      37.987  23.044  25.725  1.00  0.00     0.018 A 
ATOM     26  C   UNL A   1      38.685  23.988  26.509  1.00  0.00     0.015 A 
ATOM     27  C   UNL A   1      38.486  21.731  25.709  1.00  0.00     0.133 A 
ATOM     28  C   UNL A   1      39.833  23.637  27.222  1.00  0.00     0.040 A 
ATOM     29  C   UNL A   1      39.629  21.370  26.421  1.00  0.00     0.079 A 
ATOM     30  F   UNL A   1      37.873  20.779  24.990  1.00  0.00    -0.206 F 
ATOM     31  C   UNL A   1      40.294  22.330  27.169  1.00  0.00     0.126 A 
ATOM     32  F   UNL A   1      41.395  21.992  27.852  1.00  0.00    -0.207 F 
ENDBRANCH  24  25
ENDBRANCH   7  19
ENDBRANCH   4   7
ENDBRANCH   2   3
ENDBRANCH   1   2
BRANCH   1  33
ATOM     33  C   UNL A   1      33.914  28.622  26.289  1.00  0.00     0.118 C 
BRANCH  33  34
ATOM     34  N   UNL A   1      33.642  30.048  26.392  1.00  0.00    -0.352 N 
ATOM     35  C   UNL A   1      34.162  30.989  27.243  1.00  0.00     0.251 C 
ATOM     36  H   UNL A   1      32.979  30.391  25.749  1.00  0.00     0.163 HD
ATOM     37  O   UNL A   1      33.607  32.081  27.329  1.00  0.00    -0.269 OA
BRANCH  35  38
ATOM     38  C   UNL A   1      35.366  30.701  28.056  1.00  0.00     0.039 A 
ATOM     39  C   UNL A   1      35.333  29.623  28.945  1.00  0.00     0.014 A 
ATOM     40  C   UNL A   1      36.499  31.519  27.998  1.00  0.00     0.014 A 
ATOM     41  C   UNL A   1      36.449  29.338  29.738  1.00  0.00     0.010 A 
ATOM     42  C   UNL A   1      37.635  31.194  28.741  1.00  0.00     0.010 A 
ATOM     43  C   UNL A   1      37.619  30.105  29.625  1.00  0.00    -0.014 A 
BRANCH  43  44
ATOM     44  C   UNL A   1      38.825  29.786  30.434  1.00  0.00     0.031 A 
ATOM     45  C   UNL A   1      38.998  30.380  31.807  1.00  0.00     0.074 A 
ATOM     46  C   UNL A   1      39.786  28.997  29.912  1.00  0.00     0.049 A 
ATOM     47  N   UNL A   1      40.002  30.265  32.639  1.00  0.00    -0.248 NA
ATOM     48  C   UNL A   1      37.910  31.240  32.294  1.00  0.00     0.031 C 
ATOM     49  C   UNL A   1      39.750  28.394  28.578  1.00  0.00     0.029 A 
ATOM     50  N   UNL A   1      40.981  28.571  30.435  1.00  0.00    -0.354 N 
ATOM     51  C   UNL A   1      39.672  31.046  33.743  1.00  0.00     0.074 A 
ATOM     52  C   UNL A   1      38.403  31.676  33.443  1.00  0.00     0.031 C 
ATOM     53  C   UNL A   1      40.858  27.658  28.397  1.00  0.00     0.029 A 
ATOM     54  C   UNL A   1      41.703  27.769  29.582  1.00  0.00     0.049 A 
ATOM     55  H   UNL A   1      41.292  28.815  31.337  1.00  0.00     0.167 HD
ATOM     56  C   UNL A   1      40.352  31.202  34.908  1.00  0.00     0.034 A 
ATOM     57  C   UNL A   1      42.914  27.196  29.733  1.00  0.00     0.034 A 
ATOM     58  C   UNL A   1      41.611  30.558  35.194  1.00  0.00     0.049 A 
ATOM     59  C   UNL A   1      43.656  27.395  31.029  1.00  0.00     0.074 A 
ATOM     60  C   UNL A   1      42.365  30.612  36.355  1.00  0.00     0.029 A 
ATOM     61  N   UNL A   1      42.309  29.747  34.309  1.00  0.00    -0.354 N 
ATOM     62  N   UNL A   1      43.308  28.098  32.082  1.00  0.00    -0.248 NA
ATOM     63  C   UNL A   1      44.948  26.709  31.162  1.00  0.00     0.031 C 
ATOM     64  C   UNL A   1      43.544  29.886  36.149  1.00  0.00     0.029 A 
ATOM     65  C   UNL A   1      43.494  29.315  34.888  1.00  0.00     0.049 A 
ATOM     66  H   UNL A   1      42.008  29.512  33.402  1.00  0.00     0.167 HD
ATOM     67  C   UNL A   1      44.325  27.913  33.014  1.00  0.00     0.074 A 
ATOM     68  C   UNL A   1      45.288  27.018  32.405  1.00  0.00     0.031 C 
ATOM     69  C   UNL A   1      44.452  28.433  34.262  1.00  0.00     0.034 A 
BRANCH  56  70
ATOM     70  C   UNL A   1      39.750  32.126  35.942  1.00  0.00     0.023 A 
ATOM     71  C   UNL A   1      38.938  31.640  36.983  1.00  0.00     0.031 A 
ATOM     72  C   UNL A   1      39.963  33.514  35.872  1.00  0.00     0.131 A 
ATOM     73  C   UNL A   1      38.305  32.536  37.858  1.00  0.00     0.055 A 
ATOM     74  C   UNL A   1      39.399  34.395  36.799  1.00  0.00     0.041 A 
ATOM     75  F   UNL A   1      40.713  34.043  34.892  1.00  0.00    -0.206 F 
ATOM     76  C   UNL A   1      38.550  33.908  37.789  1.00  0.00     0.022 A 
BRANCH  73  77
ATOM     77  S   UNL A   1      37.040  31.894  38.988  1.00  0.00     0.124 S 
ATOM     78  O   UNL A   1      37.665  32.123  40.289  1.00  0.00    -0.237 OA
ATOM     79  O   UNL A   1      35.885  32.729  38.678  1.00  0.00    -0.237 OA
ATOM     80  O   UNL A   1      36.918  30.490  38.604  1.00  0.00    -0.744 OA
ENDBRANCH  73  77
ENDBRANCH  56  70
BRANCH  57  81
ATOM     81  C   UNL A   1      43.506  26.381  28.632  1.00  0.00     0.023 A 
ATOM     82  C   UNL A   1      44.401  26.950  27.712  1.00  0.00     0.031 A 
ATOM     83  C   UNL A   1      43.152  25.031  28.461  1.00  0.00     0.131 A 
ATOM     84  C   UNL A   1      44.874  26.186  26.634  1.00  0.00     0.055 A 
ATOM     85  C   UNL A   1      43.667  24.261  27.417  1.00  0.00     0.041 A 
ATOM     86  F   UNL A   1      42.306  24.436  29.317  1.00  0.00    -0.206 F 
ATOM     87  C   UNL A   1      44.523  24.843  26.487  1.00  0.00     0.022 A 
BRANCH  84  88
ATOM     88  S   UNL A   1      45.890  27.003  25.373  1.00  0.00     0.124 S 
ATOM     89  O   UNL A   1      46.889  27.683  26.190  1.00  0.00    -0.237 OA
ATOM     90  O   UNL A   1      46.366  25.869  24.589  1.00  0.00    -0.237 OA
ATOM     91  O   UNL A   1      44.942  27.879  24.688  1.00  0.00    -0.744 OA
ENDBRANCH  84  88
ENDBRANCH  57  81
BRANCH  69  92
ATOM     92  C   UNL A   1      45.658  28.001  35.061  1.00  0.00     0.023 A 
ATOM     93  C   UNL A   1      45.629  26.868  35.892  1.00  0.00     0.031 A 
ATOM     94  C   UNL A   1      46.845  28.755  35.010  1.00  0.00     0.131 A 
ATOM     95  C   UNL A   1      46.743  26.556  36.686  1.00  0.00     0.055 A 
ATOM     96  C   UNL A   1      47.971  28.403  35.755  1.00  0.00     0.041 A 
ATOM     97  F   UNL A   1      46.928  29.849  34.235  1.00  0.00    -0.206 F 
ATOM     98  C   UNL A   1      47.919  27.306  36.612  1.00  0.00     0.022 A 
BRANCH  95  99
ATOM     99  S   UNL A   1      46.599  25.214  37.899  1.00  0.00     0.124 S 
ATOM    100  O   UNL A   1      45.162  25.194  38.159  1.00  0.00    -0.237 OA
ATOM    101  O   UNL A   1      47.128  24.071  37.164  1.00  0.00    -0.237 OA
ATOM    102  O   UNL A   1      47.424  25.669  39.016  1.00  0.00    -0.744 OA
ENDBRANCH  95  99
ENDBRANCH  69  92
ENDBRANCH  43  44
ENDBRANCH  35  38
ENDBRANCH  33  34
ENDBRANCH   1  33
TORSDOF 17
ENDMDL
