MODEL 1
REMARK VINA RESULT:     -12.1      0.000      0.000
REMARK SMILES CN(C)C(=O)c1cccc(N2CCC3(CC2)[C@H](C(=O)NCCCNC(=O)c2ccc(-c4c5nc(c(-c6cc(S(=O)(=O)[O-])ccc6F)c6ccc([nH]6)c(-c6cc(S(=O)(=O)[O-])ccc6F)c6nc(c(-c7cc(S(=O)(=O)[O-])ccc7F)c7ccc4[nH]7)C=C6)C=C5)cc2)CC(=O)N3C)n1
REMARK SMILES IDX 22 1 21 2 20 3 18 4 19 5 17 7 11 8 12 9 16 10 13 11 15 12
REMARK SMILES IDX 14 13 93 14 90 15 91 16 94 17 92 18 10 19 6 20 7 21 95 22
REMARK SMILES IDX 8 23 9 24 4 25 1 26 2 27 3 28 5 29 23 30 24 31 25 32 26 34
REMARK SMILES IDX 27 35 28 36 89 37 29 38 88 39 30 40 31 41 32 42 82 43 33 44
REMARK SMILES IDX 87 45 81 46 83 47 34 48 86 49 80 50 79 51 35 53 67 54 47 55
REMARK SMILES IDX 66 56 48 57 51 58 65 59 84 60 49 61 50 62 64 64 85 65 52 66
REMARK SMILES IDX 36 67 37 68 45 69 38 70 44 71 46 72 43 73 39 74 40 75 41 76
REMARK SMILES IDX 42 77 68 78 69 79 77 80 70 81 76 82 78 83 75 84 71 85 72 86
REMARK SMILES IDX 73 87 74 88 53 89 54 90 62 91 55 92 61 93 63 94 60 95 56 96
REMARK SMILES IDX 57 97 58 98 59 99
REMARK H PARENT 20 6 24 33 83 52 51 63
REMARK Flexibility Score: inf
ROOT
ATOM      1  C   UNL A   1      33.017  27.893  25.938  1.00  0.00     0.042 C 
ENDROOT
BRANCH   1   2
ATOM      2  C   UNL A   1      33.223  26.592  25.157  1.00  0.00     0.117 C 
BRANCH   2   3
ATOM      3  N   UNL A   1      32.287  25.521  25.483  1.00  0.00    -0.356 N 
ATOM      4  C   UNL A   1      32.125  24.241  25.068  1.00  0.00     0.226 C 
ATOM      5  O   UNL A   1      31.237  23.593  25.637  1.00  0.00    -0.275 OA
ATOM      6  H   UNL A   1      31.622  25.789  26.158  1.00  0.00     0.163 HD
BRANCH   4   7
ATOM      7  C   UNL A   1      32.934  23.561  23.964  1.00  0.00     0.113 C 
ATOM      8  N   UNL A   1      36.807  22.587  25.445  1.00  0.00    -0.356 N 
ATOM      9  C   UNL A   1      35.742  22.177  26.331  1.00  0.00     0.120 C 
ATOM     10  C   UNL A   1      36.672  22.313  24.024  1.00  0.00     0.120 C 
ATOM     11  C   UNL A   1      34.503  22.904  25.850  1.00  0.00     0.051 C 
ATOM     12  C   UNL A   1      35.355  22.906  23.493  1.00  0.00     0.051 C 
ATOM     13  C   UNL A   1      34.105  22.621  24.387  1.00  0.00     0.058 C 
ATOM     14  N   UNL A   1      33.537  21.299  24.060  1.00  0.00    -0.339 N 
ATOM     15  C   UNL A   1      32.053  22.785  22.997  1.00  0.00     0.116 C 
ATOM     16  C   UNL A   1      32.422  21.357  23.234  1.00  0.00     0.223 C 
ATOM     17  C   UNL A   1      34.090  20.005  24.411  1.00  0.00     0.147 C 
ATOM     18  O   UNL A   1      31.807  20.405  22.767  1.00  0.00    -0.275 OA
BRANCH   8  19
ATOM     19  C   UNL A   1      38.015  22.900  26.032  1.00  0.00     0.129 A 
ATOM     20  C   UNL A   1      40.072  22.237  26.889  1.00  0.00     0.130 A 
ATOM     21  C   UNL A   1      40.342  23.501  27.396  1.00  0.00     0.034 A 
ATOM     22  N   UNL A   1      38.926  21.925  26.226  1.00  0.00    -0.226 NA
ATOM     23  C   UNL A   1      39.383  24.487  27.229  1.00  0.00     0.006 A 
ATOM     24  C   UNL A   1      38.220  24.186  26.527  1.00  0.00     0.047 A 
BRANCH  20  25
ATOM     25  C   UNL A   1      41.115  21.167  26.967  1.00  0.00     0.272 C 
ATOM     26  C   UNL A   1      43.134  20.083  26.118  1.00  0.00     0.146 C 
ATOM     27  N   UNL A   1      42.217  21.211  26.100  1.00  0.00    -0.343 N 
ATOM     28  C   UNL A   1      42.601  22.367  25.303  1.00  0.00     0.146 C 
ATOM     29  O   UNL A   1      40.938  20.244  27.761  1.00  0.00    -0.267 OA
ENDBRANCH  20  25
ENDBRANCH   8  19
ENDBRANCH   4   7
ENDBRANCH   2   3
ENDBRANCH   1   2
BRANCH   1  30
ATOM     30  C   UNL A   1      34.244  28.795  25.981  1.00  0.00     0.118 C 
BRANCH  30  31
ATOM     31  N   UNL A   1      33.851  30.179  26.178  1.00  0.00    -0.352 N 
ATOM     32  C   UNL A   1      34.162  31.010  27.229  1.00  0.00     0.251 C 
ATOM     33  H   UNL A   1      33.291  30.572  25.470  1.00  0.00     0.163 HD
ATOM     34  O   UNL A   1      33.453  31.987  27.449  1.00  0.00    -0.269 OA
BRANCH  32  35
ATOM     35  C   UNL A   1      35.338  30.723  28.083  1.00  0.00     0.039 A 
ATOM     36  C   UNL A   1      36.469  31.537  27.983  1.00  0.00     0.014 A 
ATOM     37  C   UNL A   1      35.346  29.624  28.947  1.00  0.00     0.014 A 
ATOM     38  C   UNL A   1      37.590  31.267  28.772  1.00  0.00     0.010 A 
ATOM     39  C   UNL A   1      36.430  29.409  29.795  1.00  0.00     0.010 A 
ATOM     40  C   UNL A   1      37.575  30.214  29.702  1.00  0.00    -0.014 A 
BRANCH  40  41
ATOM     41  C   UNL A   1      38.762  29.917  30.551  1.00  0.00     0.031 A 
ATOM     42  C   UNL A   1      38.892  30.549  31.913  1.00  0.00     0.074 A 
ATOM     43  C   UNL A   1      39.740  29.117  30.083  1.00  0.00     0.049 A 
ATOM     44  N   UNL A   1      39.872  30.464  32.777  1.00  0.00    -0.248 NA
ATOM     45  C   UNL A   1      37.787  31.418  32.345  1.00  0.00     0.031 C 
ATOM     46  C   UNL A   1      39.751  28.484  28.762  1.00  0.00     0.029 A 
ATOM     47  N   UNL A   1      40.915  28.702  30.657  1.00  0.00    -0.354 N 
ATOM     48  C   UNL A   1      39.506  31.276  33.847  1.00  0.00     0.074 A 
ATOM     49  C   UNL A   1      38.253  31.903  33.486  1.00  0.00     0.031 C 
ATOM     50  C   UNL A   1      40.863  27.742  28.640  1.00  0.00     0.029 A 
ATOM     51  C   UNL A   1      41.668  27.881  29.849  1.00  0.00     0.049 A 
ATOM     52  H   UNL A   1      41.193  28.967  31.564  1.00  0.00     0.167 HD
ATOM     53  C   UNL A   1      40.139  31.456  35.034  1.00  0.00     0.034 A 
ATOM     54  C   UNL A   1      42.875  27.317  30.052  1.00  0.00     0.034 A 
ATOM     55  C   UNL A   1      41.384  30.815  35.381  1.00  0.00     0.049 A 
ATOM     56  C   UNL A   1      43.575  27.552  31.367  1.00  0.00     0.074 A 
ATOM     57  C   UNL A   1      42.090  30.888  36.569  1.00  0.00     0.029 A 
ATOM     58  N   UNL A   1      42.115  29.988  34.537  1.00  0.00    -0.354 N 
ATOM     59  N   UNL A   1      43.191  28.280  32.390  1.00  0.00    -0.248 NA
ATOM     60  C   UNL A   1      44.865  26.878  31.559  1.00  0.00     0.031 C 
ATOM     61  C   UNL A   1      43.280  30.168  36.417  1.00  0.00     0.029 A 
ATOM     62  C   UNL A   1      43.279  29.572  35.166  1.00  0.00     0.049 A 
ATOM     63  H   UNL A   1      41.846  29.732  33.625  1.00  0.00     0.167 HD
ATOM     64  C   UNL A   1      44.180  28.128  33.357  1.00  0.00     0.074 A 
ATOM     65  C   UNL A   1      45.167  27.224  32.802  1.00  0.00     0.031 C 
ATOM     66  C   UNL A   1      44.263  28.681  34.595  1.00  0.00     0.034 A 
BRANCH  53  67
ATOM     67  C   UNL A   1      39.498  32.401  36.026  1.00  0.00     0.023 A 
ATOM     68  C   UNL A   1      39.863  33.759  36.094  1.00  0.00     0.031 A 
ATOM     69  C   UNL A   1      38.538  31.937  36.941  1.00  0.00     0.131 A 
ATOM     70  C   UNL A   1      39.345  34.577  37.109  1.00  0.00     0.055 A 
ATOM     71  C   UNL A   1      37.954  32.781  37.891  1.00  0.00     0.041 A 
ATOM     72  F   UNL A   1      38.161  30.649  36.944  1.00  0.00    -0.206 F 
ATOM     73  C   UNL A   1      38.371  34.104  37.991  1.00  0.00     0.022 A 
BRANCH  70  74
ATOM     74  S   UNL A   1      40.087  36.212  37.364  1.00  0.00     0.124 S 
ATOM     75  O   UNL A   1      39.212  36.775  38.389  1.00  0.00    -0.237 OA
ATOM     76  O   UNL A   1      41.442  35.880  37.792  1.00  0.00    -0.237 OA
ATOM     77  O   UNL A   1      39.984  36.845  36.051  1.00  0.00    -0.744 OA
ENDBRANCH  70  74
ENDBRANCH  53  67
BRANCH  54  78
ATOM     78  C   UNL A   1      43.508  26.490  28.983  1.00  0.00     0.023 A 
ATOM     79  C   UNL A   1      44.240  27.081  27.941  1.00  0.00     0.031 A 
ATOM     80  C   UNL A   1      43.360  25.091  28.973  1.00  0.00     0.131 A 
ATOM     81  C   UNL A   1      44.757  26.282  26.908  1.00  0.00     0.055 A 
ATOM     82  C   UNL A   1      43.926  24.295  27.977  1.00  0.00     0.041 A 
ATOM     83  F   UNL A   1      42.669  24.477  29.946  1.00  0.00    -0.206 F 
ATOM     84  C   UNL A   1      44.619  24.893  26.928  1.00  0.00     0.022 A 
BRANCH  81  85
ATOM     85  S   UNL A   1      45.539  27.096  25.489  1.00  0.00     0.124 S 
ATOM     86  O   UNL A   1      44.448  27.918  24.980  1.00  0.00    -0.237 OA
ATOM     87  O   UNL A   1      46.642  27.814  26.120  1.00  0.00    -0.237 OA
ATOM     88  O   UNL A   1      45.934  25.982  24.631  1.00  0.00    -0.744 OA
ENDBRANCH  81  85
ENDBRANCH  54  78
BRANCH  66  89
ATOM     89  C   UNL A   1      45.447  28.286  35.446  1.00  0.00     0.023 A 
ATOM     90  C   UNL A   1      45.409  27.170  36.299  1.00  0.00     0.031 A 
ATOM     91  C   UNL A   1      46.629  29.047  35.406  1.00  0.00     0.131 A 
ATOM     92  C   UNL A   1      46.509  26.881  37.120  1.00  0.00     0.055 A 
ATOM     93  C   UNL A   1      47.745  28.715  36.176  1.00  0.00     0.041 A 
ATOM     94  F   UNL A   1      46.722  30.126  34.612  1.00  0.00    -0.206 F 
ATOM     95  C   UNL A   1      47.684  27.635  37.050  1.00  0.00     0.022 A 
BRANCH  92  96
ATOM     96  S   UNL A   1      46.350  25.562  38.356  1.00  0.00     0.124 S 
ATOM     97  O   UNL A   1      46.698  26.260  39.590  1.00  0.00    -0.237 OA
ATOM     98  O   UNL A   1      44.951  25.171  38.217  1.00  0.00    -0.237 OA
ATOM     99  O   UNL A   1      47.319  24.560  37.915  1.00  0.00    -0.744 OA
ENDBRANCH  92  96
ENDBRANCH  66  89
ENDBRANCH  40  41
ENDBRANCH  32  35
ENDBRANCH  30  31
ENDBRANCH   1  30
TORSDOF 15
ENDMDL
MODEL 2
REMARK VINA RESULT:     -11.9      4.498     10.587
REMARK SMILES CN(C)C(=O)c1cccc(N2CCC3(CC2)[C@H](C(=O)NCCCNC(=O)c2ccc(-c4c5nc(c(-c6cc(S(=O)(=O)[O-])ccc6F)c6ccc([nH]6)c(-c6cc(S(=O)(=O)[O-])ccc6F)c6nc(c(-c7cc(S(=O)(=O)[O-])ccc7F)c7ccc4[nH]7)C=C6)C=C5)cc2)CC(=O)N3C)n1
REMARK SMILES IDX 22 1 21 2 20 3 18 4 19 5 17 7 11 8 12 9 16 10 13 11 15 12
REMARK SMILES IDX 14 13 93 14 90 15 91 16 94 17 92 18 10 19 6 20 7 21 95 22
REMARK SMILES IDX 8 23 9 24 4 25 1 26 2 27 3 28 5 29 23 30 24 31 25 32 26 34
REMARK SMILES IDX 27 35 28 36 89 37 29 38 88 39 30 40 31 41 32 42 82 43 33 44
REMARK SMILES IDX 87 45 81 46 83 47 34 48 86 49 80 50 79 51 35 53 67 54 47 55
REMARK SMILES IDX 66 56 48 57 51 58 65 59 84 60 49 61 50 62 64 64 85 65 52 66
REMARK SMILES IDX 36 67 37 68 45 69 38 70 44 71 46 72 43 73 39 74 40 75 41 76
REMARK SMILES IDX 42 77 68 78 69 79 77 80 70 81 76 82 78 83 75 84 71 85 72 86
REMARK SMILES IDX 73 87 74 88 53 89 54 90 62 91 55 92 61 93 63 94 60 95 56 96
REMARK SMILES IDX 57 97 58 98 59 99
REMARK H PARENT 20 6 24 33 83 52 51 63
REMARK Flexibility Score: inf
ROOT
ATOM      1  C   UNL A   1      35.896  23.501  25.001  1.00  0.00     0.042 C 
ENDROOT
BRANCH   1   2
ATOM      2  C   UNL A   1      34.500  24.123  25.105  1.00  0.00     0.117 C 
BRANCH   2   3
ATOM      3  N   UNL A   1      33.962  24.645  23.852  1.00  0.00    -0.356 N 
ATOM      4  C   UNL A   1      32.911  25.438  23.526  1.00  0.00     0.226 C 
ATOM      5  O   UNL A   1      32.804  25.733  22.329  1.00  0.00    -0.275 OA
ATOM      6  H   UNL A   1      34.478  24.355  23.066  1.00  0.00     0.163 HD
BRANCH   4   7
ATOM      7  C   UNL A   1      31.868  25.970  24.508  1.00  0.00     0.113 C 
ATOM      8  N   UNL A   1      33.470  29.318  26.596  1.00  0.00    -0.356 N 
ATOM      9  C   UNL A   1      33.661  29.398  25.167  1.00  0.00     0.120 C 
ATOM     10  C   UNL A   1      32.165  28.923  27.100  1.00  0.00     0.120 C 
ATOM     11  C   UNL A   1      33.378  28.008  24.635  1.00  0.00     0.051 C 
ATOM     12  C   UNL A   1      31.747  27.575  26.487  1.00  0.00     0.051 C 
ATOM     13  C   UNL A   1      31.968  27.464  24.945  1.00  0.00     0.058 C 
ATOM     14  N   UNL A   1      30.820  28.046  24.223  1.00  0.00    -0.339 N 
ATOM     15  C   UNL A   1      30.446  25.731  24.024  1.00  0.00     0.116 C 
ATOM     16  C   UNL A   1      29.920  27.102  23.748  1.00  0.00     0.223 C 
ATOM     17  C   UNL A   1      30.507  29.455  24.082  1.00  0.00     0.147 C 
ATOM     18  O   UNL A   1      28.859  27.326  23.176  1.00  0.00    -0.275 OA
BRANCH   8  19
ATOM     19  C   UNL A   1      34.416  29.941  27.384  1.00  0.00     0.129 A 
ATOM     20  C   UNL A   1      35.008  31.625  28.873  1.00  0.00     0.130 A 
ATOM     21  C   UNL A   1      36.358  31.309  28.794  1.00  0.00     0.034 A 
ATOM     22  N   UNL A   1      34.044  30.967  28.175  1.00  0.00    -0.226 NA
ATOM     23  C   UNL A   1      36.737  30.280  27.948  1.00  0.00     0.006 A 
ATOM     24  C   UNL A   1      35.756  29.582  27.251  1.00  0.00     0.047 A 
BRANCH  20  25
ATOM     25  C   UNL A   1      34.544  32.667  29.840  1.00  0.00     0.272 C 
ATOM     26  C   UNL A   1      34.029  34.991  30.395  1.00  0.00     0.146 C 
ATOM     27  N   UNL A   1      34.349  33.984  29.396  1.00  0.00    -0.343 N 
ATOM     28  C   UNL A   1      34.282  34.387  28.000  1.00  0.00     0.146 C 
ATOM     29  O   UNL A   1      34.404  32.342  31.019  1.00  0.00    -0.267 OA
ENDBRANCH  20  25
ENDBRANCH   8  19
ENDBRANCH   4   7
ENDBRANCH   2   3
ENDBRANCH   1   2
BRANCH   1  30
ATOM     30  C   UNL A   1      36.758  23.696  26.242  1.00  0.00     0.118 C 
BRANCH  30  31
ATOM     31  N   UNL A   1      37.614  22.542  26.452  1.00  0.00    -0.352 N 
ATOM     32  C   UNL A   1      38.986  22.504  26.528  1.00  0.00     0.251 C 
ATOM     33  H   UNL A   1      37.154  21.677  26.552  1.00  0.00     0.163 HD
ATOM     34  O   UNL A   1      39.569  21.445  26.311  1.00  0.00    -0.269 OA
BRANCH  32  35
ATOM     35  C   UNL A   1      39.748  23.729  26.863  1.00  0.00     0.039 A 
ATOM     36  C   UNL A   1      39.660  24.840  26.022  1.00  0.00     0.014 A 
ATOM     37  C   UNL A   1      40.589  23.767  27.980  1.00  0.00     0.014 A 
ATOM     38  C   UNL A   1      40.387  25.996  26.318  1.00  0.00     0.010 A 
ATOM     39  C   UNL A   1      41.243  24.949  28.323  1.00  0.00     0.010 A 
ATOM     40  C   UNL A   1      41.169  26.070  27.483  1.00  0.00    -0.014 A 
BRANCH  40  41
ATOM     41  C   UNL A   1      41.946  27.297  27.814  1.00  0.00     0.031 A 
ATOM     42  C   UNL A   1      43.369  27.440  27.341  1.00  0.00     0.074 A 
ATOM     43  C   UNL A   1      41.389  28.260  28.575  1.00  0.00     0.049 A 
ATOM     44  N   UNL A   1      44.229  28.399  27.572  1.00  0.00    -0.248 NA
ATOM     45  C   UNL A   1      43.907  26.340  26.525  1.00  0.00     0.031 C 
ATOM     46  C   UNL A   1      40.035  28.216  29.133  1.00  0.00     0.029 A 
ATOM     47  N   UNL A   1      41.888  29.459  29.016  1.00  0.00    -0.354 N 
ATOM     48  C   UNL A   1      45.408  28.014  26.941  1.00  0.00     0.074 A 
ATOM     49  C   UNL A   1      45.173  26.698  26.386  1.00  0.00     0.031 C 
ATOM     50  C   UNL A   1      39.805  29.347  29.818  1.00  0.00     0.029 A 
ATOM     51  C   UNL A   1      41.006  30.177  29.790  1.00  0.00     0.049 A 
ATOM     52  H   UNL A   1      42.794  29.777  28.797  1.00  0.00     0.167 HD
ATOM     53  C   UNL A   1      46.568  28.706  26.808  1.00  0.00     0.034 A 
ATOM     54  C   UNL A   1      41.151  31.360  30.420  1.00  0.00     0.034 A 
ATOM     55  C   UNL A   1      46.781  30.021  27.361  1.00  0.00     0.049 A 
ATOM     56  C   UNL A   1      42.457  32.100  30.283  1.00  0.00     0.074 A 
ATOM     57  C   UNL A   1      47.896  30.833  27.249  1.00  0.00     0.029 A 
ATOM     58  N   UNL A   1      45.862  30.717  28.137  1.00  0.00    -0.354 N 
ATOM     59  N   UNL A   1      43.545  31.746  29.639  1.00  0.00    -0.248 NA
ATOM     60  C   UNL A   1      42.550  33.407  30.947  1.00  0.00     0.031 C 
ATOM     61  C   UNL A   1      47.681  31.983  28.017  1.00  0.00     0.029 A 
ATOM     62  C   UNL A   1      46.398  31.931  28.538  1.00  0.00     0.049 A 
ATOM     63  H   UNL A   1      44.961  30.394  28.368  1.00  0.00     0.167 HD
ATOM     64  C   UNL A   1      44.441  32.799  29.798  1.00  0.00     0.074 A 
ATOM     65  C   UNL A   1      43.758  33.808  30.582  1.00  0.00     0.031 C 
ATOM     66  C   UNL A   1      45.711  32.924  29.333  1.00  0.00     0.034 A 
BRANCH  53  67
ATOM     67  C   UNL A   1      47.694  28.034  26.054  1.00  0.00     0.023 A 
ATOM     68  C   UNL A   1      47.846  28.186  24.663  1.00  0.00     0.031 A 
ATOM     69  C   UNL A   1      48.607  27.200  26.723  1.00  0.00     0.131 A 
ATOM     70  C   UNL A   1      48.821  27.448  23.977  1.00  0.00     0.055 A 
ATOM     71  C   UNL A   1      49.637  26.540  26.046  1.00  0.00     0.041 A 
ATOM     72  F   UNL A   1      48.505  26.995  28.045  1.00  0.00    -0.206 F 
ATOM     73  C   UNL A   1      49.736  26.646  24.662  1.00  0.00     0.022 A 
BRANCH  70  74
ATOM     74  S   UNL A   1      48.765  27.418  22.164  1.00  0.00     0.124 S 
ATOM     75  O   UNL A   1      48.652  25.986  21.897  1.00  0.00    -0.237 OA
ATOM     76  O   UNL A   1      47.581  28.218  21.871  1.00  0.00    -0.237 OA
ATOM     77  O   UNL A   1      50.038  28.019  21.772  1.00  0.00    -0.744 OA
ENDBRANCH  70  74
ENDBRANCH  53  67
BRANCH  54  78
ATOM     78  C   UNL A   1      40.040  31.912  31.249  1.00  0.00     0.023 A 
ATOM     79  C   UNL A   1      39.912  31.587  32.609  1.00  0.00     0.031 A 
ATOM     80  C   UNL A   1      39.065  32.752  30.679  1.00  0.00     0.131 A 
ATOM     81  C   UNL A   1      38.813  32.060  33.342  1.00  0.00     0.055 A 
ATOM     82  C   UNL A   1      38.006  33.268  31.426  1.00  0.00     0.041 A 
ATOM     83  F   UNL A   1      39.140  33.093  29.383  1.00  0.00    -0.206 F 
ATOM     84  C   UNL A   1      37.868  32.911  32.764  1.00  0.00     0.022 A 
BRANCH  81  85
ATOM     85  S   UNL A   1      38.585  31.473  35.044  1.00  0.00     0.124 S 
ATOM     86  O   UNL A   1      38.414  30.039  34.843  1.00  0.00    -0.237 OA
ATOM     87  O   UNL A   1      39.833  31.887  35.676  1.00  0.00    -0.237 OA
ATOM     88  O   UNL A   1      37.393  32.187  35.494  1.00  0.00    -0.744 OA
ENDBRANCH  81  85
ENDBRANCH  54  78
BRANCH  66  89
ATOM     89  C   UNL A   1      46.427  34.220  29.631  1.00  0.00     0.023 A 
ATOM     90  C   UNL A   1      46.372  35.317  28.754  1.00  0.00     0.031 A 
ATOM     91  C   UNL A   1      47.184  34.353  30.809  1.00  0.00     0.131 A 
ATOM     92  C   UNL A   1      47.108  36.477  29.040  1.00  0.00     0.055 A 
ATOM     93  C   UNL A   1      47.860  35.534  31.120  1.00  0.00     0.041 A 
ATOM     94  F   UNL A   1      47.276  33.337  31.682  1.00  0.00    -0.206 F 
ATOM     95  C   UNL A   1      47.835  36.599  30.227  1.00  0.00     0.022 A 
BRANCH  92  96
ATOM     96  S   UNL A   1      47.181  37.791  27.791  1.00  0.00     0.124 S 
ATOM     97  O   UNL A   1      45.928  37.593  27.070  1.00  0.00    -0.237 OA
ATOM     98  O   UNL A   1      47.263  38.996  28.610  1.00  0.00    -0.237 OA
ATOM     99  O   UNL A   1      48.390  37.476  27.032  1.00  0.00    -0.744 OA
ENDBRANCH  92  96
ENDBRANCH  66  89
ENDBRANCH  40  41
ENDBRANCH  32  35
ENDBRANCH  30  31
ENDBRANCH   1  30
TORSDOF 15
ENDMDL
MODEL 3
REMARK VINA RESULT:     -11.8      2.907      4.535
REMARK SMILES CN(C)C(=O)c1cccc(N2CCC3(CC2)[C@H](C(=O)NCCCNC(=O)c2ccc(-c4c5nc(c(-c6cc(S(=O)(=O)[O-])ccc6F)c6ccc([nH]6)c(-c6cc(S(=O)(=O)[O-])ccc6F)c6nc(c(-c7cc(S(=O)(=O)[O-])ccc7F)c7ccc4[nH]7)C=C6)C=C5)cc2)CC(=O)N3C)n1
REMARK SMILES IDX 22 1 21 2 20 3 18 4 19 5 17 7 11 8 12 9 16 10 13 11 15 12
REMARK SMILES IDX 14 13 93 14 90 15 91 16 94 17 92 18 10 19 6 20 7 21 95 22
REMARK SMILES IDX 8 23 9 24 4 25 1 26 2 27 3 28 5 29 23 30 24 31 25 32 26 34
REMARK SMILES IDX 27 35 28 36 89 37 29 38 88 39 30 40 31 41 32 42 82 43 33 44
REMARK SMILES IDX 87 45 81 46 83 47 34 48 86 49 80 50 79 51 35 53 67 54 47 55
REMARK SMILES IDX 66 56 48 57 51 58 65 59 84 60 49 61 50 62 64 64 85 65 52 66
REMARK SMILES IDX 36 67 37 68 45 69 38 70 44 71 46 72 43 73 39 74 40 75 41 76
REMARK SMILES IDX 42 77 68 78 69 79 77 80 70 81 76 82 78 83 75 84 71 85 72 86
REMARK SMILES IDX 73 87 74 88 53 89 54 90 62 91 55 92 61 93 63 94 60 95 56 96
REMARK SMILES IDX 57 97 58 98 59 99
REMARK H PARENT 20 6 24 33 83 52 51 63
REMARK Flexibility Score: inf
ROOT
ATOM      1  C   UNL A   1      33.616  27.730  26.061  1.00  0.00     0.042 C 
ENDROOT
BRANCH   1   2
ATOM      2  C   UNL A   1      32.858  28.130  24.791  1.00  0.00     0.117 C 
BRANCH   2   3
ATOM      3  N   UNL A   1      33.472  27.692  23.542  1.00  0.00    -0.356 N 
ATOM      4  C   UNL A   1      33.184  26.735  22.625  1.00  0.00     0.226 C 
ATOM      5  O   UNL A   1      33.914  26.702  21.626  1.00  0.00    -0.275 OA
ATOM      6  H   UNL A   1      34.279  28.208  23.313  1.00  0.00     0.163 HD
BRANCH   4   7
ATOM      7  C   UNL A   1      32.057  25.710  22.742  1.00  0.00     0.113 C 
ATOM      8  N   UNL A   1      33.581  22.124  24.461  1.00  0.00    -0.356 N 
ATOM      9  C   UNL A   1      33.963  23.309  25.193  1.00  0.00     0.120 C 
ATOM     10  C   UNL A   1      32.199  21.989  24.032  1.00  0.00     0.120 C 
ATOM     11  C   UNL A   1      33.664  24.475  24.273  1.00  0.00     0.051 C 
ATOM     12  C   UNL A   1      31.780  23.216  23.204  1.00  0.00     0.051 C 
ATOM     13  C   UNL A   1      32.194  24.590  23.820  1.00  0.00     0.058 C 
ATOM     14  N   UNL A   1      31.190  25.028  24.809  1.00  0.00    -0.339 N 
ATOM     15  C   UNL A   1      30.698  26.366  22.936  1.00  0.00     0.116 C 
ATOM     16  C   UNL A   1      30.302  25.978  24.323  1.00  0.00     0.223 C 
ATOM     17  C   UNL A   1      30.988  24.486  26.139  1.00  0.00     0.147 C 
ATOM     18  O   UNL A   1      29.341  26.453  24.918  1.00  0.00    -0.275 OA
BRANCH   8  19
ATOM     19  C   UNL A   1      34.453  21.056  24.512  1.00  0.00     0.129 A 
ATOM     20  C   UNL A   1      34.832  18.764  24.578  1.00  0.00     0.130 A 
ATOM     21  C   UNL A   1      36.189  18.929  24.825  1.00  0.00     0.034 A 
ATOM     22  N   UNL A   1      33.966  19.802  24.434  1.00  0.00    -0.226 NA
ATOM     23  C   UNL A   1      36.675  20.221  24.944  1.00  0.00     0.006 A 
ATOM     24  C   UNL A   1      35.803  21.290  24.770  1.00  0.00     0.047 A 
BRANCH  20  25
ATOM     25  C   UNL A   1      34.281  17.392  24.352  1.00  0.00     0.272 C 
ATOM     26  C   UNL A   1      32.913  15.495  25.061  1.00  0.00     0.146 C 
ATOM     27  N   UNL A   1      33.321  16.879  25.238  1.00  0.00    -0.343 N 
ATOM     28  C   UNL A   1      32.587  17.669  26.215  1.00  0.00     0.146 C 
ATOM     29  O   UNL A   1      34.736  16.731  23.419  1.00  0.00    -0.267 OA
ENDBRANCH  20  25
ENDBRANCH   8  19
ENDBRANCH   4   7
ENDBRANCH   2   3
ENDBRANCH   1   2
BRANCH   1  30
ATOM     30  C   UNL A   1      33.228  28.532  27.296  1.00  0.00     0.118 C 
BRANCH  30  31
ATOM     31  N   UNL A   1      33.399  29.954  27.052  1.00  0.00    -0.352 N 
ATOM     32  C   UNL A   1      34.355  30.796  27.569  1.00  0.00     0.251 C 
ATOM     33  H   UNL A   1      32.748  30.366  26.440  1.00  0.00     0.163 HD
ATOM     34  O   UNL A   1      34.139  32.004  27.592  1.00  0.00    -0.269 OA
BRANCH  32  35
ATOM     35  C   UNL A   1      35.626  30.248  28.094  1.00  0.00     0.039 A 
ATOM     36  C   UNL A   1      35.661  29.723  29.388  1.00  0.00     0.014 A 
ATOM     37  C   UNL A   1      36.797  30.294  27.331  1.00  0.00     0.014 A 
ATOM     38  C   UNL A   1      36.858  29.217  29.901  1.00  0.00     0.010 A 
ATOM     39  C   UNL A   1      37.968  29.711  27.811  1.00  0.00     0.010 A 
ATOM     40  C   UNL A   1      38.019  29.186  29.111  1.00  0.00    -0.014 A 
BRANCH  40  41
ATOM     41  C   UNL A   1      39.301  28.647  29.643  1.00  0.00     0.031 A 
ATOM     42  C   UNL A   1      39.930  29.264  30.865  1.00  0.00     0.074 A 
ATOM     43  C   UNL A   1      39.920  27.635  29.005  1.00  0.00     0.049 A 
ATOM     44  N   UNL A   1      41.067  28.979  31.447  1.00  0.00    -0.248 NA
ATOM     45  C   UNL A   1      39.197  30.372  31.496  1.00  0.00     0.031 C 
ATOM     46  C   UNL A   1      39.436  26.985  27.785  1.00  0.00     0.029 A 
ATOM     47  N   UNL A   1      41.091  26.976  29.285  1.00  0.00    -0.354 N 
ATOM     48  C   UNL A   1      41.189  29.877  32.504  1.00  0.00     0.074 A 
ATOM     49  C   UNL A   1      40.049  30.764  32.431  1.00  0.00     0.031 C 
ATOM     50  C   UNL A   1      40.287  26.007  27.439  1.00  0.00     0.029 A 
ATOM     51  C   UNL A   1      41.402  25.987  28.381  1.00  0.00     0.049 A 
ATOM     52  H   UNL A   1      41.656  27.192  30.062  1.00  0.00     0.167 HD
ATOM     53  C   UNL A   1      42.145  29.936  33.465  1.00  0.00     0.034 A 
ATOM     54  C   UNL A   1      42.470  25.168  28.308  1.00  0.00     0.034 A 
ATOM     55  C   UNL A   1      43.272  29.037  33.527  1.00  0.00     0.049 A 
ATOM     56  C   UNL A   1      43.536  25.268  29.370  1.00  0.00     0.074 A 
ATOM     57  C   UNL A   1      44.274  28.975  34.480  1.00  0.00     0.029 A 
ATOM     58  N   UNL A   1      43.551  28.045  32.595  1.00  0.00    -0.354 N 
ATOM     59  N   UNL A   1      43.610  26.088  30.392  1.00  0.00    -0.248 NA
ATOM     60  C   UNL A   1      44.655  24.322  29.275  1.00  0.00     0.031 C 
ATOM     61  C   UNL A   1      45.196  28.000  34.084  1.00  0.00     0.029 A 
ATOM     62  C   UNL A   1      44.727  27.391  32.931  1.00  0.00     0.049 A 
ATOM     63  H   UNL A   1      42.995  27.837  31.809  1.00  0.00     0.167 HD
ATOM     64  C   UNL A   1      44.770  25.737  31.078  1.00  0.00     0.074 A 
ATOM     65  C   UNL A   1      45.351  24.620  30.362  1.00  0.00     0.031 C 
ATOM     66  C   UNL A   1      45.304  26.285  32.200  1.00  0.00     0.034 A 
BRANCH  53  67
ATOM     67  C   UNL A   1      42.017  31.026  34.506  1.00  0.00     0.023 A 
ATOM     68  C   UNL A   1      42.710  32.244  34.390  1.00  0.00     0.031 A 
ATOM     69  C   UNL A   1      41.222  30.834  35.650  1.00  0.00     0.131 A 
ATOM     70  C   UNL A   1      42.671  33.179  35.434  1.00  0.00     0.055 A 
ATOM     71  C   UNL A   1      41.111  31.810  36.645  1.00  0.00     0.041 A 
ATOM     72  F   UNL A   1      40.552  29.685  35.833  1.00  0.00    -0.206 F 
ATOM     73  C   UNL A   1      41.853  32.983  36.550  1.00  0.00     0.022 A 
BRANCH  70  74
ATOM     74  S   UNL A   1      43.832  34.572  35.393  1.00  0.00     0.124 S 
ATOM     75  O   UNL A   1      45.093  33.913  35.725  1.00  0.00    -0.237 OA
ATOM     76  O   UNL A   1      43.702  35.050  34.021  1.00  0.00    -0.237 OA
ATOM     77  O   UNL A   1      43.320  35.476  36.421  1.00  0.00    -0.744 OA
ENDBRANCH  70  74
ENDBRANCH  53  67
BRANCH  54  78
ATOM     78  C   UNL A   1      42.596  24.194  27.185  1.00  0.00     0.023 A 
ATOM     79  C   UNL A   1      42.002  22.924  27.249  1.00  0.00     0.031 A 
ATOM     80  C   UNL A   1      43.347  24.512  26.038  1.00  0.00     0.131 A 
ATOM     81  C   UNL A   1      42.205  22.002  26.210  1.00  0.00     0.055 A 
ATOM     82  C   UNL A   1      43.497  23.614  24.980  1.00  0.00     0.041 A 
ATOM     83  F   UNL A   1      43.937  25.712  25.926  1.00  0.00    -0.206 F 
ATOM     84  C   UNL A   1      42.934  22.344  25.069  1.00  0.00     0.022 A 
BRANCH  81  85
ATOM     85  S   UNL A   1      41.573  20.313  26.411  1.00  0.00     0.124 S 
ATOM     86  O   UNL A   1      40.142  20.506  26.209  1.00  0.00    -0.237 OA
ATOM     87  O   UNL A   1      42.279  19.598  25.353  1.00  0.00    -0.237 OA
ATOM     88  O   UNL A   1      41.969  19.960  27.771  1.00  0.00    -0.744 OA
ENDBRANCH  81  85
ENDBRANCH  54  78
BRANCH  66  89
ATOM     89  C   UNL A   1      46.563  25.652  32.742  1.00  0.00     0.023 A 
ATOM     90  C   UNL A   1      46.523  24.611  33.686  1.00  0.00     0.031 A 
ATOM     91  C   UNL A   1      47.823  26.105  32.311  1.00  0.00     0.131 A 
ATOM     92  C   UNL A   1      47.719  24.098  34.211  1.00  0.00     0.055 A 
ATOM     93  C   UNL A   1      49.009  25.545  32.787  1.00  0.00     0.041 A 
ATOM     94  F   UNL A   1      47.922  27.098  31.413  1.00  0.00    -0.206 F 
ATOM     95  C   UNL A   1      48.961  24.545  33.754  1.00  0.00     0.022 A 
BRANCH  92  96
ATOM     96  S   UNL A   1      47.630  22.905  35.575  1.00  0.00     0.124 S 
ATOM     97  O   UNL A   1      46.879  23.651  36.580  1.00  0.00    -0.237 OA
ATOM     98  O   UNL A   1      46.932  21.780  34.961  1.00  0.00    -0.237 OA
ATOM     99  O   UNL A   1      49.032  22.657  35.906  1.00  0.00    -0.744 OA
ENDBRANCH  92  96
ENDBRANCH  66  89
ENDBRANCH  40  41
ENDBRANCH  32  35
ENDBRANCH  30  31
ENDBRANCH   1  30
TORSDOF 15
ENDMDL
