MODEL 1
REMARK VINA RESULT:     -13.0      0.000      0.000
REMARK SMILES Cc1nc2cc(S(=O)(=O)N3CCC(C(=O)NCCCNC(=O)c4ccc(-c5c6nc(c(-c7cc(S(=O)(=O)[O-])ccc7F)c7ccc([nH]7)c(-c7cc(S(=O)(=O)[O-])ccc7F)c7nc(c(-c8cc(S(=O)(=O)[O-])ccc8F)c8ccc5[nH]8)C=C7)C=C6)cc4)CC3)ccc2n1C1CCCC1
REMARK SMILES IDX 18 1 17 2 16 3 14 4 15 5 13 7 10 8 11 9 87 10 12 11 86 12
REMARK SMILES IDX 7 13 8 14 9 15 6 16 1 17 2 18 3 19 91 20 4 21 90 22 5 23
REMARK SMILES IDX 89 24 88 25 92 26 93 27 96 28 94 29 95 30 19 31 20 32 21 33
REMARK SMILES IDX 22 35 23 36 24 37 85 38 25 39 84 40 26 41 27 42 28 43 78 44
REMARK SMILES IDX 29 45 83 46 77 47 79 48 30 49 82 50 76 51 75 52 31 54 63 55
REMARK SMILES IDX 43 56 62 57 44 58 47 59 61 60 80 61 45 62 46 63 60 65 81 66
REMARK SMILES IDX 48 67 32 68 33 69 41 70 34 71 40 72 42 73 39 74 35 75 36 76
REMARK SMILES IDX 37 77 38 78 64 79 65 80 73 81 66 82 72 83 74 84 71 85 67 86
REMARK SMILES IDX 68 87 69 88 70 89 49 90 50 91 58 92 51 93 57 94 59 95 56 96
REMARK SMILES IDX 52 97 53 98 54 99 55 100
REMARK H PARENT 16 6 20 34 79 53 47 64
REMARK Flexibility Score: inf
ROOT
ATOM      1  C   UNL A   1      34.512  31.157  27.612  1.00  0.00     0.042 C 
ENDROOT
BRANCH   1   2
ATOM      2  C   UNL A   1      33.191  30.909  26.891  1.00  0.00     0.117 C 
BRANCH   2   3
ATOM      3  N   UNL A   1      32.341  29.961  27.605  1.00  0.00    -0.356 N 
ATOM      4  C   UNL A   1      31.785  28.781  27.221  1.00  0.00     0.223 C 
ATOM      5  O   UNL A   1      31.074  28.179  28.028  1.00  0.00    -0.275 OA
ATOM      6  H   UNL A   1      32.131  30.223  28.530  1.00  0.00     0.163 HD
BRANCH   4   7
ATOM      7  C   UNL A   1      32.047  28.198  25.844  1.00  0.00     0.081 C 
ATOM      8  N   UNL A   1      32.534  25.937  24.102  1.00  0.00    -0.198 NA
ATOM      9  C   UNL A   1      33.685  26.773  24.516  1.00  0.00     0.103 C 
ATOM     10  C   UNL A   1      31.153  26.461  24.203  1.00  0.00     0.103 C 
ATOM     11  C   UNL A   1      33.431  27.567  25.775  1.00  0.00     0.030 C 
ATOM     12  C   UNL A   1      30.894  27.286  25.441  1.00  0.00     0.030 C 
BRANCH   8  13
ATOM     13  S   UNL A   1      32.828  24.982  22.695  1.00  0.00     0.243 S 
ATOM     14  O   UNL A   1      33.985  25.548  22.023  1.00  0.00    -0.207 OA
ATOM     15  O   UNL A   1      31.569  24.778  22.030  1.00  0.00    -0.207 OA
BRANCH  13  16
ATOM     16  C   UNL A   1      33.344  23.381  23.297  1.00  0.00     0.085 A 
ATOM     17  C   UNL A   1      37.365  19.396  25.206  1.00  0.00     0.088 C 
ATOM     18  C   UNL A   1      36.250  20.268  24.767  1.00  0.00     0.106 A 
ATOM     19  N   UNL A   1      36.379  21.531  24.411  1.00  0.00    -0.233 NA
ATOM     20  N   UNL A   1      34.937  19.858  24.665  1.00  0.00    -0.325 N 
ATOM     21  C   UNL A   1      35.129  21.959  24.055  1.00  0.00     0.090 A 
ATOM     22  C   UNL A   1      34.204  20.930  24.210  1.00  0.00     0.068 A 
ATOM     23  C   UNL A   1      34.707  23.211  23.586  1.00  0.00     0.052 A 
ATOM     24  C   UNL A   1      32.852  21.086  23.920  1.00  0.00     0.030 A 
ATOM     25  C   UNL A   1      32.442  22.330  23.470  1.00  0.00     0.024 A 
BRANCH  20  26
ATOM     26  C   UNL A   1      34.410  18.538  24.952  1.00  0.00     0.089 C 
ATOM     27  C   UNL A   1      32.981  18.523  25.504  1.00  0.00     0.025 C 
ATOM     28  C   UNL A   1      34.359  17.606  23.736  1.00  0.00     0.025 C 
ATOM     29  C   UNL A   1      32.499  17.102  25.259  1.00  0.00     0.002 C 
ATOM     30  C   UNL A   1      33.265  16.588  24.042  1.00  0.00     0.002 C 
ENDBRANCH  20  26
ENDBRANCH  13  16
ENDBRANCH   8  13
ENDBRANCH   4   7
ENDBRANCH   2   3
ENDBRANCH   1   2
BRANCH   1  31
ATOM     31  C   UNL A   1      34.659  32.588  28.118  1.00  0.00     0.118 C 
BRANCH  31  32
ATOM     32  N   UNL A   1      34.883  32.680  29.543  1.00  0.00    -0.352 N 
ATOM     33  C   UNL A   1      35.902  32.321  30.378  1.00  0.00     0.251 C 
ATOM     34  H   UNL A   1      34.130  33.096  30.021  1.00  0.00     0.163 HD
ATOM     35  O   UNL A   1      35.773  32.670  31.553  1.00  0.00    -0.269 OA
BRANCH  33  36
ATOM     36  C   UNL A   1      37.067  31.482  29.989  1.00  0.00     0.039 A 
ATOM     37  C   UNL A   1      37.024  30.120  29.684  1.00  0.00     0.014 A 
ATOM     38  C   UNL A   1      38.318  32.123  30.052  1.00  0.00     0.014 A 
ATOM     39  C   UNL A   1      38.196  29.379  29.628  1.00  0.00     0.010 A 
ATOM     40  C   UNL A   1      39.493  31.396  29.959  1.00  0.00     0.010 A 
ATOM     41  C   UNL A   1      39.420  30.014  29.836  1.00  0.00    -0.014 A 
BRANCH  41  42
ATOM     42  C   UNL A   1      40.616  29.188  29.905  1.00  0.00     0.031 A 
ATOM     43  C   UNL A   1      40.967  28.694  31.267  1.00  0.00     0.074 A 
ATOM     44  C   UNL A   1      41.279  28.829  28.787  1.00  0.00     0.049 A 
ATOM     45  N   UNL A   1      42.031  28.940  31.958  1.00  0.00    -0.248 NA
ATOM     46  C   UNL A   1      39.935  27.956  32.010  1.00  0.00     0.031 C 
ATOM     47  C   UNL A   1      40.874  29.005  27.388  1.00  0.00     0.029 A 
ATOM     48  N   UNL A   1      42.423  28.107  28.673  1.00  0.00    -0.354 N 
ATOM     49  C   UNL A   1      41.892  28.238  33.159  1.00  0.00     0.074 A 
ATOM     50  C   UNL A   1      40.529  27.773  33.190  1.00  0.00     0.031 C 
ATOM     51  C   UNL A   1      41.603  28.176  26.606  1.00  0.00     0.029 A 
ATOM     52  C   UNL A   1      42.616  27.535  27.423  1.00  0.00     0.049 A 
ATOM     53  H   UNL A   1      43.061  27.999  29.414  1.00  0.00     0.167 HD
ATOM     54  C   UNL A   1      42.960  27.957  33.963  1.00  0.00     0.034 A 
ATOM     55  C   UNL A   1      43.456  26.503  27.147  1.00  0.00     0.034 A 
ATOM     56  C   UNL A   1      44.105  28.737  33.586  1.00  0.00     0.049 A 
ATOM     57  C   UNL A   1      44.449  26.431  28.254  1.00  0.00     0.074 A 
ATOM     58  C   UNL A   1      44.407  30.083  33.603  1.00  0.00     0.029 A 
ATOM     59  N   UNL A   1      45.035  28.150  32.761  1.00  0.00    -0.354 N 
ATOM     60  N   UNL A   1      45.355  27.348  28.468  1.00  0.00    -0.248 NA
ATOM     61  C   UNL A   1      44.100  25.612  29.408  1.00  0.00     0.031 C 
ATOM     62  C   UNL A   1      45.157  30.299  32.414  1.00  0.00     0.029 A 
ATOM     63  C   UNL A   1      45.338  29.064  31.786  1.00  0.00     0.049 A 
ATOM     64  H   UNL A   1      45.411  27.244  32.853  1.00  0.00     0.167 HD
ATOM     65  C   UNL A   1      45.360  27.518  29.845  1.00  0.00     0.074 A 
ATOM     66  C   UNL A   1      44.609  26.379  30.376  1.00  0.00     0.031 C 
ATOM     67  C   UNL A   1      45.692  28.709  30.427  1.00  0.00     0.034 A 
BRANCH  54  68
ATOM     68  C   UNL A   1      43.071  26.770  34.892  1.00  0.00     0.023 A 
ATOM     69  C   UNL A   1      43.824  25.621  34.589  1.00  0.00     0.031 A 
ATOM     70  C   UNL A   1      42.609  26.870  36.223  1.00  0.00     0.131 A 
ATOM     71  C   UNL A   1      44.109  24.655  35.567  1.00  0.00     0.055 A 
ATOM     72  C   UNL A   1      42.945  25.938  37.212  1.00  0.00     0.041 A 
ATOM     73  F   UNL A   1      41.862  27.912  36.624  1.00  0.00    -0.206 F 
ATOM     74  C   UNL A   1      43.707  24.826  36.888  1.00  0.00     0.022 A 
BRANCH  71  75
ATOM     75  S   UNL A   1      45.035  23.157  35.137  1.00  0.00     0.124 S 
ATOM     76  O   UNL A   1      45.260  22.556  36.448  1.00  0.00    -0.237 OA
ATOM     77  O   UNL A   1      44.085  22.458  34.277  1.00  0.00    -0.237 OA
ATOM     78  O   UNL A   1      46.221  23.670  34.459  1.00  0.00    -0.744 OA
ENDBRANCH  71  75
ENDBRANCH  54  68
BRANCH  55  79
ATOM     79  C   UNL A   1      43.059  25.303  26.364  1.00  0.00     0.023 A 
ATOM     80  C   UNL A   1      41.993  24.497  26.814  1.00  0.00     0.031 A 
ATOM     81  C   UNL A   1      43.877  24.771  25.353  1.00  0.00     0.131 A 
ATOM     82  C   UNL A   1      41.792  23.211  26.300  1.00  0.00     0.055 A 
ATOM     83  C   UNL A   1      43.663  23.490  24.823  1.00  0.00     0.041 A 
ATOM     84  F   UNL A   1      44.938  25.460  24.904  1.00  0.00    -0.206 F 
ATOM     85  C   UNL A   1      42.621  22.698  25.304  1.00  0.00     0.022 A 
BRANCH  82  86
ATOM     86  S   UNL A   1      40.487  22.156  26.988  1.00  0.00     0.124 S 
ATOM     87  O   UNL A   1      40.635  20.929  26.210  1.00  0.00    -0.237 OA
ATOM     88  O   UNL A   1      40.885  22.065  28.388  1.00  0.00    -0.237 OA
ATOM     89  O   UNL A   1      39.263  22.908  26.724  1.00  0.00    -0.744 OA
ENDBRANCH  82  86
ENDBRANCH  55  79
BRANCH  67  90
ATOM     90  C   UNL A   1      46.222  29.843  29.578  1.00  0.00     0.023 A 
ATOM     91  C   UNL A   1      45.281  30.551  28.810  1.00  0.00     0.031 A 
ATOM     92  C   UNL A   1      47.583  30.040  29.275  1.00  0.00     0.131 A 
ATOM     93  C   UNL A   1      45.695  31.356  27.744  1.00  0.00     0.055 A 
ATOM     94  C   UNL A   1      47.998  30.908  28.258  1.00  0.00     0.041 A 
ATOM     95  F   UNL A   1      48.543  29.328  29.876  1.00  0.00    -0.206 F 
ATOM     96  C   UNL A   1      47.051  31.552  27.470  1.00  0.00     0.022 A 
BRANCH  93  97
ATOM     97  S   UNL A   1      44.474  32.009  26.576  1.00  0.00     0.124 S 
ATOM     98  O   UNL A   1      43.851  33.080  27.349  1.00  0.00    -0.237 OA
ATOM     99  O   UNL A   1      45.312  32.441  25.459  1.00  0.00    -0.237 OA
ATOM    100  O   UNL A   1      43.612  30.865  26.290  1.00  0.00    -0.744 OA
ENDBRANCH  93  97
ENDBRANCH  67  90
ENDBRANCH  41  42
ENDBRANCH  33  36
ENDBRANCH  31  32
ENDBRANCH   1  31
TORSDOF 16
ENDMDL
MODEL 2
REMARK VINA RESULT:     -12.9      4.582      8.579
REMARK SMILES Cc1nc2cc(S(=O)(=O)N3CCC(C(=O)NCCCNC(=O)c4ccc(-c5c6nc(c(-c7cc(S(=O)(=O)[O-])ccc7F)c7ccc([nH]7)c(-c7cc(S(=O)(=O)[O-])ccc7F)c7nc(c(-c8cc(S(=O)(=O)[O-])ccc8F)c8ccc5[nH]8)C=C7)C=C6)cc4)CC3)ccc2n1C1CCCC1
REMARK SMILES IDX 18 1 17 2 16 3 14 4 15 5 13 7 10 8 11 9 87 10 12 11 86 12
REMARK SMILES IDX 7 13 8 14 9 15 6 16 1 17 2 18 3 19 91 20 4 21 90 22 5 23
REMARK SMILES IDX 89 24 88 25 92 26 93 27 96 28 94 29 95 30 19 31 20 32 21 33
REMARK SMILES IDX 22 35 23 36 24 37 85 38 25 39 84 40 26 41 27 42 28 43 78 44
REMARK SMILES IDX 29 45 83 46 77 47 79 48 30 49 82 50 76 51 75 52 31 54 63 55
REMARK SMILES IDX 43 56 62 57 44 58 47 59 61 60 80 61 45 62 46 63 60 65 81 66
REMARK SMILES IDX 48 67 32 68 33 69 41 70 34 71 40 72 42 73 39 74 35 75 36 76
REMARK SMILES IDX 37 77 38 78 64 79 65 80 73 81 66 82 72 83 74 84 71 85 67 86
REMARK SMILES IDX 68 87 69 88 70 89 49 90 50 91 58 92 51 93 57 94 59 95 56 96
REMARK SMILES IDX 52 97 53 98 54 99 55 100
REMARK H PARENT 16 6 20 34 79 53 47 64
REMARK Flexibility Score: inf
ROOT
ATOM      1  C   UNL A   1      34.418  35.319  28.538  1.00  0.00     0.042 C 
ENDROOT
BRANCH   1   2
ATOM      2  C   UNL A   1      33.093  34.800  29.087  1.00  0.00     0.117 C 
BRANCH   2   3
ATOM      3  N   UNL A   1      32.725  35.446  30.344  1.00  0.00    -0.356 N 
ATOM      4  C   UNL A   1      33.299  35.416  31.576  1.00  0.00     0.223 C 
ATOM      5  O   UNL A   1      32.760  36.046  32.488  1.00  0.00    -0.275 OA
ATOM      6  H   UNL A   1      31.914  36.002  30.290  1.00  0.00     0.163 HD
BRANCH   4   7
ATOM      7  C   UNL A   1      34.586  34.651  31.827  1.00  0.00     0.081 C 
ATOM      8  N   UNL A   1      36.178  32.827  33.414  1.00  0.00    -0.198 NA
ATOM      9  C   UNL A   1      36.431  34.281  33.539  1.00  0.00     0.103 C 
ATOM     10  C   UNL A   1      35.462  32.290  32.234  1.00  0.00     0.103 C 
ATOM     11  C   UNL A   1      35.266  35.135  33.099  1.00  0.00     0.030 C 
ATOM     12  C   UNL A   1      34.316  33.152  31.762  1.00  0.00     0.030 C 
BRANCH   8  13
ATOM     13  S   UNL A   1      37.479  31.836  33.964  1.00  0.00     0.243 S 
ATOM     14  O   UNL A   1      37.427  30.596  33.209  1.00  0.00    -0.207 OA
ATOM     15  O   UNL A   1      37.478  31.866  35.403  1.00  0.00    -0.207 OA
BRANCH  13  16
ATOM     16  C   UNL A   1      38.973  32.666  33.444  1.00  0.00     0.085 A 
ATOM     17  C   UNL A   1      42.619  35.149  29.415  1.00  0.00     0.088 C 
ATOM     18  C   UNL A   1      41.825  34.584  30.532  1.00  0.00     0.106 A 
ATOM     19  N   UNL A   1      40.627  34.049  30.407  1.00  0.00    -0.233 NA
ATOM     20  N   UNL A   1      42.252  34.537  31.843  1.00  0.00    -0.325 N 
ATOM     21  C   UNL A   1      40.262  33.630  31.657  1.00  0.00     0.090 A 
ATOM     22  C   UNL A   1      41.261  33.929  32.578  1.00  0.00     0.068 A 
ATOM     23  C   UNL A   1      39.093  32.982  32.082  1.00  0.00     0.052 A 
ATOM     24  C   UNL A   1      41.156  33.614  33.930  1.00  0.00     0.030 A 
ATOM     25  C   UNL A   1      39.992  32.986  34.343  1.00  0.00     0.024 A 
BRANCH  20  26
ATOM     26  C   UNL A   1      43.519  35.012  32.365  1.00  0.00     0.089 C 
ATOM     27  C   UNL A   1      44.746  34.600  31.544  1.00  0.00     0.025 C 
ATOM     28  C   UNL A   1      43.622  36.538  32.465  1.00  0.00     0.025 C 
ATOM     29  C   UNL A   1      45.829  35.578  31.972  1.00  0.00     0.002 C 
ATOM     30  C   UNL A   1      45.114  36.856  32.406  1.00  0.00     0.002 C 
ENDBRANCH  20  26
ENDBRANCH  13  16
ENDBRANCH   8  13
ENDBRANCH   4   7
ENDBRANCH   2   3
ENDBRANCH   1   2
BRANCH   1  31
ATOM     31  C   UNL A   1      35.354  34.206  28.079  1.00  0.00     0.118 C 
BRANCH  31  32
ATOM     32  N   UNL A   1      34.669  32.986  27.715  1.00  0.00    -0.352 N 
ATOM     33  C   UNL A   1      34.873  31.660  27.968  1.00  0.00     0.251 C 
ATOM     34  H   UNL A   1      33.874  33.148  27.156  1.00  0.00     0.163 HD
ATOM     35  O   UNL A   1      33.988  30.901  27.566  1.00  0.00    -0.269 OA
BRANCH  33  36
ATOM     36  C   UNL A   1      36.097  31.090  28.589  1.00  0.00     0.039 A 
ATOM     37  C   UNL A   1      37.216  31.817  29.002  1.00  0.00     0.014 A 
ATOM     38  C   UNL A   1      36.144  29.685  28.649  1.00  0.00     0.014 A 
ATOM     39  C   UNL A   1      38.407  31.165  29.287  1.00  0.00     0.010 A 
ATOM     40  C   UNL A   1      37.319  29.026  28.970  1.00  0.00     0.010 A 
ATOM     41  C   UNL A   1      38.467  29.775  29.200  1.00  0.00    -0.014 A 
BRANCH  41  42
ATOM     42  C   UNL A   1      39.761  29.133  29.374  1.00  0.00     0.031 A 
ATOM     43  C   UNL A   1      40.098  28.760  30.777  1.00  0.00     0.074 A 
ATOM     44  C   UNL A   1      40.532  28.820  28.313  1.00  0.00     0.049 A 
ATOM     45  N   UNL A   1      41.076  29.188  31.508  1.00  0.00    -0.248 NA
ATOM     46  C   UNL A   1      39.140  27.917  31.507  1.00  0.00     0.031 C 
ATOM     47  C   UNL A   1      40.188  28.870  26.888  1.00  0.00     0.029 A 
ATOM     48  N   UNL A   1      41.770  28.265  28.297  1.00  0.00    -0.354 N 
ATOM     49  C   UNL A   1      40.967  28.531  32.736  1.00  0.00     0.074 A 
ATOM     50  C   UNL A   1      39.684  27.877  32.724  1.00  0.00     0.031 C 
ATOM     51  C   UNL A   1      41.069  28.119  26.190  1.00  0.00     0.029 A 
ATOM     52  C   UNL A   1      42.114  27.669  27.092  1.00  0.00     0.049 A 
ATOM     53  H   UNL A   1      42.374  28.285  29.074  1.00  0.00     0.167 HD
ATOM     54  C   UNL A   1      42.016  28.444  33.608  1.00  0.00     0.034 A 
ATOM     55  C   UNL A   1      43.105  26.756  26.915  1.00  0.00     0.034 A 
ATOM     56  C   UNL A   1      43.060  29.361  33.247  1.00  0.00     0.049 A 
ATOM     57  C   UNL A   1      44.033  26.879  28.074  1.00  0.00     0.074 A 
ATOM     58  C   UNL A   1      43.168  30.736  33.205  1.00  0.00     0.029 A 
ATOM     59  N   UNL A   1      44.109  28.875  32.503  1.00  0.00    -0.354 N 
ATOM     60  N   UNL A   1      44.787  27.926  28.283  1.00  0.00    -0.248 NA
ATOM     61  C   UNL A   1      43.736  26.074  29.252  1.00  0.00     0.031 C 
ATOM     62  C   UNL A   1      43.947  31.001  32.046  1.00  0.00     0.029 A 
ATOM     63  C   UNL A   1      44.337  29.777  31.496  1.00  0.00     0.049 A 
ATOM     64  H   UNL A   1      44.603  28.038  32.663  1.00  0.00     0.167 HD
ATOM     65  C   UNL A   1      44.688  28.160  29.646  1.00  0.00     0.074 A 
ATOM     66  C   UNL A   1      44.076  26.951  30.201  1.00  0.00     0.031 C 
ATOM     67  C   UNL A   1      44.815  29.413  30.179  1.00  0.00     0.034 A 
BRANCH  54  68
ATOM     68  C   UNL A   1      42.239  27.331  34.604  1.00  0.00     0.023 A 
ATOM     69  C   UNL A   1      42.989  26.176  34.317  1.00  0.00     0.031 A 
ATOM     70  C   UNL A   1      41.897  27.520  35.962  1.00  0.00     0.131 A 
ATOM     71  C   UNL A   1      43.384  25.289  35.331  1.00  0.00     0.055 A 
ATOM     72  C   UNL A   1      42.343  26.669  36.980  1.00  0.00     0.041 A 
ATOM     73  F   UNL A   1      41.163  28.574  36.354  1.00  0.00    -0.206 F 
ATOM     74  C   UNL A   1      43.099  25.549  36.668  1.00  0.00     0.022 A 
BRANCH  71  75
ATOM     75  S   UNL A   1      44.304  23.780  34.927  1.00  0.00     0.124 S 
ATOM     76  O   UNL A   1      45.382  24.298  34.091  1.00  0.00    -0.237 OA
ATOM     77  O   UNL A   1      44.701  23.311  36.252  1.00  0.00    -0.237 OA
ATOM     78  O   UNL A   1      43.315  22.948  34.249  1.00  0.00    -0.744 OA
ENDBRANCH  71  75
ENDBRANCH  54  68
BRANCH  55  79
ATOM     79  C   UNL A   1      42.927  25.475  26.181  1.00  0.00     0.023 A 
ATOM     80  C   UNL A   1      41.955  24.551  26.614  1.00  0.00     0.031 A 
ATOM     81  C   UNL A   1      43.873  25.015  25.250  1.00  0.00     0.131 A 
ATOM     82  C   UNL A   1      41.964  23.226  26.163  1.00  0.00     0.055 A 
ATOM     83  C   UNL A   1      43.870  23.693  24.782  1.00  0.00     0.041 A 
ATOM     84  F   UNL A   1      44.857  25.823  24.824  1.00  0.00    -0.206 F 
ATOM     85  C   UNL A   1      42.918  22.787  25.248  1.00  0.00     0.022 A 
BRANCH  82  86
ATOM     86  S   UNL A   1      40.774  22.034  26.835  1.00  0.00     0.124 S 
ATOM     87  O   UNL A   1      41.147  21.983  28.247  1.00  0.00    -0.237 OA
ATOM     88  O   UNL A   1      39.503  22.686  26.543  1.00  0.00    -0.237 OA
ATOM     89  O   UNL A   1      41.049  20.813  26.082  1.00  0.00    -0.744 OA
ENDBRANCH  82  86
ENDBRANCH  55  79
BRANCH  67  90
ATOM     90  C   UNL A   1      45.228  30.569  29.296  1.00  0.00     0.023 A 
ATOM     91  C   UNL A   1      46.542  31.044  29.449  1.00  0.00     0.031 A 
ATOM     92  C   UNL A   1      44.330  31.377  28.571  1.00  0.00     0.131 A 
ATOM     93  C   UNL A   1      46.905  32.303  28.960  1.00  0.00     0.055 A 
ATOM     94  C   UNL A   1      44.717  32.601  28.015  1.00  0.00     0.041 A 
ATOM     95  F   UNL A   1      43.033  31.061  28.468  1.00  0.00    -0.206 F 
ATOM     96  C   UNL A   1      46.004  33.082  28.230  1.00  0.00     0.022 A 
BRANCH  93  97
ATOM     97  S   UNL A   1      48.494  33.032  29.431  1.00  0.00     0.124 S 
ATOM     98  O   UNL A   1      48.158  34.447  29.560  1.00  0.00    -0.237 OA
ATOM     99  O   UNL A   1      48.797  32.339  30.681  1.00  0.00    -0.237 OA
ATOM    100  O   UNL A   1      49.379  32.702  28.316  1.00  0.00    -0.744 OA
ENDBRANCH  93  97
ENDBRANCH  67  90
ENDBRANCH  41  42
ENDBRANCH  33  36
ENDBRANCH  31  32
ENDBRANCH   1  31
TORSDOF 16
ENDMDL
MODEL 3
REMARK VINA RESULT:     -12.9      4.565     11.500
REMARK SMILES Cc1nc2cc(S(=O)(=O)N3CCC(C(=O)NCCCNC(=O)c4ccc(-c5c6nc(c(-c7cc(S(=O)(=O)[O-])ccc7F)c7ccc([nH]7)c(-c7cc(S(=O)(=O)[O-])ccc7F)c7nc(c(-c8cc(S(=O)(=O)[O-])ccc8F)c8ccc5[nH]8)C=C7)C=C6)cc4)CC3)ccc2n1C1CCCC1
REMARK SMILES IDX 18 1 17 2 16 3 14 4 15 5 13 7 10 8 11 9 87 10 12 11 86 12
REMARK SMILES IDX 7 13 8 14 9 15 6 16 1 17 2 18 3 19 91 20 4 21 90 22 5 23
REMARK SMILES IDX 89 24 88 25 92 26 93 27 96 28 94 29 95 30 19 31 20 32 21 33
REMARK SMILES IDX 22 35 23 36 24 37 85 38 25 39 84 40 26 41 27 42 28 43 78 44
REMARK SMILES IDX 29 45 83 46 77 47 79 48 30 49 82 50 76 51 75 52 31 54 63 55
REMARK SMILES IDX 43 56 62 57 44 58 47 59 61 60 80 61 45 62 46 63 60 65 81 66
REMARK SMILES IDX 48 67 32 68 33 69 41 70 34 71 40 72 42 73 39 74 35 75 36 76
REMARK SMILES IDX 37 77 38 78 64 79 65 80 73 81 66 82 72 83 74 84 71 85 67 86
REMARK SMILES IDX 68 87 69 88 70 89 49 90 50 91 58 92 51 93 57 94 59 95 56 96
REMARK SMILES IDX 52 97 53 98 54 99 55 100
REMARK H PARENT 16 6 20 34 79 53 47 64
REMARK Flexibility Score: inf
ROOT
ATOM      1  C   UNL A   1      42.309  19.640  27.247  1.00  0.00     0.042 C 
ENDROOT
BRANCH   1   2
ATOM      2  C   UNL A   1      42.086  19.434  25.753  1.00  0.00     0.117 C 
BRANCH   2   3
ATOM      3  N   UNL A   1      43.334  19.186  25.036  1.00  0.00    -0.356 N 
ATOM      4  C   UNL A   1      44.413  19.979  24.803  1.00  0.00     0.223 C 
ATOM      5  O   UNL A   1      45.343  19.522  24.135  1.00  0.00    -0.275 OA
ATOM      6  H   UNL A   1      43.407  18.282  24.653  1.00  0.00     0.163 HD
BRANCH   4   7
ATOM      7  C   UNL A   1      44.492  21.387  25.366  1.00  0.00     0.081 C 
ATOM      8  N   UNL A   1      45.030  24.214  25.050  1.00  0.00    -0.198 NA
ATOM      9  C   UNL A   1      46.062  23.364  25.687  1.00  0.00     0.103 C 
ATOM     10  C   UNL A   1      43.626  23.753  24.967  1.00  0.00     0.103 C 
ATOM     11  C   UNL A   1      45.926  21.897  25.352  1.00  0.00     0.030 C 
ATOM     12  C   UNL A   1      43.475  22.282  24.667  1.00  0.00     0.030 C 
BRANCH   8  13
ATOM     13  S   UNL A   1      45.205  25.899  25.379  1.00  0.00     0.243 S 
ATOM     14  O   UNL A   1      43.870  26.469  25.436  1.00  0.00    -0.207 OA
ATOM     15  O   UNL A   1      46.229  26.414  24.510  1.00  0.00    -0.207 OA
BRANCH  13  16
ATOM     16  C   UNL A   1      45.855  26.002  27.040  1.00  0.00     0.085 A 
ATOM     17  C   UNL A   1      45.447  25.778  32.996  1.00  0.00     0.088 C 
ATOM     18  C   UNL A   1      45.715  25.855  31.540  1.00  0.00     0.106 A 
ATOM     19  N   UNL A   1      44.815  25.645  30.599  1.00  0.00    -0.233 NA
ATOM     20  N   UNL A   1      46.939  26.172  30.991  1.00  0.00    -0.325 N 
ATOM     21  C   UNL A   1      45.458  25.838  29.406  1.00  0.00     0.090 A 
ATOM     22  C   UNL A   1      46.793  26.165  29.623  1.00  0.00     0.068 A 
ATOM     23  C   UNL A   1      44.964  25.757  28.095  1.00  0.00     0.052 A 
ATOM     24  C   UNL A   1      47.683  26.418  28.583  1.00  0.00     0.030 A 
ATOM     25  C   UNL A   1      47.190  26.322  27.293  1.00  0.00     0.024 A 
BRANCH  20  26
ATOM     26  C   UNL A   1      48.162  26.485  31.707  1.00  0.00     0.089 C 
ATOM     27  C   UNL A   1      49.363  25.609  31.338  1.00  0.00     0.025 C 
ATOM     28  C   UNL A   1      48.658  27.920  31.500  1.00  0.00     0.025 C 
ATOM     29  C   UNL A   1      50.568  26.408  31.810  1.00  0.00     0.002 C 
ATOM     30  C   UNL A   1      50.161  27.879  31.758  1.00  0.00     0.002 C 
ENDBRANCH  20  26
ENDBRANCH  13  16
ENDBRANCH   8  13
ENDBRANCH   4   7
ENDBRANCH   2   3
ENDBRANCH   1   2
BRANCH   1  31
ATOM     31  C   UNL A   1      41.665  20.916  27.779  1.00  0.00     0.118 C 
BRANCH  31  32
ATOM     32  N   UNL A   1      40.411  21.244  27.137  1.00  0.00    -0.352 N 
ATOM     33  C   UNL A   1      39.800  22.406  26.764  1.00  0.00     0.251 C 
ATOM     34  H   UNL A   1      39.875  20.446  26.921  1.00  0.00     0.163 HD
ATOM     35  O   UNL A   1      38.754  22.274  26.126  1.00  0.00    -0.269 OA
BRANCH  33  36
ATOM     36  C   UNL A   1      40.253  23.768  27.150  1.00  0.00     0.039 A 
ATOM     37  C   UNL A   1      41.362  24.064  27.946  1.00  0.00     0.014 A 
ATOM     38  C   UNL A   1      39.404  24.819  26.756  1.00  0.00     0.014 A 
ATOM     39  C   UNL A   1      41.517  25.332  28.486  1.00  0.00     0.010 A 
ATOM     40  C   UNL A   1      39.575  26.098  27.260  1.00  0.00     0.010 A 
ATOM     41  C   UNL A   1      40.581  26.322  28.192  1.00  0.00    -0.014 A 
BRANCH  41  42
ATOM     42  C   UNL A   1      40.698  27.600  28.879  1.00  0.00     0.031 A 
ATOM     43  C   UNL A   1      41.707  28.535  28.307  1.00  0.00     0.074 A 
ATOM     44  C   UNL A   1      39.869  27.925  29.892  1.00  0.00     0.049 A 
ATOM     45  N   UNL A   1      42.770  29.010  28.870  1.00  0.00    -0.248 NA
ATOM     46  C   UNL A   1      41.597  28.865  26.878  1.00  0.00     0.031 C 
ATOM     47  C   UNL A   1      38.666  27.222  30.350  1.00  0.00     0.029 A 
ATOM     48  N   UNL A   1      39.867  29.043  30.662  1.00  0.00    -0.354 N 
ATOM     49  C   UNL A   1      43.374  29.848  27.929  1.00  0.00     0.074 A 
ATOM     50  C   UNL A   1      42.690  29.606  26.685  1.00  0.00     0.031 C 
ATOM     51  C   UNL A   1      37.920  28.060  31.105  1.00  0.00     0.029 A 
ATOM     52  C   UNL A   1      38.662  29.291  31.306  1.00  0.00     0.049 A 
ATOM     53  H   UNL A   1      40.653  29.627  30.756  1.00  0.00     0.167 HD
ATOM     54  C   UNL A   1      44.289  30.797  28.284  1.00  0.00     0.034 A 
ATOM     55  C   UNL A   1      38.275  30.485  31.827  1.00  0.00     0.034 A 
ATOM     56  C   UNL A   1      44.758  30.582  29.625  1.00  0.00     0.049 A 
ATOM     57  C   UNL A   1      39.505  31.301  32.025  1.00  0.00     0.074 A 
ATOM     58  C   UNL A   1      45.494  29.594  30.245  1.00  0.00     0.029 A 
ATOM     59  N   UNL A   1      44.160  31.300  30.634  1.00  0.00    -0.354 N 
ATOM     60  N   UNL A   1      40.428  31.011  32.904  1.00  0.00    -0.248 NA
ATOM     61  C   UNL A   1      39.942  32.127  30.906  1.00  0.00     0.031 C 
ATOM     62  C   UNL A   1      44.902  29.456  31.531  1.00  0.00     0.029 A 
ATOM     63  C   UNL A   1      43.896  30.419  31.649  1.00  0.00     0.049 A 
ATOM     64  H   UNL A   1      43.960  32.265  30.627  1.00  0.00     0.167 HD
ATOM     65  C   UNL A   1      41.625  31.228  32.237  1.00  0.00     0.074 A 
ATOM     66  C   UNL A   1      41.263  31.973  31.029  1.00  0.00     0.031 C 
ATOM     67  C   UNL A   1      42.761  30.532  32.542  1.00  0.00     0.034 A 
BRANCH  54  68
ATOM     68  C   UNL A   1      44.544  32.091  27.547  1.00  0.00     0.023 A 
ATOM     69  C   UNL A   1      43.841  33.281  27.809  1.00  0.00     0.031 A 
ATOM     70  C   UNL A   1      45.681  32.219  26.718  1.00  0.00     0.131 A 
ATOM     71  C   UNL A   1      44.268  34.513  27.290  1.00  0.00     0.055 A 
ATOM     72  C   UNL A   1      46.142  33.456  26.251  1.00  0.00     0.041 A 
ATOM     73  F   UNL A   1      46.420  31.149  26.380  1.00  0.00    -0.206 F 
ATOM     74  C   UNL A   1      45.438  34.614  26.544  1.00  0.00     0.022 A 
BRANCH  71  75
ATOM     75  S   UNL A   1      43.312  36.022  27.598  1.00  0.00     0.124 S 
ATOM     76  O   UNL A   1      44.270  36.842  28.330  1.00  0.00    -0.237 OA
ATOM     77  O   UNL A   1      43.010  36.464  26.239  1.00  0.00    -0.237 OA
ATOM     78  O   UNL A   1      42.162  35.550  28.363  1.00  0.00    -0.744 OA
ENDBRANCH  71  75
ENDBRANCH  54  68
BRANCH  55  79
ATOM     79  C   UNL A   1      36.948  31.106  31.573  1.00  0.00     0.023 A 
ATOM     80  C   UNL A   1      36.484  31.242  30.249  1.00  0.00     0.031 A 
ATOM     81  C   UNL A   1      36.261  31.823  32.566  1.00  0.00     0.131 A 
ATOM     82  C   UNL A   1      35.412  32.087  29.942  1.00  0.00     0.055 A 
ATOM     83  C   UNL A   1      35.173  32.654  32.262  1.00  0.00     0.041 A 
ATOM     84  F   UNL A   1      36.671  31.779  33.843  1.00  0.00    -0.206 F 
ATOM     85  C   UNL A   1      34.750  32.798  30.941  1.00  0.00     0.022 A 
BRANCH  82  86
ATOM     86  S   UNL A   1      34.919  32.332  28.214  1.00  0.00     0.124 S 
ATOM     87  O   UNL A   1      33.658  33.056  28.349  1.00  0.00    -0.237 OA
ATOM     88  O   UNL A   1      36.038  33.109  27.693  1.00  0.00    -0.237 OA
ATOM     89  O   UNL A   1      34.795  30.972  27.696  1.00  0.00    -0.744 OA
ENDBRANCH  82  86
ENDBRANCH  55  79
BRANCH  67  90
ATOM     90  C   UNL A   1      42.781  29.605  33.737  1.00  0.00     0.023 A 
ATOM     91  C   UNL A   1      43.476  30.053  34.873  1.00  0.00     0.031 A 
ATOM     92  C   UNL A   1      42.424  28.243  33.693  1.00  0.00     0.131 A 
ATOM     93  C   UNL A   1      43.856  29.154  35.875  1.00  0.00     0.055 A 
ATOM     94  C   UNL A   1      42.738  27.361  34.733  1.00  0.00     0.041 A 
ATOM     95  F   UNL A   1      41.860  27.703  32.606  1.00  0.00    -0.206 F 
ATOM     96  C   UNL A   1      43.479  27.810  35.821  1.00  0.00     0.022 A 
BRANCH  93  97
ATOM     97  S   UNL A   1      45.011  29.677  37.168  1.00  0.00     0.124 S 
ATOM     98  O   UNL A   1      45.793  28.464  37.391  1.00  0.00    -0.237 OA
ATOM     99  O   UNL A   1      45.725  30.777  36.522  1.00  0.00    -0.237 OA
ATOM    100  O   UNL A   1      44.146  30.073  38.276  1.00  0.00    -0.744 OA
ENDBRANCH  93  97
ENDBRANCH  67  90
ENDBRANCH  41  42
ENDBRANCH  33  36
ENDBRANCH  31  32
ENDBRANCH   1  31
TORSDOF 16
ENDMDL
