MODEL 1
REMARK VINA RESULT:     -13.3      0.000      0.000
REMARK SMILES Cc1ccc(C(=O)NCCCNC(=O)c2ccc(-c3c4nc(c(-c5cc(S(=O)(=O)[O-])ccc5F)c5ccc([nH]5)c(-c5cc(S(=O)(=O)[O-])ccc5F)c5nc(c(-c6cc(S(=O)(=O)[O-])ccc6F)c6ccc3[nH]6)C=C5)C=C4)cc2)c(Oc2cccc(F)c2C(N)=O)c1
REMARK SMILES IDX 10 1 9 2 8 3 6 4 7 5 5 7 1 8 2 9 3 10 90 11 4 12 78 13 79 14
REMARK SMILES IDX 80 15 81 16 86 17 82 18 84 19 83 20 85 21 87 22 88 23 89 24
REMARK SMILES IDX 11 27 12 28 13 29 14 31 15 32 16 33 77 34 17 35 76 36 18 37
REMARK SMILES IDX 19 38 20 39 70 40 21 41 75 42 69 43 71 44 22 45 74 46 68 47
REMARK SMILES IDX 67 48 23 50 55 51 35 52 54 53 36 54 39 55 53 56 72 57 37 58
REMARK SMILES IDX 38 59 52 61 73 62 40 63 24 64 25 65 33 66 26 67 32 68 34 69
REMARK SMILES IDX 31 70 27 71 28 72 29 73 30 74 56 75 57 76 65 77 58 78 64 79
REMARK SMILES IDX 66 80 63 81 59 82 60 83 61 84 62 85 41 86 42 87 50 88 43 89
REMARK SMILES IDX 49 90 51 91 48 92 44 93 45 94 46 95 47 96
REMARK H PARENT 8 6 88 25 88 26 12 30 71 49 39 60
REMARK Flexibility Score: inf
ROOT
ATOM      1  C   UNL A   1      32.323  30.574  26.929  1.00  0.00     0.042 C 
ENDROOT
BRANCH   1   2
ATOM      2  C   UNL A   1      31.955  29.752  25.718  1.00  0.00     0.118 C 
BRANCH   2   3
ATOM      3  N   UNL A   1      32.923  29.719  24.654  1.00  0.00    -0.352 N 
ATOM      4  C   UNL A   1      33.351  28.686  23.854  1.00  0.00     0.255 C 
ATOM      5  O   UNL A   1      34.154  28.973  22.959  1.00  0.00    -0.269 OA
ATOM      6  H   UNL A   1      33.353  30.585  24.468  1.00  0.00     0.163 HD
BRANCH   4   7
ATOM      7  C   UNL A   1      33.035  27.227  24.058  1.00  0.00     0.082 A 
ATOM      8  C   UNL A   1      32.629  23.012  25.027  1.00  0.00     0.044 C 
ATOM      9  C   UNL A   1      32.792  24.460  24.684  1.00  0.00    -0.047 A 
ATOM     10  C   UNL A   1      33.847  25.206  25.202  1.00  0.00     0.004 A 
ATOM     11  C   UNL A   1      31.910  25.074  23.796  1.00  0.00     0.051 A 
ATOM     12  C   UNL A   1      33.966  26.564  24.889  1.00  0.00     0.018 A 
ATOM     13  C   UNL A   1      31.999  26.447  23.508  1.00  0.00     0.140 A 
BRANCH  13  14
ATOM     14  O   UNL A   1      31.138  26.944  22.570  1.00  0.00    -0.456 OA
BRANCH  14  15
ATOM     15  C   UNL A   1      29.893  27.459  22.906  1.00  0.00     0.143 A 
ATOM     16  C   UNL A   1      29.153  26.503  23.632  1.00  0.00     0.048 A 
ATOM     17  C   UNL A   1      29.261  28.660  22.521  1.00  0.00     0.117 A 
ATOM     18  C   UNL A   1      27.832  26.733  24.014  1.00  0.00     0.007 A 
ATOM     19  C   UNL A   1      27.928  28.869  22.917  1.00  0.00     0.139 A 
ATOM     20  C   UNL A   1      27.219  27.925  23.657  1.00  0.00     0.040 A 
ATOM     21  F   UNL A   1      27.268  29.981  22.551  1.00  0.00    -0.206 F 
BRANCH  17  22
ATOM     22  C   UNL A   1      29.832  29.783  21.739  1.00  0.00     0.255 C 
ATOM     23  N   UNL A   1      31.188  29.944  21.686  1.00  0.00    -0.365 N 
ATOM     24  O   UNL A   1      29.100  30.534  21.103  1.00  0.00    -0.269 OA
ATOM     25  H   UNL A   1      31.776  29.340  22.196  1.00  0.00     0.159 HD
ATOM     26  H   UNL A   1      31.577  30.663  21.138  1.00  0.00     0.159 HD
ENDBRANCH  17  22
ENDBRANCH  14  15
ENDBRANCH  13  14
ENDBRANCH   4   7
ENDBRANCH   2   3
ENDBRANCH   1   2
BRANCH   1  27
ATOM     27  C   UNL A   1      33.717  30.288  27.428  1.00  0.00     0.118 C 
BRANCH  27  28
ATOM     28  N   UNL A   1      34.233  31.262  28.410  1.00  0.00    -0.352 N 
ATOM     29  C   UNL A   1      35.450  31.237  29.084  1.00  0.00     0.251 C 
ATOM     30  H   UNL A   1      33.643  32.024  28.612  1.00  0.00     0.163 HD
ATOM     31  O   UNL A   1      35.824  32.103  29.811  1.00  0.00    -0.269 OA
BRANCH  29  32
ATOM     32  C   UNL A   1      36.341  30.079  28.764  1.00  0.00     0.039 A 
ATOM     33  C   UNL A   1      36.714  29.281  29.848  1.00  0.00     0.014 A 
ATOM     34  C   UNL A   1      37.121  30.158  27.614  1.00  0.00     0.014 A 
ATOM     35  C   UNL A   1      38.021  28.816  29.906  1.00  0.00     0.010 A 
ATOM     36  C   UNL A   1      38.450  29.787  27.727  1.00  0.00     0.010 A 
ATOM     37  C   UNL A   1      38.922  29.202  28.910  1.00  0.00    -0.014 A 
BRANCH  37  38
ATOM     38  C   UNL A   1      40.370  29.142  29.118  1.00  0.00     0.031 A 
ATOM     39  C   UNL A   1      41.134  28.017  28.536  1.00  0.00     0.074 A 
ATOM     40  C   UNL A   1      41.028  30.011  29.923  1.00  0.00     0.049 A 
ATOM     41  N   UNL A   1      42.076  27.387  29.157  1.00  0.00    -0.248 NA
ATOM     42  C   UNL A   1      40.859  27.490  27.206  1.00  0.00     0.031 C 
ATOM     43  C   UNL A   1      42.475  30.063  30.151  1.00  0.00     0.029 A 
ATOM     44  N   UNL A   1      40.551  30.936  30.835  1.00  0.00    -0.354 N 
ATOM     45  C   UNL A   1      42.694  26.567  28.243  1.00  0.00     0.074 A 
ATOM     46  C   UNL A   1      41.861  26.618  27.064  1.00  0.00     0.031 C 
ATOM     47  C   UNL A   1      42.711  30.702  31.309  1.00  0.00     0.029 A 
ATOM     48  C   UNL A   1      41.427  30.995  31.919  1.00  0.00     0.049 A 
ATOM     49  H   UNL A   1      39.728  31.466  30.735  1.00  0.00     0.167 HD
ATOM     50  C   UNL A   1      43.919  26.032  28.510  1.00  0.00     0.034 A 
ATOM     51  C   UNL A   1      41.078  30.708  33.207  1.00  0.00     0.034 A 
ATOM     52  C   UNL A   1      44.442  26.476  29.800  1.00  0.00     0.049 A 
ATOM     53  C   UNL A   1      41.864  29.545  33.794  1.00  0.00     0.074 A 
ATOM     54  C   UNL A   1      45.359  27.459  30.140  1.00  0.00     0.029 A 
ATOM     55  N   UNL A   1      43.821  26.094  30.984  1.00  0.00    -0.354 N 
ATOM     56  N   UNL A   1      42.630  28.747  33.101  1.00  0.00    -0.248 NA
ATOM     57  C   UNL A   1      41.789  29.157  35.200  1.00  0.00     0.031 C 
ATOM     58  C   UNL A   1      45.245  27.703  31.531  1.00  0.00     0.029 A 
ATOM     59  C   UNL A   1      44.281  26.853  32.045  1.00  0.00     0.049 A 
ATOM     60  H   UNL A   1      43.144  25.382  31.056  1.00  0.00     0.167 HD
ATOM     61  C   UNL A   1      43.064  27.717  33.900  1.00  0.00     0.074 A 
ATOM     62  C   UNL A   1      42.557  28.056  35.219  1.00  0.00     0.031 C 
ATOM     63  C   UNL A   1      43.766  26.655  33.395  1.00  0.00     0.034 A 
BRANCH  50  64
ATOM     64  C   UNL A   1      44.767  25.383  27.439  1.00  0.00     0.023 A 
ATOM     65  C   UNL A   1      44.394  24.131  26.912  1.00  0.00     0.031 A 
ATOM     66  C   UNL A   1      45.964  25.922  26.930  1.00  0.00     0.131 A 
ATOM     67  C   UNL A   1      45.243  23.421  26.044  1.00  0.00     0.055 A 
ATOM     68  C   UNL A   1      46.847  25.186  26.127  1.00  0.00     0.041 A 
ATOM     69  F   UNL A   1      46.309  27.199  27.159  1.00  0.00    -0.206 F 
ATOM     70  C   UNL A   1      46.495  23.917  25.695  1.00  0.00     0.022 A 
BRANCH  67  71
ATOM     71  S   UNL A   1      44.677  21.840  25.359  1.00  0.00     0.124 S 
ATOM     72  O   UNL A   1      45.870  21.006  25.470  1.00  0.00    -0.237 OA
ATOM     73  O   UNL A   1      43.568  21.503  26.245  1.00  0.00    -0.237 OA
ATOM     74  O   UNL A   1      44.289  22.184  23.991  1.00  0.00    -0.744 OA
ENDBRANCH  67  71
ENDBRANCH  50  64
BRANCH  51  75
ATOM     75  C   UNL A   1      39.659  31.006  33.538  1.00  0.00     0.023 A 
ATOM     76  C   UNL A   1      39.292  32.352  33.735  1.00  0.00     0.031 A 
ATOM     77  C   UNL A   1      38.641  30.073  33.302  1.00  0.00     0.131 A 
ATOM     78  C   UNL A   1      37.961  32.753  33.549  1.00  0.00     0.055 A 
ATOM     79  C   UNL A   1      37.310  30.474  33.147  1.00  0.00     0.041 A 
ATOM     80  F   UNL A   1      38.934  28.783  33.081  1.00  0.00    -0.206 F 
ATOM     81  C   UNL A   1      36.972  31.823  33.224  1.00  0.00     0.022 A 
BRANCH  78  82
ATOM     82  S   UNL A   1      37.566  34.524  33.489  1.00  0.00     0.124 S 
ATOM     83  O   UNL A   1      38.732  35.124  34.125  1.00  0.00    -0.237 OA
ATOM     84  O   UNL A   1      37.416  34.766  32.059  1.00  0.00    -0.237 OA
ATOM     85  O   UNL A   1      36.317  34.616  34.246  1.00  0.00    -0.744 OA
ENDBRANCH  78  82
ENDBRANCH  51  75
BRANCH  63  86
ATOM     86  C   UNL A   1      44.106  25.381  34.149  1.00  0.00     0.023 A 
ATOM     87  C   UNL A   1      45.414  24.903  34.317  1.00  0.00     0.031 A 
ATOM     88  C   UNL A   1      43.097  24.615  34.784  1.00  0.00     0.131 A 
ATOM     89  C   UNL A   1      45.674  23.684  34.972  1.00  0.00     0.055 A 
ATOM     90  C   UNL A   1      43.364  23.449  35.511  1.00  0.00     0.041 A 
ATOM     91  F   UNL A   1      41.804  24.967  34.733  1.00  0.00    -0.206 F 
ATOM     92  C   UNL A   1      44.658  22.961  35.589  1.00  0.00     0.022 A 
BRANCH  89  93
ATOM     93  S   UNL A   1      47.361  23.024  34.917  1.00  0.00     0.124 S 
ATOM     94  O   UNL A   1      47.672  22.878  36.337  1.00  0.00    -0.237 OA
ATOM     95  O   UNL A   1      47.186  21.779  34.177  1.00  0.00    -0.237 OA
ATOM     96  O   UNL A   1      48.118  24.062  34.221  1.00  0.00    -0.744 OA
ENDBRANCH  89  93
ENDBRANCH  63  86
ENDBRANCH  37  38
ENDBRANCH  29  32
ENDBRANCH  27  28
ENDBRANCH   1  27
TORSDOF 16
ENDMDL
MODEL 2
REMARK VINA RESULT:     -13.1      2.358      3.636
REMARK SMILES Cc1ccc(C(=O)NCCCNC(=O)c2ccc(-c3c4nc(c(-c5cc(S(=O)(=O)[O-])ccc5F)c5ccc([nH]5)c(-c5cc(S(=O)(=O)[O-])ccc5F)c5nc(c(-c6cc(S(=O)(=O)[O-])ccc6F)c6ccc3[nH]6)C=C5)C=C4)cc2)c(Oc2cccc(F)c2C(N)=O)c1
REMARK SMILES IDX 10 1 9 2 8 3 6 4 7 5 5 7 1 8 2 9 3 10 90 11 4 12 78 13 79 14
REMARK SMILES IDX 80 15 81 16 86 17 82 18 84 19 83 20 85 21 87 22 88 23 89 24
REMARK SMILES IDX 11 27 12 28 13 29 14 31 15 32 16 33 77 34 17 35 76 36 18 37
REMARK SMILES IDX 19 38 20 39 70 40 21 41 75 42 69 43 71 44 22 45 74 46 68 47
REMARK SMILES IDX 67 48 23 50 55 51 35 52 54 53 36 54 39 55 53 56 72 57 37 58
REMARK SMILES IDX 38 59 52 61 73 62 40 63 24 64 25 65 33 66 26 67 32 68 34 69
REMARK SMILES IDX 31 70 27 71 28 72 29 73 30 74 56 75 57 76 65 77 58 78 64 79
REMARK SMILES IDX 66 80 63 81 59 82 60 83 61 84 62 85 41 86 42 87 50 88 43 89
REMARK SMILES IDX 49 90 51 91 48 92 44 93 45 94 46 95 47 96
REMARK H PARENT 8 6 88 25 88 26 12 30 71 49 39 60
REMARK Flexibility Score: inf
ROOT
ATOM      1  C   UNL A   1      33.778  30.168  27.725  1.00  0.00     0.042 C 
ENDROOT
BRANCH   1   2
ATOM      2  C   UNL A   1      33.770  28.860  26.973  1.00  0.00     0.118 C 
BRANCH   2   3
ATOM      3  N   UNL A   1      34.203  28.912  25.602  1.00  0.00    -0.352 N 
ATOM      4  C   UNL A   1      33.535  28.635  24.433  1.00  0.00     0.255 C 
ATOM      5  O   UNL A   1      34.148  28.842  23.380  1.00  0.00    -0.269 OA
ATOM      6  H   UNL A   1      35.138  29.194  25.481  1.00  0.00     0.163 HD
BRANCH   4   7
ATOM      7  C   UNL A   1      32.183  27.978  24.327  1.00  0.00     0.082 A 
ATOM      8  C   UNL A   1      28.092  26.630  23.764  1.00  0.00     0.044 C 
ATOM      9  C   UNL A   1      29.492  27.114  23.972  1.00  0.00    -0.047 A 
ATOM     10  C   UNL A   1      29.865  28.409  23.624  1.00  0.00     0.004 A 
ATOM     11  C   UNL A   1      30.440  26.282  24.567  1.00  0.00     0.051 A 
ATOM     12  C   UNL A   1      31.186  28.831  23.804  1.00  0.00     0.018 A 
ATOM     13  C   UNL A   1      31.779  26.686  24.714  1.00  0.00     0.140 A 
BRANCH  13  14
ATOM     14  O   UNL A   1      32.618  25.832  25.375  1.00  0.00    -0.456 OA
BRANCH  14  15
ATOM     15  C   UNL A   1      32.795  24.513  24.980  1.00  0.00     0.143 A 
ATOM     16  C   UNL A   1      33.651  24.454  23.860  1.00  0.00     0.048 A 
ATOM     17  C   UNL A   1      32.166  23.329  25.419  1.00  0.00     0.117 A 
ATOM     18  C   UNL A   1      33.921  23.253  23.206  1.00  0.00     0.007 A 
ATOM     19  C   UNL A   1      32.455  22.130  24.744  1.00  0.00     0.139 A 
ATOM     20  C   UNL A   1      33.322  22.085  23.655  1.00  0.00     0.040 A 
ATOM     21  F   UNL A   1      31.859  20.979  25.101  1.00  0.00    -0.206 F 
BRANCH  17  22
ATOM     22  C   UNL A   1      31.217  23.164  26.546  1.00  0.00     0.255 C 
ATOM     23  N   UNL A   1      29.961  22.683  26.304  1.00  0.00    -0.365 N 
ATOM     24  O   UNL A   1      31.570  23.408  27.696  1.00  0.00    -0.269 OA
ATOM     25  H   UNL A   1      29.680  22.486  25.381  1.00  0.00     0.159 HD
ATOM     26  H   UNL A   1      29.339  22.533  27.052  1.00  0.00     0.159 HD
ENDBRANCH  17  22
ENDBRANCH  14  15
ENDBRANCH  13  14
ENDBRANCH   4   7
ENDBRANCH   2   3
ENDBRANCH   1   2
BRANCH   1  27
ATOM     27  C   UNL A   1      35.101  30.887  27.634  1.00  0.00     0.118 C 
BRANCH  27  28
ATOM     28  N   UNL A   1      35.579  31.464  28.905  1.00  0.00    -0.352 N 
ATOM     29  C   UNL A   1      36.445  30.895  29.833  1.00  0.00     0.251 C 
ATOM     30  H   UNL A   1      35.244  32.364  29.123  1.00  0.00     0.163 HD
ATOM     31  O   UNL A   1      36.841  31.457  30.806  1.00  0.00    -0.269 OA
BRANCH  29  32
ATOM     32  C   UNL A   1      36.954  29.531  29.488  1.00  0.00     0.039 A 
ATOM     33  C   UNL A   1      37.495  28.798  30.546  1.00  0.00     0.014 A 
ATOM     34  C   UNL A   1      37.329  29.292  28.168  1.00  0.00     0.014 A 
ATOM     35  C   UNL A   1      38.641  28.049  30.312  1.00  0.00     0.010 A 
ATOM     36  C   UNL A   1      38.530  28.635  27.963  1.00  0.00     0.010 A 
ATOM     37  C   UNL A   1      39.235  28.096  29.048  1.00  0.00    -0.014 A 
BRANCH  37  38
ATOM     38  C   UNL A   1      40.635  27.722  28.842  1.00  0.00     0.031 A 
ATOM     39  C   UNL A   1      40.953  26.364  28.350  1.00  0.00     0.074 A 
ATOM     40  C   UNL A   1      41.665  28.529  29.196  1.00  0.00     0.049 A 
ATOM     41  N   UNL A   1      41.919  25.639  28.806  1.00  0.00    -0.248 NA
ATOM     42  C   UNL A   1      40.165  25.702  27.318  1.00  0.00     0.031 C 
ATOM     43  C   UNL A   1      43.091  28.267  28.981  1.00  0.00     0.029 A 
ATOM     44  N   UNL A   1      41.688  29.683  29.960  1.00  0.00    -0.354 N 
ATOM     45  C   UNL A   1      42.045  24.551  27.975  1.00  0.00     0.074 A 
ATOM     46  C   UNL A   1      40.892  24.603  27.106  1.00  0.00     0.031 C 
ATOM     47  C   UNL A   1      43.805  29.015  29.838  1.00  0.00     0.029 A 
ATOM     48  C   UNL A   1      42.868  29.710  30.701  1.00  0.00     0.049 A 
ATOM     49  H   UNL A   1      40.986  30.372  29.976  1.00  0.00     0.167 HD
ATOM     50  C   UNL A   1      43.174  23.788  28.000  1.00  0.00     0.034 A 
ATOM     51  C   UNL A   1      42.920  29.738  32.065  1.00  0.00     0.034 A 
ATOM     52  C   UNL A   1      44.164  24.304  28.942  1.00  0.00     0.049 A 
ATOM     53  C   UNL A   1      43.636  28.536  32.661  1.00  0.00     0.074 A 
ATOM     54  C   UNL A   1      45.300  25.077  28.764  1.00  0.00     0.029 A 
ATOM     55  N   UNL A   1      43.911  24.289  30.310  1.00  0.00    -0.354 N 
ATOM     56  N   UNL A   1      43.976  27.471  31.988  1.00  0.00    -0.248 NA
ATOM     57  C   UNL A   1      43.963  28.421  34.081  1.00  0.00     0.031 C 
ATOM     58  C   UNL A   1      45.698  25.573  30.030  1.00  0.00     0.029 A 
ATOM     59  C   UNL A   1      44.823  25.081  30.984  1.00  0.00     0.049 A 
ATOM     60  H   UNL A   1      43.182  23.785  30.739  1.00  0.00     0.167 HD
ATOM     61  C   UNL A   1      44.461  26.516  32.850  1.00  0.00     0.074 A 
ATOM     62  C   UNL A   1      44.486  27.186  34.139  1.00  0.00     0.031 C 
ATOM     63  C   UNL A   1      44.757  25.246  32.432  1.00  0.00     0.034 A 
BRANCH  50  64
ATOM     64  C   UNL A   1      43.492  22.781  26.916  1.00  0.00     0.023 A 
ATOM     65  C   UNL A   1      42.923  21.494  26.968  1.00  0.00     0.031 A 
ATOM     66  C   UNL A   1      44.371  23.013  25.841  1.00  0.00     0.131 A 
ATOM     67  C   UNL A   1      43.325  20.481  26.078  1.00  0.00     0.055 A 
ATOM     68  C   UNL A   1      44.832  21.988  25.003  1.00  0.00     0.041 A 
ATOM     69  F   UNL A   1      44.790  24.250  25.535  1.00  0.00    -0.206 F 
ATOM     70  C   UNL A   1      44.321  20.706  25.133  1.00  0.00     0.022 A 
BRANCH  67  71
ATOM     71  S   UNL A   1      42.512  18.862  26.163  1.00  0.00     0.124 S 
ATOM     72  O   UNL A   1      41.151  19.173  25.739  1.00  0.00    -0.237 OA
ATOM     73  O   UNL A   1      43.313  18.069  25.237  1.00  0.00    -0.237 OA
ATOM     74  O   UNL A   1      42.650  18.488  27.571  1.00  0.00    -0.744 OA
ENDBRANCH  67  71
ENDBRANCH  50  64
BRANCH  51  75
ATOM     75  C   UNL A   1      41.766  30.423  32.708  1.00  0.00     0.023 A 
ATOM     76  C   UNL A   1      41.725  31.831  32.668  1.00  0.00     0.031 A 
ATOM     77  C   UNL A   1      40.583  29.736  33.008  1.00  0.00     0.131 A 
ATOM     78  C   UNL A   1      40.498  32.502  32.782  1.00  0.00     0.055 A 
ATOM     79  C   UNL A   1      39.367  30.413  33.150  1.00  0.00     0.041 A 
ATOM     80  F   UNL A   1      40.557  28.396  33.032  1.00  0.00    -0.206 F 
ATOM     81  C   UNL A   1      39.313  31.796  32.991  1.00  0.00     0.022 A 
BRANCH  78  82
ATOM     82  S   UNL A   1      40.419  34.277  32.410  1.00  0.00     0.124 S 
ATOM     83  O   UNL A   1      39.018  34.586  32.668  1.00  0.00    -0.237 OA
ATOM     84  O   UNL A   1      41.386  34.839  33.346  1.00  0.00    -0.237 OA
ATOM     85  O   UNL A   1      40.833  34.346  31.009  1.00  0.00    -0.744 OA
ENDBRANCH  78  82
ENDBRANCH  51  75
BRANCH  63  86
ATOM     86  C   UNL A   1      45.095  24.074  33.337  1.00  0.00     0.023 A 
ATOM     87  C   UNL A   1      46.367  23.861  33.889  1.00  0.00     0.031 A 
ATOM     88  C   UNL A   1      44.104  23.138  33.723  1.00  0.00     0.131 A 
ATOM     89  C   UNL A   1      46.648  22.726  34.673  1.00  0.00     0.055 A 
ATOM     90  C   UNL A   1      44.362  22.057  34.576  1.00  0.00     0.041 A 
ATOM     91  F   UNL A   1      42.836  23.233  33.296  1.00  0.00    -0.206 F 
ATOM     92  C   UNL A   1      45.648  21.830  35.038  1.00  0.00     0.022 A 
BRANCH  89  93
ATOM     93  S   UNL A   1      48.373  22.403  35.128  1.00  0.00     0.124 S 
ATOM     94  O   UNL A   1      48.399  22.828  36.525  1.00  0.00    -0.237 OA
ATOM     95  O   UNL A   1      48.493  20.967  34.901  1.00  0.00    -0.237 OA
ATOM     96  O   UNL A   1      49.137  23.246  34.211  1.00  0.00    -0.744 OA
ENDBRANCH  89  93
ENDBRANCH  63  86
ENDBRANCH  37  38
ENDBRANCH  29  32
ENDBRANCH  27  28
ENDBRANCH   1  27
TORSDOF 16
ENDMDL
MODEL 3
REMARK VINA RESULT:     -13.1      2.903      4.353
REMARK SMILES Cc1ccc(C(=O)NCCCNC(=O)c2ccc(-c3c4nc(c(-c5cc(S(=O)(=O)[O-])ccc5F)c5ccc([nH]5)c(-c5cc(S(=O)(=O)[O-])ccc5F)c5nc(c(-c6cc(S(=O)(=O)[O-])ccc6F)c6ccc3[nH]6)C=C5)C=C4)cc2)c(Oc2cccc(F)c2C(N)=O)c1
REMARK SMILES IDX 10 1 9 2 8 3 6 4 7 5 5 7 1 8 2 9 3 10 90 11 4 12 78 13 79 14
REMARK SMILES IDX 80 15 81 16 86 17 82 18 84 19 83 20 85 21 87 22 88 23 89 24
REMARK SMILES IDX 11 27 12 28 13 29 14 31 15 32 16 33 77 34 17 35 76 36 18 37
REMARK SMILES IDX 19 38 20 39 70 40 21 41 75 42 69 43 71 44 22 45 74 46 68 47
REMARK SMILES IDX 67 48 23 50 55 51 35 52 54 53 36 54 39 55 53 56 72 57 37 58
REMARK SMILES IDX 38 59 52 61 73 62 40 63 24 64 25 65 33 66 26 67 32 68 34 69
REMARK SMILES IDX 31 70 27 71 28 72 29 73 30 74 56 75 57 76 65 77 58 78 64 79
REMARK SMILES IDX 66 80 63 81 59 82 60 83 61 84 62 85 41 86 42 87 50 88 43 89
REMARK SMILES IDX 49 90 51 91 48 92 44 93 45 94 46 95 47 96
REMARK H PARENT 8 6 88 25 88 26 12 30 71 49 39 60
REMARK Flexibility Score: inf
ROOT
ATOM      1  C   UNL A   1      33.947  31.154  27.754  1.00  0.00     0.042 C 
ENDROOT
BRANCH   1   2
ATOM      2  C   UNL A   1      33.296  30.160  26.825  1.00  0.00     0.118 C 
BRANCH   2   3
ATOM      3  N   UNL A   1      32.367  29.241  27.427  1.00  0.00    -0.352 N 
ATOM      4  C   UNL A   1      31.836  28.061  26.965  1.00  0.00     0.255 C 
ATOM      5  O   UNL A   1      31.107  27.436  27.744  1.00  0.00    -0.269 OA
ATOM      6  H   UNL A   1      32.060  29.504  28.325  1.00  0.00     0.163 HD
BRANCH   4   7
ATOM      7  C   UNL A   1      31.953  27.535  25.558  1.00  0.00     0.082 A 
ATOM      8  C   UNL A   1      31.772  26.360  21.380  1.00  0.00     0.044 C 
ATOM      9  C   UNL A   1      31.811  26.755  22.822  1.00  0.00    -0.047 A 
ATOM     10  C   UNL A   1      30.834  27.584  23.367  1.00  0.00     0.004 A 
ATOM     11  C   UNL A   1      32.809  26.257  23.659  1.00  0.00     0.051 A 
ATOM     12  C   UNL A   1      30.905  27.961  24.712  1.00  0.00     0.018 A 
ATOM     13  C   UNL A   1      32.909  26.663  25.001  1.00  0.00     0.140 A 
BRANCH  13  14
ATOM     14  O   UNL A   1      33.873  26.064  25.763  1.00  0.00    -0.456 OA
BRANCH  14  15
ATOM     15  C   UNL A   1      33.997  24.684  25.850  1.00  0.00     0.143 A 
ATOM     16  C   UNL A   1      35.327  24.299  25.582  1.00  0.00     0.048 A 
ATOM     17  C   UNL A   1      33.017  23.681  26.011  1.00  0.00     0.117 A 
ATOM     18  C   UNL A   1      35.703  22.958  25.514  1.00  0.00     0.007 A 
ATOM     19  C   UNL A   1      33.421  22.336  25.938  1.00  0.00     0.139 A 
ATOM     20  C   UNL A   1      34.744  21.973  25.698  1.00  0.00     0.040 A 
ATOM     21  F   UNL A   1      32.523  21.342  26.053  1.00  0.00    -0.206 F 
BRANCH  17  22
ATOM     22  C   UNL A   1      31.568  23.855  26.270  1.00  0.00     0.255 C 
ATOM     23  N   UNL A   1      30.681  23.744  25.236  1.00  0.00    -0.365 N 
ATOM     24  O   UNL A   1      31.159  24.046  27.412  1.00  0.00    -0.269 OA
ATOM     25  H   UNL A   1      31.010  23.590  24.321  1.00  0.00     0.159 HD
ATOM     26  H   UNL A   1      29.714  23.819  25.407  1.00  0.00     0.159 HD
ENDBRANCH  17  22
ENDBRANCH  14  15
ENDBRANCH  13  14
ENDBRANCH   4   7
ENDBRANCH   2   3
ENDBRANCH   1   2
BRANCH   1  27
ATOM     27  C   UNL A   1      35.450  31.183  27.619  1.00  0.00     0.118 C 
BRANCH  27  28
ATOM     28  N   UNL A   1      36.165  31.710  28.797  1.00  0.00    -0.352 N 
ATOM     29  C   UNL A   1      37.059  31.041  29.628  1.00  0.00     0.251 C 
ATOM     30  H   UNL A   1      35.989  32.652  29.023  1.00  0.00     0.163 HD
ATOM     31  O   UNL A   1      37.652  31.559  30.521  1.00  0.00    -0.269 OA
BRANCH  29  32
ATOM     32  C   UNL A   1      37.324  29.613  29.271  1.00  0.00     0.039 A 
ATOM     33  C   UNL A   1      37.774  28.799  30.313  1.00  0.00     0.014 A 
ATOM     34  C   UNL A   1      37.609  29.318  27.940  1.00  0.00     0.014 A 
ATOM     35  C   UNL A   1      38.773  27.873  30.043  1.00  0.00     0.010 A 
ATOM     36  C   UNL A   1      38.678  28.473  27.697  1.00  0.00     0.010 A 
ATOM     37  C   UNL A   1      39.322  27.824  28.759  1.00  0.00    -0.014 A 
BRANCH  37  38
ATOM     38  C   UNL A   1      40.634  27.225  28.506  1.00  0.00     0.031 A 
ATOM     39  C   UNL A   1      40.730  25.766  28.288  1.00  0.00     0.074 A 
ATOM     40  C   UNL A   1      41.786  27.936  28.581  1.00  0.00     0.049 A 
ATOM     41  N   UNL A   1      41.653  25.019  28.796  1.00  0.00    -0.248 NA
ATOM     42  C   UNL A   1      39.751  25.027  27.501  1.00  0.00     0.031 C 
ATOM     43  C   UNL A   1      43.135  27.440  28.293  1.00  0.00     0.029 A 
ATOM     44  N   UNL A   1      42.035  29.204  29.074  1.00  0.00    -0.354 N 
ATOM     45  C   UNL A   1      41.550  23.780  28.209  1.00  0.00     0.074 A 
ATOM     46  C   UNL A   1      40.315  23.817  27.462  1.00  0.00     0.031 C 
ATOM     47  C   UNL A   1      44.030  28.239  28.899  1.00  0.00     0.029 A 
ATOM     48  C   UNL A   1      43.292  29.215  29.678  1.00  0.00     0.049 A 
ATOM     49  H   UNL A   1      41.425  29.973  29.009  1.00  0.00     0.167 HD
ATOM     50  C   UNL A   1      42.578  22.888  28.290  1.00  0.00     0.034 A 
ATOM     51  C   UNL A   1      43.511  29.507  30.993  1.00  0.00     0.034 A 
ATOM     52  C   UNL A   1      43.728  23.440  29.002  1.00  0.00     0.049 A 
ATOM     53  C   UNL A   1      44.150  28.361  31.762  1.00  0.00     0.074 A 
ATOM     54  C   UNL A   1      44.916  23.997  28.556  1.00  0.00     0.029 A 
ATOM     55  N   UNL A   1      43.643  23.734  30.359  1.00  0.00    -0.354 N 
ATOM     56  N   UNL A   1      44.280  27.146  31.303  1.00  0.00    -0.248 NA
ATOM     57  C   UNL A   1      44.631  28.489  33.136  1.00  0.00     0.031 C 
ATOM     58  C   UNL A   1      45.519  24.675  29.643  1.00  0.00     0.029 A 
ATOM     59  C   UNL A   1      44.716  24.511  30.759  1.00  0.00     0.049 A 
ATOM     60  H   UNL A   1      42.918  23.432  30.953  1.00  0.00     0.167 HD
ATOM     61  C   UNL A   1      44.752  26.326  32.300  1.00  0.00     0.074 A 
ATOM     62  C   UNL A   1      45.011  27.230  33.408  1.00  0.00     0.031 C 
ATOM     63  C   UNL A   1      44.845  24.969  32.137  1.00  0.00     0.034 A 
BRANCH  50  64
ATOM     64  C   UNL A   1      42.643  21.651  27.422  1.00  0.00     0.023 A 
ATOM     65  C   UNL A   1      43.718  21.479  26.528  1.00  0.00     0.031 A 
ATOM     66  C   UNL A   1      41.667  20.637  27.398  1.00  0.00     0.131 A 
ATOM     67  C   UNL A   1      43.725  20.433  25.587  1.00  0.00     0.055 A 
ATOM     68  C   UNL A   1      41.631  19.640  26.414  1.00  0.00     0.041 A 
ATOM     69  F   UNL A   1      40.727  20.549  28.353  1.00  0.00    -0.206 F 
ATOM     70  C   UNL A   1      42.658  19.546  25.487  1.00  0.00     0.022 A 
BRANCH  67  71
ATOM     71  S   UNL A   1      45.166  20.235  24.503  1.00  0.00     0.124 S 
ATOM     72  O   UNL A   1      45.318  18.785  24.446  1.00  0.00    -0.237 OA
ATOM     73  O   UNL A   1      44.717  20.888  23.278  1.00  0.00    -0.237 OA
ATOM     74  O   UNL A   1      46.228  20.939  25.221  1.00  0.00    -0.744 OA
ENDBRANCH  67  71
ENDBRANCH  50  64
BRANCH  51  75
ATOM     75  C   UNL A   1      42.532  30.461  31.581  1.00  0.00     0.023 A 
ATOM     76  C   UNL A   1      41.321  29.942  32.083  1.00  0.00     0.031 A 
ATOM     77  C   UNL A   1      42.913  31.749  31.976  1.00  0.00     0.131 A 
ATOM     78  C   UNL A   1      40.608  30.648  33.063  1.00  0.00     0.055 A 
ATOM     79  C   UNL A   1      42.180  32.462  32.931  1.00  0.00     0.041 A 
ATOM     80  F   UNL A   1      44.067  32.282  31.551  1.00  0.00    -0.206 F 
ATOM     81  C   UNL A   1      41.049  31.893  33.514  1.00  0.00     0.022 A 
BRANCH  78  82
ATOM     82  S   UNL A   1      39.237  29.829  33.927  1.00  0.00     0.124 S 
ATOM     83  O   UNL A   1      39.359  28.452  33.465  1.00  0.00    -0.237 OA
ATOM     84  O   UNL A   1      39.558  30.069  35.329  1.00  0.00    -0.237 OA
ATOM     85  O   UNL A   1      38.058  30.552  33.450  1.00  0.00    -0.744 OA
ENDBRANCH  78  82
ENDBRANCH  51  75
BRANCH  63  86
ATOM     86  C   UNL A   1      45.152  23.966  33.236  1.00  0.00     0.023 A 
ATOM     87  C   UNL A   1      46.401  23.863  33.867  1.00  0.00     0.031 A 
ATOM     88  C   UNL A   1      44.152  23.093  33.731  1.00  0.00     0.131 A 
ATOM     89  C   UNL A   1      46.656  22.877  34.838  1.00  0.00     0.055 A 
ATOM     90  C   UNL A   1      44.380  22.171  34.759  1.00  0.00     0.041 A 
ATOM     91  F   UNL A   1      42.903  23.100  33.243  1.00  0.00    -0.206 F 
ATOM     92  C   UNL A   1      45.647  22.040  35.305  1.00  0.00     0.022 A 
BRANCH  89  93
ATOM     93  S   UNL A   1      48.362  22.656  35.410  1.00  0.00     0.124 S 
ATOM     94  O   UNL A   1      49.127  23.100  34.248  1.00  0.00    -0.237 OA
ATOM     95  O   UNL A   1      48.417  23.533  36.576  1.00  0.00    -0.237 OA
ATOM     96  O   UNL A   1      48.449  21.227  35.699  1.00  0.00    -0.744 OA
ENDBRANCH  89  93
ENDBRANCH  63  86
ENDBRANCH  37  38
ENDBRANCH  29  32
ENDBRANCH  27  28
ENDBRANCH   1  27
TORSDOF 16
ENDMDL
