MODEL 1
REMARK VINA RESULT:     -12.4      0.000      0.000
REMARK SMILES O=C(NCCCNC(=O)c1cccnc1Nc1cccc(C(F)(F)F)c1)c1ccc(-c2c3nc(c(-c4cc(S(=O)(=O)[O-])ccc4F)c4ccc([nH]4)c(-c4cc(S(=O)(=O)[O-])ccc4F)c4nc(c(-c5cc(S(=O)(=O)[O-])ccc5F)c5ccc2[nH]5)C=C4)C=C3)cc1
REMARK SMILES IDX 5 1 4 2 3 3 1 4 2 5 27 7 28 8 89 9 29 10 88 11 30 12 31 13
REMARK SMILES IDX 32 14 82 15 33 16 87 17 81 18 83 19 34 20 86 21 80 22 79 23
REMARK SMILES IDX 35 25 67 26 47 27 66 28 48 29 51 30 65 31 84 32 49 33 50 34
REMARK SMILES IDX 64 36 85 37 52 38 36 39 37 40 45 41 38 42 44 43 46 44 43 45
REMARK SMILES IDX 39 46 40 47 41 48 42 49 68 50 69 51 77 52 70 53 76 54 78 55
REMARK SMILES IDX 75 56 71 57 72 58 73 59 74 60 53 61 54 62 62 63 55 64 61 65
REMARK SMILES IDX 63 66 60 67 56 68 57 69 58 70 59 71 6 72 7 73 8 74 9 76
REMARK SMILES IDX 10 77 11 78 15 79 12 80 14 81 13 82 16 83 17 85 18 86 26 87
REMARK SMILES IDX 19 88 21 89 20 90 22 91 23 92 24 93 25 94
REMARK H PARENT 3 6 83 24 51 35 7 75 16 84
REMARK Flexibility Score: inf
ROOT
ATOM      1  C   UNL A   1      37.954  19.978  25.010  1.00  0.00     0.042 C 
ENDROOT
BRANCH   1   2
ATOM      2  C   UNL A   1      39.102  20.381  25.922  1.00  0.00     0.118 C 
BRANCH   2   3
ATOM      3  N   UNL A   1      40.159  19.377  25.958  1.00  0.00    -0.352 N 
ATOM      4  O   UNL A   1      42.260  18.580  25.847  1.00  0.00    -0.269 OA
ATOM      5  C   UNL A   1      41.519  19.541  26.053  1.00  0.00     0.251 C 
ATOM      6  H   UNL A   1      39.852  18.443  25.907  1.00  0.00     0.163 HD
BRANCH   5   7
ATOM      7  C   UNL A   1      42.085  20.862  26.398  1.00  0.00     0.039 A 
ATOM      8  C   UNL A   1      42.298  21.820  25.403  1.00  0.00     0.014 A 
ATOM      9  C   UNL A   1      42.369  21.165  27.732  1.00  0.00     0.014 A 
ATOM     10  C   UNL A   1      42.917  23.022  25.717  1.00  0.00     0.010 A 
ATOM     11  C   UNL A   1      42.893  22.418  28.062  1.00  0.00     0.010 A 
ATOM     12  C   UNL A   1      43.179  23.353  27.054  1.00  0.00    -0.014 A 
BRANCH  12  13
ATOM     13  C   UNL A   1      43.613  24.735  27.377  1.00  0.00     0.031 A 
ATOM     14  C   UNL A   1      42.650  25.752  27.916  1.00  0.00     0.074 A 
ATOM     15  C   UNL A   1      44.909  25.050  27.173  1.00  0.00     0.049 A 
ATOM     16  N   UNL A   1      42.870  27.005  28.219  1.00  0.00    -0.248 NA
ATOM     17  C   UNL A   1      41.264  25.315  28.139  1.00  0.00     0.031 C 
ATOM     18  C   UNL A   1      45.923  24.128  26.646  1.00  0.00     0.029 A 
ATOM     19  N   UNL A   1      45.602  26.213  27.379  1.00  0.00    -0.354 N 
ATOM     20  C   UNL A   1      41.651  27.517  28.647  1.00  0.00     0.074 A 
ATOM     21  C   UNL A   1      40.689  26.438  28.554  1.00  0.00     0.031 C 
ATOM     22  C   UNL A   1      47.108  24.752  26.601  1.00  0.00     0.029 A 
ATOM     23  C   UNL A   1      46.924  26.139  27.006  1.00  0.00     0.049 A 
ATOM     24  H   UNL A   1      45.192  27.025  27.760  1.00  0.00     0.167 HD
ATOM     25  C   UNL A   1      41.372  28.773  29.073  1.00  0.00     0.034 A 
ATOM     26  C   UNL A   1      47.875  27.090  26.947  1.00  0.00     0.034 A 
ATOM     27  C   UNL A   1      42.356  29.825  29.166  1.00  0.00     0.049 A 
ATOM     28  C   UNL A   1      47.512  28.488  27.372  1.00  0.00     0.074 A 
ATOM     29  C   UNL A   1      42.196  31.108  29.662  1.00  0.00     0.029 A 
ATOM     30  N   UNL A   1      43.672  29.730  28.734  1.00  0.00    -0.354 N 
ATOM     31  N   UNL A   1      46.368  28.936  27.837  1.00  0.00    -0.248 NA
ATOM     32  C   UNL A   1      48.562  29.508  27.263  1.00  0.00     0.031 C 
ATOM     33  C   UNL A   1      43.386  31.812  29.450  1.00  0.00     0.029 A 
ATOM     34  C   UNL A   1      44.316  30.947  28.897  1.00  0.00     0.049 A 
ATOM     35  H   UNL A   1      44.088  28.916  28.366  1.00  0.00     0.167 HD
ATOM     36  C   UNL A   1      46.567  30.289  28.084  1.00  0.00     0.074 A 
ATOM     37  C   UNL A   1      47.948  30.574  27.751  1.00  0.00     0.031 C 
ATOM     38  C   UNL A   1      45.688  31.217  28.538  1.00  0.00     0.034 A 
BRANCH  25  39
ATOM     39  C   UNL A   1      39.943  29.110  29.421  1.00  0.00     0.023 A 
ATOM     40  C   UNL A   1      39.508  29.248  30.749  1.00  0.00     0.031 A 
ATOM     41  C   UNL A   1      39.014  29.352  28.392  1.00  0.00     0.131 A 
ATOM     42  C   UNL A   1      38.171  29.589  31.013  1.00  0.00     0.055 A 
ATOM     43  C   UNL A   1      37.703  29.750  28.660  1.00  0.00     0.041 A 
ATOM     44  F   UNL A   1      39.370  29.216  27.105  1.00  0.00    -0.206 F 
ATOM     45  C   UNL A   1      37.273  29.866  29.978  1.00  0.00     0.022 A 
BRANCH  42  46
ATOM     46  S   UNL A   1      37.593  29.588  32.732  1.00  0.00     0.124 S 
ATOM     47  O   UNL A   1      37.489  28.158  33.009  1.00  0.00    -0.237 OA
ATOM     48  O   UNL A   1      38.664  30.296  33.426  1.00  0.00    -0.237 OA
ATOM     49  O   UNL A   1      36.317  30.297  32.668  1.00  0.00    -0.744 OA
ENDBRANCH  42  46
ENDBRANCH  25  39
BRANCH  26  50
ATOM     50  C   UNL A   1      49.226  26.781  26.396  1.00  0.00     0.023 A 
ATOM     51  C   UNL A   1      49.627  27.267  25.144  1.00  0.00     0.031 A 
ATOM     52  C   UNL A   1      50.113  25.934  27.088  1.00  0.00     0.131 A 
ATOM     53  C   UNL A   1      50.850  26.855  24.594  1.00  0.00     0.055 A 
ATOM     54  C   UNL A   1      51.360  25.586  26.569  1.00  0.00     0.041 A 
ATOM     55  F   UNL A   1      49.781  25.436  28.290  1.00  0.00    -0.206 F 
ATOM     56  C   UNL A   1      51.727  26.032  25.304  1.00  0.00     0.022 A 
BRANCH  53  57
ATOM     57  S   UNL A   1      51.220  27.304  22.876  1.00  0.00     0.124 S 
ATOM     58  O   UNL A   1      52.489  26.618  22.657  1.00  0.00    -0.237 OA
ATOM     59  O   UNL A   1      50.066  26.760  22.168  1.00  0.00    -0.237 OA
ATOM     60  O   UNL A   1      51.298  28.763  22.916  1.00  0.00    -0.744 OA
ENDBRANCH  53  57
ENDBRANCH  26  50
BRANCH  38  61
ATOM     61  C   UNL A   1      46.212  32.619  28.711  1.00  0.00     0.023 A 
ATOM     62  C   UNL A   1      46.161  33.554  27.661  1.00  0.00     0.031 A 
ATOM     63  C   UNL A   1      46.781  33.021  29.931  1.00  0.00     0.131 A 
ATOM     64  C   UNL A   1      46.718  34.828  27.835  1.00  0.00     0.055 A 
ATOM     65  C   UNL A   1      47.276  34.312  30.117  1.00  0.00     0.041 A 
ATOM     66  F   UNL A   1      46.859  32.168  30.963  1.00  0.00    -0.206 F 
ATOM     67  C   UNL A   1      47.258  35.219  29.062  1.00  0.00     0.022 A 
BRANCH  64  68
ATOM     68  S   UNL A   1      46.804  35.941  26.406  1.00  0.00     0.124 S 
ATOM     69  O   UNL A   1      46.257  35.108  25.340  1.00  0.00    -0.237 OA
ATOM     70  O   UNL A   1      45.969  37.061  26.831  1.00  0.00    -0.237 OA
ATOM     71  O   UNL A   1      48.229  36.241  26.290  1.00  0.00    -0.744 OA
ENDBRANCH  64  68
ENDBRANCH  38  61
ENDBRANCH  12  13
ENDBRANCH   5   7
ENDBRANCH   2   3
ENDBRANCH   1   2
BRANCH   1  72
ATOM     72  C   UNL A   1      36.873  21.041  24.894  1.00  0.00     0.118 C 
BRANCH  72  73
ATOM     73  N   UNL A   1      36.066  21.136  26.104  1.00  0.00    -0.352 N 
ATOM     74  C   UNL A   1      34.820  21.686  26.272  1.00  0.00     0.255 C 
ATOM     75  H   UNL A   1      36.473  20.752  26.914  1.00  0.00     0.163 HD
ATOM     76  O   UNL A   1      34.408  21.937  27.402  1.00  0.00    -0.269 OA
BRANCH  74  77
ATOM     77  C   UNL A   1      33.979  21.989  25.100  1.00  0.00     0.082 A 
ATOM     78  C   UNL A   1      34.230  23.143  24.346  1.00  0.00     0.019 A 
ATOM     79  C   UNL A   1      32.960  21.116  24.705  1.00  0.00     0.143 A 
ATOM     80  C   UNL A   1      33.385  23.474  23.297  1.00  0.00     0.021 A 
ATOM     81  N   UNL A   1      32.147  21.445  23.667  1.00  0.00    -0.238 NA
ATOM     82  C   UNL A   1      32.354  22.606  23.010  1.00  0.00     0.113 A 
BRANCH  79  83
ATOM     83  N   UNL A   1      32.694  19.928  25.411  1.00  0.00    -0.340 N 
ATOM     84  H   UNL A   1      32.074  20.004  26.172  1.00  0.00     0.168 HD
BRANCH  83  85
ATOM     85  C   UNL A   1      33.208  18.646  25.157  1.00  0.00     0.040 A 
ATOM     86  C   UNL A   1      34.379  18.500  24.411  1.00  0.00     0.026 A 
ATOM     87  C   UNL A   1      32.561  17.494  25.623  1.00  0.00     0.039 A 
ATOM     88  C   UNL A   1      34.922  17.234  24.178  1.00  0.00     0.003 A 
ATOM     89  C   UNL A   1      33.078  16.213  25.378  1.00  0.00     0.058 A 
ATOM     90  C   UNL A   1      34.276  16.096  24.662  1.00  0.00     0.013 A 
BRANCH  89  91
ATOM     91  C   UNL A   1      32.365  14.988  25.883  1.00  0.00     0.416 C 
ATOM     92  F   UNL A   1      31.128  14.839  25.328  1.00  0.00    -0.166 F 
ATOM     93  F   UNL A   1      33.034  13.834  25.605  1.00  0.00    -0.166 F 
ATOM     94  F   UNL A   1      32.159  14.981  27.232  1.00  0.00    -0.166 F 
ENDBRANCH  89  91
ENDBRANCH  83  85
ENDBRANCH  79  83
ENDBRANCH  74  77
ENDBRANCH  72  73
ENDBRANCH   1  72
TORSDOF 16
ENDMDL
MODEL 2
REMARK VINA RESULT:     -12.3      6.629     11.316
REMARK SMILES O=C(NCCCNC(=O)c1cccnc1Nc1cccc(C(F)(F)F)c1)c1ccc(-c2c3nc(c(-c4cc(S(=O)(=O)[O-])ccc4F)c4ccc([nH]4)c(-c4cc(S(=O)(=O)[O-])ccc4F)c4nc(c(-c5cc(S(=O)(=O)[O-])ccc5F)c5ccc2[nH]5)C=C4)C=C3)cc1
REMARK SMILES IDX 5 1 4 2 3 3 1 4 2 5 27 7 28 8 89 9 29 10 88 11 30 12 31 13
REMARK SMILES IDX 32 14 82 15 33 16 87 17 81 18 83 19 34 20 86 21 80 22 79 23
REMARK SMILES IDX 35 25 67 26 47 27 66 28 48 29 51 30 65 31 84 32 49 33 50 34
REMARK SMILES IDX 64 36 85 37 52 38 36 39 37 40 45 41 38 42 44 43 46 44 43 45
REMARK SMILES IDX 39 46 40 47 41 48 42 49 68 50 69 51 77 52 70 53 76 54 78 55
REMARK SMILES IDX 75 56 71 57 72 58 73 59 74 60 53 61 54 62 62 63 55 64 61 65
REMARK SMILES IDX 63 66 60 67 56 68 57 69 58 70 59 71 6 72 7 73 8 74 9 76
REMARK SMILES IDX 10 77 11 78 15 79 12 80 14 81 13 82 16 83 17 85 18 86 26 87
REMARK SMILES IDX 19 88 21 89 20 90 22 91 23 92 24 93 25 94
REMARK H PARENT 3 6 83 24 51 35 7 75 16 84
REMARK Flexibility Score: inf
ROOT
ATOM      1  C   UNL A   1      31.781  28.912  26.339  1.00  0.00     0.042 C 
ENDROOT
BRANCH   1   2
ATOM      2  C   UNL A   1      32.817  29.889  25.806  1.00  0.00     0.118 C 
BRANCH   2   3
ATOM      3  N   UNL A   1      32.560  31.258  26.236  1.00  0.00    -0.352 N 
ATOM      4  O   UNL A   1      32.661  33.056  27.584  1.00  0.00    -0.269 OA
ATOM      5  C   UNL A   1      33.166  31.993  27.225  1.00  0.00     0.251 C 
ATOM      6  H   UNL A   1      31.847  31.725  25.745  1.00  0.00     0.163 HD
BRANCH   5   7
ATOM      7  C   UNL A   1      34.412  31.508  27.854  1.00  0.00     0.039 A 
ATOM      8  C   UNL A   1      35.502  32.368  28.016  1.00  0.00     0.014 A 
ATOM      9  C   UNL A   1      34.483  30.194  28.324  1.00  0.00     0.014 A 
ATOM     10  C   UNL A   1      36.701  31.882  28.519  1.00  0.00     0.010 A 
ATOM     11  C   UNL A   1      35.657  29.736  28.929  1.00  0.00     0.010 A 
ATOM     12  C   UNL A   1      36.778  30.576  29.023  1.00  0.00    -0.014 A 
BRANCH  12  13
ATOM     13  C   UNL A   1      37.993  30.169  29.772  1.00  0.00     0.031 A 
ATOM     14  C   UNL A   1      38.976  29.192  29.197  1.00  0.00     0.074 A 
ATOM     15  C   UNL A   1      38.189  30.709  30.992  1.00  0.00     0.049 A 
ATOM     16  N   UNL A   1      40.068  28.716  29.739  1.00  0.00    -0.248 NA
ATOM     17  C   UNL A   1      38.702  28.676  27.847  1.00  0.00     0.031 C 
ATOM     18  C   UNL A   1      37.285  31.667  31.641  1.00  0.00     0.029 A 
ATOM     19  N   UNL A   1      39.197  30.545  31.905  1.00  0.00    -0.354 N 
ATOM     20  C   UNL A   1      40.601  27.829  28.812  1.00  0.00     0.074 A 
ATOM     21  C   UNL A   1      39.706  27.824  27.673  1.00  0.00     0.031 C 
ATOM     22  C   UNL A   1      37.794  32.025  32.827  1.00  0.00     0.029 A 
ATOM     23  C   UNL A   1      39.009  31.259  33.066  1.00  0.00     0.049 A 
ATOM     24  H   UNL A   1      39.982  29.971  31.744  1.00  0.00     0.167 HD
ATOM     25  C   UNL A   1      41.734  27.091  28.914  1.00  0.00     0.034 A 
ATOM     26  C   UNL A   1      39.707  31.262  34.218  1.00  0.00     0.034 A 
ATOM     27  C   UNL A   1      42.614  27.126  30.057  1.00  0.00     0.049 A 
ATOM     28  C   UNL A   1      40.926  30.384  34.316  1.00  0.00     0.074 A 
ATOM     29  C   UNL A   1      43.828  26.481  30.227  1.00  0.00     0.029 A 
ATOM     30  N   UNL A   1      42.369  27.821  31.234  1.00  0.00    -0.354 N 
ATOM     31  N   UNL A   1      41.451  29.601  33.401  1.00  0.00    -0.248 NA
ATOM     32  C   UNL A   1      41.643  30.385  35.596  1.00  0.00     0.031 C 
ATOM     33  C   UNL A   1      44.270  26.715  31.532  1.00  0.00     0.029 A 
ATOM     34  C   UNL A   1      43.376  27.572  32.154  1.00  0.00     0.049 A 
ATOM     35  H   UNL A   1      41.592  28.406  31.393  1.00  0.00     0.167 HD
ATOM     36  C   UNL A   1      42.567  29.025  33.996  1.00  0.00     0.074 A 
ATOM     37  C   UNL A   1      42.658  29.577  35.332  1.00  0.00     0.031 C 
ATOM     38  C   UNL A   1      43.436  28.115  33.489  1.00  0.00     0.034 A 
BRANCH  25  39
ATOM     39  C   UNL A   1      42.070  26.138  27.793  1.00  0.00     0.023 A 
ATOM     40  C   UNL A   1      41.572  24.826  27.751  1.00  0.00     0.031 A 
ATOM     41  C   UNL A   1      42.864  26.579  26.718  1.00  0.00     0.131 A 
ATOM     42  C   UNL A   1      41.897  23.990  26.669  1.00  0.00     0.055 A 
ATOM     43  C   UNL A   1      43.133  25.765  25.617  1.00  0.00     0.041 A 
ATOM     44  F   UNL A   1      43.383  27.817  26.716  1.00  0.00    -0.206 F 
ATOM     45  C   UNL A   1      42.653  24.459  25.590  1.00  0.00     0.022 A 
BRANCH  42  46
ATOM     46  S   UNL A   1      41.388  22.251  26.725  1.00  0.00     0.124 S 
ATOM     47  O   UNL A   1      41.459  21.967  28.156  1.00  0.00    -0.237 OA
ATOM     48  O   UNL A   1      40.048  22.295  26.149  1.00  0.00    -0.237 OA
ATOM     49  O   UNL A   1      42.393  21.570  25.912  1.00  0.00    -0.744 OA
ENDBRANCH  42  46
ENDBRANCH  25  39
BRANCH  26  50
ATOM     50  C   UNL A   1      39.233  32.052  35.390  1.00  0.00     0.023 A 
ATOM     51  C   UNL A   1      39.628  33.384  35.575  1.00  0.00     0.031 A 
ATOM     52  C   UNL A   1      38.426  31.461  36.382  1.00  0.00     0.131 A 
ATOM     53  C   UNL A   1      39.271  34.061  36.752  1.00  0.00     0.055 A 
ATOM     54  C   UNL A   1      38.012  32.163  37.514  1.00  0.00     0.041 A 
ATOM     55  F   UNL A   1      38.018  30.188  36.259  1.00  0.00    -0.206 F 
ATOM     56  C   UNL A   1      38.452  33.466  37.714  1.00  0.00     0.022 A 
BRANCH  53  57
ATOM     57  S   UNL A   1      40.006  35.689  37.067  1.00  0.00     0.124 S 
ATOM     58  O   UNL A   1      39.321  36.090  38.292  1.00  0.00    -0.237 OA
ATOM     59  O   UNL A   1      41.420  35.360  37.202  1.00  0.00    -0.237 OA
ATOM     60  O   UNL A   1      39.653  36.457  35.875  1.00  0.00    -0.744 OA
ENDBRANCH  53  57
ENDBRANCH  26  50
BRANCH  38  61
ATOM     61  C   UNL A   1      44.565  27.682  34.389  1.00  0.00     0.023 A 
ATOM     62  C   UNL A   1      44.446  26.554  35.220  1.00  0.00     0.031 A 
ATOM     63  C   UNL A   1      45.765  28.412  34.429  1.00  0.00     0.131 A 
ATOM     64  C   UNL A   1      45.489  26.218  36.094  1.00  0.00     0.055 A 
ATOM     65  C   UNL A   1      46.824  28.035  35.255  1.00  0.00     0.041 A 
ATOM     66  F   UNL A   1      45.929  29.500  33.661  1.00  0.00    -0.206 F 
ATOM     67  C   UNL A   1      46.685  26.940  36.103  1.00  0.00     0.022 A 
BRANCH  64  68
ATOM     68  S   UNL A   1      45.230  24.872  37.281  1.00  0.00     0.124 S 
ATOM     69  O   UNL A   1      46.542  24.767  37.910  1.00  0.00    -0.237 OA
ATOM     70  O   UNL A   1      44.161  25.400  38.124  1.00  0.00    -0.237 OA
ATOM     71  O   UNL A   1      44.852  23.740  36.438  1.00  0.00    -0.744 OA
ENDBRANCH  64  68
ENDBRANCH  38  61
ENDBRANCH  12  13
ENDBRANCH   5   7
ENDBRANCH   2   3
ENDBRANCH   1   2
BRANCH   1  72
ATOM     72  C   UNL A   1      32.305  27.492  26.480  1.00  0.00     0.118 C 
BRANCH  72  73
ATOM     73  N   UNL A   1      31.258  26.560  26.878  1.00  0.00    -0.352 N 
ATOM     74  C   UNL A   1      30.878  25.381  26.287  1.00  0.00     0.255 C 
ATOM     75  H   UNL A   1      30.753  26.811  27.685  1.00  0.00     0.163 HD
ATOM     76  O   UNL A   1      29.801  24.866  26.581  1.00  0.00    -0.269 OA
BRANCH  74  77
ATOM     77  C   UNL A   1      31.751  24.736  25.289  1.00  0.00     0.082 A 
ATOM     78  C   UNL A   1      32.847  23.975  25.715  1.00  0.00     0.019 A 
ATOM     79  C   UNL A   1      31.472  24.838  23.922  1.00  0.00     0.143 A 
ATOM     80  C   UNL A   1      33.718  23.442  24.777  1.00  0.00     0.021 A 
ATOM     81  N   UNL A   1      32.326  24.299  23.012  1.00  0.00    -0.238 NA
ATOM     82  C   UNL A   1      33.425  23.645  23.446  1.00  0.00     0.113 A 
BRANCH  79  83
ATOM     83  N   UNL A   1      30.362  25.563  23.448  1.00  0.00    -0.340 N 
ATOM     84  H   UNL A   1      29.540  25.045  23.293  1.00  0.00     0.168 HD
BRANCH  83  85
ATOM     85  C   UNL A   1      30.291  26.937  23.171  1.00  0.00     0.040 A 
ATOM     86  C   UNL A   1      31.448  27.641  22.831  1.00  0.00     0.026 A 
ATOM     87  C   UNL A   1      29.079  27.635  23.243  1.00  0.00     0.039 A 
ATOM     88  C   UNL A   1      31.389  29.002  22.519  1.00  0.00     0.003 A 
ATOM     89  C   UNL A   1      29.003  29.007  22.959  1.00  0.00     0.058 A 
ATOM     90  C   UNL A   1      30.171  29.681  22.580  1.00  0.00     0.013 A 
BRANCH  89  91
ATOM     91  C   UNL A   1      27.692  29.738  23.048  1.00  0.00     0.416 C 
ATOM     92  F   UNL A   1      27.278  30.215  21.839  1.00  0.00    -0.166 F 
ATOM     93  F   UNL A   1      26.676  28.951  23.500  1.00  0.00    -0.166 F 
ATOM     94  F   UNL A   1      27.715  30.824  23.876  1.00  0.00    -0.166 F 
ENDBRANCH  89  91
ENDBRANCH  83  85
ENDBRANCH  79  83
ENDBRANCH  74  77
ENDBRANCH  72  73
ENDBRANCH   1  72
TORSDOF 16
ENDMDL
MODEL 3
REMARK VINA RESULT:     -12.3      6.696     11.095
REMARK SMILES O=C(NCCCNC(=O)c1cccnc1Nc1cccc(C(F)(F)F)c1)c1ccc(-c2c3nc(c(-c4cc(S(=O)(=O)[O-])ccc4F)c4ccc([nH]4)c(-c4cc(S(=O)(=O)[O-])ccc4F)c4nc(c(-c5cc(S(=O)(=O)[O-])ccc5F)c5ccc2[nH]5)C=C4)C=C3)cc1
REMARK SMILES IDX 5 1 4 2 3 3 1 4 2 5 27 7 28 8 89 9 29 10 88 11 30 12 31 13
REMARK SMILES IDX 32 14 82 15 33 16 87 17 81 18 83 19 34 20 86 21 80 22 79 23
REMARK SMILES IDX 35 25 67 26 47 27 66 28 48 29 51 30 65 31 84 32 49 33 50 34
REMARK SMILES IDX 64 36 85 37 52 38 36 39 37 40 45 41 38 42 44 43 46 44 43 45
REMARK SMILES IDX 39 46 40 47 41 48 42 49 68 50 69 51 77 52 70 53 76 54 78 55
REMARK SMILES IDX 75 56 71 57 72 58 73 59 74 60 53 61 54 62 62 63 55 64 61 65
REMARK SMILES IDX 63 66 60 67 56 68 57 69 58 70 59 71 6 72 7 73 8 74 9 76
REMARK SMILES IDX 10 77 11 78 15 79 12 80 14 81 13 82 16 83 17 85 18 86 26 87
REMARK SMILES IDX 19 88 21 89 20 90 22 91 23 92 24 93 25 94
REMARK H PARENT 3 6 83 24 51 35 7 75 16 84
REMARK Flexibility Score: inf
ROOT
ATOM      1  C   UNL A   1      32.142  28.820  26.595  1.00  0.00     0.042 C 
ENDROOT
BRANCH   1   2
ATOM      2  C   UNL A   1      33.254  29.730  26.101  1.00  0.00     0.118 C 
BRANCH   2   3
ATOM      3  N   UNL A   1      33.086  31.107  26.552  1.00  0.00    -0.352 N 
ATOM      4  O   UNL A   1      33.351  32.889  27.898  1.00  0.00    -0.269 OA
ATOM      5  C   UNL A   1      33.785  31.808  27.503  1.00  0.00     0.251 C 
ATOM      6  H   UNL A   1      32.364  31.608  26.109  1.00  0.00     0.163 HD
BRANCH   5   7
ATOM      7  C   UNL A   1      35.046  31.264  28.048  1.00  0.00     0.039 A 
ATOM      8  C   UNL A   1      36.207  32.042  28.052  1.00  0.00     0.014 A 
ATOM      9  C   UNL A   1      35.065  29.979  28.599  1.00  0.00     0.014 A 
ATOM     10  C   UNL A   1      37.409  31.495  28.477  1.00  0.00     0.010 A 
ATOM     11  C   UNL A   1      36.254  29.467  29.125  1.00  0.00     0.010 A 
ATOM     12  C   UNL A   1      37.438  30.220  29.060  1.00  0.00    -0.014 A 
BRANCH  12  13
ATOM     13  C   UNL A   1      38.685  29.764  29.722  1.00  0.00     0.031 A 
ATOM     14  C   UNL A   1      39.542  28.688  29.122  1.00  0.00     0.074 A 
ATOM     15  C   UNL A   1      39.029  30.351  30.887  1.00  0.00     0.049 A 
ATOM     16  N   UNL A   1      40.643  28.162  29.593  1.00  0.00    -0.248 NA
ATOM     17  C   UNL A   1      39.111  28.124  27.834  1.00  0.00     0.031 C 
ATOM     18  C   UNL A   1      38.256  31.406  31.555  1.00  0.00     0.029 A 
ATOM     19  N   UNL A   1      40.103  30.161  31.716  1.00  0.00    -0.354 N 
ATOM     20  C   UNL A   1      41.027  27.191  28.677  1.00  0.00     0.074 A 
ATOM     21  C   UNL A   1      40.033  27.192  27.623  1.00  0.00     0.031 C 
ATOM     22  C   UNL A   1      38.895  31.787  32.669  1.00  0.00     0.029 A 
ATOM     23  C   UNL A   1      40.071  30.947  32.846  1.00  0.00     0.049 A 
ATOM     24  H   UNL A   1      40.828  29.523  31.521  1.00  0.00     0.167 HD
ATOM     25  C   UNL A   1      42.111  26.377  28.722  1.00  0.00     0.034 A 
ATOM     26  C   UNL A   1      40.870  30.959  33.930  1.00  0.00     0.034 A 
ATOM     27  C   UNL A   1      43.093  26.407  29.781  1.00  0.00     0.049 A 
ATOM     28  C   UNL A   1      42.029  29.999  33.972  1.00  0.00     0.074 A 
ATOM     29  C   UNL A   1      44.269  25.684  29.881  1.00  0.00     0.029 A 
ATOM     30  N   UNL A   1      43.004  27.179  30.932  1.00  0.00    -0.354 N 
ATOM     31  N   UNL A   1      42.414  29.133  33.062  1.00  0.00    -0.248 NA
ATOM     32  C   UNL A   1      42.859  30.015  35.182  1.00  0.00     0.031 C 
ATOM     33  C   UNL A   1      44.844  25.952  31.127  1.00  0.00     0.029 A 
ATOM     34  C   UNL A   1      44.072  26.904  31.773  1.00  0.00     0.049 A 
ATOM     35  H   UNL A   1      42.287  27.827  31.123  1.00  0.00     0.167 HD
ATOM     36  C   UNL A   1      43.537  28.508  33.590  1.00  0.00     0.074 A 
ATOM     37  C   UNL A   1      43.788  29.121  34.878  1.00  0.00     0.031 C 
ATOM     38  C   UNL A   1      44.292  27.511  33.063  1.00  0.00     0.034 A 
BRANCH  25  39
ATOM     39  C   UNL A   1      42.277  25.345  27.635  1.00  0.00     0.023 A 
ATOM     40  C   UNL A   1      41.574  24.129  27.642  1.00  0.00     0.031 A 
ATOM     41  C   UNL A   1      43.118  25.615  26.540  1.00  0.00     0.131 A 
ATOM     42  C   UNL A   1      41.748  23.216  26.589  1.00  0.00     0.055 A 
ATOM     43  C   UNL A   1      43.241  24.731  25.467  1.00  0.00     0.041 A 
ATOM     44  F   UNL A   1      43.829  26.753  26.490  1.00  0.00    -0.206 F 
ATOM     45  C   UNL A   1      42.557  23.519  25.490  1.00  0.00     0.022 A 
BRANCH  42  46
ATOM     46  S   UNL A   1      40.967  21.583  26.711  1.00  0.00     0.124 S 
ATOM     47  O   UNL A   1      39.733  21.788  25.957  1.00  0.00    -0.237 OA
ATOM     48  O   UNL A   1      41.958  20.712  26.088  1.00  0.00    -0.237 OA
ATOM     49  O   UNL A   1      40.786  21.393  28.148  1.00  0.00    -0.744 OA
ENDBRANCH  42  46
ENDBRANCH  25  39
BRANCH  26  50
ATOM     50  C   UNL A   1      40.560  31.842  35.091  1.00  0.00     0.023 A 
ATOM     51  C   UNL A   1      39.563  31.502  36.015  1.00  0.00     0.031 A 
ATOM     52  C   UNL A   1      41.217  33.077  35.255  1.00  0.00     0.131 A 
ATOM     53  C   UNL A   1      39.205  32.411  37.022  1.00  0.00     0.055 A 
ATOM     54  C   UNL A   1      40.908  33.945  36.303  1.00  0.00     0.041 A 
ATOM     55  F   UNL A   1      42.179  33.456  34.399  1.00  0.00    -0.206 F 
ATOM     56  C   UNL A   1      39.882  33.622  37.183  1.00  0.00     0.022 A 
BRANCH  53  57
ATOM     57  S   UNL A   1      37.749  32.044  38.039  1.00  0.00     0.124 S 
ATOM     58  O   UNL A   1      38.273  32.236  39.387  1.00  0.00    -0.237 OA
ATOM     59  O   UNL A   1      36.796  33.045  37.573  1.00  0.00    -0.237 OA
ATOM     60  O   UNL A   1      37.427  30.663  37.685  1.00  0.00    -0.744 OA
ENDBRANCH  53  57
ENDBRANCH  26  50
BRANCH  38  61
ATOM     61  C   UNL A   1      45.465  27.044  33.885  1.00  0.00     0.023 A 
ATOM     62  C   UNL A   1      45.350  25.961  34.775  1.00  0.00     0.031 A 
ATOM     63  C   UNL A   1      46.706  27.695  33.789  1.00  0.00     0.131 A 
ATOM     64  C   UNL A   1      46.442  25.595  35.573  1.00  0.00     0.055 A 
ATOM     65  C   UNL A   1      47.808  27.285  34.541  1.00  0.00     0.041 A 
ATOM     66  F   UNL A   1      46.870  28.737  32.960  1.00  0.00    -0.206 F 
ATOM     67  C   UNL A   1      47.676  26.238  35.448  1.00  0.00     0.022 A 
BRANCH  64  68
ATOM     68  S   UNL A   1      46.205  24.320  36.841  1.00  0.00     0.124 S 
ATOM     69  O   UNL A   1      45.001  23.644  36.367  1.00  0.00    -0.237 OA
ATOM     70  O   UNL A   1      47.443  23.553  36.749  1.00  0.00    -0.237 OA
ATOM     71  O   UNL A   1      46.042  25.087  38.073  1.00  0.00    -0.744 OA
ENDBRANCH  64  68
ENDBRANCH  38  61
ENDBRANCH  12  13
ENDBRANCH   5   7
ENDBRANCH   2   3
ENDBRANCH   1   2
BRANCH   1  72
ATOM     72  C   UNL A   1      32.587  27.383  26.810  1.00  0.00     0.118 C 
BRANCH  72  73
ATOM     73  N   UNL A   1      31.460  26.491  27.051  1.00  0.00    -0.352 N 
ATOM     74  C   UNL A   1      31.089  25.360  26.367  1.00  0.00     0.255 C 
ATOM     75  H   UNL A   1      30.883  26.734  27.811  1.00  0.00     0.163 HD
ATOM     76  O   UNL A   1      29.964  24.891  26.522  1.00  0.00    -0.269 OA
BRANCH  74  77
ATOM     77  C   UNL A   1      32.032  24.713  25.437  1.00  0.00     0.082 A 
ATOM     78  C   UNL A   1      33.130  24.005  25.944  1.00  0.00     0.019 A 
ATOM     79  C   UNL A   1      31.820  24.759  24.056  1.00  0.00     0.143 A 
ATOM     80  C   UNL A   1      34.065  23.471  25.069  1.00  0.00     0.021 A 
ATOM     81  N   UNL A   1      32.736  24.220  23.208  1.00  0.00    -0.238 NA
ATOM     82  C   UNL A   1      33.832  23.619  23.719  1.00  0.00     0.113 A 
BRANCH  79  83
ATOM     83  N   UNL A   1      30.712  25.428  23.502  1.00  0.00    -0.340 N 
ATOM     84  H   UNL A   1      29.940  24.865  23.263  1.00  0.00     0.168 HD
BRANCH  83  85
ATOM     85  C   UNL A   1      30.577  26.803  23.253  1.00  0.00     0.040 A 
ATOM     86  C   UNL A   1      31.714  27.589  23.053  1.00  0.00     0.026 A 
ATOM     87  C   UNL A   1      29.320  27.419  23.214  1.00  0.00     0.039 A 
ATOM     88  C   UNL A   1      31.597  28.952  22.770  1.00  0.00     0.003 A 
ATOM     89  C   UNL A   1      29.184  28.791  22.956  1.00  0.00     0.058 A 
ATOM     90  C   UNL A   1      30.337  29.550  22.719  1.00  0.00     0.013 A 
BRANCH  89  91
ATOM     91  C   UNL A   1      27.824  29.435  22.924  1.00  0.00     0.416 C 
ATOM     92  F   UNL A   1      27.722  30.481  23.793  1.00  0.00    -0.166 F 
ATOM     93  F   UNL A   1      27.507  29.942  21.700  1.00  0.00    -0.166 F 
ATOM     94  F   UNL A   1      26.801  28.592  23.251  1.00  0.00    -0.166 F 
ENDBRANCH  89  91
ENDBRANCH  83  85
ENDBRANCH  79  83
ENDBRANCH  74  77
ENDBRANCH  72  73
ENDBRANCH   1  72
TORSDOF 16
ENDMDL
