MODEL 1
REMARK VINA RESULT:     -12.2      0.000      0.000
REMARK SMILES O=C(NCCCNC(=O)[C@@H]1CCCCN1c1ccccc1[N+](=O)[O-])c1ccc(-c2c3nc(c(-c4cc(S(=O)(=O)[O-])ccc4F)c4ccc([nH]4)c(-c4cc(S(=O)(=O)[O-])ccc4F)c4nc(c(-c5cc(S(=O)(=O)[O-])ccc5F)c5ccc2[nH]5)C=C4)C=C3)cc1
REMARK SMILES IDX 4 1 3 2 1 3 2 4 25 6 26 7 87 8 27 9 86 10 28 11 29 12 30 13
REMARK SMILES IDX 80 14 31 15 85 16 79 17 81 18 32 19 84 20 78 21 77 22 33 24
REMARK SMILES IDX 65 25 45 26 64 27 46 28 49 29 63 30 82 31 47 32 48 33 62 35
REMARK SMILES IDX 83 36 50 37 34 38 35 39 43 40 36 41 42 42 44 43 41 44 37 45
REMARK SMILES IDX 38 46 39 47 40 48 66 49 67 50 75 51 68 52 74 53 76 54 73 55
REMARK SMILES IDX 69 56 70 57 71 58 72 59 51 60 52 61 60 62 53 63 59 64 61 65
REMARK SMILES IDX 58 66 54 67 55 68 56 69 57 70 5 71 6 72 7 73 8 74 9 76 10 77
REMARK SMILES IDX 11 78 15 79 12 80 14 81 13 82 16 83 17 84 21 85 18 86 20 87
REMARK SMILES IDX 19 88 22 89 23 90 24 91
REMARK H PARENT 3 5 81 23 49 34 7 75
REMARK Flexibility Score: inf
ROOT
ATOM      1  C   UNL A   1      32.221  30.130  26.214  1.00  0.00     0.118 C 
ENDROOT
BRANCH   1   2
ATOM      2  N   UNL A   1      32.111  31.514  26.668  1.00  0.00    -0.352 N 
ATOM      3  O   UNL A   1      32.529  33.495  27.622  1.00  0.00    -0.269 OA
ATOM      4  C   UNL A   1      32.943  32.363  27.363  1.00  0.00     0.251 C 
ATOM      5  H   UNL A   1      31.254  31.932  26.424  1.00  0.00     0.163 HD
BRANCH   4   6
ATOM      6  C   UNL A   1      34.277  31.949  27.863  1.00  0.00     0.039 A 
ATOM      7  C   UNL A   1      34.570  30.634  28.196  1.00  0.00     0.014 A 
ATOM      8  C   UNL A   1      35.288  32.912  28.000  1.00  0.00     0.014 A 
ATOM      9  C   UNL A   1      35.729  30.331  28.896  1.00  0.00     0.010 A 
ATOM     10  C   UNL A   1      36.531  32.569  28.559  1.00  0.00     0.010 A 
ATOM     11  C   UNL A   1      36.740  31.287  29.078  1.00  0.00    -0.014 A 
BRANCH  11  12
ATOM     12  C   UNL A   1      37.975  30.874  29.808  1.00  0.00     0.031 A 
ATOM     13  C   UNL A   1      38.185  31.239  31.257  1.00  0.00     0.074 A 
ATOM     14  C   UNL A   1      38.857  30.062  29.185  1.00  0.00     0.049 A 
ATOM     15  N   UNL A   1      39.141  30.865  32.071  1.00  0.00    -0.248 NA
ATOM     16  C   UNL A   1      37.212  32.156  31.868  1.00  0.00     0.031 C 
ATOM     17  C   UNL A   1      38.775  29.655  27.779  1.00  0.00     0.029 A 
ATOM     18  N   UNL A   1      39.949  29.378  29.658  1.00  0.00    -0.354 N 
ATOM     19  C   UNL A   1      38.910  31.531  33.271  1.00  0.00     0.074 A 
ATOM     20  C   UNL A   1      37.736  32.353  33.069  1.00  0.00     0.031 C 
ATOM     21  C   UNL A   1      39.689  28.705  27.539  1.00  0.00     0.029 A 
ATOM     22  C   UNL A   1      40.490  28.505  28.740  1.00  0.00     0.049 A 
ATOM     23  H   UNL A   1      40.311  29.499  30.565  1.00  0.00     0.167 HD
ATOM     24  C   UNL A   1      39.608  31.458  34.432  1.00  0.00     0.034 A 
ATOM     25  C   UNL A   1      41.517  27.639  28.844  1.00  0.00     0.034 A 
ATOM     26  C   UNL A   1      40.753  30.601  34.629  1.00  0.00     0.049 A 
ATOM     27  C   UNL A   1      42.258  27.560  30.151  1.00  0.00     0.074 A 
ATOM     28  C   UNL A   1      41.512  30.424  35.775  1.00  0.00     0.029 A 
ATOM     29  N   UNL A   1      41.307  29.775  33.659  1.00  0.00    -0.354 N 
ATOM     30  N   UNL A   1      42.023  28.202  31.271  1.00  0.00    -0.248 NA
ATOM     31  C   UNL A   1      43.406  26.648  30.203  1.00  0.00     0.031 C 
ATOM     32  C   UNL A   1      42.555  29.539  35.480  1.00  0.00     0.029 A 
ATOM     33  C   UNL A   1      42.410  29.106  34.172  1.00  0.00     0.049 A 
ATOM     34  H   UNL A   1      40.965  29.677  32.741  1.00  0.00     0.167 HD
ATOM     35  C   UNL A   1      42.992  27.764  32.166  1.00  0.00     0.074 A 
ATOM     36  C   UNL A   1      43.791  26.780  31.462  1.00  0.00     0.031 C 
ATOM     37  C   UNL A   1      43.209  28.146  33.451  1.00  0.00     0.034 A 
BRANCH  24  38
ATOM     38  C   UNL A   1      39.184  32.373  35.560  1.00  0.00     0.023 A 
ATOM     39  C   UNL A   1      39.643  33.698  35.665  1.00  0.00     0.031 A 
ATOM     40  C   UNL A   1      38.322  31.895  36.565  1.00  0.00     0.131 A 
ATOM     41  C   UNL A   1      39.295  34.472  36.784  1.00  0.00     0.055 A 
ATOM     42  C   UNL A   1      37.919  32.696  37.635  1.00  0.00     0.041 A 
ATOM     43  F   UNL A   1      37.867  30.633  36.530  1.00  0.00    -0.206 F 
ATOM     44  C   UNL A   1      38.418  33.989  37.757  1.00  0.00     0.022 A 
BRANCH  41  45
ATOM     45  S   UNL A   1      40.118  36.072  37.023  1.00  0.00     0.124 S 
ATOM     46  O   UNL A   1      39.331  36.645  38.113  1.00  0.00    -0.237 OA
ATOM     47  O   UNL A   1      41.481  35.677  37.356  1.00  0.00    -0.237 OA
ATOM     48  O   UNL A   1      39.958  36.736  35.731  1.00  0.00    -0.744 OA
ENDBRANCH  41  45
ENDBRANCH  24  38
BRANCH  25  49
ATOM     49  C   UNL A   1      41.924  26.803  27.677  1.00  0.00     0.023 A 
ATOM     50  C   UNL A   1      41.564  25.448  27.589  1.00  0.00     0.031 A 
ATOM     51  C   UNL A   1      42.700  27.346  26.636  1.00  0.00     0.131 A 
ATOM     52  C   UNL A   1      42.007  24.676  26.503  1.00  0.00     0.055 A 
ATOM     53  C   UNL A   1      43.090  26.589  25.532  1.00  0.00     0.041 A 
ATOM     54  F   UNL A   1      43.071  28.636  26.668  1.00  0.00    -0.206 F 
ATOM     55  C   UNL A   1      42.754  25.242  25.467  1.00  0.00     0.022 A 
BRANCH  52  56
ATOM     56  S   UNL A   1      41.656  22.896  26.498  1.00  0.00     0.124 S 
ATOM     57  O   UNL A   1      42.290  22.469  25.256  1.00  0.00    -0.237 OA
ATOM     58  O   UNL A   1      42.299  22.458  27.732  1.00  0.00    -0.237 OA
ATOM     59  O   UNL A   1      40.195  22.839  26.505  1.00  0.00    -0.744 OA
ENDBRANCH  52  56
ENDBRANCH  25  49
BRANCH  37  60
ATOM     60  C   UNL A   1      44.343  27.463  34.172  1.00  0.00     0.023 A 
ATOM     61  C   UNL A   1      44.156  26.248  34.855  1.00  0.00     0.031 A 
ATOM     62  C   UNL A   1      45.617  28.057  34.212  1.00  0.00     0.131 A 
ATOM     63  C   UNL A   1      45.206  25.701  35.607  1.00  0.00     0.055 A 
ATOM     64  C   UNL A   1      46.675  27.477  34.912  1.00  0.00     0.041 A 
ATOM     65  F   UNL A   1      45.849  29.219  33.580  1.00  0.00    -0.206 F 
ATOM     66  C   UNL A   1      46.469  26.301  35.628  1.00  0.00     0.022 A 
BRANCH  63  67
ATOM     67  S   UNL A   1      44.869  24.255  36.648  1.00  0.00     0.124 S 
ATOM     68  O   UNL A   1      44.105  24.841  37.744  1.00  0.00    -0.237 OA
ATOM     69  O   UNL A   1      44.123  23.386  35.743  1.00  0.00    -0.237 OA
ATOM     70  O   UNL A   1      46.201  23.774  37.010  1.00  0.00    -0.744 OA
ENDBRANCH  63  67
ENDBRANCH  37  60
ENDBRANCH  11  12
ENDBRANCH   4   6
ENDBRANCH   1   2
BRANCH   1  71
ATOM     71  C   UNL A   1      31.515  29.097  27.091  1.00  0.00     0.042 C 
BRANCH  71  72
ATOM     72  C   UNL A   1      32.225  27.753  27.136  1.00  0.00     0.117 C 
BRANCH  72  73
ATOM     73  N   UNL A   1      31.383  26.606  26.875  1.00  0.00    -0.354 N 
ATOM     74  C   UNL A   1      31.399  25.792  25.778  1.00  0.00     0.242 C 
ATOM     75  H   UNL A   1      30.720  26.386  27.567  1.00  0.00     0.163 HD
ATOM     76  O   UNL A   1      30.844  24.695  25.914  1.00  0.00    -0.273 OA
BRANCH  74  77
ATOM     77  C   UNL A   1      31.966  26.266  24.413  1.00  0.00     0.171 C 
ATOM     78  C   UNL A   1      30.832  26.188  23.366  1.00  0.00     0.035 C 
ATOM     79  N   UNL A   1      33.159  25.575  23.844  1.00  0.00    -0.354 N 
ATOM     80  C   UNL A   1      31.264  26.708  21.998  1.00  0.00     0.004 C 
ATOM     81  C   UNL A   1      33.645  26.122  22.571  1.00  0.00     0.117 C 
ATOM     82  C   UNL A   1      32.536  26.012  21.526  1.00  0.00     0.022 C 
BRANCH  79  83
ATOM     83  C   UNL A   1      33.811  24.496  24.408  1.00  0.00     0.116 A 
ATOM     84  C   UNL A   1      34.855  24.742  25.320  1.00  0.00     0.033 A 
ATOM     85  C   UNL A   1      33.548  23.133  24.118  1.00  0.00     0.292 A 
ATOM     86  C   UNL A   1      35.631  23.710  25.861  1.00  0.00     0.003 A 
ATOM     87  C   UNL A   1      34.332  22.091  24.653  1.00  0.00     0.088 A 
ATOM     88  C   UNL A   1      35.381  22.388  25.515  1.00  0.00     0.007 A 
BRANCH  85  89
ATOM     89  N   UNL A   1      32.542  22.724  23.136  1.00  0.00     0.064 N 
ATOM     90  O   UNL A   1      31.386  22.572  23.556  1.00  0.00    -0.258 OA
ATOM     91  O   UNL A   1      32.899  22.528  21.967  1.00  0.00    -0.258 OA
ENDBRANCH  85  89
ENDBRANCH  79  83
ENDBRANCH  74  77
ENDBRANCH  72  73
ENDBRANCH  71  72
ENDBRANCH   1  71
TORSDOF 15
ENDMDL
MODEL 2
REMARK VINA RESULT:     -12.2      1.265      2.123
REMARK SMILES O=C(NCCCNC(=O)[C@@H]1CCCCN1c1ccccc1[N+](=O)[O-])c1ccc(-c2c3nc(c(-c4cc(S(=O)(=O)[O-])ccc4F)c4ccc([nH]4)c(-c4cc(S(=O)(=O)[O-])ccc4F)c4nc(c(-c5cc(S(=O)(=O)[O-])ccc5F)c5ccc2[nH]5)C=C4)C=C3)cc1
REMARK SMILES IDX 4 1 3 2 1 3 2 4 25 6 26 7 87 8 27 9 86 10 28 11 29 12 30 13
REMARK SMILES IDX 80 14 31 15 85 16 79 17 81 18 32 19 84 20 78 21 77 22 33 24
REMARK SMILES IDX 65 25 45 26 64 27 46 28 49 29 63 30 82 31 47 32 48 33 62 35
REMARK SMILES IDX 83 36 50 37 34 38 35 39 43 40 36 41 42 42 44 43 41 44 37 45
REMARK SMILES IDX 38 46 39 47 40 48 66 49 67 50 75 51 68 52 74 53 76 54 73 55
REMARK SMILES IDX 69 56 70 57 71 58 72 59 51 60 52 61 60 62 53 63 59 64 61 65
REMARK SMILES IDX 58 66 54 67 55 68 56 69 57 70 5 71 6 72 7 73 8 74 9 76 10 77
REMARK SMILES IDX 11 78 15 79 12 80 14 81 13 82 16 83 17 84 21 85 18 86 20 87
REMARK SMILES IDX 19 88 22 89 23 90 24 91
REMARK H PARENT 3 5 81 23 49 34 7 75
REMARK Flexibility Score: inf
ROOT
ATOM      1  C   UNL A   1      33.106  29.320  25.079  1.00  0.00     0.118 C 
ENDROOT
BRANCH   1   2
ATOM      2  N   UNL A   1      32.624  30.413  25.920  1.00  0.00    -0.352 N 
ATOM      3  O   UNL A   1      32.463  31.990  27.500  1.00  0.00    -0.269 OA
ATOM      4  C   UNL A   1      33.161  31.123  26.970  1.00  0.00     0.251 C 
ATOM      5  H   UNL A   1      31.714  30.706  25.684  1.00  0.00     0.163 HD
BRANCH   4   6
ATOM      6  C   UNL A   1      34.509  30.841  27.523  1.00  0.00     0.039 A 
ATOM      7  C   UNL A   1      34.928  29.558  27.843  1.00  0.00     0.014 A 
ATOM      8  C   UNL A   1      35.403  31.904  27.726  1.00  0.00     0.014 A 
ATOM      9  C   UNL A   1      36.081  29.364  28.590  1.00  0.00     0.010 A 
ATOM     10  C   UNL A   1      36.649  31.683  28.334  1.00  0.00     0.010 A 
ATOM     11  C   UNL A   1      36.973  30.417  28.838  1.00  0.00    -0.014 A 
BRANCH  11  12
ATOM     12  C   UNL A   1      38.213  30.122  29.616  1.00  0.00     0.031 A 
ATOM     13  C   UNL A   1      38.363  30.575  31.046  1.00  0.00     0.074 A 
ATOM     14  C   UNL A   1      39.158  29.335  29.057  1.00  0.00     0.049 A 
ATOM     15  N   UNL A   1      39.320  30.305  31.900  1.00  0.00    -0.248 NA
ATOM     16  C   UNL A   1      37.321  31.460  31.586  1.00  0.00     0.031 C 
ATOM     17  C   UNL A   1      39.136  28.849  27.674  1.00  0.00     0.029 A 
ATOM     18  N   UNL A   1      40.278  28.745  29.589  1.00  0.00    -0.354 N 
ATOM     19  C   UNL A   1      39.019  31.018  33.057  1.00  0.00     0.074 A 
ATOM     20  C   UNL A   1      37.802  31.753  32.786  1.00  0.00     0.031 C 
ATOM     21  C   UNL A   1      40.112  27.947  27.505  1.00  0.00     0.029 A 
ATOM     22  C   UNL A   1      40.894  27.860  28.733  1.00  0.00     0.049 A 
ATOM     23  H   UNL A   1      40.609  28.937  30.496  1.00  0.00     0.167 HD
ATOM     24  C   UNL A   1      39.690  31.050  34.235  1.00  0.00     0.034 A 
ATOM     25  C   UNL A   1      41.969  27.067  28.906  1.00  0.00     0.034 A 
ATOM     26  C   UNL A   1      40.881  30.277  34.504  1.00  0.00     0.049 A 
ATOM     27  C   UNL A   1      42.680  27.104  30.230  1.00  0.00     0.074 A 
ATOM     28  C   UNL A   1      41.619  30.209  35.673  1.00  0.00     0.029 A 
ATOM     29  N   UNL A   1      41.508  29.437  33.592  1.00  0.00    -0.354 N 
ATOM     30  N   UNL A   1      42.378  27.788  31.309  1.00  0.00    -0.248 NA
ATOM     31  C   UNL A   1      43.879  26.269  30.357  1.00  0.00     0.031 C 
ATOM     32  C   UNL A   1      42.722  29.376  35.450  1.00  0.00     0.029 A 
ATOM     33  C   UNL A   1      42.637  28.867  34.165  1.00  0.00     0.049 A 
ATOM     34  H   UNL A   1      41.196  29.269  32.673  1.00  0.00     0.167 HD
ATOM     35  C   UNL A   1      43.350  27.459  32.247  1.00  0.00     0.074 A 
ATOM     36  C   UNL A   1      44.225  26.491  31.616  1.00  0.00     0.031 C 
ATOM     37  C   UNL A   1      43.511  27.921  33.514  1.00  0.00     0.034 A 
BRANCH  24  38
ATOM     38  C   UNL A   1      39.183  31.995  35.302  1.00  0.00     0.023 A 
ATOM     39  C   UNL A   1      39.626  33.325  35.399  1.00  0.00     0.031 A 
ATOM     40  C   UNL A   1      38.255  31.540  36.258  1.00  0.00     0.131 A 
ATOM     41  C   UNL A   1      39.196  34.130  36.467  1.00  0.00     0.055 A 
ATOM     42  C   UNL A   1      37.773  32.370  37.272  1.00  0.00     0.041 A 
ATOM     43  F   UNL A   1      37.809  30.275  36.230  1.00  0.00    -0.206 F 
ATOM     44  C   UNL A   1      38.255  33.670  37.390  1.00  0.00     0.022 A 
BRANCH  41  45
ATOM     45  S   UNL A   1      39.992  35.743  36.715  1.00  0.00     0.124 S 
ATOM     46  O   UNL A   1      41.393  35.357  36.866  1.00  0.00    -0.237 OA
ATOM     47  O   UNL A   1      39.651  36.453  35.489  1.00  0.00    -0.237 OA
ATOM     48  O   UNL A   1      39.359  36.254  37.929  1.00  0.00    -0.744 OA
ENDBRANCH  41  45
ENDBRANCH  24  38
BRANCH  25  49
ATOM     49  C   UNL A   1      42.455  26.198  27.794  1.00  0.00     0.023 A 
ATOM     50  C   UNL A   1      41.986  24.883  27.638  1.00  0.00     0.031 A 
ATOM     51  C   UNL A   1      43.417  26.665  26.880  1.00  0.00     0.131 A 
ATOM     52  C   UNL A   1      42.502  24.073  26.613  1.00  0.00     0.055 A 
ATOM     53  C   UNL A   1      43.885  25.876  25.830  1.00  0.00     0.041 A 
ATOM     54  F   UNL A   1      43.899  27.914  26.983  1.00  0.00    -0.206 F 
ATOM     55  C   UNL A   1      43.437  24.567  25.700  1.00  0.00     0.022 A 
BRANCH  52  56
ATOM     56  S   UNL A   1      41.989  22.335  26.534  1.00  0.00     0.124 S 
ATOM     57  O   UNL A   1      42.648  21.884  25.314  1.00  0.00    -0.237 OA
ATOM     58  O   UNL A   1      42.521  21.806  27.785  1.00  0.00    -0.237 OA
ATOM     59  O   UNL A   1      40.531  22.414  26.464  1.00  0.00    -0.744 OA
ENDBRANCH  52  56
ENDBRANCH  25  49
BRANCH  37  60
ATOM     60  C   UNL A   1      44.666  27.349  34.295  1.00  0.00     0.023 A 
ATOM     61  C   UNL A   1      44.527  26.182  35.066  1.00  0.00     0.031 A 
ATOM     62  C   UNL A   1      45.909  28.005  34.303  1.00  0.00     0.131 A 
ATOM     63  C   UNL A   1      45.591  25.743  35.868  1.00  0.00     0.055 A 
ATOM     64  C   UNL A   1      46.984  27.530  35.055  1.00  0.00     0.041 A 
ATOM     65  F   UNL A   1      46.095  29.126  33.587  1.00  0.00    -0.206 F 
ATOM     66  C   UNL A   1      46.824  26.403  35.856  1.00  0.00     0.022 A 
BRANCH  63  67
ATOM     67  S   UNL A   1      45.308  24.365  37.012  1.00  0.00     0.124 S 
ATOM     68  O   UNL A   1      44.413  24.965  37.995  1.00  0.00    -0.237 OA
ATOM     69  O   UNL A   1      44.715  23.354  36.143  1.00  0.00    -0.237 OA
ATOM     70  O   UNL A   1      46.648  24.048  37.506  1.00  0.00    -0.744 OA
ENDBRANCH  63  67
ENDBRANCH  37  60
ENDBRANCH  11  12
ENDBRANCH   4   6
ENDBRANCH   1   2
BRANCH   1  71
ATOM     71  C   UNL A   1      32.662  27.922  25.507  1.00  0.00     0.042 C 
BRANCH  71  72
ATOM     72  C   UNL A   1      33.696  26.844  25.224  1.00  0.00     0.117 C 
BRANCH  72  73
ATOM     73  N   UNL A   1      33.689  26.326  23.874  1.00  0.00    -0.354 N 
ATOM     74  C   UNL A   1      34.046  25.075  23.458  1.00  0.00     0.242 C 
ATOM     75  H   UNL A   1      33.392  26.947  23.171  1.00  0.00     0.163 HD
ATOM     76  O   UNL A   1      33.645  24.746  22.335  1.00  0.00    -0.273 OA
BRANCH  74  77
ATOM     77  C   UNL A   1      35.000  24.175  24.288  1.00  0.00     0.171 C 
ATOM     78  C   UNL A   1      35.822  23.309  23.308  1.00  0.00     0.035 C 
ATOM     79  N   UNL A   1      34.425  23.270  25.325  1.00  0.00    -0.354 N 
ATOM     80  C   UNL A   1      36.853  22.439  24.022  1.00  0.00     0.004 C 
ATOM     81  C   UNL A   1      35.411  22.492  26.085  1.00  0.00     0.117 C 
ATOM     82  C   UNL A   1      36.199  21.607  25.121  1.00  0.00     0.022 C 
BRANCH  79  83
ATOM     83  C   UNL A   1      33.081  23.117  25.605  1.00  0.00     0.116 A 
ATOM     84  C   UNL A   1      32.517  23.886  26.640  1.00  0.00     0.033 A 
ATOM     85  C   UNL A   1      32.205  22.207  24.959  1.00  0.00     0.292 A 
ATOM     86  C   UNL A   1      31.190  23.721  27.053  1.00  0.00     0.003 A 
ATOM     87  C   UNL A   1      30.871  22.031  25.376  1.00  0.00     0.088 A 
ATOM     88  C   UNL A   1      30.372  22.783  26.434  1.00  0.00     0.007 A 
BRANCH  85  89
ATOM     89  N   UNL A   1      32.664  21.291  23.913  1.00  0.00     0.064 N 
ATOM     90  O   UNL A   1      32.535  21.676  22.741  1.00  0.00    -0.258 OA
ATOM     91  O   UNL A   1      33.122  20.190  24.247  1.00  0.00    -0.258 OA
ENDBRANCH  85  89
ENDBRANCH  79  83
ENDBRANCH  74  77
ENDBRANCH  72  73
ENDBRANCH  71  72
ENDBRANCH   1  71
TORSDOF 15
ENDMDL
MODEL 3
REMARK VINA RESULT:     -12.2      1.410      1.616
REMARK SMILES O=C(NCCCNC(=O)[C@@H]1CCCCN1c1ccccc1[N+](=O)[O-])c1ccc(-c2c3nc(c(-c4cc(S(=O)(=O)[O-])ccc4F)c4ccc([nH]4)c(-c4cc(S(=O)(=O)[O-])ccc4F)c4nc(c(-c5cc(S(=O)(=O)[O-])ccc5F)c5ccc2[nH]5)C=C4)C=C3)cc1
REMARK SMILES IDX 4 1 3 2 1 3 2 4 25 6 26 7 87 8 27 9 86 10 28 11 29 12 30 13
REMARK SMILES IDX 80 14 31 15 85 16 79 17 81 18 32 19 84 20 78 21 77 22 33 24
REMARK SMILES IDX 65 25 45 26 64 27 46 28 49 29 63 30 82 31 47 32 48 33 62 35
REMARK SMILES IDX 83 36 50 37 34 38 35 39 43 40 36 41 42 42 44 43 41 44 37 45
REMARK SMILES IDX 38 46 39 47 40 48 66 49 67 50 75 51 68 52 74 53 76 54 73 55
REMARK SMILES IDX 69 56 70 57 71 58 72 59 51 60 52 61 60 62 53 63 59 64 61 65
REMARK SMILES IDX 58 66 54 67 55 68 56 69 57 70 5 71 6 72 7 73 8 74 9 76 10 77
REMARK SMILES IDX 11 78 15 79 12 80 14 81 13 82 16 83 17 84 21 85 18 86 20 87
REMARK SMILES IDX 19 88 22 89 23 90 24 91
REMARK H PARENT 3 5 81 23 49 34 7 75
REMARK Flexibility Score: inf
ROOT
ATOM      1  C   UNL A   1      32.446  29.807  26.335  1.00  0.00     0.118 C 
ENDROOT
BRANCH   1   2
ATOM      2  N   UNL A   1      32.386  31.210  26.740  1.00  0.00    -0.352 N 
ATOM      3  O   UNL A   1      32.882  33.213  27.607  1.00  0.00    -0.269 OA
ATOM      4  C   UNL A   1      33.258  32.061  27.381  1.00  0.00     0.251 C 
ATOM      5  H   UNL A   1      31.534  31.642  26.502  1.00  0.00     0.163 HD
BRANCH   4   6
ATOM      6  C   UNL A   1      34.595  31.629  27.861  1.00  0.00     0.039 A 
ATOM      7  C   UNL A   1      34.864  30.318  28.227  1.00  0.00     0.014 A 
ATOM      8  C   UNL A   1      35.632  32.571  27.944  1.00  0.00     0.014 A 
ATOM      9  C   UNL A   1      36.032  30.007  28.909  1.00  0.00     0.010 A 
ATOM     10  C   UNL A   1      36.879  32.214  28.483  1.00  0.00     0.010 A 
ATOM     11  C   UNL A   1      37.070  30.942  29.037  1.00  0.00    -0.014 A 
BRANCH  11  12
ATOM     12  C   UNL A   1      38.312  30.522  29.749  1.00  0.00     0.031 A 
ATOM     13  C   UNL A   1      38.534  30.864  31.201  1.00  0.00     0.074 A 
ATOM     14  C   UNL A   1      39.191  29.722  29.106  1.00  0.00     0.049 A 
ATOM     15  N   UNL A   1      39.498  30.479  32.001  1.00  0.00    -0.248 NA
ATOM     16  C   UNL A   1      37.564  31.769  31.836  1.00  0.00     0.031 C 
ATOM     17  C   UNL A   1      39.097  29.336  27.694  1.00  0.00     0.029 A 
ATOM     18  N   UNL A   1      40.288  29.032  29.558  1.00  0.00    -0.354 N 
ATOM     19  C   UNL A   1      39.276  31.126  33.213  1.00  0.00     0.074 A 
ATOM     20  C   UNL A   1      38.098  31.948  33.035  1.00  0.00     0.031 C 
ATOM     21  C   UNL A   1      40.011  28.392  27.431  1.00  0.00     0.029 A 
ATOM     22  C   UNL A   1      40.823  28.175  28.622  1.00  0.00     0.049 A 
ATOM     23  H   UNL A   1      40.658  29.141  30.463  1.00  0.00     0.167 HD
ATOM     24  C   UNL A   1      39.984  31.036  34.367  1.00  0.00     0.034 A 
ATOM     25  C   UNL A   1      41.853  27.311  28.703  1.00  0.00     0.034 A 
ATOM     26  C   UNL A   1      41.133  30.179  34.541  1.00  0.00     0.049 A 
ATOM     27  C   UNL A   1      42.605  27.213  30.001  1.00  0.00     0.074 A 
ATOM     28  C   UNL A   1      41.902  29.986  35.676  1.00  0.00     0.029 A 
ATOM     29  N   UNL A   1      41.680  29.370  33.553  1.00  0.00    -0.354 N 
ATOM     30  N   UNL A   1      42.379  27.836  31.134  1.00  0.00    -0.248 NA
ATOM     31  C   UNL A   1      43.756  26.303  30.029  1.00  0.00     0.031 C 
ATOM     32  C   UNL A   1      42.945  29.108  35.359  1.00  0.00     0.029 A 
ATOM     33  C   UNL A   1      42.790  28.696  34.045  1.00  0.00     0.049 A 
ATOM     34  H   UNL A   1      41.331  29.285  32.636  1.00  0.00     0.167 HD
ATOM     35  C   UNL A   1      43.357  27.387  32.013  1.00  0.00     0.074 A 
ATOM     36  C   UNL A   1      44.152  26.416  31.287  1.00  0.00     0.031 C 
ATOM     37  C   UNL A   1      43.584  27.748  33.302  1.00  0.00     0.034 A 
BRANCH  24  38
ATOM     38  C   UNL A   1      39.568  31.933  35.513  1.00  0.00     0.023 A 
ATOM     39  C   UNL A   1      38.825  31.457  36.606  1.00  0.00     0.031 A 
ATOM     40  C   UNL A   1      39.904  33.300  35.491  1.00  0.00     0.131 A 
ATOM     41  C   UNL A   1      38.383  32.352  37.595  1.00  0.00     0.055 A 
ATOM     42  C   UNL A   1      39.527  34.169  36.517  1.00  0.00     0.041 A 
ATOM     43  F   UNL A   1      40.596  33.817  34.464  1.00  0.00    -0.206 F 
ATOM     44  C   UNL A   1      38.748  33.699  37.570  1.00  0.00     0.022 A 
BRANCH  41  45
ATOM     45  S   UNL A   1      37.204  31.758  38.840  1.00  0.00     0.124 S 
ATOM     46  O   UNL A   1      36.919  30.411  38.354  1.00  0.00    -0.237 OA
ATOM     47  O   UNL A   1      37.978  31.844  40.072  1.00  0.00    -0.237 OA
ATOM     48  O   UNL A   1      36.091  32.700  38.735  1.00  0.00    -0.744 OA
ENDBRANCH  41  45
ENDBRANCH  24  38
BRANCH  25  49
ATOM     49  C   UNL A   1      42.251  26.494  27.519  1.00  0.00     0.023 A 
ATOM     50  C   UNL A   1      41.883  25.144  27.407  1.00  0.00     0.031 A 
ATOM     51  C   UNL A   1      43.028  27.052  26.486  1.00  0.00     0.131 A 
ATOM     52  C   UNL A   1      42.318  24.388  26.305  1.00  0.00     0.055 A 
ATOM     53  C   UNL A   1      43.410  26.313  25.367  1.00  0.00     0.041 A 
ATOM     54  F   UNL A   1      43.407  28.339  26.542  1.00  0.00    -0.206 F 
ATOM     55  C   UNL A   1      43.066  24.969  25.278  1.00  0.00     0.022 A 
BRANCH  52  56
ATOM     56  S   UNL A   1      41.956  22.611  26.268  1.00  0.00     0.124 S 
ATOM     57  O   UNL A   1      42.636  22.193  25.048  1.00  0.00    -0.237 OA
ATOM     58  O   UNL A   1      42.547  22.157  27.522  1.00  0.00    -0.237 OA
ATOM     59  O   UNL A   1      40.495  22.564  26.217  1.00  0.00    -0.744 OA
ENDBRANCH  52  56
ENDBRANCH  25  49
BRANCH  37  60
ATOM     60  C   UNL A   1      44.726  27.057  34.002  1.00  0.00     0.023 A 
ATOM     61  C   UNL A   1      44.569  25.792  34.595  1.00  0.00     0.031 A 
ATOM     62  C   UNL A   1      45.976  27.691  34.115  1.00  0.00     0.131 A 
ATOM     63  C   UNL A   1      45.621  25.231  35.333  1.00  0.00     0.055 A 
ATOM     64  C   UNL A   1      47.039  27.101  34.799  1.00  0.00     0.041 A 
ATOM     65  F   UNL A   1      46.180  28.902  33.570  1.00  0.00    -0.206 F 
ATOM     66  C   UNL A   1      46.860  25.871  35.427  1.00  0.00     0.022 A 
BRANCH  63  67
ATOM     67  S   UNL A   1      45.314  23.704  36.264  1.00  0.00     0.124 S 
ATOM     68  O   UNL A   1      44.169  23.142  35.555  1.00  0.00    -0.237 OA
ATOM     69  O   UNL A   1      46.575  22.987  36.110  1.00  0.00    -0.237 OA
ATOM     70  O   UNL A   1      45.032  24.179  37.618  1.00  0.00    -0.744 OA
ENDBRANCH  63  67
ENDBRANCH  37  60
ENDBRANCH  11  12
ENDBRANCH   4   6
ENDBRANCH   1   2
BRANCH   1  71
ATOM     71  C   UNL A   1      31.719  28.831  27.258  1.00  0.00     0.042 C 
BRANCH  71  72
ATOM     72  C   UNL A   1      32.293  27.423  27.225  1.00  0.00     0.117 C 
BRANCH  72  73
ATOM     73  N   UNL A   1      31.350  26.384  26.874  1.00  0.00    -0.354 N 
ATOM     74  C   UNL A   1      31.285  25.674  25.709  1.00  0.00     0.242 C 
ATOM     75  H   UNL A   1      30.674  26.162  27.554  1.00  0.00     0.163 HD
ATOM     76  O   UNL A   1      30.634  24.623  25.755  1.00  0.00    -0.273 OA
BRANCH  74  77
ATOM     77  C   UNL A   1      31.883  26.215  24.384  1.00  0.00     0.171 C 
ATOM     78  C   UNL A   1      30.792  26.135  23.293  1.00  0.00     0.035 C 
ATOM     79  N   UNL A   1      33.121  25.588  23.837  1.00  0.00    -0.354 N 
ATOM     80  C   UNL A   1      31.255  26.718  21.961  1.00  0.00     0.004 C 
ATOM     81  C   UNL A   1      33.632  26.197  22.603  1.00  0.00     0.117 C 
ATOM     82  C   UNL A   1      32.568  26.085  21.513  1.00  0.00     0.022 C 
BRANCH  79  83
ATOM     83  C   UNL A   1      33.791  24.513  24.388  1.00  0.00     0.116 A 
ATOM     84  C   UNL A   1      34.815  24.765  25.321  1.00  0.00     0.033 A 
ATOM     85  C   UNL A   1      33.567  23.151  24.065  1.00  0.00     0.292 A 
ATOM     86  C   UNL A   1      35.608  23.741  25.852  1.00  0.00     0.003 A 
ATOM     87  C   UNL A   1      34.367  22.117  24.589  1.00  0.00     0.088 A 
ATOM     88  C   UNL A   1      35.396  22.420  25.474  1.00  0.00     0.007 A 
BRANCH  85  89
ATOM     89  N   UNL A   1      32.585  22.738  23.060  1.00  0.00     0.064 N 
ATOM     90  O   UNL A   1      31.435  22.515  23.465  1.00  0.00    -0.258 OA
ATOM     91  O   UNL A   1      32.957  22.610  21.886  1.00  0.00    -0.258 OA
ENDBRANCH  85  89
ENDBRANCH  79  83
ENDBRANCH  74  77
ENDBRANCH  72  73
ENDBRANCH  71  72
ENDBRANCH   1  71
TORSDOF 15
ENDMDL
