MODEL 1
REMARK VINA RESULT:     -10.2      0.000      0.000
REMARK SMILES COc1ncccc1CS[C@@H](C)C(=O)NCCCNC(=O)c1ccc(-c2c3nc(c(-c4cc(S(=O)(=O)[O-])ccc4F)c4ccc([nH]4)c(-c4cc(S(=O)(=O)[O-])ccc4F)c4nc(c(-c5cc(S(=O)(=O)[O-])ccc5F)c5ccc2[nH]5)C=C4)C=C3)cc1
REMARK SMILES IDX 16 1 15 2 13 3 14 4 11 6 12 7 10 8 9 9 8 10 3 11 4 12 5 13
REMARK SMILES IDX 7 14 6 15 2 16 1 17 17 18 18 19 19 20 20 21 21 23 22 24
REMARK SMILES IDX 23 25 84 26 24 27 83 28 25 29 26 30 27 31 77 32 28 33 82 34
REMARK SMILES IDX 76 35 78 36 29 37 81 38 75 39 74 40 30 42 62 43 42 44 61 45
REMARK SMILES IDX 43 46 46 47 60 48 79 49 44 50 45 51 59 53 80 54 47 55 31 56
REMARK SMILES IDX 32 57 40 58 33 59 39 60 41 61 38 62 34 63 35 64 36 65 37 66
REMARK SMILES IDX 63 67 64 68 72 69 65 70 71 71 73 72 70 73 66 74 67 75 68 76
REMARK SMILES IDX 69 77 48 78 49 79 57 80 50 81 56 82 58 83 55 84 51 85 52 86
REMARK SMILES IDX 53 87 54 88
REMARK H PARENT 15 5 19 22 78 41 46 52
REMARK Flexibility Score: inf
ROOT
ATOM      1  C   UNL A   1      33.453  34.825  29.024  1.00  0.00     0.117 C 
ENDROOT
BRANCH   1   2
ATOM      2  N   UNL A   1      33.136  36.122  29.593  1.00  0.00    -0.355 N 
ATOM      3  C   UNL A   1      32.967  36.617  30.851  1.00  0.00     0.232 C 
ATOM      4  O   UNL A   1      32.936  37.855  30.923  1.00  0.00    -0.274 OA
ATOM      5  H   UNL A   1      33.014  36.812  28.903  1.00  0.00     0.163 HD
BRANCH   3   6
ATOM      6  C   UNL A   1      32.826  35.810  32.132  1.00  0.00     0.133 C 
ATOM      7  C   UNL A   1      31.515  36.006  32.885  1.00  0.00     0.030 C 
BRANCH   6   8
ATOM      8  S   UNL A   1      34.275  35.686  33.239  1.00  0.00    -0.144 SA
BRANCH   8   9
ATOM      9  C   UNL A   1      35.559  34.787  32.336  1.00  0.00     0.111 C 
BRANCH   9  10
ATOM     10  C   UNL A   1      36.170  33.554  32.945  1.00  0.00     0.024 A 
ATOM     11  C   UNL A   1      37.185  33.600  33.897  1.00  0.00     0.217 A 
ATOM     12  N   UNL A   1      37.877  32.516  34.326  1.00  0.00    -0.222 NA
ATOM     13  C   UNL A   1      37.563  31.320  33.786  1.00  0.00     0.115 A 
ATOM     14  C   UNL A   1      35.876  32.279  32.446  1.00  0.00     0.012 A 
ATOM     15  C   UNL A   1      36.571  31.149  32.851  1.00  0.00     0.021 A 
BRANCH  11  16
ATOM     16  O   UNL A   1      37.703  34.796  34.314  1.00  0.00    -0.481 OA
ATOM     17  C   UNL A   1      38.866  34.615  35.111  1.00  0.00     0.280 C 
ENDBRANCH  11  16
ENDBRANCH   9  10
ENDBRANCH   8   9
ENDBRANCH   6   8
ENDBRANCH   3   6
ENDBRANCH   1   2
BRANCH   1  18
ATOM     18  C   UNL A   1      34.870  34.548  28.475  1.00  0.00     0.042 C 
BRANCH  18  19
ATOM     19  C   UNL A   1      35.407  33.140  28.185  1.00  0.00     0.118 C 
BRANCH  19  20
ATOM     20  N   UNL A   1      34.431  32.147  27.797  1.00  0.00    -0.352 N 
ATOM     21  C   UNL A   1      34.597  30.773  27.801  1.00  0.00     0.251 C 
ATOM     22  H   UNL A   1      33.556  32.484  27.499  1.00  0.00     0.163 HD
ATOM     23  O   UNL A   1      33.679  30.045  27.455  1.00  0.00    -0.269 OA
BRANCH  21  24
ATOM     24  C   UNL A   1      35.901  30.185  28.201  1.00  0.00     0.039 A 
ATOM     25  C   UNL A   1      36.952  30.169  27.280  1.00  0.00     0.014 A 
ATOM     26  C   UNL A   1      36.071  29.616  29.466  1.00  0.00     0.014 A 
ATOM     27  C   UNL A   1      38.196  29.635  27.647  1.00  0.00     0.010 A 
ATOM     28  C   UNL A   1      37.323  29.098  29.835  1.00  0.00     0.010 A 
ATOM     29  C   UNL A   1      38.405  29.121  28.939  1.00  0.00    -0.014 A 
BRANCH  29  30
ATOM     30  C   UNL A   1      39.769  28.694  29.379  1.00  0.00     0.031 A 
ATOM     31  C   UNL A   1      40.518  29.437  30.454  1.00  0.00     0.074 A 
ATOM     32  C   UNL A   1      40.355  27.642  28.773  1.00  0.00     0.049 A 
ATOM     33  N   UNL A   1      41.723  29.223  30.922  1.00  0.00    -0.248 NA
ATOM     34  C   UNL A   1      39.823  30.570  31.077  1.00  0.00     0.031 C 
ATOM     35  C   UNL A   1      39.740  26.837  27.716  1.00  0.00     0.029 A 
ATOM     36  N   UNL A   1      41.593  27.070  28.944  1.00  0.00    -0.354 N 
ATOM     37  C   UNL A   1      41.935  30.190  31.900  1.00  0.00     0.074 A 
ATOM     38  C   UNL A   1      40.744  31.018  31.920  1.00  0.00     0.031 C 
ATOM     39  C   UNL A   1      40.596  25.872  27.344  1.00  0.00     0.029 A 
ATOM     40  C   UNL A   1      41.841  26.017  28.093  1.00  0.00     0.049 A 
ATOM     41  H   UNL A   1      42.243  27.385  29.614  1.00  0.00     0.167 HD
ATOM     42  C   UNL A   1      43.012  30.364  32.710  1.00  0.00     0.034 A 
ATOM     43  C   UNL A   1      42.947  25.265  27.914  1.00  0.00     0.034 A 
ATOM     44  C   UNL A   1      44.203  29.545  32.663  1.00  0.00     0.049 A 
ATOM     45  C   UNL A   1      44.168  25.542  28.755  1.00  0.00     0.074 A 
ATOM     46  C   UNL A   1      45.328  29.612  33.469  1.00  0.00     0.029 A 
ATOM     47  N   UNL A   1      44.439  28.528  31.746  1.00  0.00    -0.354 N 
ATOM     48  N   UNL A   1      44.329  26.428  29.710  1.00  0.00    -0.248 NA
ATOM     49  C   UNL A   1      45.356  24.718  28.494  1.00  0.00     0.031 C 
ATOM     50  C   UNL A   1      46.273  28.698  32.988  1.00  0.00     0.029 A 
ATOM     51  C   UNL A   1      45.709  27.998  31.933  1.00  0.00     0.049 A 
ATOM     52  H   UNL A   1      43.799  28.227  31.062  1.00  0.00     0.167 HD
ATOM     53  C   UNL A   1      45.630  26.252  30.176  1.00  0.00     0.074 A 
ATOM     54  C   UNL A   1      46.203  25.164  29.412  1.00  0.00     0.031 C 
ATOM     55  C   UNL A   1      46.287  26.928  31.153  1.00  0.00     0.034 A 
BRANCH  42  56
ATOM     56  C   UNL A   1      42.966  31.512  33.694  1.00  0.00     0.023 A 
ATOM     57  C   UNL A   1      42.410  31.362  34.977  1.00  0.00     0.031 A 
ATOM     58  C   UNL A   1      43.470  32.777  33.343  1.00  0.00     0.131 A 
ATOM     59  C   UNL A   1      42.297  32.472  35.827  1.00  0.00     0.055 A 
ATOM     60  C   UNL A   1      43.432  33.858  34.226  1.00  0.00     0.041 A 
ATOM     61  F   UNL A   1      44.003  32.989  32.129  1.00  0.00    -0.206 F 
ATOM     62  C   UNL A   1      42.826  33.714  35.472  1.00  0.00     0.022 A 
BRANCH  59  63
ATOM     63  S   UNL A   1      41.311  32.305  37.341  1.00  0.00     0.124 S 
ATOM     64  O   UNL A   1      40.126  31.607  36.846  1.00  0.00    -0.237 OA
ATOM     65  O   UNL A   1      42.192  31.533  38.208  1.00  0.00    -0.237 OA
ATOM     66  O   UNL A   1      41.081  33.687  37.755  1.00  0.00    -0.744 OA
ENDBRANCH  59  63
ENDBRANCH  42  56
BRANCH  43  67
ATOM     67  C   UNL A   1      42.972  24.200  26.870  1.00  0.00     0.023 A 
ATOM     68  C   UNL A   1      42.327  22.969  27.072  1.00  0.00     0.031 A 
ATOM     69  C   UNL A   1      43.678  24.382  25.666  1.00  0.00     0.131 A 
ATOM     70  C   UNL A   1      42.430  21.957  26.106  1.00  0.00     0.055 A 
ATOM     71  C   UNL A   1      43.732  23.392  24.684  1.00  0.00     0.041 A 
ATOM     72  F   UNL A   1      44.315  25.538  25.420  1.00  0.00    -0.206 F 
ATOM     73  C   UNL A   1      43.115  22.166  24.906  1.00  0.00     0.022 A 
BRANCH  70  74
ATOM     74  S   UNL A   1      41.720  20.328  26.473  1.00  0.00     0.124 S 
ATOM     75  O   UNL A   1      42.346  20.013  27.751  1.00  0.00    -0.237 OA
ATOM     76  O   UNL A   1      40.292  20.622  26.510  1.00  0.00    -0.237 OA
ATOM     77  O   UNL A   1      42.155  19.507  25.344  1.00  0.00    -0.744 OA
ENDBRANCH  70  74
ENDBRANCH  43  67
BRANCH  55  78
ATOM     78  C   UNL A   1      47.698  26.491  31.467  1.00  0.00     0.023 A 
ATOM     79  C   UNL A   1      48.800  26.972  30.739  1.00  0.00     0.031 A 
ATOM     80  C   UNL A   1      47.944  25.586  32.516  1.00  0.00     0.131 A 
ATOM     81  C   UNL A   1      50.094  26.518  31.044  1.00  0.00     0.055 A 
ATOM     82  C   UNL A   1      49.237  25.182  32.853  1.00  0.00     0.041 A 
ATOM     83  F   UNL A   1      46.929  25.088  33.241  1.00  0.00    -0.206 F 
ATOM     84  C   UNL A   1      50.320  25.641  32.109  1.00  0.00     0.022 A 
BRANCH  81  85
ATOM     85  S   UNL A   1      51.475  27.032  29.987  1.00  0.00     0.124 S 
ATOM     86  O   UNL A   1      52.615  26.892  30.887  1.00  0.00    -0.237 OA
ATOM     87  O   UNL A   1      51.405  26.072  28.891  1.00  0.00    -0.237 OA
ATOM     88  O   UNL A   1      51.137  28.408  29.625  1.00  0.00    -0.744 OA
ENDBRANCH  81  85
ENDBRANCH  55  78
ENDBRANCH  29  30
ENDBRANCH  21  24
ENDBRANCH  19  20
ENDBRANCH  18  19
ENDBRANCH   1  18
TORSDOF 17
ENDMDL
MODEL 2
REMARK VINA RESULT:     -10.0      4.521     10.672
REMARK SMILES COc1ncccc1CS[C@@H](C)C(=O)NCCCNC(=O)c1ccc(-c2c3nc(c(-c4cc(S(=O)(=O)[O-])ccc4F)c4ccc([nH]4)c(-c4cc(S(=O)(=O)[O-])ccc4F)c4nc(c(-c5cc(S(=O)(=O)[O-])ccc5F)c5ccc2[nH]5)C=C4)C=C3)cc1
REMARK SMILES IDX 16 1 15 2 13 3 14 4 11 6 12 7 10 8 9 9 8 10 3 11 4 12 5 13
REMARK SMILES IDX 7 14 6 15 2 16 1 17 17 18 18 19 19 20 20 21 21 23 22 24
REMARK SMILES IDX 23 25 84 26 24 27 83 28 25 29 26 30 27 31 77 32 28 33 82 34
REMARK SMILES IDX 76 35 78 36 29 37 81 38 75 39 74 40 30 42 62 43 42 44 61 45
REMARK SMILES IDX 43 46 46 47 60 48 79 49 44 50 45 51 59 53 80 54 47 55 31 56
REMARK SMILES IDX 32 57 40 58 33 59 39 60 41 61 38 62 34 63 35 64 36 65 37 66
REMARK SMILES IDX 63 67 64 68 72 69 65 70 71 71 73 72 70 73 66 74 67 75 68 76
REMARK SMILES IDX 69 77 48 78 49 79 57 80 50 81 56 82 58 83 55 84 51 85 52 86
REMARK SMILES IDX 53 87 54 88
REMARK H PARENT 15 5 19 22 78 41 46 52
REMARK Flexibility Score: inf
ROOT
ATOM      1  C   UNL A   1      32.009  30.328  25.914  1.00  0.00     0.117 C 
ENDROOT
BRANCH   1   2
ATOM      2  N   UNL A   1      31.225  30.152  24.705  1.00  0.00    -0.355 N 
ATOM      3  C   UNL A   1      30.860  29.095  23.928  1.00  0.00     0.232 C 
ATOM      4  O   UNL A   1      29.973  29.342  23.097  1.00  0.00    -0.274 OA
ATOM      5  H   UNL A   1      30.871  31.005  24.363  1.00  0.00     0.163 HD
BRANCH   3   6
ATOM      6  C   UNL A   1      31.421  27.683  23.994  1.00  0.00     0.133 C 
ATOM      7  C   UNL A   1      31.587  26.984  22.650  1.00  0.00     0.030 C 
BRANCH   6   8
ATOM      8  S   UNL A   1      30.809  26.571  25.309  1.00  0.00    -0.144 SA
BRANCH   8   9
ATOM      9  C   UNL A   1      32.212  26.204  26.391  1.00  0.00     0.111 C 
BRANCH   9  10
ATOM     10  C   UNL A   1      32.942  24.896  26.244  1.00  0.00     0.024 A 
ATOM     11  C   UNL A   1      32.454  23.693  26.746  1.00  0.00     0.217 A 
ATOM     12  N   UNL A   1      33.166  22.541  26.789  1.00  0.00    -0.222 NA
ATOM     13  C   UNL A   1      34.432  22.571  26.323  1.00  0.00     0.115 A 
ATOM     14  C   UNL A   1      34.252  24.851  25.750  1.00  0.00     0.012 A 
ATOM     15  C   UNL A   1      35.016  23.695  25.790  1.00  0.00     0.021 A 
BRANCH  11  16
ATOM     16  O   UNL A   1      31.272  23.648  27.435  1.00  0.00    -0.481 OA
ATOM     17  C   UNL A   1      30.255  22.992  26.690  1.00  0.00     0.280 C 
ENDBRANCH  11  16
ENDBRANCH   9  10
ENDBRANCH   8   9
ENDBRANCH   6   8
ENDBRANCH   3   6
ENDBRANCH   1   2
BRANCH   1  18
ATOM     18  C   UNL A   1      31.771  31.559  26.817  1.00  0.00     0.042 C 
BRANCH  18  19
ATOM     19  C   UNL A   1      32.900  32.444  27.359  1.00  0.00     0.118 C 
BRANCH  19  20
ATOM     20  N   UNL A   1      32.545  33.804  27.698  1.00  0.00    -0.352 N 
ATOM     21  C   UNL A   1      33.203  34.638  28.585  1.00  0.00     0.251 C 
ATOM     22  H   UNL A   1      31.753  34.176  27.249  1.00  0.00     0.163 HD
ATOM     23  O   UNL A   1      32.797  35.775  28.771  1.00  0.00    -0.269 OA
BRANCH  21  24
ATOM     24  C   UNL A   1      34.386  34.140  29.333  1.00  0.00     0.039 A 
ATOM     25  C   UNL A   1      34.192  33.343  30.464  1.00  0.00     0.014 A 
ATOM     26  C   UNL A   1      35.680  34.493  28.940  1.00  0.00     0.014 A 
ATOM     27  C   UNL A   1      35.298  32.849  31.170  1.00  0.00     0.010 A 
ATOM     28  C   UNL A   1      36.785  33.982  29.639  1.00  0.00     0.010 A 
ATOM     29  C   UNL A   1      36.608  33.137  30.749  1.00  0.00    -0.014 A 
BRANCH  29  30
ATOM     30  C   UNL A   1      37.782  32.487  31.407  1.00  0.00     0.031 A 
ATOM     31  C   UNL A   1      38.501  31.327  30.768  1.00  0.00     0.074 A 
ATOM     32  C   UNL A   1      38.184  32.927  32.617  1.00  0.00     0.049 A 
ATOM     33  N   UNL A   1      39.508  30.625  31.225  1.00  0.00    -0.248 NA
ATOM     34  C   UNL A   1      38.018  30.900  29.450  1.00  0.00     0.031 C 
ATOM     35  C   UNL A   1      37.573  34.039  33.346  1.00  0.00     0.029 A 
ATOM     36  N   UNL A   1      39.186  32.495  33.452  1.00  0.00    -0.354 N 
ATOM     37  C   UNL A   1      39.788  29.672  30.251  1.00  0.00     0.074 A 
ATOM     38  C   UNL A   1      38.808  29.864  29.198  1.00  0.00     0.031 C 
ATOM     39  C   UNL A   1      38.220  34.210  34.510  1.00  0.00     0.029 A 
ATOM     40  C   UNL A   1      39.256  33.189  34.639  1.00  0.00     0.049 A 
ATOM     41  H   UNL A   1      39.797  31.757  33.223  1.00  0.00     0.167 HD
ATOM     42  C   UNL A   1      40.774  28.736  30.229  1.00  0.00     0.034 A 
ATOM     43  C   UNL A   1      40.043  33.014  35.721  1.00  0.00     0.034 A 
ATOM     44  C   UNL A   1      41.730  28.540  31.296  1.00  0.00     0.049 A 
ATOM     45  C   UNL A   1      41.063  31.903  35.717  1.00  0.00     0.074 A 
ATOM     46  C   UNL A   1      42.791  27.650  31.350  1.00  0.00     0.029 A 
ATOM     47  N   UNL A   1      41.728  29.221  32.506  1.00  0.00    -0.354 N 
ATOM     48  N   UNL A   1      41.346  31.045  34.763  1.00  0.00    -0.248 NA
ATOM     49  C   UNL A   1      41.869  31.735  36.934  1.00  0.00     0.031 C 
ATOM     50  C   UNL A   1      43.375  27.734  32.620  1.00  0.00     0.029 A 
ATOM     51  C   UNL A   1      42.734  28.736  33.332  1.00  0.00     0.049 A 
ATOM     52  H   UNL A   1      41.104  29.944  32.745  1.00  0.00     0.167 HD
ATOM     53  C   UNL A   1      42.376  30.251  35.260  1.00  0.00     0.074 A 
ATOM     54  C   UNL A   1      42.678  30.743  36.588  1.00  0.00     0.031 C 
ATOM     55  C   UNL A   1      43.017  29.213  34.666  1.00  0.00     0.034 A 
BRANCH  42  56
ATOM     56  C   UNL A   1      40.841  27.823  29.025  1.00  0.00     0.023 A 
ATOM     57  C   UNL A   1      41.775  28.030  27.994  1.00  0.00     0.031 A 
ATOM     58  C   UNL A   1      39.954  26.740  28.895  1.00  0.00     0.131 A 
ATOM     59  C   UNL A   1      41.746  27.223  26.847  1.00  0.00     0.055 A 
ATOM     60  C   UNL A   1      39.986  25.887  27.789  1.00  0.00     0.041 A 
ATOM     61  F   UNL A   1      39.031  26.495  29.839  1.00  0.00    -0.206 F 
ATOM     62  C   UNL A   1      40.875  26.137  26.747  1.00  0.00     0.022 A 
BRANCH  59  63
ATOM     63  S   UNL A   1      42.759  27.708  25.422  1.00  0.00     0.124 S 
ATOM     64  O   UNL A   1      43.986  28.165  26.073  1.00  0.00    -0.237 OA
ATOM     65  O   UNL A   1      42.860  26.464  24.669  1.00  0.00    -0.237 OA
ATOM     66  O   UNL A   1      41.973  28.762  24.785  1.00  0.00    -0.744 OA
ENDBRANCH  59  63
ENDBRANCH  42  56
BRANCH  43  67
ATOM     67  C   UNL A   1      39.879  33.886  36.920  1.00  0.00     0.023 A 
ATOM     68  C   UNL A   1      40.803  34.903  37.211  1.00  0.00     0.031 A 
ATOM     69  C   UNL A   1      38.813  33.690  37.819  1.00  0.00     0.131 A 
ATOM     70  C   UNL A   1      40.667  35.659  38.386  1.00  0.00     0.055 A 
ATOM     71  C   UNL A   1      38.651  34.480  38.957  1.00  0.00     0.041 A 
ATOM     72  F   UNL A   1      37.902  32.731  37.592  1.00  0.00    -0.206 F 
ATOM     73  C   UNL A   1      39.588  35.465  39.252  1.00  0.00     0.022 A 
BRANCH  70  74
ATOM     74  S   UNL A   1      41.966  36.852  38.808  1.00  0.00     0.124 S 
ATOM     75  O   UNL A   1      42.746  36.890  37.577  1.00  0.00    -0.237 OA
ATOM     76  O   UNL A   1      41.190  38.048  39.117  1.00  0.00    -0.237 OA
ATOM     77  O   UNL A   1      42.635  36.234  39.952  1.00  0.00    -0.744 OA
ENDBRANCH  70  74
ENDBRANCH  43  67
BRANCH  55  78
ATOM     78  C   UNL A   1      44.130  28.551  35.444  1.00  0.00     0.023 A 
ATOM     79  C   UNL A   1      43.881  27.496  36.339  1.00  0.00     0.031 A 
ATOM     80  C   UNL A   1      45.461  28.978  35.281  1.00  0.00     0.131 A 
ATOM     81  C   UNL A   1      44.940  26.927  37.065  1.00  0.00     0.055 A 
ATOM     82  C   UNL A   1      46.518  28.371  35.963  1.00  0.00     0.041 A 
ATOM     83  F   UNL A   1      45.758  29.986  34.446  1.00  0.00    -0.206 F 
ATOM     84  C   UNL A   1      46.259  27.346  36.867  1.00  0.00     0.022 A 
BRANCH  81  85
ATOM     85  S   UNL A   1      44.567  25.679  38.326  1.00  0.00     0.124 S 
ATOM     86  O   UNL A   1      43.566  24.858  37.653  1.00  0.00    -0.237 OA
ATOM     87  O   UNL A   1      45.866  25.051  38.541  1.00  0.00    -0.237 OA
ATOM     88  O   UNL A   1      44.067  26.466  39.452  1.00  0.00    -0.744 OA
ENDBRANCH  81  85
ENDBRANCH  55  78
ENDBRANCH  29  30
ENDBRANCH  21  24
ENDBRANCH  19  20
ENDBRANCH  18  19
ENDBRANCH   1  18
TORSDOF 17
ENDMDL
MODEL 3
REMARK VINA RESULT:     -10.0      4.314     10.807
REMARK SMILES COc1ncccc1CS[C@@H](C)C(=O)NCCCNC(=O)c1ccc(-c2c3nc(c(-c4cc(S(=O)(=O)[O-])ccc4F)c4ccc([nH]4)c(-c4cc(S(=O)(=O)[O-])ccc4F)c4nc(c(-c5cc(S(=O)(=O)[O-])ccc5F)c5ccc2[nH]5)C=C4)C=C3)cc1
REMARK SMILES IDX 16 1 15 2 13 3 14 4 11 6 12 7 10 8 9 9 8 10 3 11 4 12 5 13
REMARK SMILES IDX 7 14 6 15 2 16 1 17 17 18 18 19 19 20 20 21 21 23 22 24
REMARK SMILES IDX 23 25 84 26 24 27 83 28 25 29 26 30 27 31 77 32 28 33 82 34
REMARK SMILES IDX 76 35 78 36 29 37 81 38 75 39 74 40 30 42 62 43 42 44 61 45
REMARK SMILES IDX 43 46 46 47 60 48 79 49 44 50 45 51 59 53 80 54 47 55 31 56
REMARK SMILES IDX 32 57 40 58 33 59 39 60 41 61 38 62 34 63 35 64 36 65 37 66
REMARK SMILES IDX 63 67 64 68 72 69 65 70 71 71 73 72 70 73 66 74 67 75 68 76
REMARK SMILES IDX 69 77 48 78 49 79 57 80 50 81 56 82 58 83 55 84 51 85 52 86
REMARK SMILES IDX 53 87 54 88
REMARK H PARENT 15 5 19 22 78 41 46 52
REMARK Flexibility Score: inf
ROOT
ATOM      1  C   UNL A   1      32.008  30.189  26.200  1.00  0.00     0.117 C 
ENDROOT
BRANCH   1   2
ATOM      2  N   UNL A   1      32.844  29.942  25.039  1.00  0.00    -0.355 N 
ATOM      3  C   UNL A   1      33.215  28.844  24.324  1.00  0.00     0.232 C 
ATOM      4  O   UNL A   1      33.763  29.091  23.239  1.00  0.00    -0.274 OA
ATOM      5  H   UNL A   1      33.239  30.770  24.682  1.00  0.00     0.163 HD
BRANCH   3   6
ATOM      6  C   UNL A   1      33.017  27.391  24.723  1.00  0.00     0.133 C 
ATOM      7  C   UNL A   1      33.453  27.038  26.140  1.00  0.00     0.030 C 
BRANCH   6   8
ATOM      8  S   UNL A   1      33.432  26.094  23.504  1.00  0.00    -0.144 SA
BRANCH   8   9
ATOM      9  C   UNL A   1      33.318  24.504  24.358  1.00  0.00     0.111 C 
BRANCH   9  10
ATOM     10  C   UNL A   1      34.564  23.688  24.578  1.00  0.00     0.024 A 
ATOM     11  C   UNL A   1      34.630  22.320  24.333  1.00  0.00     0.217 A 
ATOM     12  N   UNL A   1      35.672  21.531  24.690  1.00  0.00    -0.222 NA
ATOM     13  C   UNL A   1      36.705  22.113  25.333  1.00  0.00     0.115 A 
ATOM     14  C   UNL A   1      35.681  24.234  25.224  1.00  0.00     0.012 A 
ATOM     15  C   UNL A   1      36.760  23.457  25.616  1.00  0.00     0.021 A 
BRANCH  11  16
ATOM     16  O   UNL A   1      33.531  21.632  23.894  1.00  0.00    -0.481 OA
ATOM     17  C   UNL A   1      32.770  21.113  24.976  1.00  0.00     0.280 C 
ENDBRANCH  11  16
ENDBRANCH   9  10
ENDBRANCH   8   9
ENDBRANCH   6   8
ENDBRANCH   3   6
ENDBRANCH   1   2
BRANCH   1  18
ATOM     18  C   UNL A   1      31.754  31.636  26.675  1.00  0.00     0.042 C 
BRANCH  18  19
ATOM     19  C   UNL A   1      32.829  32.519  27.321  1.00  0.00     0.118 C 
BRANCH  19  20
ATOM     20  N   UNL A   1      32.427  33.859  27.684  1.00  0.00    -0.352 N 
ATOM     21  C   UNL A   1      33.052  34.697  28.591  1.00  0.00     0.251 C 
ATOM     22  H   UNL A   1      31.625  34.214  27.238  1.00  0.00     0.163 HD
ATOM     23  O   UNL A   1      32.608  35.817  28.797  1.00  0.00    -0.269 OA
BRANCH  21  24
ATOM     24  C   UNL A   1      34.247  34.224  29.336  1.00  0.00     0.039 A 
ATOM     25  C   UNL A   1      34.072  33.536  30.540  1.00  0.00     0.014 A 
ATOM     26  C   UNL A   1      35.536  34.494  28.866  1.00  0.00     0.014 A 
ATOM     27  C   UNL A   1      35.189  33.066  31.246  1.00  0.00     0.010 A 
ATOM     28  C   UNL A   1      36.650  34.006  29.567  1.00  0.00     0.010 A 
ATOM     29  C   UNL A   1      36.490  33.269  30.752  1.00  0.00    -0.014 A 
BRANCH  29  30
ATOM     30  C   UNL A   1      37.667  32.636  31.422  1.00  0.00     0.031 A 
ATOM     31  C   UNL A   1      38.394  31.471  30.803  1.00  0.00     0.074 A 
ATOM     32  C   UNL A   1      38.064  33.097  32.626  1.00  0.00     0.049 A 
ATOM     33  N   UNL A   1      39.405  30.782  31.272  1.00  0.00    -0.248 NA
ATOM     34  C   UNL A   1      37.915  31.020  29.491  1.00  0.00     0.031 C 
ATOM     35  C   UNL A   1      37.446  34.217  33.337  1.00  0.00     0.029 A 
ATOM     36  N   UNL A   1      39.068  32.685  33.469  1.00  0.00    -0.354 N 
ATOM     37  C   UNL A   1      39.692  29.815  30.313  1.00  0.00     0.074 A 
ATOM     38  C   UNL A   1      38.711  29.985  29.256  1.00  0.00     0.031 C 
ATOM     39  C   UNL A   1      38.091  34.410  34.498  1.00  0.00     0.029 A 
ATOM     40  C   UNL A   1      39.133  33.398  34.645  1.00  0.00     0.049 A 
ATOM     41  H   UNL A   1      39.684  31.948  33.252  1.00  0.00     0.167 HD
ATOM     42  C   UNL A   1      40.683  28.886  30.307  1.00  0.00     0.034 A 
ATOM     43  C   UNL A   1      39.920  33.245  35.730  1.00  0.00     0.034 A 
ATOM     44  C   UNL A   1      41.639  28.712  31.378  1.00  0.00     0.049 A 
ATOM     45  C   UNL A   1      40.946  32.140  35.744  1.00  0.00     0.074 A 
ATOM     46  C   UNL A   1      42.706  27.830  31.447  1.00  0.00     0.029 A 
ATOM     47  N   UNL A   1      41.632  29.413  32.577  1.00  0.00    -0.354 N 
ATOM     48  N   UNL A   1      41.235  31.270  34.805  1.00  0.00    -0.248 NA
ATOM     49  C   UNL A   1      41.752  31.996  36.965  1.00  0.00     0.031 C 
ATOM     50  C   UNL A   1      43.288  27.938  32.716  1.00  0.00     0.029 A 
ATOM     51  C   UNL A   1      42.640  28.947  33.411  1.00  0.00     0.049 A 
ATOM     52  H   UNL A   1      41.004  30.135  32.804  1.00  0.00     0.167 HD
ATOM     53  C   UNL A   1      42.271  30.490  35.315  1.00  0.00     0.074 A 
ATOM     54  C   UNL A   1      42.568  31.005  36.636  1.00  0.00     0.031 C 
ATOM     55  C   UNL A   1      42.919  29.446  34.738  1.00  0.00     0.034 A 
BRANCH  42  56
ATOM     56  C   UNL A   1      40.758  27.955  29.117  1.00  0.00     0.023 A 
ATOM     57  C   UNL A   1      41.667  28.173  28.066  1.00  0.00     0.031 A 
ATOM     58  C   UNL A   1      39.903  26.843  29.022  1.00  0.00     0.131 A 
ATOM     59  C   UNL A   1      41.643  27.345  26.934  1.00  0.00     0.055 A 
ATOM     60  C   UNL A   1      39.942  25.972  27.930  1.00  0.00     0.041 A 
ATOM     61  F   UNL A   1      39.004  26.586  29.986  1.00  0.00    -0.206 F 
ATOM     62  C   UNL A   1      40.804  26.231  26.868  1.00  0.00     0.022 A 
BRANCH  59  63
ATOM     63  S   UNL A   1      42.615  27.836  25.482  1.00  0.00     0.124 S 
ATOM     64  O   UNL A   1      42.567  26.621  24.671  1.00  0.00    -0.237 OA
ATOM     65  O   UNL A   1      41.865  28.976  24.971  1.00  0.00    -0.237 OA
ATOM     66  O   UNL A   1      43.929  28.151  26.040  1.00  0.00    -0.744 OA
ENDBRANCH  59  63
ENDBRANCH  42  56
BRANCH  43  67
ATOM     67  C   UNL A   1      39.749  34.135  36.915  1.00  0.00     0.023 A 
ATOM     68  C   UNL A   1      39.158  33.663  38.099  1.00  0.00     0.031 A 
ATOM     69  C   UNL A   1      40.139  35.487  36.868  1.00  0.00     0.131 A 
ATOM     70  C   UNL A   1      38.940  34.542  39.171  1.00  0.00     0.055 A 
ATOM     71  C   UNL A   1      39.970  36.343  37.958  1.00  0.00     0.041 A 
ATOM     72  F   UNL A   1      40.707  35.992  35.762  1.00  0.00    -0.206 F 
ATOM     73  C   UNL A   1      39.357  35.874  39.115  1.00  0.00     0.022 A 
BRANCH  70  74
ATOM     74  S   UNL A   1      38.031  33.937  40.620  1.00  0.00     0.124 S 
ATOM     75  O   UNL A   1      36.954  33.176  39.997  1.00  0.00    -0.237 OA
ATOM     76  O   UNL A   1      39.051  33.160  41.315  1.00  0.00    -0.237 OA
ATOM     77  O   UNL A   1      37.617  35.165  41.297  1.00  0.00    -0.744 OA
ENDBRANCH  70  74
ENDBRANCH  43  67
BRANCH  55  78
ATOM     78  C   UNL A   1      44.035  28.804  35.528  1.00  0.00     0.023 A 
ATOM     79  C   UNL A   1      43.804  27.708  36.378  1.00  0.00     0.031 A 
ATOM     80  C   UNL A   1      45.351  29.291  35.421  1.00  0.00     0.131 A 
ATOM     81  C   UNL A   1      44.864  27.159  37.117  1.00  0.00     0.055 A 
ATOM     82  C   UNL A   1      46.411  28.704  36.114  1.00  0.00     0.041 A 
ATOM     83  F   UNL A   1      45.630  30.339  34.630  1.00  0.00    -0.206 F 
ATOM     84  C   UNL A   1      46.169  27.638  36.975  1.00  0.00     0.022 A 
BRANCH  81  85
ATOM     85  S   UNL A   1      44.506  25.852  38.322  1.00  0.00     0.124 S 
ATOM     86  O   UNL A   1      44.119  26.623  39.499  1.00  0.00    -0.237 OA
ATOM     87  O   UNL A   1      43.436  25.106  37.669  1.00  0.00    -0.237 OA
ATOM     88  O   UNL A   1      45.775  25.136  38.441  1.00  0.00    -0.744 OA
ENDBRANCH  81  85
ENDBRANCH  55  78
ENDBRANCH  29  30
ENDBRANCH  21  24
ENDBRANCH  19  20
ENDBRANCH  18  19
ENDBRANCH   1  18
TORSDOF 17
ENDMDL
