MODEL 1
REMARK VINA RESULT:     -11.9      0.000      0.000
REMARK SMILES C[C@@H](C(=O)NCCCNC(=O)c1ccc(-c2c3nc(c(-c4cc(S(=O)(=O)[O-])ccc4F)c4ccc([nH]4)c(-c4cc(S(=O)(=O)[O-])ccc4F)c4nc(c(-c5cc(S(=O)(=O)[O-])ccc5F)c5ccc2[nH]5)C=C4)C=C3)cc1)c1ccc(C[C@@H]2CCC[C@@H]2O)cc1
REMARK SMILES IDX 6 1 5 2 3 3 4 4 2 6 1 7 75 8 76 9 87 10 77 11 86 12 78 13
REMARK SMILES IDX 79 14 80 15 81 16 84 17 82 18 83 19 85 20 7 22 8 23 9 24
REMARK SMILES IDX 10 25 11 27 12 28 13 29 74 30 14 31 73 32 15 33 16 34 17 35
REMARK SMILES IDX 67 36 18 37 72 38 66 39 68 40 19 41 71 42 65 43 64 44 20 46
REMARK SMILES IDX 52 47 32 48 51 49 33 50 36 51 50 52 69 53 34 54 35 55 49 57
REMARK SMILES IDX 70 58 37 59 21 60 22 61 30 62 23 63 29 64 31 65 28 66 24 67
REMARK SMILES IDX 25 68 26 69 27 70 53 71 54 72 62 73 55 74 61 75 63 76 60 77
REMARK SMILES IDX 56 78 57 79 58 80 59 81 38 82 39 83 47 84 40 85 46 86 48 87
REMARK SMILES IDX 45 88 41 89 42 90 43 91 44 92
REMARK H PARENT 5 5 85 21 9 26 68 45 36 56
REMARK Flexibility Score: inf
ROOT
ATOM      1  C   UNL A   1      31.781  30.502  25.963  1.00  0.00     0.117 C 
ENDROOT
BRANCH   1   2
ATOM      2  N   UNL A   1      31.796  29.514  27.024  1.00  0.00    -0.356 N 
ATOM      3  C   UNL A   1      31.676  28.155  26.964  1.00  0.00     0.227 C 
ATOM      4  O   UNL A   1      31.345  27.609  28.017  1.00  0.00    -0.274 OA
ATOM      5  H   UNL A   1      31.911  29.880  27.930  1.00  0.00     0.163 HD
BRANCH   3   6
ATOM      6  C   UNL A   1      31.926  27.421  25.635  1.00  0.00     0.105 C 
ATOM      7  C   UNL A   1      30.642  27.488  24.792  1.00  0.00     0.023 C 
BRANCH   6   8
ATOM      8  C   UNL A   1      32.400  25.964  25.704  1.00  0.00    -0.036 A 
ATOM      9  C   UNL A   1      31.434  24.941  25.660  1.00  0.00     0.005 A 
ATOM     10  C   UNL A   1      33.732  25.573  25.878  1.00  0.00     0.005 A 
ATOM     11  C   UNL A   1      31.769  23.607  25.913  1.00  0.00     0.004 A 
ATOM     12  C   UNL A   1      34.069  24.243  26.142  1.00  0.00     0.004 A 
ATOM     13  C   UNL A   1      33.084  23.256  26.224  1.00  0.00    -0.048 A 
BRANCH  13  14
ATOM     14  C   UNL A   1      33.446  21.869  26.689  1.00  0.00     0.041 C 
BRANCH  14  15
ATOM     15  C   UNL A   1      33.998  20.878  25.635  1.00  0.00     0.022 C 
ATOM     16  C   UNL A   1      33.905  21.361  24.183  1.00  0.00     0.007 C 
ATOM     17  C   UNL A   1      33.360  19.485  25.564  1.00  0.00     0.117 C 
ATOM     18  C   UNL A   1      32.701  20.653  23.554  1.00  0.00     0.003 C 
ATOM     19  C   UNL A   1      32.212  19.631  24.573  1.00  0.00     0.032 C 
BRANCH  17  20
ATOM     20  O   UNL A   1      32.956  18.990  26.823  1.00  0.00    -0.393 OA
ATOM     21  H   UNL A   1      33.107  18.032  26.857  1.00  0.00     0.210 HD
ENDBRANCH  17  20
ENDBRANCH  14  15
ENDBRANCH  13  14
ENDBRANCH   6   8
ENDBRANCH   3   6
ENDBRANCH   1   2
BRANCH   1  22
ATOM     22  C   UNL A   1      31.550  31.908  26.519  1.00  0.00     0.042 C 
BRANCH  22  23
ATOM     23  C   UNL A   1      32.680  32.434  27.401  1.00  0.00     0.118 C 
BRANCH  23  24
ATOM     24  N   UNL A   1      32.543  33.851  27.694  1.00  0.00    -0.352 N 
ATOM     25  C   UNL A   1      33.195  34.619  28.625  1.00  0.00     0.251 C 
ATOM     26  H   UNL A   1      31.885  34.331  27.142  1.00  0.00     0.163 HD
ATOM     27  O   UNL A   1      32.781  35.756  28.859  1.00  0.00    -0.269 OA
BRANCH  25  28
ATOM     28  C   UNL A   1      34.363  34.086  29.361  1.00  0.00     0.039 A 
ATOM     29  C   UNL A   1      34.141  33.269  30.473  1.00  0.00     0.014 A 
ATOM     30  C   UNL A   1      35.670  34.403  28.980  1.00  0.00     0.014 A 
ATOM     31  C   UNL A   1      35.227  32.725  31.163  1.00  0.00     0.010 A 
ATOM     32  C   UNL A   1      36.749  33.797  29.621  1.00  0.00     0.010 A 
ATOM     33  C   UNL A   1      36.540  32.953  30.722  1.00  0.00    -0.014 A 
BRANCH  33  34
ATOM     34  C   UNL A   1      37.701  32.316  31.401  1.00  0.00     0.031 A 
ATOM     35  C   UNL A   1      38.431  31.173  30.748  1.00  0.00     0.074 A 
ATOM     36  C   UNL A   1      38.065  32.737  32.630  1.00  0.00     0.049 A 
ATOM     37  N   UNL A   1      39.419  30.450  31.209  1.00  0.00    -0.248 NA
ATOM     38  C   UNL A   1      37.970  30.774  29.408  1.00  0.00     0.031 C 
ATOM     39  C   UNL A   1      37.413  33.811  33.381  1.00  0.00     0.029 A 
ATOM     40  N   UNL A   1      39.066  32.309  33.468  1.00  0.00    -0.354 N 
ATOM     41  C   UNL A   1      39.692  29.506  30.225  1.00  0.00     0.074 A 
ATOM     42  C   UNL A   1      38.723  29.712  29.169  1.00  0.00     0.031 C 
ATOM     43  C   UNL A   1      38.045  33.973  34.555  1.00  0.00     0.029 A 
ATOM     44  C   UNL A   1      39.112  32.984  34.666  1.00  0.00     0.049 A 
ATOM     45  H   UNL A   1      39.693  31.587  33.233  1.00  0.00     0.167 HD
ATOM     46  C   UNL A   1      40.671  28.568  30.197  1.00  0.00     0.034 A 
ATOM     47  C   UNL A   1      39.908  32.816  35.741  1.00  0.00     0.034 A 
ATOM     48  C   UNL A   1      41.634  28.380  31.257  1.00  0.00     0.049 A 
ATOM     49  C   UNL A   1      40.971  31.747  35.698  1.00  0.00     0.074 A 
ATOM     50  C   UNL A   1      42.697  27.495  31.307  1.00  0.00     0.029 A 
ATOM     51  N   UNL A   1      41.646  29.080  32.457  1.00  0.00    -0.354 N 
ATOM     52  N   UNL A   1      41.245  30.892  34.739  1.00  0.00    -0.248 NA
ATOM     53  C   UNL A   1      41.838  31.627  36.877  1.00  0.00     0.031 C 
ATOM     54  C   UNL A   1      43.302  27.605  32.563  1.00  0.00     0.029 A 
ATOM     55  C   UNL A   1      42.675  28.622  33.266  1.00  0.00     0.049 A 
ATOM     56  H   UNL A   1      41.015  29.797  32.699  1.00  0.00     0.167 HD
ATOM     57  C   UNL A   1      42.338  30.155  35.188  1.00  0.00     0.074 A 
ATOM     58  C   UNL A   1      42.680  30.678  36.495  1.00  0.00     0.031 C 
ATOM     59  C   UNL A   1      43.001  29.142  34.574  1.00  0.00     0.034 A 
BRANCH  46  60
ATOM     60  C   UNL A   1      40.731  27.655  28.995  1.00  0.00     0.023 A 
ATOM     61  C   UNL A   1      41.690  27.828  27.980  1.00  0.00     0.031 A 
ATOM     62  C   UNL A   1      39.811  26.600  28.854  1.00  0.00     0.131 A 
ATOM     63  C   UNL A   1      41.663  27.007  26.842  1.00  0.00     0.055 A 
ATOM     64  C   UNL A   1      39.843  25.735  27.759  1.00  0.00     0.041 A 
ATOM     65  F   UNL A   1      38.859  26.397  29.778  1.00  0.00    -0.206 F 
ATOM     66  C   UNL A   1      40.764  25.945  26.737  1.00  0.00     0.022 A 
BRANCH  63  67
ATOM     67  S   UNL A   1      42.730  27.435  25.440  1.00  0.00     0.124 S 
ATOM     68  O   UNL A   1      42.021  28.579  24.868  1.00  0.00    -0.237 OA
ATOM     69  O   UNL A   1      44.001  27.732  26.088  1.00  0.00    -0.237 OA
ATOM     70  O   UNL A   1      42.716  26.229  24.616  1.00  0.00    -0.744 OA
ENDBRANCH  63  67
ENDBRANCH  46  60
BRANCH  47  71
ATOM     71  C   UNL A   1      39.723  33.660  36.957  1.00  0.00     0.023 A 
ATOM     72  C   UNL A   1      40.547  34.769  37.205  1.00  0.00     0.031 A 
ATOM     73  C   UNL A   1      38.740  33.345  37.912  1.00  0.00     0.131 A 
ATOM     74  C   UNL A   1      40.406  35.493  38.400  1.00  0.00     0.055 A 
ATOM     75  C   UNL A   1      38.564  34.102  39.071  1.00  0.00     0.041 A 
ATOM     76  F   UNL A   1      37.921  32.297  37.724  1.00  0.00    -0.206 F 
ATOM     77  C   UNL A   1      39.411  35.176  39.328  1.00  0.00     0.022 A 
BRANCH  74  78
ATOM     78  S   UNL A   1      41.605  36.802  38.770  1.00  0.00     0.124 S 
ATOM     79  O   UNL A   1      42.442  36.163  39.778  1.00  0.00    -0.237 OA
ATOM     80  O   UNL A   1      42.223  37.024  37.467  1.00  0.00    -0.237 OA
ATOM     81  O   UNL A   1      40.770  37.899  39.256  1.00  0.00    -0.744 OA
ENDBRANCH  74  78
ENDBRANCH  47  71
BRANCH  59  82
ATOM     82  C   UNL A   1      44.197  28.565  35.294  1.00  0.00     0.023 A 
ATOM     83  C   UNL A   1      44.061  27.594  36.302  1.00  0.00     0.031 A 
ATOM     84  C   UNL A   1      45.494  29.004  34.971  1.00  0.00     0.131 A 
ATOM     85  C   UNL A   1      45.195  27.137  36.990  1.00  0.00     0.055 A 
ATOM     86  C   UNL A   1      46.624  28.495  35.613  1.00  0.00     0.041 A 
ATOM     87  F   UNL A   1      45.685  29.934  34.022  1.00  0.00    -0.206 F 
ATOM     88  C   UNL A   1      46.477  27.567  36.639  1.00  0.00     0.022 A 
BRANCH  85  89
ATOM     89  S   UNL A   1      44.964  26.049  38.423  1.00  0.00     0.124 S 
ATOM     90  O   UNL A   1      46.052  26.468  39.300  1.00  0.00    -0.237 OA
ATOM     91  O   UNL A   1      43.617  26.397  38.867  1.00  0.00    -0.237 OA
ATOM     92  O   UNL A   1      45.102  24.707  37.861  1.00  0.00    -0.744 OA
ENDBRANCH  85  89
ENDBRANCH  59  82
ENDBRANCH  33  34
ENDBRANCH  25  28
ENDBRANCH  23  24
ENDBRANCH  22  23
ENDBRANCH   1  22
TORSDOF 17
ENDMDL
MODEL 2
REMARK VINA RESULT:     -11.7      4.563     10.861
REMARK SMILES C[C@@H](C(=O)NCCCNC(=O)c1ccc(-c2c3nc(c(-c4cc(S(=O)(=O)[O-])ccc4F)c4ccc([nH]4)c(-c4cc(S(=O)(=O)[O-])ccc4F)c4nc(c(-c5cc(S(=O)(=O)[O-])ccc5F)c5ccc2[nH]5)C=C4)C=C3)cc1)c1ccc(C[C@@H]2CCC[C@@H]2O)cc1
REMARK SMILES IDX 6 1 5 2 3 3 4 4 2 6 1 7 75 8 76 9 87 10 77 11 86 12 78 13
REMARK SMILES IDX 79 14 80 15 81 16 84 17 82 18 83 19 85 20 7 22 8 23 9 24
REMARK SMILES IDX 10 25 11 27 12 28 13 29 74 30 14 31 73 32 15 33 16 34 17 35
REMARK SMILES IDX 67 36 18 37 72 38 66 39 68 40 19 41 71 42 65 43 64 44 20 46
REMARK SMILES IDX 52 47 32 48 51 49 33 50 36 51 50 52 69 53 34 54 35 55 49 57
REMARK SMILES IDX 70 58 37 59 21 60 22 61 30 62 23 63 29 64 31 65 28 66 24 67
REMARK SMILES IDX 25 68 26 69 27 70 53 71 54 72 62 73 55 74 61 75 63 76 60 77
REMARK SMILES IDX 56 78 57 79 58 80 59 81 38 82 39 83 47 84 40 85 46 86 48 87
REMARK SMILES IDX 45 88 41 89 42 90 43 91 44 92
REMARK H PARENT 5 5 85 21 9 26 68 45 36 56
REMARK Flexibility Score: inf
ROOT
ATOM      1  C   UNL A   1      34.290  35.280  29.141  1.00  0.00     0.117 C 
ENDROOT
BRANCH   1   2
ATOM      2  N   UNL A   1      34.046  35.222  30.569  1.00  0.00    -0.356 N 
ATOM      3  C   UNL A   1      34.387  34.267  31.483  1.00  0.00     0.227 C 
ATOM      4  O   UNL A   1      33.738  34.283  32.529  1.00  0.00    -0.274 OA
ATOM      5  H   UNL A   1      33.556  35.993  30.938  1.00  0.00     0.163 HD
BRANCH   3   6
ATOM      6  C   UNL A   1      35.498  33.254  31.155  1.00  0.00     0.105 C 
ATOM      7  C   UNL A   1      35.433  32.110  32.179  1.00  0.00     0.023 C 
BRANCH   6   8
ATOM      8  C   UNL A   1      36.938  33.775  31.080  1.00  0.00    -0.036 A 
ATOM      9  C   UNL A   1      37.613  33.710  29.846  1.00  0.00     0.005 A 
ATOM     10  C   UNL A   1      37.663  34.255  32.176  1.00  0.00     0.005 A 
ATOM     11  C   UNL A   1      38.980  33.982  29.744  1.00  0.00     0.004 A 
ATOM     12  C   UNL A   1      39.033  34.517  32.080  1.00  0.00     0.004 A 
ATOM     13  C   UNL A   1      39.718  34.324  30.879  1.00  0.00    -0.048 A 
BRANCH  13  14
ATOM     14  C   UNL A   1      41.221  34.435  30.844  1.00  0.00     0.041 C 
BRANCH  14  15
ATOM     15  C   UNL A   1      41.946  33.987  29.551  1.00  0.00     0.022 C 
ATOM     16  C   UNL A   1      42.717  32.667  29.666  1.00  0.00     0.007 C 
ATOM     17  C   UNL A   1      42.996  34.935  28.960  1.00  0.00     0.117 C 
ATOM     18  C   UNL A   1      44.196  33.027  29.830  1.00  0.00     0.003 C 
ATOM     19  C   UNL A   1      44.306  34.534  29.627  1.00  0.00     0.032 C 
BRANCH  17  20
ATOM     20  O   UNL A   1      42.676  36.299  29.127  1.00  0.00    -0.393 OA
ATOM     21  H   UNL A   1      43.486  36.831  29.076  1.00  0.00     0.210 HD
ENDBRANCH  17  20
ENDBRANCH  14  15
ENDBRANCH  13  14
ENDBRANCH   6   8
ENDBRANCH   3   6
ENDBRANCH   1   2
BRANCH   1  22
ATOM     22  C   UNL A   1      33.566  34.149  28.409  1.00  0.00     0.042 C 
BRANCH  22  23
ATOM     23  C   UNL A   1      34.478  33.031  27.910  1.00  0.00     0.118 C 
BRANCH  23  24
ATOM     24  N   UNL A   1      33.743  31.830  27.552  1.00  0.00    -0.352 N 
ATOM     25  C   UNL A   1      34.168  30.527  27.496  1.00  0.00     0.251 C 
ATOM     26  H   UNL A   1      32.798  31.972  27.315  1.00  0.00     0.163 HD
ATOM     27  O   UNL A   1      33.445  29.684  26.963  1.00  0.00    -0.269 OA
BRANCH  25  28
ATOM     28  C   UNL A   1      35.487  30.138  28.042  1.00  0.00     0.039 A 
ATOM     29  C   UNL A   1      35.564  29.698  29.367  1.00  0.00     0.014 A 
ATOM     30  C   UNL A   1      36.649  30.226  27.270  1.00  0.00     0.014 A 
ATOM     31  C   UNL A   1      36.792  29.292  29.894  1.00  0.00     0.010 A 
ATOM     32  C   UNL A   1      37.858  29.748  27.773  1.00  0.00     0.010 A 
ATOM     33  C   UNL A   1      37.944  29.278  29.091  1.00  0.00    -0.014 A 
BRANCH  33  34
ATOM     34  C   UNL A   1      39.242  28.774  29.618  1.00  0.00     0.031 A 
ATOM     35  C   UNL A   1      39.928  29.483  30.755  1.00  0.00     0.074 A 
ATOM     36  C   UNL A   1      39.825  27.706  29.037  1.00  0.00     0.049 A 
ATOM     37  N   UNL A   1      41.088  29.235  31.305  1.00  0.00    -0.248 NA
ATOM     38  C   UNL A   1      39.226  30.641  31.331  1.00  0.00     0.031 C 
ATOM     39  C   UNL A   1      39.276  26.956  27.905  1.00  0.00     0.029 A 
ATOM     40  N   UNL A   1      41.011  27.068  29.311  1.00  0.00    -0.354 N 
ATOM     41  C   UNL A   1      41.262  30.209  32.283  1.00  0.00     0.074 A 
ATOM     42  C   UNL A   1      40.113  31.086  32.207  1.00  0.00     0.031 C 
ATOM     43  C   UNL A   1      40.110  25.949  27.599  1.00  0.00     0.029 A 
ATOM     44  C   UNL A   1      41.277  26.009  28.473  1.00  0.00     0.049 A 
ATOM     45  H   UNL A   1      41.614  27.343  30.039  1.00  0.00     0.167 HD
ATOM     46  C   UNL A   1      42.276  30.346  33.174  1.00  0.00     0.034 A 
ATOM     47  C   UNL A   1      42.344  25.190  28.402  1.00  0.00     0.034 A 
ATOM     48  C   UNL A   1      43.412  29.458  33.240  1.00  0.00     0.049 A 
ATOM     49  C   UNL A   1      43.473  25.380  29.385  1.00  0.00     0.074 A 
ATOM     50  C   UNL A   1      44.467  29.475  34.136  1.00  0.00     0.029 A 
ATOM     51  N   UNL A   1      43.648  28.398  32.372  1.00  0.00    -0.354 N 
ATOM     52  N   UNL A   1      43.599  26.278  30.335  1.00  0.00    -0.248 NA
ATOM     53  C   UNL A   1      44.597  24.439  29.293  1.00  0.00     0.031 C 
ATOM     54  C   UNL A   1      45.377  28.480  33.764  1.00  0.00     0.029 A 
ATOM     55  C   UNL A   1      44.849  27.780  32.691  1.00  0.00     0.049 A 
ATOM     56  H   UNL A   1      43.051  28.126  31.638  1.00  0.00     0.167 HD
ATOM     57  C   UNL A   1      44.802  25.989  30.973  1.00  0.00     0.074 A 
ATOM     58  C   UNL A   1      45.353  24.824  30.311  1.00  0.00     0.031 C 
ATOM     59  C   UNL A   1      45.395  26.625  32.016  1.00  0.00     0.034 A 
BRANCH  46  60
ATOM     60  C   UNL A   1      42.215  31.516  34.128  1.00  0.00     0.023 A 
ATOM     61  C   UNL A   1      41.381  31.505  35.262  1.00  0.00     0.031 A 
ATOM     62  C   UNL A   1      42.995  32.664  33.899  1.00  0.00     0.131 A 
ATOM     63  C   UNL A   1      41.295  32.642  36.080  1.00  0.00     0.055 A 
ATOM     64  C   UNL A   1      42.967  33.759  34.764  1.00  0.00     0.041 A 
ATOM     65  F   UNL A   1      43.794  32.743  32.824  1.00  0.00    -0.206 F 
ATOM     66  C   UNL A   1      42.102  33.759  35.855  1.00  0.00     0.022 A 
BRANCH  63  67
ATOM     67  S   UNL A   1      40.012  32.693  37.360  1.00  0.00     0.124 S 
ATOM     68  O   UNL A   1      39.512  34.060  37.223  1.00  0.00    -0.237 OA
ATOM     69  O   UNL A   1      39.102  31.635  36.938  1.00  0.00    -0.237 OA
ATOM     70  O   UNL A   1      40.748  32.428  38.594  1.00  0.00    -0.744 OA
ENDBRANCH  63  67
ENDBRANCH  46  60
BRANCH  47  71
ATOM     71  C   UNL A   1      42.415  24.129  27.355  1.00  0.00     0.023 A 
ATOM     72  C   UNL A   1      41.809  22.877  27.547  1.00  0.00     0.031 A 
ATOM     73  C   UNL A   1      43.125  24.340  26.160  1.00  0.00     0.131 A 
ATOM     74  C   UNL A   1      41.965  21.869  26.581  1.00  0.00     0.055 A 
ATOM     75  C   UNL A   1      43.228  23.355  25.177  1.00  0.00     0.041 A 
ATOM     76  F   UNL A   1      43.721  25.520  25.924  1.00  0.00    -0.206 F 
ATOM     77  C   UNL A   1      42.657  22.104  25.392  1.00  0.00     0.022 A 
BRANCH  74  78
ATOM     78  S   UNL A   1      41.325  20.211  26.945  1.00  0.00     0.124 S 
ATOM     79  O   UNL A   1      40.861  20.366  28.319  1.00  0.00    -0.237 OA
ATOM     80  O   UNL A   1      40.290  20.057  25.929  1.00  0.00    -0.237 OA
ATOM     81  O   UNL A   1      42.495  19.352  26.775  1.00  0.00    -0.744 OA
ENDBRANCH  74  78
ENDBRANCH  47  71
BRANCH  59  82
ATOM     82  C   UNL A   1      46.689  26.042  32.534  1.00  0.00     0.023 A 
ATOM     83  C   UNL A   1      47.930  26.352  31.952  1.00  0.00     0.031 A 
ATOM     84  C   UNL A   1      46.675  25.152  33.623  1.00  0.00     0.131 A 
ATOM     85  C   UNL A   1      49.098  25.733  32.423  1.00  0.00     0.055 A 
ATOM     86  C   UNL A   1      47.847  24.591  34.131  1.00  0.00     0.041 A 
ATOM     87  F   UNL A   1      45.518  24.813  34.215  1.00  0.00    -0.206 F 
ATOM     88  C   UNL A   1      49.066  24.869  33.521  1.00  0.00     0.022 A 
BRANCH  85  89
ATOM     89  S   UNL A   1      50.647  25.990  31.516  1.00  0.00     0.124 S 
ATOM     90  O   UNL A   1      50.482  25.096  30.374  1.00  0.00    -0.237 OA
ATOM     91  O   UNL A   1      50.602  27.419  31.217  1.00  0.00    -0.237 OA
ATOM     92  O   UNL A   1      51.676  25.590  32.473  1.00  0.00    -0.744 OA
ENDBRANCH  85  89
ENDBRANCH  59  82
ENDBRANCH  33  34
ENDBRANCH  25  28
ENDBRANCH  23  24
ENDBRANCH  22  23
ENDBRANCH   1  22
TORSDOF 17
ENDMDL
MODEL 3
REMARK VINA RESULT:     -11.6      3.443      9.345
REMARK SMILES C[C@@H](C(=O)NCCCNC(=O)c1ccc(-c2c3nc(c(-c4cc(S(=O)(=O)[O-])ccc4F)c4ccc([nH]4)c(-c4cc(S(=O)(=O)[O-])ccc4F)c4nc(c(-c5cc(S(=O)(=O)[O-])ccc5F)c5ccc2[nH]5)C=C4)C=C3)cc1)c1ccc(C[C@@H]2CCC[C@@H]2O)cc1
REMARK SMILES IDX 6 1 5 2 3 3 4 4 2 6 1 7 75 8 76 9 87 10 77 11 86 12 78 13
REMARK SMILES IDX 79 14 80 15 81 16 84 17 82 18 83 19 85 20 7 22 8 23 9 24
REMARK SMILES IDX 10 25 11 27 12 28 13 29 74 30 14 31 73 32 15 33 16 34 17 35
REMARK SMILES IDX 67 36 18 37 72 38 66 39 68 40 19 41 71 42 65 43 64 44 20 46
REMARK SMILES IDX 52 47 32 48 51 49 33 50 36 51 50 52 69 53 34 54 35 55 49 57
REMARK SMILES IDX 70 58 37 59 21 60 22 61 30 62 23 63 29 64 31 65 28 66 24 67
REMARK SMILES IDX 25 68 26 69 27 70 53 71 54 72 62 73 55 74 61 75 63 76 60 77
REMARK SMILES IDX 56 78 57 79 58 80 59 81 38 82 39 83 47 84 40 85 46 86 48 87
REMARK SMILES IDX 45 88 41 89 42 90 43 91 44 92
REMARK H PARENT 5 5 85 21 9 26 68 45 36 56
REMARK Flexibility Score: inf
ROOT
ATOM      1  C   UNL A   1      33.244  26.228  25.708  1.00  0.00     0.117 C 
ENDROOT
BRANCH   1   2
ATOM      2  N   UNL A   1      32.575  25.199  26.479  1.00  0.00    -0.356 N 
ATOM      3  C   UNL A   1      31.488  24.432  26.169  1.00  0.00     0.227 C 
ATOM      4  O   UNL A   1      30.912  23.923  27.131  1.00  0.00    -0.274 OA
ATOM      5  H   UNL A   1      32.966  25.024  27.365  1.00  0.00     0.163 HD
BRANCH   3   6
ATOM      6  C   UNL A   1      31.051  24.279  24.702  1.00  0.00     0.105 C 
ATOM      7  C   UNL A   1      32.181  23.585  23.925  1.00  0.00     0.023 C 
BRANCH   6   8
ATOM      8  C   UNL A   1      30.634  25.548  23.947  1.00  0.00    -0.036 A 
ATOM      9  C   UNL A   1      31.474  26.025  22.922  1.00  0.00     0.005 A 
ATOM     10  C   UNL A   1      29.503  26.313  24.251  1.00  0.00     0.005 A 
ATOM     11  C   UNL A   1      31.263  27.272  22.326  1.00  0.00     0.004 A 
ATOM     12  C   UNL A   1      29.297  27.565  23.665  1.00  0.00     0.004 A 
ATOM     13  C   UNL A   1      30.208  28.085  22.743  1.00  0.00    -0.048 A 
BRANCH  13  14
ATOM     14  C   UNL A   1      30.065  29.507  22.263  1.00  0.00     0.041 C 
BRANCH  14  15
ATOM     15  C   UNL A   1      28.700  30.206  22.483  1.00  0.00     0.022 C 
ATOM     16  C   UNL A   1      27.949  30.574  21.197  1.00  0.00     0.007 C 
ATOM     17  C   UNL A   1      28.694  31.527  23.261  1.00  0.00     0.117 C 
ATOM     18  C   UNL A   1      28.167  32.072  20.967  1.00  0.00     0.003 C 
ATOM     19  C   UNL A   1      28.882  32.607  22.202  1.00  0.00     0.032 C 
BRANCH  17  20
ATOM     20  O   UNL A   1      29.660  31.574  24.289  1.00  0.00    -0.393 OA
ATOM     21  H   UNL A   1      29.495  32.347  24.853  1.00  0.00     0.210 HD
ENDBRANCH  17  20
ENDBRANCH  14  15
ENDBRANCH  13  14
ENDBRANCH   6   8
ENDBRANCH   3   6
ENDBRANCH   1   2
BRANCH   1  22
ATOM     22  C   UNL A   1      33.014  27.613  26.316  1.00  0.00     0.042 C 
BRANCH  22  23
ATOM     23  C   UNL A   1      34.012  28.676  25.867  1.00  0.00     0.118 C 
BRANCH  23  24
ATOM     24  N   UNL A   1      33.684  29.998  26.375  1.00  0.00    -0.352 N 
ATOM     25  C   UNL A   1      34.274  30.721  27.380  1.00  0.00     0.251 C 
ATOM     26  H   UNL A   1      32.925  30.440  25.931  1.00  0.00     0.163 HD
ATOM     27  O   UNL A   1      33.710  31.733  27.800  1.00  0.00    -0.269 OA
BRANCH  25  28
ATOM     28  C   UNL A   1      35.556  30.282  27.975  1.00  0.00     0.039 A 
ATOM     29  C   UNL A   1      35.542  29.688  29.240  1.00  0.00     0.014 A 
ATOM     30  C   UNL A   1      36.770  30.472  27.309  1.00  0.00     0.014 A 
ATOM     31  C   UNL A   1      36.734  29.233  29.808  1.00  0.00     0.010 A 
ATOM     32  C   UNL A   1      37.947  29.948  27.843  1.00  0.00     0.010 A 
ATOM     33  C   UNL A   1      37.943  29.325  29.099  1.00  0.00    -0.014 A 
BRANCH  33  34
ATOM     34  C   UNL A   1      39.207  28.773  29.660  1.00  0.00     0.031 A 
ATOM     35  C   UNL A   1      39.850  29.416  30.859  1.00  0.00     0.074 A 
ATOM     36  C   UNL A   1      39.799  27.723  29.056  1.00  0.00     0.049 A 
ATOM     37  N   UNL A   1      40.980  29.121  31.449  1.00  0.00    -0.248 NA
ATOM     38  C   UNL A   1      39.140  30.557  31.458  1.00  0.00     0.031 C 
ATOM     39  C   UNL A   1      39.292  27.037  27.866  1.00  0.00     0.029 A 
ATOM     40  N   UNL A   1      40.961  27.052  29.353  1.00  0.00    -0.354 N 
ATOM     41  C   UNL A   1      41.123  30.045  32.480  1.00  0.00     0.074 A 
ATOM     42  C   UNL A   1      39.993  30.945  32.394  1.00  0.00     0.031 C 
ATOM     43  C   UNL A   1      40.122  26.031  27.549  1.00  0.00     0.029 A 
ATOM     44  C   UNL A   1      41.248  26.029  28.478  1.00  0.00     0.049 A 
ATOM     45  H   UNL A   1      41.534  27.282  30.119  1.00  0.00     0.167 HD
ATOM     46  C   UNL A   1      42.097  30.121  33.422  1.00  0.00     0.034 A 
ATOM     47  C   UNL A   1      42.305  25.195  28.417  1.00  0.00     0.034 A 
ATOM     48  C   UNL A   1      43.214  29.210  33.497  1.00  0.00     0.049 A 
ATOM     49  C   UNL A   1      43.390  25.318  29.458  1.00  0.00     0.074 A 
ATOM     50  C   UNL A   1      44.227  29.167  34.440  1.00  0.00     0.029 A 
ATOM     51  N   UNL A   1      43.474  28.189  32.591  1.00  0.00    -0.354 N 
ATOM     52  N   UNL A   1      43.486  26.168  30.454  1.00  0.00    -0.248 NA
ATOM     53  C   UNL A   1      44.501  24.363  29.373  1.00  0.00     0.031 C 
ATOM     54  C   UNL A   1      45.137  28.174  34.062  1.00  0.00     0.029 A 
ATOM     55  C   UNL A   1      44.648  27.535  32.934  1.00  0.00     0.049 A 
ATOM     56  H   UNL A   1      42.907  27.963  31.818  1.00  0.00     0.167 HD
ATOM     57  C   UNL A   1      44.654  25.828  31.133  1.00  0.00     0.074 A 
ATOM     58  C   UNL A   1      45.215  24.686  30.441  1.00  0.00     0.031 C 
ATOM     59  C   UNL A   1      45.207  26.403  32.230  1.00  0.00     0.034 A 
BRANCH  46  60
ATOM     60  C   UNL A   1      42.010  31.246  34.427  1.00  0.00     0.023 A 
ATOM     61  C   UNL A   1      42.651  32.480  34.215  1.00  0.00     0.031 A 
ATOM     62  C   UNL A   1      41.285  31.081  35.622  1.00  0.00     0.131 A 
ATOM     63  C   UNL A   1      42.612  33.471  35.208  1.00  0.00     0.055 A 
ATOM     64  C   UNL A   1      41.181  32.101  36.568  1.00  0.00     0.041 A 
ATOM     65  F   UNL A   1      40.670  29.918  35.891  1.00  0.00    -0.206 F 
ATOM     66  C   UNL A   1      41.859  33.301  36.371  1.00  0.00     0.022 A 
BRANCH  63  67
ATOM     67  S   UNL A   1      43.672  34.930  35.019  1.00  0.00     0.124 S 
ATOM     68  O   UNL A   1      43.058  35.864  35.960  1.00  0.00    -0.237 OA
ATOM     69  O   UNL A   1      44.985  34.418  35.392  1.00  0.00    -0.237 OA
ATOM     70  O   UNL A   1      43.518  35.286  33.610  1.00  0.00    -0.744 OA
ENDBRANCH  63  67
ENDBRANCH  46  60
BRANCH  47  71
ATOM     71  C   UNL A   1      42.407  24.184  27.325  1.00  0.00     0.023 A 
ATOM     72  C   UNL A   1      41.674  22.987  27.371  1.00  0.00     0.031 A 
ATOM     73  C   UNL A   1      43.272  24.383  26.234  1.00  0.00     0.131 A 
ATOM     74  C   UNL A   1      41.856  22.016  26.373  1.00  0.00     0.055 A 
ATOM     75  C   UNL A   1      43.406  23.441  25.214  1.00  0.00     0.041 A 
ATOM     76  F   UNL A   1      43.994  25.511  26.138  1.00  0.00    -0.206 F 
ATOM     77  C   UNL A   1      42.705  22.241  25.287  1.00  0.00     0.022 A 
BRANCH  74  78
ATOM     78  S   UNL A   1      41.033  20.410  26.562  1.00  0.00     0.124 S 
ATOM     79  O   UNL A   1      41.987  19.511  25.924  1.00  0.00    -0.237 OA
ATOM     80  O   UNL A   1      40.914  20.300  28.011  1.00  0.00    -0.237 OA
ATOM     81  O   UNL A   1      39.771  20.591  25.846  1.00  0.00    -0.744 OA
ENDBRANCH  74  78
ENDBRANCH  47  71
BRANCH  59  82
ATOM     82  C   UNL A   1      46.466  25.773  32.778  1.00  0.00     0.023 A 
ATOM     83  C   UNL A   1      46.427  24.727  33.716  1.00  0.00     0.031 A 
ATOM     84  C   UNL A   1      47.727  26.238  32.360  1.00  0.00     0.131 A 
ATOM     85  C   UNL A   1      47.622  24.219  34.248  1.00  0.00     0.055 A 
ATOM     86  C   UNL A   1      48.913  25.683  32.842  1.00  0.00     0.041 A 
ATOM     87  F   UNL A   1      47.826  27.239  31.471  1.00  0.00    -0.206 F 
ATOM     88  C   UNL A   1      48.865  24.678  33.803  1.00  0.00     0.022 A 
BRANCH  85  89
ATOM     89  S   UNL A   1      47.531  23.023  35.608  1.00  0.00     0.124 S 
ATOM     90  O   UNL A   1      46.707  23.732  36.581  1.00  0.00    -0.237 OA
ATOM     91  O   UNL A   1      46.908  21.868  34.968  1.00  0.00    -0.237 OA
ATOM     92  O   UNL A   1      48.928  22.837  35.996  1.00  0.00    -0.744 OA
ENDBRANCH  85  89
ENDBRANCH  59  82
ENDBRANCH  33  34
ENDBRANCH  25  28
ENDBRANCH  23  24
ENDBRANCH  22  23
ENDBRANCH   1  22
TORSDOF 17
ENDMDL
