MODEL 1
REMARK VINA RESULT:     -12.3      0.000      0.000
REMARK SMILES CC(C)CN(C)c1cc2c(cc1Cl)C=C(C(=O)NCCCNC(=O)c1ccc(-c3c4nc(c(-c5cc(S(=O)(=O)[O-])ccc5F)c5ccc([nH]5)c(-c5cc(S(=O)(=O)[O-])ccc5F)c5nc(c(-c6cc(S(=O)(=O)[O-])ccc6F)c6ccc3[nH]6)C=C5)C=C4)cc1)[C@H](C(F)(F)F)O2
REMARK SMILES IDX 20 1 19 2 18 3 16 4 17 5 15 7 7 8 8 9 12 10 9 11 11 12 13 13
REMARK SMILES IDX 10 14 93 15 14 16 88 17 5 18 6 19 4 20 2 21 1 22 3 23 89 24
REMARK SMILES IDX 90 25 91 26 92 27 21 28 22 29 23 30 24 32 25 33 26 34 87 35
REMARK SMILES IDX 27 36 86 37 28 38 29 39 30 40 80 41 31 42 85 43 79 44 81 45
REMARK SMILES IDX 32 46 84 47 78 48 77 49 33 51 65 52 45 53 64 54 46 55 49 56
REMARK SMILES IDX 63 57 82 58 47 59 48 60 62 62 83 63 50 64 34 65 35 66 43 67
REMARK SMILES IDX 36 68 42 69 44 70 41 71 37 72 38 73 39 74 40 75 66 76 67 77
REMARK SMILES IDX 75 78 68 79 74 80 76 81 73 82 69 83 70 84 71 85 72 86 51 87
REMARK SMILES IDX 52 88 60 89 53 90 59 91 61 92 58 93 54 94 55 95 56 96 57 97
REMARK H PARENT 18 6 22 31 81 50 49 61
REMARK Flexibility Score: inf
ROOT
ATOM      1  C   UNL A   1      31.757  30.925  26.472  1.00  0.00     0.042 C 
ENDROOT
BRANCH   1   2
ATOM      2  C   UNL A   1      32.130  29.556  25.915  1.00  0.00     0.118 C 
BRANCH   2   3
ATOM      3  N   UNL A   1      32.535  29.644  24.523  1.00  0.00    -0.352 N 
ATOM      4  C   UNL A   1      32.758  28.758  23.526  1.00  0.00     0.251 C 
ATOM      5  O   UNL A   1      33.016  29.238  22.419  1.00  0.00    -0.270 OA
ATOM      6  H   UNL A   1      32.683  30.573  24.235  1.00  0.00     0.163 HD
BRANCH   4   7
ATOM      7  C   UNL A   1      32.674  27.280  23.688  1.00  0.00     0.067 C 
ATOM      8  C   UNL A   1      33.719  22.536  25.111  1.00  0.00     0.059 A 
ATOM      9  C   UNL A   1      32.630  23.176  24.499  1.00  0.00     0.074 A 
ATOM     10  C   UNL A   1      34.884  23.305  25.319  1.00  0.00     0.065 A 
ATOM     11  C   UNL A   1      32.670  24.533  24.177  1.00  0.00     0.130 A 
ATOM     12  C   UNL A   1      34.898  24.681  25.061  1.00  0.00     0.034 A 
ATOM     13  Cl  UNL A   1      36.364  22.599  25.875  1.00  0.00    -0.082 Cl
ATOM     14  C   UNL A   1      33.779  25.300  24.503  1.00  0.00     0.019 A 
ATOM     15  O   UNL A   1      31.581  25.020  23.524  1.00  0.00    -0.475 OA
ATOM     16  C   UNL A   1      33.765  26.730  24.249  1.00  0.00     0.025 C 
ATOM     17  C   UNL A   1      31.458  26.457  23.344  1.00  0.00     0.314 C 
BRANCH   8  18
ATOM     18  N   UNL A   1      33.605  21.202  25.538  1.00  0.00    -0.373 N 
ATOM     19  C   UNL A   1      33.696  21.004  26.985  1.00  0.00     0.143 C 
BRANCH  18  20
ATOM     20  C   UNL A   1      34.314  20.205  24.698  1.00  0.00     0.119 C 
BRANCH  20  21
ATOM     21  C   UNL A   1      33.601  18.837  24.669  1.00  0.00     0.002 C 
ATOM     22  C   UNL A   1      32.530  18.757  23.575  1.00  0.00     0.009 C 
ATOM     23  C   UNL A   1      34.600  17.696  24.450  1.00  0.00     0.009 C 
ENDBRANCH  20  21
ENDBRANCH  18  20
ENDBRANCH   8  18
BRANCH  17  24
ATOM     24  C   UNL A   1      30.154  26.896  24.033  1.00  0.00     0.429 C 
ATOM     25  F   UNL A   1      30.272  26.947  25.380  1.00  0.00    -0.167 F 
ATOM     26  F   UNL A   1      29.720  28.109  23.628  1.00  0.00    -0.167 F 
ATOM     27  F   UNL A   1      29.167  26.007  23.751  1.00  0.00    -0.167 F 
ENDBRANCH  17  24
ENDBRANCH   4   7
ENDBRANCH   2   3
ENDBRANCH   1   2
BRANCH   1  28
ATOM     28  C   UNL A   1      32.899  31.588  27.230  1.00  0.00     0.118 C 
BRANCH  28  29
ATOM     29  N   UNL A   1      32.668  33.014  27.436  1.00  0.00    -0.352 N 
ATOM     30  C   UNL A   1      33.258  33.879  28.329  1.00  0.00     0.251 C 
ATOM     31  H   UNL A   1      31.988  33.417  26.850  1.00  0.00     0.163 HD
ATOM     32  O   UNL A   1      32.764  34.992  28.504  1.00  0.00    -0.269 OA
BRANCH  30  33
ATOM     33  C   UNL A   1      34.453  33.459  29.092  1.00  0.00     0.039 A 
ATOM     34  C   UNL A   1      35.718  33.929  28.739  1.00  0.00     0.014 A 
ATOM     35  C   UNL A   1      34.318  32.563  30.157  1.00  0.00     0.014 A 
ATOM     36  C   UNL A   1      36.848  33.335  29.285  1.00  0.00     0.010 A 
ATOM     37  C   UNL A   1      35.459  32.064  30.795  1.00  0.00     0.010 A 
ATOM     38  C   UNL A   1      36.738  32.393  30.320  1.00  0.00    -0.014 A 
BRANCH  38  39
ATOM     39  C   UNL A   1      37.976  31.765  30.866  1.00  0.00     0.031 A 
ATOM     40  C   UNL A   1      38.449  32.075  32.263  1.00  0.00     0.074 A 
ATOM     41  C   UNL A   1      38.633  30.853  30.120  1.00  0.00     0.049 A 
ATOM     42  N   UNL A   1      39.473  31.583  32.911  1.00  0.00    -0.248 NA
ATOM     43  C   UNL A   1      37.684  33.069  33.034  1.00  0.00     0.031 C 
ATOM     44  C   UNL A   1      38.268  30.470  28.756  1.00  0.00     0.029 A 
ATOM     45  N   UNL A   1      39.717  30.059  30.405  1.00  0.00    -0.354 N 
ATOM     46  C   UNL A   1      39.489  32.219  34.148  1.00  0.00     0.074 A 
ATOM     47  C   UNL A   1      38.398  33.165  34.147  1.00  0.00     0.031 C 
ATOM     48  C   UNL A   1      39.060  29.471  28.350  1.00  0.00     0.029 A 
ATOM     49  C   UNL A   1      40.052  29.196  29.385  1.00  0.00     0.049 A 
ATOM     50  H   UNL A   1      40.208  30.101  31.257  1.00  0.00     0.167 HD
ATOM     51  C   UNL A   1      40.326  32.016  35.194  1.00  0.00     0.034 A 
ATOM     52  C   UNL A   1      41.049  28.293  29.279  1.00  0.00     0.034 A 
ATOM     53  C   UNL A   1      41.389  31.042  35.190  1.00  0.00     0.049 A 
ATOM     54  C   UNL A   1      41.974  28.097  30.453  1.00  0.00     0.074 A 
ATOM     55  C   UNL A   1      42.275  30.744  36.211  1.00  0.00     0.029 A 
ATOM     56  N   UNL A   1      41.707  30.205  34.130  1.00  0.00    -0.354 N 
ATOM     57  N   UNL A   1      41.947  28.683  31.627  1.00  0.00    -0.248 NA
ATOM     58  C   UNL A   1      43.056  27.117  30.299  1.00  0.00     0.031 C 
ATOM     59  C   UNL A   1      43.173  29.787  35.744  1.00  0.00     0.029 A 
ATOM     60  C   UNL A   1      42.789  29.408  34.468  1.00  0.00     0.049 A 
ATOM     61  H   UNL A   1      41.235  30.181  33.267  1.00  0.00     0.167 HD
ATOM     62  C   UNL A   1      42.984  28.114  32.363  1.00  0.00     0.074 A 
ATOM     63  C   UNL A   1      43.604  27.125  31.508  1.00  0.00     0.031 C 
ATOM     64  C   UNL A   1      43.381  28.393  33.629  1.00  0.00     0.034 A 
BRANCH  51  65
ATOM     65  C   UNL A   1      40.143  32.835  36.451  1.00  0.00     0.023 A 
ATOM     66  C   UNL A   1      39.265  32.384  37.456  1.00  0.00     0.031 A 
ATOM     67  C   UNL A   1      40.700  34.118  36.586  1.00  0.00     0.131 A 
ATOM     68  C   UNL A   1      38.928  33.230  38.521  1.00  0.00     0.055 A 
ATOM     69  C   UNL A   1      40.403  34.937  37.677  1.00  0.00     0.041 A 
ATOM     70  F   UNL A   1      41.543  34.598  35.656  1.00  0.00    -0.206 F 
ATOM     71  C   UNL A   1      39.500  34.500  38.642  1.00  0.00     0.022 A 
BRANCH  68  72
ATOM     72  S   UNL A   1      37.672  32.750  39.738  1.00  0.00     0.124 S 
ATOM     73  O   UNL A   1      37.563  33.961  40.549  1.00  0.00    -0.237 OA
ATOM     74  O   UNL A   1      36.520  32.461  38.890  1.00  0.00    -0.237 OA
ATOM     75  O   UNL A   1      38.261  31.601  40.417  1.00  0.00    -0.744 OA
ENDBRANCH  68  72
ENDBRANCH  51  65
BRANCH  52  76
ATOM     76  C   UNL A   1      41.176  27.490  28.027  1.00  0.00     0.023 A 
ATOM     77  C   UNL A   1      40.835  26.124  28.009  1.00  0.00     0.031 A 
ATOM     78  C   UNL A   1      41.739  28.040  26.863  1.00  0.00     0.131 A 
ATOM     79  C   UNL A   1      41.134  25.342  26.888  1.00  0.00     0.055 A 
ATOM     80  C   UNL A   1      41.955  27.275  25.715  1.00  0.00     0.041 A 
ATOM     81  F   UNL A   1      42.098  29.333  26.831  1.00  0.00    -0.206 F 
ATOM     82  C   UNL A   1      41.672  25.912  25.731  1.00  0.00     0.022 A 
BRANCH  79  83
ATOM     83  S   UNL A   1      40.977  23.535  26.949  1.00  0.00     0.124 S 
ATOM     84  O   UNL A   1      41.507  23.227  28.273  1.00  0.00    -0.237 OA
ATOM     85  O   UNL A   1      39.536  23.355  26.787  1.00  0.00    -0.237 OA
ATOM     86  O   UNL A   1      41.786  23.081  25.822  1.00  0.00    -0.744 OA
ENDBRANCH  79  83
ENDBRANCH  52  76
BRANCH  64  87
ATOM     87  C   UNL A   1      44.519  27.601  34.230  1.00  0.00     0.023 A 
ATOM     88  C   UNL A   1      44.239  26.412  34.934  1.00  0.00     0.031 A 
ATOM     89  C   UNL A   1      45.833  28.098  34.266  1.00  0.00     0.131 A 
ATOM     90  C   UNL A   1      45.242  25.792  35.688  1.00  0.00     0.055 A 
ATOM     91  C   UNL A   1      46.845  27.442  34.969  1.00  0.00     0.041 A 
ATOM     92  F   UNL A   1      46.150  29.235  33.626  1.00  0.00    -0.206 F 
ATOM     93  C   UNL A   1      46.546  26.294  35.699  1.00  0.00     0.022 A 
BRANCH  90  94
ATOM     94  S   UNL A   1      44.863  24.386  36.769  1.00  0.00     0.124 S 
ATOM     95  O   UNL A   1      44.101  23.516  35.875  1.00  0.00    -0.237 OA
ATOM     96  O   UNL A   1      46.195  23.903  37.122  1.00  0.00    -0.237 OA
ATOM     97  O   UNL A   1      44.099  24.976  37.862  1.00  0.00    -0.744 OA
ENDBRANCH  90  94
ENDBRANCH  64  87
ENDBRANCH  38  39
ENDBRANCH  30  33
ENDBRANCH  28  29
ENDBRANCH   1  28
TORSDOF 17
ENDMDL
MODEL 2
REMARK VINA RESULT:     -12.0      5.192      8.520
REMARK SMILES CC(C)CN(C)c1cc2c(cc1Cl)C=C(C(=O)NCCCNC(=O)c1ccc(-c3c4nc(c(-c5cc(S(=O)(=O)[O-])ccc5F)c5ccc([nH]5)c(-c5cc(S(=O)(=O)[O-])ccc5F)c5nc(c(-c6cc(S(=O)(=O)[O-])ccc6F)c6ccc3[nH]6)C=C5)C=C4)cc1)[C@H](C(F)(F)F)O2
REMARK SMILES IDX 20 1 19 2 18 3 16 4 17 5 15 7 7 8 8 9 12 10 9 11 11 12 13 13
REMARK SMILES IDX 10 14 93 15 14 16 88 17 5 18 6 19 4 20 2 21 1 22 3 23 89 24
REMARK SMILES IDX 90 25 91 26 92 27 21 28 22 29 23 30 24 32 25 33 26 34 87 35
REMARK SMILES IDX 27 36 86 37 28 38 29 39 30 40 80 41 31 42 85 43 79 44 81 45
REMARK SMILES IDX 32 46 84 47 78 48 77 49 33 51 65 52 45 53 64 54 46 55 49 56
REMARK SMILES IDX 63 57 82 58 47 59 48 60 62 62 83 63 50 64 34 65 35 66 43 67
REMARK SMILES IDX 36 68 42 69 44 70 41 71 37 72 38 73 39 74 40 75 66 76 67 77
REMARK SMILES IDX 75 78 68 79 74 80 76 81 73 82 69 83 70 84 71 85 72 86 51 87
REMARK SMILES IDX 52 88 60 89 53 90 59 91 61 92 58 93 54 94 55 95 56 96 57 97
REMARK H PARENT 18 6 22 31 81 50 49 61
REMARK Flexibility Score: inf
ROOT
ATOM      1  C   UNL A   1      35.967  21.408  24.969  1.00  0.00     0.042 C 
ENDROOT
BRANCH   1   2
ATOM      2  C   UNL A   1      34.985  21.452  26.134  1.00  0.00     0.118 C 
BRANCH   2   3
ATOM      3  N   UNL A   1      33.820  20.624  25.876  1.00  0.00    -0.352 N 
ATOM      4  C   UNL A   1      32.584  20.830  25.367  1.00  0.00     0.251 C 
ATOM      5  O   UNL A   1      31.881  19.827  25.222  1.00  0.00    -0.270 OA
ATOM      6  H   UNL A   1      33.965  19.685  26.134  1.00  0.00     0.163 HD
BRANCH   4   7
ATOM      7  C   UNL A   1      32.064  22.162  24.951  1.00  0.00     0.067 C 
ATOM      8  C   UNL A   1      30.986  27.108  24.940  1.00  0.00     0.059 A 
ATOM      9  C   UNL A   1      30.907  26.068  24.000  1.00  0.00     0.074 A 
ATOM     10  C   UNL A   1      31.342  26.757  26.260  1.00  0.00     0.065 A 
ATOM     11  C   UNL A   1      31.238  24.756  24.337  1.00  0.00     0.130 A 
ATOM     12  C   UNL A   1      31.742  25.453  26.578  1.00  0.00     0.034 A 
ATOM     13  Cl  UNL A   1      31.282  27.897  27.562  1.00  0.00    -0.082 Cl
ATOM     14  C   UNL A   1      31.706  24.453  25.607  1.00  0.00     0.019 A 
ATOM     15  O   UNL A   1      31.054  23.828  23.359  1.00  0.00    -0.475 OA
ATOM     16  C   UNL A   1      32.139  23.101  25.911  1.00  0.00     0.025 C 
ATOM     17  C   UNL A   1      31.572  22.485  23.563  1.00  0.00     0.314 C 
BRANCH   8  18
ATOM     18  N   UNL A   1      30.767  28.438  24.542  1.00  0.00    -0.373 N 
ATOM     19  C   UNL A   1      29.890  28.600  23.382  1.00  0.00     0.143 C 
BRANCH  18  20
ATOM     20  C   UNL A   1      31.961  29.317  24.584  1.00  0.00     0.119 C 
BRANCH  20  21
ATOM     21  C   UNL A   1      33.283  28.532  24.451  1.00  0.00     0.002 C 
ATOM     22  C   UNL A   1      33.990  28.798  23.118  1.00  0.00     0.009 C 
ATOM     23  C   UNL A   1      34.250  28.877  25.588  1.00  0.00     0.009 C 
ENDBRANCH  20  21
ENDBRANCH  18  20
ENDBRANCH   8  18
BRANCH  17  24
ATOM     24  C   UNL A   1      32.574  22.202  22.430  1.00  0.00     0.429 C 
ATOM     25  F   UNL A   1      33.821  21.957  22.893  1.00  0.00    -0.167 F 
ATOM     26  F   UNL A   1      32.224  21.151  21.659  1.00  0.00    -0.167 F 
ATOM     27  F   UNL A   1      32.657  23.285  21.614  1.00  0.00    -0.167 F 
ENDBRANCH  17  24
ENDBRANCH   4   7
ENDBRANCH   2   3
ENDBRANCH   1   2
BRANCH   1  28
ATOM     28  C   UNL A   1      37.295  22.081  25.286  1.00  0.00     0.118 C 
BRANCH  28  29
ATOM     29  N   UNL A   1      38.314  21.123  25.698  1.00  0.00    -0.352 N 
ATOM     30  C   UNL A   1      39.534  21.341  26.295  1.00  0.00     0.251 C 
ATOM     31  H   UNL A   1      38.097  20.179  25.521  1.00  0.00     0.163 HD
ATOM     32  O   UNL A   1      40.348  20.420  26.355  1.00  0.00    -0.269 OA
BRANCH  30  33
ATOM     33  C   UNL A   1      39.873  22.679  26.829  1.00  0.00     0.039 A 
ATOM     34  C   UNL A   1      39.260  23.821  26.315  1.00  0.00     0.014 A 
ATOM     35  C   UNL A   1      40.837  22.801  27.834  1.00  0.00     0.014 A 
ATOM     36  C   UNL A   1      39.766  25.074  26.632  1.00  0.00     0.010 A 
ATOM     37  C   UNL A   1      41.253  24.072  28.247  1.00  0.00     0.010 A 
ATOM     38  C   UNL A   1      40.771  25.221  27.600  1.00  0.00    -0.014 A 
BRANCH  38  39
ATOM     39  C   UNL A   1      41.300  26.583  27.899  1.00  0.00     0.031 A 
ATOM     40  C   UNL A   1      40.462  27.595  28.637  1.00  0.00     0.074 A 
ATOM     41  C   UNL A   1      42.574  26.879  27.566  1.00  0.00     0.049 A 
ATOM     42  N   UNL A   1      40.782  28.804  29.019  1.00  0.00    -0.248 NA
ATOM     43  C   UNL A   1      39.084  27.210  28.985  1.00  0.00     0.031 C 
ATOM     44  C   UNL A   1      43.481  25.980  26.851  1.00  0.00     0.029 A 
ATOM     45  N   UNL A   1      43.339  27.994  27.807  1.00  0.00    -0.354 N 
ATOM     46  C   UNL A   1      39.647  29.329  29.630  1.00  0.00     0.074 A 
ATOM     47  C   UNL A   1      38.615  28.324  29.529  1.00  0.00     0.031 C 
ATOM     48  C   UNL A   1      44.693  26.543  26.776  1.00  0.00     0.029 A 
ATOM     49  C   UNL A   1      44.635  27.882  27.354  1.00  0.00     0.049 A 
ATOM     50  H   UNL A   1      42.994  28.797  28.260  1.00  0.00     0.167 HD
ATOM     51  C   UNL A   1      39.491  30.531  30.234  1.00  0.00     0.034 A 
ATOM     52  C   UNL A   1      45.662  28.756  27.384  1.00  0.00     0.034 A 
ATOM     53  C   UNL A   1      40.543  31.508  30.355  1.00  0.00     0.049 A 
ATOM     54  C   UNL A   1      45.456  30.091  28.051  1.00  0.00     0.074 A 
ATOM     55  C   UNL A   1      40.490  32.745  30.974  1.00  0.00     0.029 A 
ATOM     56  N   UNL A   1      41.834  31.364  29.865  1.00  0.00    -0.354 N 
ATOM     57  N   UNL A   1      44.386  30.552  28.654  1.00  0.00    -0.248 NA
ATOM     58  C   UNL A   1      46.591  31.024  28.053  1.00  0.00     0.031 C 
ATOM     59  C   UNL A   1      41.717  33.378  30.790  1.00  0.00     0.029 A 
ATOM     60  C   UNL A   1      42.575  32.499  30.149  1.00  0.00     0.049 A 
ATOM     61  H   UNL A   1      42.172  30.573  29.387  1.00  0.00     0.167 HD
ATOM     62  C   UNL A   1      44.732  31.810  29.141  1.00  0.00     0.074 A 
ATOM     63  C   UNL A   1      46.116  32.029  28.777  1.00  0.00     0.031 C 
ATOM     64  C   UNL A   1      43.967  32.699  29.823  1.00  0.00     0.034 A 
BRANCH  51  65
ATOM     65  C   UNL A   1      38.150  30.881  30.836  1.00  0.00     0.023 A 
ATOM     66  C   UNL A   1      37.206  31.595  30.072  1.00  0.00     0.031 A 
ATOM     67  C   UNL A   1      37.868  30.658  32.195  1.00  0.00     0.131 A 
ATOM     68  C   UNL A   1      36.053  32.105  30.683  1.00  0.00     0.055 A 
ATOM     69  C   UNL A   1      36.692  31.123  32.787  1.00  0.00     0.041 A 
ATOM     70  F   UNL A   1      38.734  29.985  32.971  1.00  0.00    -0.206 F 
ATOM     71  C   UNL A   1      35.786  31.865  32.034  1.00  0.00     0.022 A 
BRANCH  68  72
ATOM     72  S   UNL A   1      34.904  33.172  29.772  1.00  0.00     0.124 S 
ATOM     73  O   UNL A   1      34.253  32.216  28.878  1.00  0.00    -0.237 OA
ATOM     74  O   UNL A   1      34.062  33.697  30.843  1.00  0.00    -0.237 OA
ATOM     75  O   UNL A   1      35.771  34.144  29.115  1.00  0.00    -0.744 OA
ENDBRANCH  68  72
ENDBRANCH  51  65
BRANCH  52  76
ATOM     76  C   UNL A   1      46.977  28.357  26.797  1.00  0.00     0.023 A 
ATOM     77  C   UNL A   1      47.163  28.325  25.402  1.00  0.00     0.031 A 
ATOM     78  C   UNL A   1      48.026  27.897  27.609  1.00  0.00     0.131 A 
ATOM     79  C   UNL A   1      48.331  27.773  24.864  1.00  0.00     0.055 A 
ATOM     80  C   UNL A   1      49.226  27.427  27.070  1.00  0.00     0.041 A 
ATOM     81  F   UNL A   1      47.896  27.890  28.945  1.00  0.00    -0.206 F 
ATOM     82  C   UNL A   1      49.374  27.343  25.689  1.00  0.00     0.022 A 
BRANCH  79  83
ATOM     83  S   UNL A   1      48.470  27.453  23.083  1.00  0.00     0.124 S 
ATOM     84  O   UNL A   1      47.342  28.208  22.547  1.00  0.00    -0.237 OA
ATOM     85  O   UNL A   1      49.793  27.996  22.785  1.00  0.00    -0.237 OA
ATOM     86  O   UNL A   1      48.362  26.000  22.985  1.00  0.00    -0.744 OA
ENDBRANCH  79  83
ENDBRANCH  52  76
BRANCH  64  87
ATOM     87  C   UNL A   1      44.589  33.996  30.285  1.00  0.00     0.023 A 
ATOM     88  C   UNL A   1      44.589  35.110  29.422  1.00  0.00     0.031 A 
ATOM     89  C   UNL A   1      45.324  34.084  31.480  1.00  0.00     0.131 A 
ATOM     90  C   UNL A   1      45.355  36.239  29.736  1.00  0.00     0.055 A 
ATOM     91  C   UNL A   1      46.036  35.236  31.819  1.00  0.00     0.041 A 
ATOM     92  F   UNL A   1      45.369  33.046  32.331  1.00  0.00    -0.206 F 
ATOM     93  C   UNL A   1      46.068  36.312  30.936  1.00  0.00     0.022 A 
BRANCH  90  94
ATOM     94  S   UNL A   1      45.545  37.598  28.550  1.00  0.00     0.124 S 
ATOM     95  O   UNL A   1      45.909  38.712  29.424  1.00  0.00    -0.237 OA
ATOM     96  O   UNL A   1      46.616  37.106  27.689  1.00  0.00    -0.237 OA
ATOM     97  O   UNL A   1      44.233  37.705  27.922  1.00  0.00    -0.744 OA
ENDBRANCH  90  94
ENDBRANCH  64  87
ENDBRANCH  38  39
ENDBRANCH  30  33
ENDBRANCH  28  29
ENDBRANCH   1  28
TORSDOF 17
ENDMDL
MODEL 3
REMARK VINA RESULT:     -12.0      2.649      3.449
REMARK SMILES CC(C)CN(C)c1cc2c(cc1Cl)C=C(C(=O)NCCCNC(=O)c1ccc(-c3c4nc(c(-c5cc(S(=O)(=O)[O-])ccc5F)c5ccc([nH]5)c(-c5cc(S(=O)(=O)[O-])ccc5F)c5nc(c(-c6cc(S(=O)(=O)[O-])ccc6F)c6ccc3[nH]6)C=C5)C=C4)cc1)[C@H](C(F)(F)F)O2
REMARK SMILES IDX 20 1 19 2 18 3 16 4 17 5 15 7 7 8 8 9 12 10 9 11 11 12 13 13
REMARK SMILES IDX 10 14 93 15 14 16 88 17 5 18 6 19 4 20 2 21 1 22 3 23 89 24
REMARK SMILES IDX 90 25 91 26 92 27 21 28 22 29 23 30 24 32 25 33 26 34 87 35
REMARK SMILES IDX 27 36 86 37 28 38 29 39 30 40 80 41 31 42 85 43 79 44 81 45
REMARK SMILES IDX 32 46 84 47 78 48 77 49 33 51 65 52 45 53 64 54 46 55 49 56
REMARK SMILES IDX 63 57 82 58 47 59 48 60 62 62 83 63 50 64 34 65 35 66 43 67
REMARK SMILES IDX 36 68 42 69 44 70 41 71 37 72 38 73 39 74 40 75 66 76 67 77
REMARK SMILES IDX 75 78 68 79 74 80 76 81 73 82 69 83 70 84 71 85 72 86 51 87
REMARK SMILES IDX 52 88 60 89 53 90 59 91 61 92 58 93 54 94 55 95 56 96 57 97
REMARK H PARENT 18 6 22 31 81 50 49 61
REMARK Flexibility Score: inf
ROOT
ATOM      1  C   UNL A   1      32.716  29.299  26.948  1.00  0.00     0.042 C 
ENDROOT
BRANCH   1   2
ATOM      2  C   UNL A   1      31.644  29.562  25.897  1.00  0.00     0.118 C 
BRANCH   2   3
ATOM      3  N   UNL A   1      32.222  29.682  24.570  1.00  0.00    -0.352 N 
ATOM      4  C   UNL A   1      32.614  28.816  23.607  1.00  0.00     0.251 C 
ATOM      5  O   UNL A   1      32.991  29.318  22.545  1.00  0.00    -0.270 OA
ATOM      6  H   UNL A   1      32.364  30.619  24.307  1.00  0.00     0.163 HD
BRANCH   4   7
ATOM      7  C   UNL A   1      32.577  27.334  23.751  1.00  0.00     0.067 C 
ATOM      8  C   UNL A   1      33.733  22.616  25.171  1.00  0.00     0.059 A 
ATOM      9  C   UNL A   1      32.648  23.222  24.519  1.00  0.00     0.074 A 
ATOM     10  C   UNL A   1      34.860  23.423  25.436  1.00  0.00     0.065 A 
ATOM     11  C   UNL A   1      32.652  24.583  24.213  1.00  0.00     0.130 A 
ATOM     12  C   UNL A   1      34.834  24.802  25.192  1.00  0.00     0.034 A 
ATOM     13  Cl  UNL A   1      36.340  22.765  26.048  1.00  0.00    -0.082 Cl
ATOM     14  C   UNL A   1      33.718  25.387  24.593  1.00  0.00     0.019 A 
ATOM     15  O   UNL A   1      31.574  25.038  23.519  1.00  0.00    -0.475 OA
ATOM     16  C   UNL A   1      33.662  26.817  24.352  1.00  0.00     0.025 C 
ATOM     17  C   UNL A   1      31.407  26.472  23.348  1.00  0.00     0.314 C 
BRANCH   8  18
ATOM     18  N   UNL A   1      33.650  21.273  25.579  1.00  0.00    -0.373 N 
ATOM     19  C   UNL A   1      33.801  21.053  27.018  1.00  0.00     0.143 C 
BRANCH  18  20
ATOM     20  C   UNL A   1      34.335  20.298  24.695  1.00  0.00     0.119 C 
BRANCH  20  21
ATOM     21  C   UNL A   1      33.607  18.939  24.633  1.00  0.00     0.002 C 
ATOM     22  C   UNL A   1      32.574  18.879  23.503  1.00  0.00     0.009 C 
ATOM     23  C   UNL A   1      34.600  17.787  24.440  1.00  0.00     0.009 C 
ENDBRANCH  20  21
ENDBRANCH  18  20
ENDBRANCH   8  18
BRANCH  17  24
ATOM     24  C   UNL A   1      30.060  26.856  23.985  1.00  0.00     0.429 C 
ATOM     25  F   UNL A   1      29.074  25.983  23.677  1.00  0.00    -0.167 F 
ATOM     26  F   UNL A   1      30.112  26.936  25.331  1.00  0.00    -0.167 F 
ATOM     27  F   UNL A   1      29.672  28.075  23.529  1.00  0.00    -0.167 F 
ENDBRANCH  17  24
ENDBRANCH   4   7
ENDBRANCH   2   3
ENDBRANCH   1   2
BRANCH   1  28
ATOM     28  C   UNL A   1      33.919  30.221  26.813  1.00  0.00     0.118 C 
BRANCH  28  29
ATOM     29  N   UNL A   1      33.855  31.348  27.737  1.00  0.00    -0.352 N 
ATOM     30  C   UNL A   1      34.693  31.679  28.777  1.00  0.00     0.251 C 
ATOM     31  H   UNL A   1      33.100  31.963  27.596  1.00  0.00     0.163 HD
ATOM     32  O   UNL A   1      34.341  32.541  29.582  1.00  0.00    -0.269 OA
BRANCH  30  33
ATOM     33  C   UNL A   1      35.987  30.981  28.942  1.00  0.00     0.039 A 
ATOM     34  C   UNL A   1      36.047  29.749  29.592  1.00  0.00     0.014 A 
ATOM     35  C   UNL A   1      37.161  31.574  28.469  1.00  0.00     0.014 A 
ATOM     36  C   UNL A   1      37.279  29.231  29.970  1.00  0.00     0.010 A 
ATOM     37  C   UNL A   1      38.399  30.980  28.739  1.00  0.00     0.010 A 
ATOM     38  C   UNL A   1      38.474  29.838  29.552  1.00  0.00    -0.014 A 
BRANCH  38  39
ATOM     39  C   UNL A   1      39.775  29.261  29.995  1.00  0.00     0.031 A 
ATOM     40  C   UNL A   1      40.446  29.742  31.257  1.00  0.00     0.074 A 
ATOM     41  C   UNL A   1      40.316  28.244  29.292  1.00  0.00     0.049 A 
ATOM     42  N   UNL A   1      41.552  29.317  31.811  1.00  0.00    -0.248 NA
ATOM     43  C   UNL A   1      39.804  30.846  31.989  1.00  0.00     0.031 C 
ATOM     44  C   UNL A   1      39.756  27.693  28.057  1.00  0.00     0.029 A 
ATOM     45  N   UNL A   1      41.427  27.471  29.523  1.00  0.00    -0.354 N 
ATOM     46  C   UNL A   1      41.748  30.110  32.938  1.00  0.00     0.074 A 
ATOM     47  C   UNL A   1      40.672  31.072  32.966  1.00  0.00     0.031 C 
ATOM     48  C   UNL A   1      40.478  26.632  27.679  1.00  0.00     0.029 A 
ATOM     49  C   UNL A   1      41.609  26.474  28.590  1.00  0.00     0.049 A 
ATOM     50  H   UNL A   1      42.036  27.614  30.283  1.00  0.00     0.167 HD
ATOM     51  C   UNL A   1      42.727  30.029  33.870  1.00  0.00     0.034 A 
ATOM     52  C   UNL A   1      42.578  25.543  28.464  1.00  0.00     0.034 A 
ATOM     53  C   UNL A   1      43.776  29.040  33.845  1.00  0.00     0.049 A 
ATOM     54  C   UNL A   1      43.662  25.484  29.509  1.00  0.00     0.074 A 
ATOM     55  C   UNL A   1      44.799  28.860  34.760  1.00  0.00     0.029 A 
ATOM     56  N   UNL A   1      43.935  28.063  32.872  1.00  0.00    -0.354 N 
ATOM     57  N   UNL A   1      43.807  26.219  30.586  1.00  0.00    -0.248 NA
ATOM     58  C   UNL A   1      44.708  24.468  29.335  1.00  0.00     0.031 C 
ATOM     59  C   UNL A   1      45.618  27.830  34.301  1.00  0.00     0.029 A 
ATOM     60  C   UNL A   1      45.052  27.295  33.155  1.00  0.00     0.049 A 
ATOM     61  H   UNL A   1      43.343  27.936  32.096  1.00  0.00     0.167 HD
ATOM     62  C   UNL A   1      44.937  25.730  31.236  1.00  0.00     0.074 A 
ATOM     63  C   UNL A   1      45.425  24.624  30.441  1.00  0.00     0.031 C 
ATOM     64  C   UNL A   1      45.514  26.164  32.384  1.00  0.00     0.034 A 
BRANCH  51  65
ATOM     65  C   UNL A   1      42.730  31.010  35.020  1.00  0.00     0.023 A 
ATOM     66  C   UNL A   1      43.460  32.210  34.912  1.00  0.00     0.031 A 
ATOM     67  C   UNL A   1      42.157  30.694  36.263  1.00  0.00     0.131 A 
ATOM     68  C   UNL A   1      43.642  33.021  36.039  1.00  0.00     0.055 A 
ATOM     69  C   UNL A   1      42.296  31.533  37.371  1.00  0.00     0.041 A 
ATOM     70  F   UNL A   1      41.452  29.561  36.423  1.00  0.00    -0.206 F 
ATOM     71  C   UNL A   1      43.056  32.695  37.266  1.00  0.00     0.022 A 
BRANCH  68  72
ATOM     72  S   UNL A   1      44.716  34.482  35.979  1.00  0.00     0.124 S 
ATOM     73  O   UNL A   1      45.228  34.533  37.348  1.00  0.00    -0.237 OA
ATOM     74  O   UNL A   1      45.692  34.101  34.963  1.00  0.00    -0.237 OA
ATOM     75  O   UNL A   1      43.813  35.568  35.614  1.00  0.00    -0.744 OA
ENDBRANCH  68  72
ENDBRANCH  51  65
BRANCH  52  76
ATOM     76  C   UNL A   1      42.520  24.579  27.325  1.00  0.00     0.023 A 
ATOM     77  C   UNL A   1      41.643  23.478  27.357  1.00  0.00     0.031 A 
ATOM     78  C   UNL A   1      43.410  24.678  26.243  1.00  0.00     0.131 A 
ATOM     79  C   UNL A   1      41.732  22.484  26.376  1.00  0.00     0.055 A 
ATOM     80  C   UNL A   1      43.435  23.728  25.219  1.00  0.00     0.041 A 
ATOM     81  F   UNL A   1      44.279  25.698  26.171  1.00  0.00    -0.206 F 
ATOM     82  C   UNL A   1      42.607  22.612  25.294  1.00  0.00     0.022 A 
BRANCH  79  83
ATOM     83  S   UNL A   1      40.825  20.922  26.554  1.00  0.00     0.124 S 
ATOM     84  O   UNL A   1      41.648  20.001  25.776  1.00  0.00    -0.237 OA
ATOM     85  O   UNL A   1      40.851  20.726  28.001  1.00  0.00    -0.237 OA
ATOM     86  O   UNL A   1      39.510  21.222  25.994  1.00  0.00    -0.744 OA
ENDBRANCH  79  83
ENDBRANCH  52  76
BRANCH  64  87
ATOM     87  C   UNL A   1      46.725  25.434  32.916  1.00  0.00     0.023 A 
ATOM     88  C   UNL A   1      46.549  24.395  33.852  1.00  0.00     0.031 A 
ATOM     89  C   UNL A   1      48.034  25.869  32.647  1.00  0.00     0.131 A 
ATOM     90  C   UNL A   1      47.656  23.866  34.526  1.00  0.00     0.055 A 
ATOM     91  C   UNL A   1      49.140  25.295  33.276  1.00  0.00     0.041 A 
ATOM     92  F   UNL A   1      48.255  26.866  31.776  1.00  0.00    -0.206 F 
ATOM     93  C   UNL A   1      48.952  24.302  34.234  1.00  0.00     0.022 A 
BRANCH  90  94
ATOM     94  S   UNL A   1      47.445  22.680  35.883  1.00  0.00     0.124 S 
ATOM     95  O   UNL A   1      48.609  22.967  36.718  1.00  0.00    -0.237 OA
ATOM     96  O   UNL A   1      46.159  23.084  36.445  1.00  0.00    -0.237 OA
ATOM     97  O   UNL A   1      47.460  21.380  35.222  1.00  0.00    -0.744 OA
ENDBRANCH  90  94
ENDBRANCH  64  87
ENDBRANCH  38  39
ENDBRANCH  30  33
ENDBRANCH  28  29
ENDBRANCH   1  28
TORSDOF 17
ENDMDL
