MODEL 1
REMARK VINA RESULT:     -12.4      0.000      0.000
REMARK SMILES Cc1cccc(O[C@H](C)C(=O)N2CCC[C@@H](C(=O)NCCCNC(=O)c3ccc(-c4c5nc(c(-c6cc(S(=O)(=O)[O-])ccc6F)c6ccc([nH]6)c(-c6cc(S(=O)(=O)[O-])ccc6F)c6nc(c(-c7cc(S(=O)(=O)[O-])ccc7F)c7ccc4[nH]7)C=C6)C=C5)cc3)C2)c1
REMARK SMILES IDX 20 1 19 2 17 3 18 4 16 6 12 7 13 8 89 9 14 10 15 11 10 12
REMARK SMILES IDX 11 13 8 14 9 15 7 16 6 17 1 18 2 19 3 20 90 21 4 22 5 23
REMARK SMILES IDX 21 24 22 25 23 26 24 27 25 29 26 30 27 31 88 32 28 33 87 34
REMARK SMILES IDX 29 35 30 36 31 37 81 38 32 39 86 40 80 41 82 42 33 43 85 44
REMARK SMILES IDX 79 45 78 46 34 48 66 49 46 50 65 51 47 52 50 53 64 54 83 55
REMARK SMILES IDX 48 56 49 57 63 59 84 60 51 61 35 62 36 63 44 64 37 65 43 66
REMARK SMILES IDX 45 67 42 68 38 69 39 70 40 71 41 72 67 73 68 74 76 75 69 76
REMARK SMILES IDX 75 77 77 78 74 79 70 80 71 81 72 82 73 83 52 84 53 85 61 86
REMARK SMILES IDX 54 87 60 88 62 89 59 90 55 91 56 92 57 93 58 94
REMARK H PARENT 19 5 23 28 82 47 50 58
REMARK Flexibility Score: inf
ROOT
ATOM      1  C   UNL A   1      33.701  29.318  26.067  1.00  0.00     0.117 C 
ENDROOT
BRANCH   1   2
ATOM      2  N   UNL A   1      32.403  29.681  25.518  1.00  0.00    -0.356 N 
ATOM      3  C   UNL A   1      31.520  28.993  24.745  1.00  0.00     0.224 C 
ATOM      4  O   UNL A   1      30.542  29.583  24.279  1.00  0.00    -0.275 OA
ATOM      5  H   UNL A   1      32.109  30.592  25.750  1.00  0.00     0.163 HD
BRANCH   3   6
ATOM      6  C   UNL A   1      31.663  27.493  24.494  1.00  0.00     0.098 C 
ATOM      7  N   UNL A   1      31.254  25.163  25.292  1.00  0.00    -0.339 N 
ATOM      8  C   UNL A   1      30.665  24.818  23.996  1.00  0.00     0.119 C 
ATOM      9  C   UNL A   1      31.186  26.589  25.641  1.00  0.00     0.133 C 
ATOM     10  C   UNL A   1      31.258  25.629  22.856  1.00  0.00     0.022 C 
ATOM     11  C   UNL A   1      31.096  27.119  23.120  1.00  0.00     0.017 C 
BRANCH   7  12
ATOM     12  C   UNL A   1      31.654  24.112  26.100  1.00  0.00     0.263 C 
ATOM     13  O   UNL A   1      31.395  24.136  27.315  1.00  0.00    -0.271 OA
BRANCH  12  14
ATOM     14  C   UNL A   1      32.515  22.928  25.584  1.00  0.00     0.259 C 
ATOM     15  C   UNL A   1      31.838  21.602  25.271  1.00  0.00     0.064 C 
BRANCH  14  16
ATOM     16  O   UNL A   1      33.651  23.336  24.818  1.00  0.00    -0.481 OA
BRANCH  16  17
ATOM     17  C   UNL A   1      34.940  23.116  25.170  1.00  0.00     0.120 A 
ATOM     18  C   UNL A   1      37.272  20.098  24.847  1.00  0.00     0.044 C 
ATOM     19  C   UNL A   1      36.766  21.488  25.092  1.00  0.00    -0.047 A 
ATOM     20  C   UNL A   1      37.647  22.480  25.517  1.00  0.00     0.003 A 
ATOM     21  C   UNL A   1      35.411  21.815  24.933  1.00  0.00     0.049 A 
ATOM     22  C   UNL A   1      37.186  23.777  25.736  1.00  0.00     0.004 A 
ATOM     23  C   UNL A   1      35.841  24.096  25.557  1.00  0.00     0.046 A 
ENDBRANCH  16  17
ENDBRANCH  14  16
ENDBRANCH  12  14
ENDBRANCH   7  12
ENDBRANCH   3   6
ENDBRANCH   1   2
BRANCH   1  24
ATOM     24  C   UNL A   1      34.315  30.470  26.857  1.00  0.00     0.042 C 
BRANCH  24  25
ATOM     25  C   UNL A   1      34.185  30.340  28.375  1.00  0.00     0.118 C 
BRANCH  25  26
ATOM     26  N   UNL A   1      35.075  31.272  29.078  1.00  0.00    -0.352 N 
ATOM     27  C   UNL A   1      36.393  31.118  29.465  1.00  0.00     0.251 C 
ATOM     28  H   UNL A   1      34.672  32.141  29.309  1.00  0.00     0.163 HD
ATOM     29  O   UNL A   1      37.026  31.994  30.029  1.00  0.00    -0.269 OA
BRANCH  27  30
ATOM     30  C   UNL A   1      37.055  29.849  29.108  1.00  0.00     0.039 A 
ATOM     31  C   UNL A   1      37.446  29.005  30.144  1.00  0.00     0.014 A 
ATOM     32  C   UNL A   1      37.543  29.680  27.815  1.00  0.00     0.014 A 
ATOM     33  C   UNL A   1      38.521  28.148  29.936  1.00  0.00     0.010 A 
ATOM     34  C   UNL A   1      38.648  28.870  27.619  1.00  0.00     0.010 A 
ATOM     35  C   UNL A   1      39.190  28.179  28.706  1.00  0.00    -0.014 A 
BRANCH  35  36
ATOM     36  C   UNL A   1      40.576  27.731  28.591  1.00  0.00     0.031 A 
ATOM     37  C   UNL A   1      40.919  26.377  28.125  1.00  0.00     0.074 A 
ATOM     38  C   UNL A   1      41.573  28.544  29.013  1.00  0.00     0.049 A 
ATOM     39  N   UNL A   1      41.865  25.663  28.639  1.00  0.00    -0.248 NA
ATOM     40  C   UNL A   1      40.196  25.708  27.051  1.00  0.00     0.031 C 
ATOM     41  C   UNL A   1      43.009  28.309  28.895  1.00  0.00     0.029 A 
ATOM     42  N   UNL A   1      41.462  29.638  29.876  1.00  0.00    -0.354 N 
ATOM     43  C   UNL A   1      42.047  24.571  27.826  1.00  0.00     0.074 A 
ATOM     44  C   UNL A   1      40.942  24.607  26.891  1.00  0.00     0.031 C 
ATOM     45  C   UNL A   1      43.637  29.022  29.844  1.00  0.00     0.029 A 
ATOM     46  C   UNL A   1      42.622  29.655  30.669  1.00  0.00     0.049 A 
ATOM     47  H   UNL A   1      40.714  30.276  29.919  1.00  0.00     0.167 HD
ATOM     48  C   UNL A   1      43.180  23.820  27.924  1.00  0.00     0.034 A 
ATOM     49  C   UNL A   1      42.565  29.615  32.028  1.00  0.00     0.034 A 
ATOM     50  C   UNL A   1      44.119  24.358  28.902  1.00  0.00     0.049 A 
ATOM     51  C   UNL A   1      43.298  28.446  32.637  1.00  0.00     0.074 A 
ATOM     52  C   UNL A   1      45.246  25.152  28.765  1.00  0.00     0.029 A 
ATOM     53  N   UNL A   1      43.825  24.322  30.259  1.00  0.00    -0.354 N 
ATOM     54  N   UNL A   1      43.684  27.395  31.970  1.00  0.00    -0.248 NA
ATOM     55  C   UNL A   1      43.607  28.354  34.059  1.00  0.00     0.031 C 
ATOM     56  C   UNL A   1      45.608  25.626  30.048  1.00  0.00     0.029 A 
ATOM     57  C   UNL A   1      44.717  25.104  30.968  1.00  0.00     0.049 A 
ATOM     58  H   UNL A   1      43.083  23.812  30.659  1.00  0.00     0.167 HD
ATOM     59  C   UNL A   1      44.222  26.476  32.839  1.00  0.00     0.074 A 
ATOM     60  C   UNL A   1      44.190  27.145  34.127  1.00  0.00     0.031 C 
ATOM     61  C   UNL A   1      44.619  25.238  32.415  1.00  0.00     0.034 A 
BRANCH  48  62
ATOM     62  C   UNL A   1      43.570  22.783  26.899  1.00  0.00     0.023 A 
ATOM     63  C   UNL A   1      42.956  21.513  26.919  1.00  0.00     0.031 A 
ATOM     64  C   UNL A   1      44.544  22.974  25.901  1.00  0.00     0.131 A 
ATOM     65  C   UNL A   1      43.382  20.479  26.068  1.00  0.00     0.055 A 
ATOM     66  C   UNL A   1      45.007  21.930  25.089  1.00  0.00     0.041 A 
ATOM     67  F   UNL A   1      45.064  24.188  25.660  1.00  0.00    -0.206 F 
ATOM     68  C   UNL A   1      44.436  20.668  25.181  1.00  0.00     0.022 A 
BRANCH  65  69
ATOM     69  S   UNL A   1      42.533  18.876  26.142  1.00  0.00     0.124 S 
ATOM     70  O   UNL A   1      41.191  19.212  25.678  1.00  0.00    -0.237 OA
ATOM     71  O   UNL A   1      43.340  18.058  25.245  1.00  0.00    -0.237 OA
ATOM     72  O   UNL A   1      42.621  18.513  27.556  1.00  0.00    -0.744 OA
ENDBRANCH  65  69
ENDBRANCH  48  62
BRANCH  49  73
ATOM     73  C   UNL A   1      41.359  30.252  32.617  1.00  0.00     0.023 A 
ATOM     74  C   UNL A   1      41.267  31.656  32.579  1.00  0.00     0.031 A 
ATOM     75  C   UNL A   1      40.200  29.524  32.910  1.00  0.00     0.131 A 
ATOM     76  C   UNL A   1      40.024  32.291  32.714  1.00  0.00     0.055 A 
ATOM     77  C   UNL A   1      38.964  30.162  33.079  1.00  0.00     0.041 A 
ATOM     78  F   UNL A   1      40.218  28.183  32.925  1.00  0.00    -0.206 F 
ATOM     79  C   UNL A   1      38.864  31.548  32.941  1.00  0.00     0.022 A 
BRANCH  76  80
ATOM     80  S   UNL A   1      39.906  34.068  32.365  1.00  0.00     0.124 S 
ATOM     81  O   UNL A   1      40.397  34.665  33.599  1.00  0.00    -0.237 OA
ATOM     82  O   UNL A   1      40.768  34.219  31.191  1.00  0.00    -0.237 OA
ATOM     83  O   UNL A   1      38.486  34.271  32.084  1.00  0.00    -0.744 OA
ENDBRANCH  76  80
ENDBRANCH  49  73
BRANCH  61  84
ATOM     84  C   UNL A   1      45.036  24.079  33.302  1.00  0.00     0.023 A 
ATOM     85  C   UNL A   1      46.277  24.003  33.949  1.00  0.00     0.031 A 
ATOM     86  C   UNL A   1      44.142  23.014  33.579  1.00  0.00     0.131 A 
ATOM     87  C   UNL A   1      46.629  22.889  34.735  1.00  0.00     0.055 A 
ATOM     88  C   UNL A   1      44.463  21.945  34.423  1.00  0.00     0.041 A 
ATOM     89  F   UNL A   1      42.911  22.967  33.050  1.00  0.00    -0.206 F 
ATOM     90  C   UNL A   1      45.723  21.866  34.994  1.00  0.00     0.022 A 
BRANCH  87  91
ATOM     91  S   UNL A   1      48.328  22.782  35.358  1.00  0.00     0.124 S 
ATOM     92  O   UNL A   1      48.974  21.968  34.332  1.00  0.00    -0.237 OA
ATOM     93  O   UNL A   1      48.734  24.182  35.403  1.00  0.00    -0.237 OA
ATOM     94  O   UNL A   1      48.180  22.135  36.660  1.00  0.00    -0.744 OA
ENDBRANCH  87  91
ENDBRANCH  61  84
ENDBRANCH  35  36
ENDBRANCH  27  30
ENDBRANCH  25  26
ENDBRANCH  24  25
ENDBRANCH   1  24
TORSDOF 17
ENDMDL
MODEL 2
REMARK VINA RESULT:     -12.3      4.086     10.603
REMARK SMILES Cc1cccc(O[C@H](C)C(=O)N2CCC[C@@H](C(=O)NCCCNC(=O)c3ccc(-c4c5nc(c(-c6cc(S(=O)(=O)[O-])ccc6F)c6ccc([nH]6)c(-c6cc(S(=O)(=O)[O-])ccc6F)c6nc(c(-c7cc(S(=O)(=O)[O-])ccc7F)c7ccc4[nH]7)C=C6)C=C5)cc3)C2)c1
REMARK SMILES IDX 20 1 19 2 17 3 18 4 16 6 12 7 13 8 89 9 14 10 15 11 10 12
REMARK SMILES IDX 11 13 8 14 9 15 7 16 6 17 1 18 2 19 3 20 90 21 4 22 5 23
REMARK SMILES IDX 21 24 22 25 23 26 24 27 25 29 26 30 27 31 88 32 28 33 87 34
REMARK SMILES IDX 29 35 30 36 31 37 81 38 32 39 86 40 80 41 82 42 33 43 85 44
REMARK SMILES IDX 79 45 78 46 34 48 66 49 46 50 65 51 47 52 50 53 64 54 83 55
REMARK SMILES IDX 48 56 49 57 63 59 84 60 51 61 35 62 36 63 44 64 37 65 43 66
REMARK SMILES IDX 45 67 42 68 38 69 39 70 40 71 41 72 67 73 68 74 76 75 69 76
REMARK SMILES IDX 75 77 77 78 74 79 70 80 71 81 72 82 73 83 52 84 53 85 61 86
REMARK SMILES IDX 54 87 60 88 62 89 59 90 55 91 56 92 57 93 58 94
REMARK H PARENT 19 5 23 28 82 47 50 58
REMARK Flexibility Score: inf
ROOT
ATOM      1  C   UNL A   1      37.673  21.144  25.366  1.00  0.00     0.117 C 
ENDROOT
BRANCH   1   2
ATOM      2  N   UNL A   1      37.200  22.176  24.456  1.00  0.00    -0.356 N 
ATOM      3  C   UNL A   1      35.946  22.554  24.086  1.00  0.00     0.224 C 
ATOM      4  O   UNL A   1      35.809  23.369  23.170  1.00  0.00    -0.275 OA
ATOM      5  H   UNL A   1      37.918  22.697  24.030  1.00  0.00     0.163 HD
BRANCH   3   6
ATOM      6  C   UNL A   1      34.702  22.055  24.819  1.00  0.00     0.098 C 
ATOM      7  N   UNL A   1      32.459  22.576  25.782  1.00  0.00    -0.339 N 
ATOM      8  C   UNL A   1      31.880  21.441  25.060  1.00  0.00     0.119 C 
ATOM      9  C   UNL A   1      33.674  23.139  25.176  1.00  0.00     0.133 C 
ATOM     10  C   UNL A   1      32.883  20.319  24.845  1.00  0.00     0.022 C 
ATOM     11  C   UNL A   1      34.109  20.835  24.105  1.00  0.00     0.017 C 
BRANCH   7  12
ATOM     12  C   UNL A   1      31.726  23.087  26.841  1.00  0.00     0.263 C 
ATOM     13  O   UNL A   1      32.235  23.140  27.973  1.00  0.00    -0.271 OA
BRANCH  12  14
ATOM     14  C   UNL A   1      30.239  23.513  26.712  1.00  0.00     0.259 C 
ATOM     15  C   UNL A   1      29.153  22.565  27.200  1.00  0.00     0.064 C 
BRANCH  14  16
ATOM     16  O   UNL A   1      30.036  24.924  26.809  1.00  0.00    -0.481 OA
BRANCH  16  17
ATOM     17  C   UNL A   1      30.705  25.853  26.084  1.00  0.00     0.120 A 
ATOM     18  C   UNL A   1      29.912  27.712  22.832  1.00  0.00     0.044 C 
ATOM     19  C   UNL A   1      30.570  27.303  24.117  1.00  0.00    -0.047 A 
ATOM     20  C   UNL A   1      31.711  27.973  24.552  1.00  0.00     0.003 A 
ATOM     21  C   UNL A   1      30.082  26.237  24.885  1.00  0.00     0.049 A 
ATOM     22  C   UNL A   1      32.322  27.606  25.751  1.00  0.00     0.004 A 
ATOM     23  C   UNL A   1      31.818  26.556  26.516  1.00  0.00     0.046 A 
ENDBRANCH  16  17
ENDBRANCH  14  16
ENDBRANCH  12  14
ENDBRANCH   7  12
ENDBRANCH   3   6
ENDBRANCH   1   2
BRANCH   1  24
ATOM     24  C   UNL A   1      39.055  21.480  25.922  1.00  0.00     0.042 C 
BRANCH  24  25
ATOM     25  C   UNL A   1      39.312  22.974  26.123  1.00  0.00     0.118 C 
BRANCH  25  26
ATOM     26  N   UNL A   1      40.738  23.256  26.324  1.00  0.00    -0.352 N 
ATOM     27  C   UNL A   1      41.362  24.417  26.743  1.00  0.00     0.251 C 
ATOM     28  H   UNL A   1      41.344  22.504  26.133  1.00  0.00     0.163 HD
ATOM     29  O   UNL A   1      42.569  24.506  26.891  1.00  0.00    -0.269 OA
BRANCH  27  30
ATOM     30  C   UNL A   1      40.496  25.563  27.079  1.00  0.00     0.039 A 
ATOM     31  C   UNL A   1      40.790  26.794  26.499  1.00  0.00     0.014 A 
ATOM     32  C   UNL A   1      39.637  25.465  28.170  1.00  0.00     0.014 A 
ATOM     33  C   UNL A   1      40.423  27.953  27.173  1.00  0.00     0.010 A 
ATOM     34  C   UNL A   1      39.318  26.613  28.873  1.00  0.00     0.010 A 
ATOM     35  C   UNL A   1      39.794  27.847  28.420  1.00  0.00    -0.014 A 
BRANCH  35  36
ATOM     36  C   UNL A   1      39.852  28.939  29.388  1.00  0.00     0.031 A 
ATOM     37  C   UNL A   1      38.792  29.958  29.476  1.00  0.00     0.074 A 
ATOM     38  C   UNL A   1      40.952  29.080  30.165  1.00  0.00     0.049 A 
ATOM     39  N   UNL A   1      39.023  31.214  29.667  1.00  0.00    -0.248 NA
ATOM     40  C   UNL A   1      37.379  29.637  29.324  1.00  0.00     0.031 C 
ATOM     41  C   UNL A   1      41.152  30.045  31.241  1.00  0.00     0.029 A 
ATOM     42  N   UNL A   1      42.218  28.529  29.943  1.00  0.00    -0.354 N 
ATOM     43  C   UNL A   1      37.817  31.823  29.915  1.00  0.00     0.074 A 
ATOM     44  C   UNL A   1      36.818  30.816  29.624  1.00  0.00     0.031 C 
ATOM     45  C   UNL A   1      42.471  30.233  31.406  1.00  0.00     0.029 A 
ATOM     46  C   UNL A   1      43.160  29.478  30.374  1.00  0.00     0.049 A 
ATOM     47  H   UNL A   1      42.412  27.644  29.558  1.00  0.00     0.167 HD
ATOM     48  C   UNL A   1      37.774  33.065  30.474  1.00  0.00     0.034 A 
ATOM     49  C   UNL A   1      44.124  29.964  29.544  1.00  0.00     0.034 A 
ATOM     50  C   UNL A   1      39.102  33.573  30.801  1.00  0.00     0.049 A 
ATOM     51  C   UNL A   1      44.086  31.462  29.373  1.00  0.00     0.074 A 
ATOM     52  C   UNL A   1      39.816  33.601  31.987  1.00  0.00     0.029 A 
ATOM     53  N   UNL A   1      39.995  33.917  29.793  1.00  0.00    -0.354 N 
ATOM     54  N   UNL A   1      43.073  32.212  29.706  1.00  0.00    -0.248 NA
ATOM     55  C   UNL A   1      45.174  32.221  28.767  1.00  0.00     0.031 C 
ATOM     56  C   UNL A   1      41.159  33.930  31.683  1.00  0.00     0.029 A 
ATOM     57  C   UNL A   1      41.257  34.122  30.317  1.00  0.00     0.049 A 
ATOM     58  H   UNL A   1      39.761  34.000  28.841  1.00  0.00     0.167 HD
ATOM     59  C   UNL A   1      43.321  33.508  29.321  1.00  0.00     0.074 A 
ATOM     60  C   UNL A   1      44.667  33.466  28.780  1.00  0.00     0.031 C 
ATOM     61  C   UNL A   1      42.378  34.489  29.462  1.00  0.00     0.034 A 
BRANCH  48  62
ATOM     62  C   UNL A   1      36.506  33.680  31.017  1.00  0.00     0.023 A 
ATOM     63  C   UNL A   1      35.568  34.249  30.130  1.00  0.00     0.031 A 
ATOM     64  C   UNL A   1      36.177  33.753  32.383  1.00  0.00     0.131 A 
ATOM     65  C   UNL A   1      34.442  34.944  30.602  1.00  0.00     0.055 A 
ATOM     66  C   UNL A   1      35.085  34.490  32.858  1.00  0.00     0.041 A 
ATOM     67  F   UNL A   1      36.890  33.089  33.307  1.00  0.00    -0.206 F 
ATOM     68  C   UNL A   1      34.217  35.105  31.966  1.00  0.00     0.022 A 
BRANCH  65  69
ATOM     69  S   UNL A   1      33.272  35.638  29.401  1.00  0.00     0.124 S 
ATOM     70  O   UNL A   1      32.560  34.451  28.937  1.00  0.00    -0.237 OA
ATOM     71  O   UNL A   1      32.506  36.571  30.218  1.00  0.00    -0.237 OA
ATOM     72  O   UNL A   1      34.142  36.260  28.403  1.00  0.00    -0.744 OA
ENDBRANCH  65  69
ENDBRANCH  48  62
BRANCH  49  73
ATOM     73  C   UNL A   1      44.583  29.009  28.502  1.00  0.00     0.023 A 
ATOM     74  C   UNL A   1      45.382  27.922  28.907  1.00  0.00     0.031 A 
ATOM     75  C   UNL A   1      44.010  28.965  27.227  1.00  0.00     0.131 A 
ATOM     76  C   UNL A   1      45.496  26.784  28.097  1.00  0.00     0.055 A 
ATOM     77  C   UNL A   1      44.153  27.840  26.404  1.00  0.00     0.041 A 
ATOM     78  F   UNL A   1      43.211  29.954  26.800  1.00  0.00    -0.206 F 
ATOM     79  C   UNL A   1      44.864  26.727  26.854  1.00  0.00     0.022 A 
BRANCH  76  80
ATOM     80  S   UNL A   1      46.284  25.299  28.781  1.00  0.00     0.124 S 
ATOM     81  O   UNL A   1      47.335  25.859  29.620  1.00  0.00    -0.237 OA
ATOM     82  O   UNL A   1      45.178  24.646  29.485  1.00  0.00    -0.237 OA
ATOM     83  O   UNL A   1      46.740  24.573  27.596  1.00  0.00    -0.744 OA
ENDBRANCH  76  80
ENDBRANCH  49  73
BRANCH  61  84
ATOM     84  C   UNL A   1      42.458  35.895  28.898  1.00  0.00     0.023 A 
ATOM     85  C   UNL A   1      43.170  36.939  29.508  1.00  0.00     0.031 A 
ATOM     86  C   UNL A   1      41.852  36.220  27.658  1.00  0.00     0.131 A 
ATOM     87  C   UNL A   1      43.185  38.236  28.961  1.00  0.00     0.055 A 
ATOM     88  C   UNL A   1      41.932  37.490  27.076  1.00  0.00     0.041 A 
ATOM     89  F   UNL A   1      41.161  35.315  26.950  1.00  0.00    -0.206 F 
ATOM     90  C   UNL A   1      42.587  38.516  27.737  1.00  0.00     0.022 A 
BRANCH  87  91
ATOM     91  S   UNL A   1      43.953  39.564  29.926  1.00  0.00     0.124 S 
ATOM     92  O   UNL A   1      45.375  39.278  29.750  1.00  0.00    -0.237 OA
ATOM     93  O   UNL A   1      43.462  40.763  29.258  1.00  0.00    -0.237 OA
ATOM     94  O   UNL A   1      43.441  39.351  31.278  1.00  0.00    -0.744 OA
ENDBRANCH  87  91
ENDBRANCH  61  84
ENDBRANCH  35  36
ENDBRANCH  27  30
ENDBRANCH  25  26
ENDBRANCH  24  25
ENDBRANCH   1  24
TORSDOF 17
ENDMDL
MODEL 3
REMARK VINA RESULT:     -12.2      4.029     10.612
REMARK SMILES Cc1cccc(O[C@H](C)C(=O)N2CCC[C@@H](C(=O)NCCCNC(=O)c3ccc(-c4c5nc(c(-c6cc(S(=O)(=O)[O-])ccc6F)c6ccc([nH]6)c(-c6cc(S(=O)(=O)[O-])ccc6F)c6nc(c(-c7cc(S(=O)(=O)[O-])ccc7F)c7ccc4[nH]7)C=C6)C=C5)cc3)C2)c1
REMARK SMILES IDX 20 1 19 2 17 3 18 4 16 6 12 7 13 8 89 9 14 10 15 11 10 12
REMARK SMILES IDX 11 13 8 14 9 15 7 16 6 17 1 18 2 19 3 20 90 21 4 22 5 23
REMARK SMILES IDX 21 24 22 25 23 26 24 27 25 29 26 30 27 31 88 32 28 33 87 34
REMARK SMILES IDX 29 35 30 36 31 37 81 38 32 39 86 40 80 41 82 42 33 43 85 44
REMARK SMILES IDX 79 45 78 46 34 48 66 49 46 50 65 51 47 52 50 53 64 54 83 55
REMARK SMILES IDX 48 56 49 57 63 59 84 60 51 61 35 62 36 63 44 64 37 65 43 66
REMARK SMILES IDX 45 67 42 68 38 69 39 70 40 71 41 72 67 73 68 74 76 75 69 76
REMARK SMILES IDX 75 77 77 78 74 79 70 80 71 81 72 82 73 83 52 84 53 85 61 86
REMARK SMILES IDX 54 87 60 88 62 89 59 90 55 91 56 92 57 93 58 94
REMARK H PARENT 19 5 23 28 82 47 50 58
REMARK Flexibility Score: inf
ROOT
ATOM      1  C   UNL A   1      37.698  22.666  25.746  1.00  0.00     0.117 C 
ENDROOT
BRANCH   1   2
ATOM      2  N   UNL A   1      36.729  21.741  25.179  1.00  0.00    -0.356 N 
ATOM      3  C   UNL A   1      35.411  21.881  24.874  1.00  0.00     0.224 C 
ATOM      4  O   UNL A   1      34.761  20.887  24.539  1.00  0.00    -0.275 OA
ATOM      5  H   UNL A   1      37.094  20.849  24.977  1.00  0.00     0.163 HD
BRANCH   3   6
ATOM      6  C   UNL A   1      34.724  23.246  24.866  1.00  0.00     0.098 C 
ATOM      7  N   UNL A   1      33.256  24.872  23.669  1.00  0.00    -0.339 N 
ATOM      8  C   UNL A   1      32.432  25.020  24.870  1.00  0.00     0.119 C 
ATOM      9  C   UNL A   1      33.979  23.596  23.569  1.00  0.00     0.133 C 
ATOM     10  C   UNL A   1      33.228  24.809  26.147  1.00  0.00     0.022 C 
ATOM     11  C   UNL A   1      33.895  23.441  26.141  1.00  0.00     0.017 C 
BRANCH   7  12
ATOM     12  C   UNL A   1      33.140  25.856  22.701  1.00  0.00     0.263 C 
ATOM     13  O   UNL A   1      33.758  25.742  21.629  1.00  0.00    -0.271 OA
BRANCH  12  14
ATOM     14  C   UNL A   1      32.346  27.171  22.924  1.00  0.00     0.259 C 
ATOM     15  C   UNL A   1      30.911  27.093  23.425  1.00  0.00     0.064 C 
BRANCH  14  16
ATOM     16  O   UNL A   1      33.164  28.278  23.305  1.00  0.00    -0.481 OA
BRANCH  16  17
ATOM     17  C   UNL A   1      33.317  28.725  24.575  1.00  0.00     0.120 A 
ATOM     18  C   UNL A   1      31.514  31.384  26.657  1.00  0.00     0.044 C 
ATOM     19  C   UNL A   1      32.405  30.243  26.264  1.00  0.00    -0.047 A 
ATOM     20  C   UNL A   1      33.208  29.631  27.225  1.00  0.00     0.003 A 
ATOM     21  C   UNL A   1      32.477  29.789  24.940  1.00  0.00     0.049 A 
ATOM     22  C   UNL A   1      34.030  28.562  26.870  1.00  0.00     0.004 A 
ATOM     23  C   UNL A   1      34.079  28.107  25.553  1.00  0.00     0.046 A 
ENDBRANCH  16  17
ENDBRANCH  14  16
ENDBRANCH  12  14
ENDBRANCH   7  12
ENDBRANCH   3   6
ENDBRANCH   1   2
BRANCH   1  24
ATOM     24  C   UNL A   1      39.031  21.977  26.027  1.00  0.00     0.042 C 
BRANCH  24  25
ATOM     25  C   UNL A   1      39.907  22.686  27.060  1.00  0.00     0.118 C 
BRANCH  25  26
ATOM     26  N   UNL A   1      41.171  23.148  26.473  1.00  0.00    -0.352 N 
ATOM     27  C   UNL A   1      41.601  24.432  26.193  1.00  0.00     0.251 C 
ATOM     28  H   UNL A   1      41.811  22.435  26.245  1.00  0.00     0.163 HD
ATOM     29  O   UNL A   1      42.699  24.675  25.720  1.00  0.00    -0.269 OA
BRANCH  27  30
ATOM     30  C   UNL A   1      40.695  25.539  26.551  1.00  0.00     0.039 A 
ATOM     31  C   UNL A   1      40.984  26.805  26.051  1.00  0.00     0.014 A 
ATOM     32  C   UNL A   1      39.794  25.364  27.598  1.00  0.00     0.014 A 
ATOM     33  C   UNL A   1      40.562  27.918  26.770  1.00  0.00     0.010 A 
ATOM     34  C   UNL A   1      39.418  26.465  28.347  1.00  0.00     0.010 A 
ATOM     35  C   UNL A   1      39.884  27.731  27.981  1.00  0.00    -0.014 A 
BRANCH  35  36
ATOM     36  C   UNL A   1      39.876  28.771  29.007  1.00  0.00     0.031 A 
ATOM     37  C   UNL A   1      38.804  29.779  29.084  1.00  0.00     0.074 A 
ATOM     38  C   UNL A   1      40.926  28.875  29.855  1.00  0.00     0.049 A 
ATOM     39  N   UNL A   1      39.014  31.024  29.356  1.00  0.00    -0.248 NA
ATOM     40  C   UNL A   1      37.405  29.461  28.831  1.00  0.00     0.031 C 
ATOM     41  C   UNL A   1      41.054  29.782  30.991  1.00  0.00     0.029 A 
ATOM     42  N   UNL A   1      42.207  28.342  29.681  1.00  0.00    -0.354 N 
ATOM     43  C   UNL A   1      37.791  31.614  29.562  1.00  0.00     0.074 A 
ATOM     44  C   UNL A   1      36.819  30.620  29.159  1.00  0.00     0.031 C 
ATOM     45  C   UNL A   1      42.359  29.967  31.244  1.00  0.00     0.029 A 
ATOM     46  C   UNL A   1      43.115  29.271  30.217  1.00  0.00     0.049 A 
ATOM     47  H   UNL A   1      42.430  27.479  29.262  1.00  0.00     0.167 HD
ATOM     48  C   UNL A   1      37.705  32.824  30.182  1.00  0.00     0.034 A 
ATOM     49  C   UNL A   1      44.123  29.804  29.474  1.00  0.00     0.034 A 
ATOM     50  C   UNL A   1      39.008  33.319  30.615  1.00  0.00     0.049 A 
ATOM     51  C   UNL A   1      44.084  31.309  29.380  1.00  0.00     0.074 A 
ATOM     52  C   UNL A   1      39.649  33.288  31.842  1.00  0.00     0.029 A 
ATOM     53  N   UNL A   1      39.956  33.720  29.683  1.00  0.00    -0.354 N 
ATOM     54  N   UNL A   1      43.048  32.036  29.691  1.00  0.00    -0.248 NA
ATOM     55  C   UNL A   1      45.200  32.104  28.882  1.00  0.00     0.031 C 
ATOM     56  C   UNL A   1      41.006  33.637  31.638  1.00  0.00     0.029 A 
ATOM     57  C   UNL A   1      41.184  33.903  30.291  1.00  0.00     0.049 A 
ATOM     58  H   UNL A   1      39.779  33.854  28.724  1.00  0.00     0.167 HD
ATOM     59  C   UNL A   1      43.308  33.352  29.391  1.00  0.00     0.074 A 
ATOM     60  C   UNL A   1      44.685  33.345  28.930  1.00  0.00     0.031 C 
ATOM     61  C   UNL A   1      42.351  34.319  29.526  1.00  0.00     0.034 A 
BRANCH  48  62
ATOM     62  C   UNL A   1      36.403  33.403  30.680  1.00  0.00     0.023 A 
ATOM     63  C   UNL A   1      35.549  34.079  29.783  1.00  0.00     0.031 A 
ATOM     64  C   UNL A   1      35.961  33.342  32.014  1.00  0.00     0.131 A 
ATOM     65  C   UNL A   1      34.394  34.743  30.230  1.00  0.00     0.055 A 
ATOM     66  C   UNL A   1      34.840  34.047  32.472  1.00  0.00     0.041 A 
ATOM     67  F   UNL A   1      36.586  32.573  32.920  1.00  0.00    -0.206 F 
ATOM     68  C   UNL A   1      34.057  34.767  31.580  1.00  0.00     0.022 A 
BRANCH  65  69
ATOM     69  S   UNL A   1      33.337  35.578  29.015  1.00  0.00     0.124 S 
ATOM     70  O   UNL A   1      32.646  34.460  28.381  1.00  0.00    -0.237 OA
ATOM     71  O   UNL A   1      32.522  36.445  29.858  1.00  0.00    -0.237 OA
ATOM     72  O   UNL A   1      34.294  36.275  28.156  1.00  0.00    -0.744 OA
ENDBRANCH  65  69
ENDBRANCH  48  62
BRANCH  49  73
ATOM     73  C   UNL A   1      44.651  28.909  28.413  1.00  0.00     0.023 A 
ATOM     74  C   UNL A   1      45.450  27.817  28.805  1.00  0.00     0.031 A 
ATOM     75  C   UNL A   1      44.141  28.915  27.109  1.00  0.00     0.131 A 
ATOM     76  C   UNL A   1      45.625  26.721  27.949  1.00  0.00     0.055 A 
ATOM     77  C   UNL A   1      44.346  27.834  26.243  1.00  0.00     0.041 A 
ATOM     78  F   UNL A   1      43.345  29.910  26.690  1.00  0.00    -0.206 F 
ATOM     79  C   UNL A   1      45.056  26.712  26.675  1.00  0.00     0.022 A 
BRANCH  76  80
ATOM     80  S   UNL A   1      46.408  25.218  28.601  1.00  0.00     0.124 S 
ATOM     81  O   UNL A   1      45.811  24.172  27.782  1.00  0.00    -0.237 OA
ATOM     82  O   UNL A   1      47.831  25.478  28.377  1.00  0.00    -0.237 OA
ATOM     83  O   UNL A   1      46.024  25.214  30.012  1.00  0.00    -0.744 OA
ENDBRANCH  76  80
ENDBRANCH  49  73
BRANCH  61  84
ATOM     84  C   UNL A   1      42.454  35.754  29.044  1.00  0.00     0.023 A 
ATOM     85  C   UNL A   1      43.157  36.757  29.728  1.00  0.00     0.031 A 
ATOM     86  C   UNL A   1      41.881  36.152  27.810  1.00  0.00     0.131 A 
ATOM     87  C   UNL A   1      43.194  38.082  29.254  1.00  0.00     0.055 A 
ATOM     88  C   UNL A   1      41.984  37.451  27.300  1.00  0.00     0.041 A 
ATOM     89  F   UNL A   1      41.201  35.293  27.035  1.00  0.00    -0.206 F 
ATOM     90  C   UNL A   1      42.629  38.434  28.034  1.00  0.00     0.022 A 
BRANCH  87  91
ATOM     91  S   UNL A   1      43.948  39.348  30.310  1.00  0.00     0.124 S 
ATOM     92  O   UNL A   1      42.878  40.338  30.402  1.00  0.00    -0.237 OA
ATOM     93  O   UNL A   1      44.231  38.608  31.534  1.00  0.00    -0.237 OA
ATOM     94  O   UNL A   1      45.124  39.775  29.555  1.00  0.00    -0.744 OA
ENDBRANCH  87  91
ENDBRANCH  61  84
ENDBRANCH  35  36
ENDBRANCH  27  30
ENDBRANCH  25  26
ENDBRANCH  24  25
ENDBRANCH   1  24
TORSDOF 17
ENDMDL
