MODEL 1
REMARK VINA RESULT:      -9.7      0.000      0.000
REMARK SMILES C#CCN(CC(=O)NCCCNC(=O)c1ccc(-c2c3nc(c(-c4cc(S(=O)(=O)[O-])ccc4F)c4ccc([nH]4)c(-c4cc(S(=O)(=O)[O-])ccc4F)c4nc(c(-c5cc(S(=O)(=O)[O-])ccc5F)c5ccc2[nH]5)C=C4)C=C3)cc1)C(=O)c1c[nH]c(=O)[nH]1
REMARK SMILES IDX 10 1 9 2 8 3 6 4 7 5 5 7 4 8 3 9 2 10 1 11 78 12 79 13 80 14
REMARK SMILES IDX 81 15 85 16 82 17 83 18 84 21 11 22 12 23 13 24 14 26 15 27
REMARK SMILES IDX 16 28 77 29 17 30 76 31 18 32 19 33 20 34 70 35 21 36 75 37
REMARK SMILES IDX 69 38 71 39 22 40 74 41 68 42 67 43 23 45 55 46 35 47 54 48
REMARK SMILES IDX 36 49 39 50 53 51 72 52 37 53 38 54 52 56 73 57 40 58 24 59
REMARK SMILES IDX 25 60 33 61 26 62 32 63 34 64 31 65 27 66 28 67 29 68 30 69
REMARK SMILES IDX 56 70 57 71 65 72 58 73 64 74 66 75 63 76 59 77 60 78 61 79
REMARK SMILES IDX 62 80 41 81 42 82 50 83 43 84 49 85 51 86 48 87 44 88 45 89
REMARK SMILES IDX 46 90 47 91
REMARK H PARENT 8 6 85 19 82 20 12 25 71 44 39 55
REMARK Flexibility Score: inf
ROOT
ATOM      1  C   UNL A   1      41.859  21.516  26.412  1.00  0.00     0.042 C 
ENDROOT
BRANCH   1   2
ATOM      2  C   UNL A   1      42.272  22.869  25.843  1.00  0.00     0.117 C 
BRANCH   2   3
ATOM      3  N   UNL A   1      43.042  22.781  24.620  1.00  0.00    -0.354 N 
ATOM      4  C   UNL A   1      44.362  22.499  24.440  1.00  0.00     0.239 C 
ATOM      5  O   UNL A   1      44.707  22.124  23.315  1.00  0.00    -0.273 OA
ATOM      6  H   UNL A   1      42.535  22.949  23.794  1.00  0.00     0.163 HD
BRANCH   4   7
ATOM      7  C   UNL A   1      45.383  22.526  25.591  1.00  0.00     0.220 C 
BRANCH   7   8
ATOM      8  N   UNL A   1      45.812  23.849  26.051  1.00  0.00    -0.317 N 
BRANCH   8   9
ATOM      9  C   UNL A   1      46.115  24.007  27.475  1.00  0.00     0.210 C 
BRANCH   9  10
ATOM     10  C   UNL A   1      44.967  23.543  28.357  1.00  0.00    -0.085 C 
ATOM     11  C   UNL A   1      43.983  23.145  29.114  1.00  0.00     0.006 C 
ENDBRANCH   9  10
ENDBRANCH   8   9
BRANCH   8  12
ATOM     12  C   UNL A   1      46.064  24.931  25.214  1.00  0.00     0.273 C 
ATOM     13  O   UNL A   1      46.894  24.886  24.305  1.00  0.00    -0.267 OA
BRANCH  12  14
ATOM     14  C   UNL A   1      45.267  26.180  25.353  1.00  0.00     0.125 A 
ATOM     15  C   UNL A   1      45.620  27.396  25.794  1.00  0.00     0.119 A 
ATOM     16  N   UNL A   1      43.985  26.265  24.851  1.00  0.00    -0.302 N 
ATOM     17  N   UNL A   1      44.559  28.252  25.628  1.00  0.00    -0.312 N 
ATOM     18  C   UNL A   1      43.504  27.565  25.017  1.00  0.00     0.323 A 
ATOM     19  H   UNL A   1      43.484  25.523  24.439  1.00  0.00     0.172 HD
ATOM     20  H   UNL A   1      44.543  29.200  25.896  1.00  0.00     0.171 HD
ATOM     21  O   UNL A   1      42.417  28.010  24.696  1.00  0.00    -0.248 OA
ENDBRANCH  12  14
ENDBRANCH   8  12
ENDBRANCH   7   8
ENDBRANCH   4   7
ENDBRANCH   2   3
ENDBRANCH   1   2
BRANCH   1  22
ATOM     22  C   UNL A   1      40.544  21.524  27.183  1.00  0.00     0.118 C 
BRANCH  22  23
ATOM     23  N   UNL A   1      39.415  21.902  26.350  1.00  0.00    -0.352 N 
ATOM     24  C   UNL A   1      38.689  23.065  26.292  1.00  0.00     0.251 C 
ATOM     25  H   UNL A   1      39.120  21.206  25.720  1.00  0.00     0.163 HD
ATOM     26  O   UNL A   1      37.624  23.055  25.679  1.00  0.00    -0.269 OA
BRANCH  24  27
ATOM     27  C   UNL A   1      39.159  24.306  26.948  1.00  0.00     0.039 A 
ATOM     28  C   UNL A   1      38.889  24.486  28.308  1.00  0.00     0.014 A 
ATOM     29  C   UNL A   1      39.798  25.322  26.232  1.00  0.00     0.014 A 
ATOM     30  C   UNL A   1      39.292  25.659  28.951  1.00  0.00     0.010 A 
ATOM     31  C   UNL A   1      40.281  26.451  26.893  1.00  0.00     0.010 A 
ATOM     32  C   UNL A   1      40.018  26.641  28.257  1.00  0.00    -0.014 A 
BRANCH  32  33
ATOM     33  C   UNL A   1      40.483  27.875  28.944  1.00  0.00     0.031 A 
ATOM     34  C   UNL A   1      41.953  28.112  29.171  1.00  0.00     0.074 A 
ATOM     35  C   UNL A   1      39.579  28.770  29.388  1.00  0.00     0.049 A 
ATOM     36  N   UNL A   1      42.549  29.112  29.769  1.00  0.00    -0.248 NA
ATOM     37  C   UNL A   1      42.873  27.072  28.685  1.00  0.00     0.031 C 
ATOM     38  C   UNL A   1      38.126  28.633  29.259  1.00  0.00     0.029 A 
ATOM     39  N   UNL A   1      39.741  29.969  30.034  1.00  0.00    -0.354 N 
ATOM     40  C   UNL A   1      43.909  28.821  29.738  1.00  0.00     0.074 A 
ATOM     41  C   UNL A   1      44.040  27.515  29.127  1.00  0.00     0.031 C 
ATOM     42  C   UNL A   1      37.535  29.725  29.769  1.00  0.00     0.029 A 
ATOM     43  C   UNL A   1      38.558  30.614  30.311  1.00  0.00     0.049 A 
ATOM     44  H   UNL A   1      40.622  30.335  30.275  1.00  0.00     0.167 HD
ATOM     45  C   UNL A   1      44.951  29.582  30.153  1.00  0.00     0.034 A 
ATOM     46  C   UNL A   1      38.321  31.784  30.938  1.00  0.00     0.034 A 
ATOM     47  C   UNL A   1      44.799  30.884  30.759  1.00  0.00     0.049 A 
ATOM     48  C   UNL A   1      39.493  32.593  31.431  1.00  0.00     0.074 A 
ATOM     49  C   UNL A   1      45.786  31.759  31.180  1.00  0.00     0.029 A 
ATOM     50  N   UNL A   1      43.583  31.493  31.044  1.00  0.00    -0.354 N 
ATOM     51  N   UNL A   1      40.776  32.325  31.350  1.00  0.00    -0.248 NA
ATOM     52  C   UNL A   1      39.185  33.869  32.088  1.00  0.00     0.031 C 
ATOM     53  C   UNL A   1      45.169  32.856  31.791  1.00  0.00     0.029 A 
ATOM     54  C   UNL A   1      43.796  32.716  31.665  1.00  0.00     0.049 A 
ATOM     55  H   UNL A   1      42.699  31.114  30.836  1.00  0.00     0.167 HD
ATOM     56  C   UNL A   1      41.429  33.420  31.912  1.00  0.00     0.074 A 
ATOM     57  C   UNL A   1      40.397  34.354  32.315  1.00  0.00     0.031 C 
ATOM     58  C   UNL A   1      42.759  33.637  32.072  1.00  0.00     0.034 A 
BRANCH  45  59
ATOM     59  C   UNL A   1      46.342  29.010  29.989  1.00  0.00     0.023 A 
ATOM     60  C   UNL A   1      47.100  29.232  28.825  1.00  0.00     0.031 A 
ATOM     61  C   UNL A   1      46.907  28.205  30.995  1.00  0.00     0.131 A 
ATOM     62  C   UNL A   1      48.337  28.591  28.661  1.00  0.00     0.055 A 
ATOM     63  C   UNL A   1      48.181  27.646  30.864  1.00  0.00     0.041 A 
ATOM     64  F   UNL A   1      46.226  27.935  32.119  1.00  0.00    -0.206 F 
ATOM     65  C   UNL A   1      48.896  27.823  29.683  1.00  0.00     0.022 A 
BRANCH  62  66
ATOM     66  S   UNL A   1      49.125  28.640  27.027  1.00  0.00     0.124 S 
ATOM     67  O   UNL A   1      50.476  29.085  27.365  1.00  0.00    -0.237 OA
ATOM     68  O   UNL A   1      49.002  27.260  26.575  1.00  0.00    -0.237 OA
ATOM     69  O   UNL A   1      48.324  29.615  26.289  1.00  0.00    -0.744 OA
ENDBRANCH  62  66
ENDBRANCH  45  59
BRANCH  46  70
ATOM     70  C   UNL A   1      36.922  32.263  31.138  1.00  0.00     0.023 A 
ATOM     71  C   UNL A   1      36.162  32.749  30.062  1.00  0.00     0.031 A 
ATOM     72  C   UNL A   1      36.337  32.279  32.416  1.00  0.00     0.131 A 
ATOM     73  C   UNL A   1      34.881  33.277  30.291  1.00  0.00     0.055 A 
ATOM     74  C   UNL A   1      35.039  32.747  32.630  1.00  0.00     0.041 A 
ATOM     75  F   UNL A   1      37.017  31.824  33.481  1.00  0.00    -0.206 F 
ATOM     76  C   UNL A   1      34.309  33.263  31.565  1.00  0.00     0.022 A 
BRANCH  73  77
ATOM     77  S   UNL A   1      34.009  34.069  28.912  1.00  0.00     0.124 S 
ATOM     78  O   UNL A   1      34.990  35.054  28.469  1.00  0.00    -0.237 OA
ATOM     79  O   UNL A   1      33.778  32.944  28.013  1.00  0.00    -0.237 OA
ATOM     80  O   UNL A   1      32.810  34.619  29.539  1.00  0.00    -0.744 OA
ENDBRANCH  73  77
ENDBRANCH  46  70
BRANCH  58  81
ATOM     81  C   UNL A   1      43.177  34.966  32.657  1.00  0.00     0.023 A 
ATOM     82  C   UNL A   1      43.412  36.095  31.852  1.00  0.00     0.031 A 
ATOM     83  C   UNL A   1      43.350  35.100  34.046  1.00  0.00     0.131 A 
ATOM     84  C   UNL A   1      43.866  37.287  32.436  1.00  0.00     0.055 A 
ATOM     85  C   UNL A   1      43.733  36.309  34.628  1.00  0.00     0.041 A 
ATOM     86  F   UNL A   1      43.146  34.055  34.865  1.00  0.00    -0.206 F 
ATOM     87  C   UNL A   1      44.008  37.407  33.820  1.00  0.00     0.022 A 
BRANCH  84  88
ATOM     88  S   UNL A   1      44.376  38.649  31.352  1.00  0.00     0.124 S 
ATOM     89  O   UNL A   1      45.795  38.775  31.669  1.00  0.00    -0.237 OA
ATOM     90  O   UNL A   1      44.063  38.126  30.026  1.00  0.00    -0.237 OA
ATOM     91  O   UNL A   1      43.542  39.767  31.789  1.00  0.00    -0.744 OA
ENDBRANCH  84  88
ENDBRANCH  58  81
ENDBRANCH  32  33
ENDBRANCH  24  27
ENDBRANCH  22  23
ENDBRANCH   1  22
TORSDOF 18
ENDMDL
MODEL 2
REMARK VINA RESULT:      -9.4      5.330     11.059
REMARK SMILES C#CCN(CC(=O)NCCCNC(=O)c1ccc(-c2c3nc(c(-c4cc(S(=O)(=O)[O-])ccc4F)c4ccc([nH]4)c(-c4cc(S(=O)(=O)[O-])ccc4F)c4nc(c(-c5cc(S(=O)(=O)[O-])ccc5F)c5ccc2[nH]5)C=C4)C=C3)cc1)C(=O)c1c[nH]c(=O)[nH]1
REMARK SMILES IDX 10 1 9 2 8 3 6 4 7 5 5 7 4 8 3 9 2 10 1 11 78 12 79 13 80 14
REMARK SMILES IDX 81 15 85 16 82 17 83 18 84 21 11 22 12 23 13 24 14 26 15 27
REMARK SMILES IDX 16 28 77 29 17 30 76 31 18 32 19 33 20 34 70 35 21 36 75 37
REMARK SMILES IDX 69 38 71 39 22 40 74 41 68 42 67 43 23 45 55 46 35 47 54 48
REMARK SMILES IDX 36 49 39 50 53 51 72 52 37 53 38 54 52 56 73 57 40 58 24 59
REMARK SMILES IDX 25 60 33 61 26 62 32 63 34 64 31 65 27 66 28 67 29 68 30 69
REMARK SMILES IDX 56 70 57 71 65 72 58 73 64 74 66 75 63 76 59 77 60 78 61 79
REMARK SMILES IDX 62 80 41 81 42 82 50 83 43 84 49 85 51 86 48 87 44 88 45 89
REMARK SMILES IDX 46 90 47 91
REMARK H PARENT 8 6 85 19 82 20 12 25 71 44 39 55
REMARK Flexibility Score: inf
ROOT
ATOM      1  C   UNL A   1      31.774  28.003  27.119  1.00  0.00     0.042 C 
ENDROOT
BRANCH   1   2
ATOM      2  C   UNL A   1      31.331  27.057  26.009  1.00  0.00     0.117 C 
BRANCH   2   3
ATOM      3  N   UNL A   1      30.873  25.768  26.484  1.00  0.00    -0.354 N 
ATOM      4  C   UNL A   1      31.504  24.561  26.475  1.00  0.00     0.239 C 
ATOM      5  O   UNL A   1      31.076  23.700  27.250  1.00  0.00    -0.273 OA
ATOM      6  H   UNL A   1      29.970  25.764  26.874  1.00  0.00     0.163 HD
BRANCH   4   7
ATOM      7  C   UNL A   1      32.763  24.287  25.635  1.00  0.00     0.220 C 
BRANCH   7   8
ATOM      8  N   UNL A   1      32.570  23.517  24.404  1.00  0.00    -0.317 N 
BRANCH   8   9
ATOM      9  C   UNL A   1      31.360  23.777  23.623  1.00  0.00     0.210 C 
BRANCH   9  10
ATOM     10  C   UNL A   1      31.451  25.083  22.849  1.00  0.00    -0.085 C 
ATOM     11  C   UNL A   1      31.529  26.202  22.185  1.00  0.00     0.006 C 
ENDBRANCH   9  10
ENDBRANCH   8   9
BRANCH   8  12
ATOM     12  C   UNL A   1      33.510  22.644  23.865  1.00  0.00     0.273 C 
ATOM     13  O   UNL A   1      34.347  23.001  23.035  1.00  0.00    -0.267 OA
BRANCH  12  14
ATOM     14  C   UNL A   1      33.576  21.235  24.342  1.00  0.00     0.125 A 
ATOM     15  C   UNL A   1      34.595  20.539  24.866  1.00  0.00     0.119 A 
ATOM     16  N   UNL A   1      32.437  20.464  24.442  1.00  0.00    -0.302 N 
ATOM     17  N   UNL A   1      34.133  19.306  25.256  1.00  0.00    -0.312 N 
ATOM     18  C   UNL A   1      32.758  19.230  25.012  1.00  0.00     0.323 A 
ATOM     19  H   UNL A   1      31.536  20.739  24.156  1.00  0.00     0.172 HD
ATOM     20  H   UNL A   1      34.683  18.588  25.647  1.00  0.00     0.171 HD
ATOM     21  O   UNL A   1      32.012  18.298  25.252  1.00  0.00    -0.248 OA
ENDBRANCH  12  14
ENDBRANCH   8  12
ENDBRANCH   7   8
ENDBRANCH   4   7
ENDBRANCH   2   3
ENDBRANCH   1   2
BRANCH   1  22
ATOM     22  C   UNL A   1      33.211  28.498  26.998  1.00  0.00     0.118 C 
BRANCH  22  23
ATOM     23  N   UNL A   1      33.300  29.949  26.997  1.00  0.00    -0.352 N 
ATOM     24  C   UNL A   1      34.225  30.794  27.554  1.00  0.00     0.251 C 
ATOM     25  H   UNL A   1      32.571  30.402  26.514  1.00  0.00     0.163 HD
ATOM     26  O   UNL A   1      33.950  31.989  27.628  1.00  0.00    -0.269 OA
BRANCH  24  27
ATOM     27  C   UNL A   1      35.524  30.296  28.061  1.00  0.00     0.039 A 
ATOM     28  C   UNL A   1      35.583  29.786  29.361  1.00  0.00     0.014 A 
ATOM     29  C   UNL A   1      36.696  30.387  27.303  1.00  0.00     0.014 A 
ATOM     30  C   UNL A   1      36.798  29.336  29.882  1.00  0.00     0.010 A 
ATOM     31  C   UNL A   1      37.889  29.853  27.789  1.00  0.00     0.010 A 
ATOM     32  C   UNL A   1      37.958  29.338  29.090  1.00  0.00    -0.014 A 
BRANCH  32  33
ATOM     33  C   UNL A   1      39.248  28.824  29.624  1.00  0.00     0.031 A 
ATOM     34  C   UNL A   1      39.878  29.460  30.835  1.00  0.00     0.074 A 
ATOM     35  C   UNL A   1      39.866  27.802  29.000  1.00  0.00     0.049 A 
ATOM     36  N   UNL A   1      41.006  29.169  31.432  1.00  0.00    -0.248 NA
ATOM     37  C   UNL A   1      39.157  30.592  31.439  1.00  0.00     0.031 C 
ATOM     38  C   UNL A   1      39.372  27.129  27.797  1.00  0.00     0.029 A 
ATOM     39  N   UNL A   1      41.038  27.149  29.286  1.00  0.00    -0.354 N 
ATOM     40  C   UNL A   1      41.134  30.082  32.474  1.00  0.00     0.074 A 
ATOM     41  C   UNL A   1      40.003  30.981  32.379  1.00  0.00     0.031 C 
ATOM     42  C   UNL A   1      40.211  26.132  27.475  1.00  0.00     0.029 A 
ATOM     43  C   UNL A   1      41.330  26.127  28.412  1.00  0.00     0.049 A 
ATOM     44  H   UNL A   1      41.615  27.387  30.047  1.00  0.00     0.167 HD
ATOM     45  C   UNL A   1      42.087  30.147  33.436  1.00  0.00     0.034 A 
ATOM     46  C   UNL A   1      42.384  25.288  28.363  1.00  0.00     0.034 A 
ATOM     47  C   UNL A   1      43.207  29.239  33.513  1.00  0.00     0.049 A 
ATOM     48  C   UNL A   1      43.455  25.407  29.417  1.00  0.00     0.074 A 
ATOM     49  C   UNL A   1      44.210  29.187  34.466  1.00  0.00     0.029 A 
ATOM     50  N   UNL A   1      43.483  28.232  32.596  1.00  0.00    -0.354 N 
ATOM     51  N   UNL A   1      43.536  26.245  30.424  1.00  0.00    -0.248 NA
ATOM     52  C   UNL A   1      44.572  24.457  29.334  1.00  0.00     0.031 C 
ATOM     53  C   UNL A   1      45.131  28.206  34.082  1.00  0.00     0.029 A 
ATOM     54  C   UNL A   1      44.655  27.577  32.943  1.00  0.00     0.049 A 
ATOM     55  H   UNL A   1      42.925  28.013  31.814  1.00  0.00     0.167 HD
ATOM     56  C   UNL A   1      44.693  25.896  31.117  1.00  0.00     0.074 A 
ATOM     57  C   UNL A   1      45.267  24.764  30.418  1.00  0.00     0.031 C 
ATOM     58  C   UNL A   1      45.226  26.455  32.234  1.00  0.00     0.034 A 
BRANCH  45  59
ATOM     59  C   UNL A   1      41.971  31.254  34.459  1.00  0.00     0.023 A 
ATOM     60  C   UNL A   1      40.968  31.246  35.446  1.00  0.00     0.031 A 
ATOM     61  C   UNL A   1      42.854  32.348  34.434  1.00  0.00     0.131 A 
ATOM     62  C   UNL A   1      40.820  32.345  36.305  1.00  0.00     0.055 A 
ATOM     63  C   UNL A   1      42.759  33.396  35.353  1.00  0.00     0.041 A 
ATOM     64  F   UNL A   1      43.819  32.427  33.503  1.00  0.00    -0.206 F 
ATOM     65  C   UNL A   1      41.726  33.407  36.285  1.00  0.00     0.022 A 
BRANCH  62  66
ATOM     66  S   UNL A   1      39.328  32.443  37.333  1.00  0.00     0.124 S 
ATOM     67  O   UNL A   1      38.627  31.219  36.952  1.00  0.00    -0.237 OA
ATOM     68  O   UNL A   1      39.876  32.472  38.684  1.00  0.00    -0.237 OA
ATOM     69  O   UNL A   1      38.687  33.680  36.891  1.00  0.00    -0.744 OA
ENDBRANCH  62  66
ENDBRANCH  45  59
BRANCH  46  70
ATOM     70  C   UNL A   1      42.482  24.262  27.284  1.00  0.00     0.023 A 
ATOM     71  C   UNL A   1      41.877  23.004  27.422  1.00  0.00     0.031 A 
ATOM     72  C   UNL A   1      43.219  24.512  26.112  1.00  0.00     0.131 A 
ATOM     73  C   UNL A   1      42.059  22.025  26.432  1.00  0.00     0.055 A 
ATOM     74  C   UNL A   1      43.346  23.557  25.101  1.00  0.00     0.041 A 
ATOM     75  F   UNL A   1      43.817  25.699  25.925  1.00  0.00    -0.206 F 
ATOM     76  C   UNL A   1      42.775  22.300  25.265  1.00  0.00     0.022 A 
BRANCH  73  77
ATOM     77  S   UNL A   1      41.423  20.354  26.735  1.00  0.00     0.124 S 
ATOM     78  O   UNL A   1      41.638  19.717  25.441  1.00  0.00    -0.237 OA
ATOM     79  O   UNL A   1      42.279  19.897  27.825  1.00  0.00    -0.237 OA
ATOM     80  O   UNL A   1      40.027  20.581  27.097  1.00  0.00    -0.744 OA
ENDBRANCH  73  77
ENDBRANCH  46  70
BRANCH  58  81
ATOM     81  C   UNL A   1      46.466  25.807  32.805  1.00  0.00     0.023 A 
ATOM     82  C   UNL A   1      46.398  24.744  33.723  1.00  0.00     0.031 A 
ATOM     83  C   UNL A   1      47.739  26.272  32.427  1.00  0.00     0.131 A 
ATOM     84  C   UNL A   1      47.578  24.223  34.278  1.00  0.00     0.055 A 
ATOM     85  C   UNL A   1      48.910  25.702  32.929  1.00  0.00     0.041 A 
ATOM     86  F   UNL A   1      47.867  27.288  31.559  1.00  0.00    -0.206 F 
ATOM     87  C   UNL A   1      48.832  24.681  33.871  1.00  0.00     0.022 A 
BRANCH  84  88
ATOM     88  S   UNL A   1      47.447  23.013  35.622  1.00  0.00     0.124 S 
ATOM     89  O   UNL A   1      46.009  22.986  35.867  1.00  0.00    -0.237 OA
ATOM     90  O   UNL A   1      48.014  21.812  35.017  1.00  0.00    -0.237 OA
ATOM     91  O   UNL A   1      48.247  23.603  36.694  1.00  0.00    -0.744 OA
ENDBRANCH  84  88
ENDBRANCH  58  81
ENDBRANCH  32  33
ENDBRANCH  24  27
ENDBRANCH  22  23
ENDBRANCH   1  22
TORSDOF 18
ENDMDL
MODEL 3
REMARK VINA RESULT:      -9.3      5.156     10.637
REMARK SMILES C#CCN(CC(=O)NCCCNC(=O)c1ccc(-c2c3nc(c(-c4cc(S(=O)(=O)[O-])ccc4F)c4ccc([nH]4)c(-c4cc(S(=O)(=O)[O-])ccc4F)c4nc(c(-c5cc(S(=O)(=O)[O-])ccc5F)c5ccc2[nH]5)C=C4)C=C3)cc1)C(=O)c1c[nH]c(=O)[nH]1
REMARK SMILES IDX 10 1 9 2 8 3 6 4 7 5 5 7 4 8 3 9 2 10 1 11 78 12 79 13 80 14
REMARK SMILES IDX 81 15 85 16 82 17 83 18 84 21 11 22 12 23 13 24 14 26 15 27
REMARK SMILES IDX 16 28 77 29 17 30 76 31 18 32 19 33 20 34 70 35 21 36 75 37
REMARK SMILES IDX 69 38 71 39 22 40 74 41 68 42 67 43 23 45 55 46 35 47 54 48
REMARK SMILES IDX 36 49 39 50 53 51 72 52 37 53 38 54 52 56 73 57 40 58 24 59
REMARK SMILES IDX 25 60 33 61 26 62 32 63 34 64 31 65 27 66 28 67 29 68 30 69
REMARK SMILES IDX 56 70 57 71 65 72 58 73 64 74 66 75 63 76 59 77 60 78 61 79
REMARK SMILES IDX 62 80 41 81 42 82 50 83 43 84 49 85 51 86 48 87 44 88 45 89
REMARK SMILES IDX 46 90 47 91
REMARK H PARENT 8 6 85 19 82 20 12 25 71 44 39 55
REMARK Flexibility Score: inf
ROOT
ATOM      1  C   UNL A   1      32.851  29.310  24.785  1.00  0.00     0.042 C 
ENDROOT
BRANCH   1   2
ATOM      2  C   UNL A   1      32.543  27.869  24.391  1.00  0.00     0.117 C 
BRANCH   2   3
ATOM      3  N   UNL A   1      33.265  27.415  23.222  1.00  0.00    -0.354 N 
ATOM      4  C   UNL A   1      33.250  26.200  22.605  1.00  0.00     0.239 C 
ATOM      5  O   UNL A   1      33.653  26.159  21.438  1.00  0.00    -0.273 OA
ATOM      6  H   UNL A   1      33.856  28.084  22.809  1.00  0.00     0.163 HD
BRANCH   4   7
ATOM      7  C   UNL A   1      32.658  24.941  23.263  1.00  0.00     0.220 C 
BRANCH   7   8
ATOM      8  N   UNL A   1      33.555  24.179  24.135  1.00  0.00    -0.317 N 
BRANCH   8   9
ATOM      9  C   UNL A   1      33.484  24.438  25.574  1.00  0.00     0.210 C 
BRANCH   9  10
ATOM     10  C   UNL A   1      32.049  24.573  26.058  1.00  0.00    -0.085 C 
ATOM     11  C   UNL A   1      30.819  24.690  26.474  1.00  0.00     0.006 C 
ENDBRANCH   9  10
ENDBRANCH   8   9
BRANCH   8  12
ATOM     12  C   UNL A   1      34.383  23.147  23.706  1.00  0.00     0.273 C 
ATOM     13  O   UNL A   1      35.317  23.327  22.924  1.00  0.00    -0.267 OA
BRANCH  12  14
ATOM     14  C   UNL A   1      34.201  21.774  24.251  1.00  0.00     0.125 A 
ATOM     15  C   UNL A   1      35.050  20.981  24.920  1.00  0.00     0.119 A 
ATOM     16  N   UNL A   1      32.962  21.167  24.252  1.00  0.00    -0.302 N 
ATOM     17  N   UNL A   1      34.383  19.846  25.309  1.00  0.00    -0.312 N 
ATOM     18  C   UNL A   1      33.045  19.938  24.910  1.00  0.00     0.323 A 
ATOM     19  H   UNL A   1      32.145  21.541  23.851  1.00  0.00     0.172 HD
ATOM     20  H   UNL A   1      34.782  19.086  25.794  1.00  0.00     0.171 HD
ATOM     21  O   UNL A   1      32.156  19.129  25.103  1.00  0.00    -0.248 OA
ENDBRANCH  12  14
ENDBRANCH   8  12
ENDBRANCH   7   8
ENDBRANCH   4   7
ENDBRANCH   2   3
ENDBRANCH   1   2
BRANCH   1  22
ATOM     22  C   UNL A   1      32.295  29.731  26.141  1.00  0.00     0.118 C 
BRANCH  22  23
ATOM     23  N   UNL A   1      32.263  31.176  26.302  1.00  0.00    -0.352 N 
ATOM     24  C   UNL A   1      32.992  32.006  27.115  1.00  0.00     0.251 C 
ATOM     25  H   UNL A   1      31.607  31.637  25.731  1.00  0.00     0.163 HD
ATOM     26  O   UNL A   1      32.611  33.166  27.252  1.00  0.00    -0.269 OA
BRANCH  24  27
ATOM     27  C   UNL A   1      34.205  31.532  27.821  1.00  0.00     0.039 A 
ATOM     28  C   UNL A   1      35.219  32.453  28.097  1.00  0.00     0.014 A 
ATOM     29  C   UNL A   1      34.388  30.186  28.150  1.00  0.00     0.014 A 
ATOM     30  C   UNL A   1      36.389  32.034  28.734  1.00  0.00     0.010 A 
ATOM     31  C   UNL A   1      35.514  29.785  28.866  1.00  0.00     0.010 A 
ATOM     32  C   UNL A   1      36.536  30.701  29.151  1.00  0.00    -0.014 A 
BRANCH  32  33
ATOM     33  C   UNL A   1      37.763  30.255  29.864  1.00  0.00     0.031 A 
ATOM     34  C   UNL A   1      38.041  30.723  31.268  1.00  0.00     0.074 A 
ATOM     35  C   UNL A   1      38.642  29.449  29.235  1.00  0.00     0.049 A 
ATOM     36  N   UNL A   1      39.064  30.462  32.041  1.00  0.00    -0.248 NA
ATOM     37  C   UNL A   1      37.050  31.626  31.873  1.00  0.00     0.031 C 
ATOM     38  C   UNL A   1      38.500  28.959  27.861  1.00  0.00     0.029 A 
ATOM     39  N   UNL A   1      39.824  28.898  29.661  1.00  0.00    -0.354 N 
ATOM     40  C   UNL A   1      38.845  31.171  33.218  1.00  0.00     0.074 A 
ATOM     41  C   UNL A   1      37.628  31.930  33.024  1.00  0.00     0.031 C 
ATOM     42  C   UNL A   1      39.530  28.148  27.576  1.00  0.00     0.029 A 
ATOM     43  C   UNL A   1      40.435  28.101  28.720  1.00  0.00     0.049 A 
ATOM     44  H   UNL A   1      40.199  29.057  30.557  1.00  0.00     0.167 HD
ATOM     45  C   UNL A   1      39.574  31.168  34.362  1.00  0.00     0.034 A 
ATOM     46  C   UNL A   1      41.596  27.418  28.769  1.00  0.00     0.034 A 
ATOM     47  C   UNL A   1      40.785  30.402  34.535  1.00  0.00     0.049 A 
ATOM     48  C   UNL A   1      42.412  27.465  30.035  1.00  0.00     0.074 A 
ATOM     49  C   UNL A   1      41.582  30.293  35.663  1.00  0.00     0.029 A 
ATOM     50  N   UNL A   1      41.386  29.625  33.552  1.00  0.00    -0.354 N 
ATOM     51  N   UNL A   1      42.166  28.103  31.156  1.00  0.00    -0.248 NA
ATOM     52  C   UNL A   1      43.658  26.688  30.046  1.00  0.00     0.031 C 
ATOM     53  C   UNL A   1      42.700  29.519  35.337  1.00  0.00     0.029 A 
ATOM     54  C   UNL A   1      42.557  29.062  34.037  1.00  0.00     0.049 A 
ATOM     55  H   UNL A   1      41.031  29.493  32.643  1.00  0.00     0.167 HD
ATOM     56  C   UNL A   1      43.207  27.771  32.019  1.00  0.00     0.074 A 
ATOM     57  C   UNL A   1      44.075  26.867  31.291  1.00  0.00     0.031 C 
ATOM     58  C   UNL A   1      43.421  28.169  33.299  1.00  0.00     0.034 A 
BRANCH  45  59
ATOM     59  C   UNL A   1      39.091  32.041  35.498  1.00  0.00     0.023 A 
ATOM     60  C   UNL A   1      39.509  33.377  35.633  1.00  0.00     0.031 A 
ATOM     61  C   UNL A   1      38.225  31.525  36.479  1.00  0.00     0.131 A 
ATOM     62  C   UNL A   1      39.132  34.120  36.762  1.00  0.00     0.055 A 
ATOM     63  C   UNL A   1      37.778  32.300  37.551  1.00  0.00     0.041 A 
ATOM     64  F   UNL A   1      37.808  30.250  36.421  1.00  0.00    -0.206 F 
ATOM     65  C   UNL A   1      38.245  33.602  37.707  1.00  0.00     0.022 A 
BRANCH  62  66
ATOM     66  S   UNL A   1      39.949  35.712  37.060  1.00  0.00     0.124 S 
ATOM     67  O   UNL A   1      41.340  35.301  37.237  1.00  0.00    -0.237 OA
ATOM     68  O   UNL A   1      39.653  36.454  35.840  1.00  0.00    -0.237 OA
ATOM     69  O   UNL A   1      39.298  36.211  38.269  1.00  0.00    -0.744 OA
ENDBRANCH  62  66
ENDBRANCH  45  59
BRANCH  46  70
ATOM     70  C   UNL A   1      42.059  26.633  27.587  1.00  0.00     0.023 A 
ATOM     71  C   UNL A   1      41.776  25.263  27.471  1.00  0.00     0.031 A 
ATOM     72  C   UNL A   1      42.829  27.233  26.575  1.00  0.00     0.131 A 
ATOM     73  C   UNL A   1      42.298  24.528  26.396  1.00  0.00     0.055 A 
ATOM     74  C   UNL A   1      43.295  26.511  25.474  1.00  0.00     0.041 A 
ATOM     75  F   UNL A   1      43.129  28.541  26.634  1.00  0.00    -0.206 F 
ATOM     76  C   UNL A   1      43.041  25.147  25.388  1.00  0.00     0.022 A 
BRANCH  73  77
ATOM     77  S   UNL A   1      42.071  22.729  26.382  1.00  0.00     0.124 S 
ATOM     78  O   UNL A   1      40.622  22.613  26.513  1.00  0.00    -0.237 OA
ATOM     79  O   UNL A   1      42.629  22.362  25.085  1.00  0.00    -0.237 OA
ATOM     80  O   UNL A   1      42.841  22.280  27.538  1.00  0.00    -0.744 OA
ENDBRANCH  73  77
ENDBRANCH  46  70
BRANCH  58  81
ATOM     81  C   UNL A   1      44.614  27.579  34.015  1.00  0.00     0.023 A 
ATOM     82  C   UNL A   1      44.526  26.385  34.752  1.00  0.00     0.031 A 
ATOM     83  C   UNL A   1      45.859  28.232  33.964  1.00  0.00     0.131 A 
ATOM     84  C   UNL A   1      45.645  25.915  35.458  1.00  0.00     0.055 A 
ATOM     85  C   UNL A   1      46.986  27.721  34.609  1.00  0.00     0.041 A 
ATOM     86  F   UNL A   1      46.002  29.379  33.280  1.00  0.00    -0.206 F 
ATOM     87  C   UNL A   1      46.879  26.565  35.374  1.00  0.00     0.022 A 
BRANCH  84  88
ATOM     88  S   UNL A   1      45.439  24.504  36.578  1.00  0.00     0.124 S 
ATOM     89  O   UNL A   1      44.671  25.092  37.670  1.00  0.00    -0.237 OA
ATOM     90  O   UNL A   1      44.726  23.543  35.742  1.00  0.00    -0.237 OA
ATOM     91  O   UNL A   1      46.812  24.130  36.916  1.00  0.00    -0.744 OA
ENDBRANCH  84  88
ENDBRANCH  58  81
ENDBRANCH  32  33
ENDBRANCH  24  27
ENDBRANCH  22  23
ENDBRANCH   1  22
TORSDOF 18
ENDMDL
