MODEL 1
REMARK VINA RESULT:     -12.7      0.000      0.000
REMARK SMILES O=CN1CC[NH+](C[C@@H](CC(=O)Nc2ccc(C(F)(F)F)nc2)C(=O)NCCCNC(=O)c2ccc(-c3c4nc(c(-c5cc(S(=O)(=O)[O-])ccc5F)c5ccc([nH]5)c(-c5cc(S(=O)(=O)[O-])ccc5F)c5nc(c(-c6cc(S(=O)(=O)[O-])ccc6F)c6ccc3[nH]6)C=C5)C=C4)cc2)CC1
REMARK SMILES IDX 26 1 25 2 23 3 24 4 8 6 7 7 6 8 1 9 2 10 3 11 4 12 96 13
REMARK SMILES IDX 5 14 95 15 9 17 10 18 11 19 12 20 13 22 14 23 22 24 15 25
REMARK SMILES IDX 21 26 16 27 17 28 18 29 19 30 20 31 27 32 28 33 29 34 30 35
REMARK SMILES IDX 31 37 32 38 33 39 94 40 34 41 93 42 35 43 36 44 37 45 87 46
REMARK SMILES IDX 38 47 92 48 86 49 88 50 39 51 91 52 85 53 84 54 40 56 72 57
REMARK SMILES IDX 52 58 71 59 53 60 56 61 70 62 89 63 54 64 55 65 69 67 90 68
REMARK SMILES IDX 57 69 41 70 42 71 50 72 43 73 49 74 51 75 48 76 44 77 45 78
REMARK SMILES IDX 46 79 47 80 73 81 74 82 82 83 75 84 81 85 83 86 80 87 76 88
REMARK SMILES IDX 77 89 78 90 79 91 58 92 59 93 67 94 60 95 66 96 68 97 65 98
REMARK SMILES IDX 61 99 62 100 63 101 64 102
REMARK H PARENT 25 5 6 16 12 21 29 36 88 55 56 66
REMARK Flexibility Score: inf
ROOT
ATOM      1  C   UNL A   1      35.162  21.253  26.069  1.00  0.00     0.117 C 
ENDROOT
BRANCH   1   2
ATOM      2  N   UNL A   1      33.967  20.515  25.790  1.00  0.00    -0.356 N 
ATOM      3  C   UNL A   1      32.784  21.057  25.379  1.00  0.00     0.229 C 
ATOM      4  O   UNL A   1      31.886  20.280  25.042  1.00  0.00    -0.275 OA
ATOM      5  H   UNL A   1      34.002  19.538  25.905  1.00  0.00     0.163 HD
BRANCH   3   6
ATOM      6  C   UNL A   1      32.516  22.584  25.435  1.00  0.00     0.142 C 
BRANCH   6   7
ATOM      7  C   UNL A   1      32.304  23.068  23.995  1.00  0.00     0.276 C 
BRANCH   7   8
ATOM      8  N   UNL A   1      33.377  23.494  23.086  1.00  0.00    -0.331 N 
ATOM      9  O   UNL A   1      34.156  28.550  23.154  1.00  0.00    -0.279 OA
ATOM     10  C   UNL A   1      33.596  27.740  22.435  1.00  0.00     0.340 C 
ATOM     11  N   UNL A   1      33.485  26.387  22.672  1.00  0.00    -0.334 N 
ATOM     12  C   UNL A   1      32.608  25.571  21.855  1.00  0.00     0.180 C 
ATOM     13  C   UNL A   1      33.968  25.803  23.924  1.00  0.00     0.180 C 
ATOM     14  C   UNL A   1      33.057  24.107  21.795  1.00  0.00     0.284 C 
ATOM     15  C   UNL A   1      34.397  24.331  23.761  1.00  0.00     0.284 C 
ATOM     16  H   UNL A   1      33.726  22.571  22.830  1.00  0.00     0.348 HD
ENDBRANCH   7   8
ENDBRANCH   6   7
BRANCH   6  17
ATOM     17  C   UNL A   1      31.721  23.086  26.653  1.00  0.00     0.119 C 
BRANCH  17  18
ATOM     18  C   UNL A   1      30.274  23.578  26.884  1.00  0.00     0.225 C 
ATOM     19  O   UNL A   1      29.593  22.871  27.650  1.00  0.00    -0.275 OA
ATOM     20  N   UNL A   1      29.643  24.715  26.508  1.00  0.00    -0.325 N 
ATOM     21  H   UNL A   1      28.748  24.787  26.913  1.00  0.00     0.169 HD
BRANCH  20  22
ATOM     22  C   UNL A   1      29.934  25.814  25.693  1.00  0.00     0.059 A 
ATOM     23  C   UNL A   1      30.937  26.740  25.928  1.00  0.00     0.030 A 
ATOM     24  C   UNL A   1      29.244  25.944  24.493  1.00  0.00     0.137 A 
ATOM     25  C   UNL A   1      31.063  27.860  25.102  1.00  0.00     0.035 A 
ATOM     26  N   UNL A   1      29.321  27.023  23.679  1.00  0.00    -0.250 NA
ATOM     27  C   UNL A   1      30.183  28.018  24.036  1.00  0.00     0.144 A 
BRANCH  27  28
ATOM     28  C   UNL A   1      30.159  29.343  23.287  1.00  0.00     0.433 C 
ATOM     29  F   UNL A   1      28.907  29.729  22.913  1.00  0.00    -0.165 F 
ATOM     30  F   UNL A   1      30.682  30.384  23.998  1.00  0.00    -0.165 F 
ATOM     31  F   UNL A   1      30.888  29.302  22.129  1.00  0.00    -0.165 F 
ENDBRANCH  27  28
ENDBRANCH  20  22
ENDBRANCH  17  18
ENDBRANCH   6  17
ENDBRANCH   3   6
ENDBRANCH   1   2
BRANCH   1  32
ATOM     32  C   UNL A   1      36.118  21.487  24.936  1.00  0.00     0.042 C 
BRANCH  32  33
ATOM     33  C   UNL A   1      37.401  22.143  25.372  1.00  0.00     0.118 C 
BRANCH  33  34
ATOM     34  N   UNL A   1      38.428  21.184  25.764  1.00  0.00    -0.352 N 
ATOM     35  C   UNL A   1      39.648  21.353  26.379  1.00  0.00     0.251 C 
ATOM     36  H   UNL A   1      38.211  20.247  25.551  1.00  0.00     0.163 HD
ATOM     37  O   UNL A   1      40.408  20.393  26.469  1.00  0.00    -0.269 OA
BRANCH  35  38
ATOM     38  C   UNL A   1      40.060  22.681  26.885  1.00  0.00     0.039 A 
ATOM     39  C   UNL A   1      40.970  22.765  27.941  1.00  0.00     0.014 A 
ATOM     40  C   UNL A   1      39.565  23.849  26.312  1.00  0.00     0.014 A 
ATOM     41  C   UNL A   1      41.428  24.017  28.356  1.00  0.00     0.010 A 
ATOM     42  C   UNL A   1      40.163  25.065  26.589  1.00  0.00     0.010 A 
ATOM     43  C   UNL A   1      41.064  25.176  27.651  1.00  0.00    -0.014 A 
BRANCH  43  44
ATOM     44  C   UNL A   1      41.545  26.522  28.051  1.00  0.00     0.031 A 
ATOM     45  C   UNL A   1      42.954  26.946  27.712  1.00  0.00     0.074 A 
ATOM     46  C   UNL A   1      40.735  27.341  28.748  1.00  0.00     0.049 A 
ATOM     47  N   UNL A   1      43.574  28.063  27.991  1.00  0.00    -0.248 NA
ATOM     48  C   UNL A   1      43.793  25.962  27.008  1.00  0.00     0.031 C 
ATOM     49  C   UNL A   1      39.374  27.016  29.187  1.00  0.00     0.029 A 
ATOM     50  N   UNL A   1      40.927  28.622  29.194  1.00  0.00    -0.354 N 
ATOM     51  C   UNL A   1      44.870  27.907  27.508  1.00  0.00     0.074 A 
ATOM     52  C   UNL A   1      44.978  26.548  27.028  1.00  0.00     0.031 C 
ATOM     53  C   UNL A   1      38.833  28.094  29.774  1.00  0.00     0.029 A 
ATOM     54  C   UNL A   1      39.820  29.167  29.801  1.00  0.00     0.049 A 
ATOM     55  H   UNL A   1      41.779  29.107  29.091  1.00  0.00     0.167 HD
ATOM     56  C   UNL A   1      45.865  28.823  27.419  1.00  0.00     0.034 A 
ATOM     57  C   UNL A   1      39.624  30.399  30.308  1.00  0.00     0.034 A 
ATOM     58  C   UNL A   1      45.731  30.178  27.890  1.00  0.00     0.049 A 
ATOM     59  C   UNL A   1      40.749  31.398  30.223  1.00  0.00     0.074 A 
ATOM     60  C   UNL A   1      46.651  31.209  27.833  1.00  0.00     0.029 A 
ATOM     61  N   UNL A   1      44.597  30.692  28.511  1.00  0.00    -0.354 N 
ATOM     62  N   UNL A   1      41.952  31.251  29.716  1.00  0.00    -0.248 NA
ATOM     63  C   UNL A   1      40.478  32.734  30.763  1.00  0.00     0.031 C 
ATOM     64  C   UNL A   1      46.104  32.320  28.484  1.00  0.00     0.029 A 
ATOM     65  C   UNL A   1      44.806  32.015  28.866  1.00  0.00     0.049 A 
ATOM     66  H   UNL A   1      43.768  30.188  28.675  1.00  0.00     0.167 HD
ATOM     67  C   UNL A   1      42.569  32.494  29.843  1.00  0.00     0.074 A 
ATOM     68  C   UNL A   1      41.592  33.377  30.450  1.00  0.00     0.031 C 
ATOM     69  C   UNL A   1      43.825  32.875  29.488  1.00  0.00     0.034 A 
BRANCH  56  70
ATOM     70  C   UNL A   1      47.171  28.367  26.805  1.00  0.00     0.023 A 
ATOM     71  C   UNL A   1      47.354  28.327  25.409  1.00  0.00     0.031 A 
ATOM     72  C   UNL A   1      48.219  27.898  27.613  1.00  0.00     0.131 A 
ATOM     73  C   UNL A   1      48.503  27.732  24.867  1.00  0.00     0.055 A 
ATOM     74  C   UNL A   1      49.406  27.403  27.068  1.00  0.00     0.041 A 
ATOM     75  F   UNL A   1      48.100  27.884  28.950  1.00  0.00    -0.206 F 
ATOM     76  C   UNL A   1      49.545  27.296  25.686  1.00  0.00     0.022 A 
BRANCH  73  77
ATOM     77  S   UNL A   1      48.526  27.357  23.091  1.00  0.00     0.124 S 
ATOM     78  O   UNL A   1      49.860  27.816  22.711  1.00  0.00    -0.237 OA
ATOM     79  O   UNL A   1      48.317  25.914  23.071  1.00  0.00    -0.237 OA
ATOM     80  O   UNL A   1      47.425  28.156  22.557  1.00  0.00    -0.744 OA
ENDBRANCH  73  77
ENDBRANCH  56  70
BRANCH  57  81
ATOM     81  C   UNL A   1      38.310  30.772  30.908  1.00  0.00     0.023 A 
ATOM     82  C   UNL A   1      37.334  31.437  30.145  1.00  0.00     0.031 A 
ATOM     83  C   UNL A   1      38.021  30.505  32.257  1.00  0.00     0.131 A 
ATOM     84  C   UNL A   1      36.141  31.859  30.751  1.00  0.00     0.055 A 
ATOM     85  C   UNL A   1      36.807  30.875  32.839  1.00  0.00     0.041 A 
ATOM     86  F   UNL A   1      38.914  29.864  33.028  1.00  0.00    -0.206 F 
ATOM     87  C   UNL A   1      35.864  31.569  32.088  1.00  0.00     0.022 A 
BRANCH  84  88
ATOM     88  S   UNL A   1      34.988  32.872  29.783  1.00  0.00     0.124 S 
ATOM     89  O   UNL A   1      34.071  33.344  30.814  1.00  0.00    -0.237 OA
ATOM     90  O   UNL A   1      35.877  33.875  29.206  1.00  0.00    -0.237 OA
ATOM     91  O   UNL A   1      34.421  31.923  28.828  1.00  0.00    -0.744 OA
ENDBRANCH  84  88
ENDBRANCH  57  81
BRANCH  69  92
ATOM     92  C   UNL A   1      44.183  34.326  29.711  1.00  0.00     0.023 A 
ATOM     93  C   UNL A   1      43.973  35.301  28.720  1.00  0.00     0.031 A 
ATOM     94  C   UNL A   1      44.790  34.729  30.914  1.00  0.00     0.131 A 
ATOM     95  C   UNL A   1      44.454  36.603  28.909  1.00  0.00     0.055 A 
ATOM     96  C   UNL A   1      45.189  36.049  31.130  1.00  0.00     0.041 A 
ATOM     97  F   UNL A   1      45.017  33.844  31.897  1.00  0.00    -0.206 F 
ATOM     98  C   UNL A   1      45.042  36.990  30.115  1.00  0.00     0.022 A 
BRANCH  95  99
ATOM     99  S   UNL A   1      44.442  37.741  27.497  1.00  0.00     0.124 S 
ATOM    100  O   UNL A   1      43.137  37.473  26.903  1.00  0.00    -0.237 OA
ATOM    101  O   UNL A   1      44.593  39.041  28.143  1.00  0.00    -0.237 OA
ATOM    102  O   UNL A   1      45.588  37.309  26.699  1.00  0.00    -0.744 OA
ENDBRANCH  95  99
ENDBRANCH  69  92
ENDBRANCH  43  44
ENDBRANCH  35  38
ENDBRANCH  33  34
ENDBRANCH  32  33
ENDBRANCH   1  32
TORSDOF 19
ENDMDL
MODEL 2
REMARK VINA RESULT:     -12.6      2.519      3.768
REMARK SMILES O=CN1CC[NH+](C[C@@H](CC(=O)Nc2ccc(C(F)(F)F)nc2)C(=O)NCCCNC(=O)c2ccc(-c3c4nc(c(-c5cc(S(=O)(=O)[O-])ccc5F)c5ccc([nH]5)c(-c5cc(S(=O)(=O)[O-])ccc5F)c5nc(c(-c6cc(S(=O)(=O)[O-])ccc6F)c6ccc3[nH]6)C=C5)C=C4)cc2)CC1
REMARK SMILES IDX 26 1 25 2 23 3 24 4 8 6 7 7 6 8 1 9 2 10 3 11 4 12 96 13
REMARK SMILES IDX 5 14 95 15 9 17 10 18 11 19 12 20 13 22 14 23 22 24 15 25
REMARK SMILES IDX 21 26 16 27 17 28 18 29 19 30 20 31 27 32 28 33 29 34 30 35
REMARK SMILES IDX 31 37 32 38 33 39 94 40 34 41 93 42 35 43 36 44 37 45 87 46
REMARK SMILES IDX 38 47 92 48 86 49 88 50 39 51 91 52 85 53 84 54 40 56 72 57
REMARK SMILES IDX 52 58 71 59 53 60 56 61 70 62 89 63 54 64 55 65 69 67 90 68
REMARK SMILES IDX 57 69 41 70 42 71 50 72 43 73 49 74 51 75 48 76 44 77 45 78
REMARK SMILES IDX 46 79 47 80 73 81 74 82 82 83 75 84 81 85 83 86 80 87 76 88
REMARK SMILES IDX 77 89 78 90 79 91 58 92 59 93 67 94 60 95 66 96 68 97 65 98
REMARK SMILES IDX 61 99 62 100 63 101 64 102
REMARK H PARENT 25 5 6 16 12 21 29 36 88 55 56 66
REMARK Flexibility Score: inf
ROOT
ATOM      1  C   UNL A   1      36.248  23.621  23.793  1.00  0.00     0.117 C 
ENDROOT
BRANCH   1   2
ATOM      2  N   UNL A   1      34.973  23.678  23.145  1.00  0.00    -0.356 N 
ATOM      3  C   UNL A   1      33.909  24.423  23.563  1.00  0.00     0.229 C 
ATOM      4  O   UNL A   1      32.924  24.480  22.822  1.00  0.00    -0.275 OA
ATOM      5  H   UNL A   1      34.856  23.136  22.332  1.00  0.00     0.163 HD
BRANCH   3   6
ATOM      6  C   UNL A   1      33.870  25.086  24.966  1.00  0.00     0.142 C 
BRANCH   6   7
ATOM      7  C   UNL A   1      33.286  26.494  24.793  1.00  0.00     0.276 C 
BRANCH   7   8
ATOM      8  N   UNL A   1      31.995  26.939  25.338  1.00  0.00    -0.331 N 
ATOM      9  O   UNL A   1      29.062  29.281  21.862  1.00  0.00    -0.279 OA
ATOM     10  C   UNL A   1      29.792  29.606  22.783  1.00  0.00     0.340 C 
ATOM     11  N   UNL A   1      30.535  28.752  23.567  1.00  0.00    -0.334 N 
ATOM     12  C   UNL A   1      31.528  29.279  24.484  1.00  0.00     0.180 C 
ATOM     13  C   UNL A   1      30.589  27.320  23.274  1.00  0.00     0.180 C 
ATOM     14  C   UNL A   1      31.779  28.348  25.675  1.00  0.00     0.284 C 
ATOM     15  C   UNL A   1      30.843  26.469  24.535  1.00  0.00     0.284 C 
ATOM     16  H   UNL A   1      32.058  26.485  26.248  1.00  0.00     0.348 HD
ENDBRANCH   7   8
ENDBRANCH   6   7
BRANCH   6  17
ATOM     17  C   UNL A   1      33.564  24.150  26.148  1.00  0.00     0.119 C 
BRANCH  17  18
ATOM     18  C   UNL A   1      32.329  23.344  26.608  1.00  0.00     0.225 C 
ATOM     19  O   UNL A   1      31.575  23.940  27.400  1.00  0.00    -0.275 OA
ATOM     20  N   UNL A   1      31.840  22.147  26.208  1.00  0.00    -0.325 N 
ATOM     21  H   UNL A   1      30.963  21.956  26.613  1.00  0.00     0.169 HD
BRANCH  20  22
ATOM     22  C   UNL A   1      32.258  21.110  25.367  1.00  0.00     0.059 A 
ATOM     23  C   UNL A   1      32.133  21.100  23.988  1.00  0.00     0.030 A 
ATOM     24  C   UNL A   1      32.953  20.046  25.930  1.00  0.00     0.137 A 
ATOM     25  C   UNL A   1      32.487  19.960  23.261  1.00  0.00     0.035 A 
ATOM     26  N   UNL A   1      33.293  18.916  25.266  1.00  0.00    -0.250 NA
ATOM     27  C   UNL A   1      32.984  18.852  23.939  1.00  0.00     0.144 A 
BRANCH  27  28
ATOM     28  C   UNL A   1      33.141  17.536  23.190  1.00  0.00     0.433 C 
ATOM     29  F   UNL A   1      32.387  17.465  22.059  1.00  0.00    -0.165 F 
ATOM     30  F   UNL A   1      34.425  17.271  22.810  1.00  0.00    -0.165 F 
ATOM     31  F   UNL A   1      32.766  16.457  23.946  1.00  0.00    -0.165 F 
ENDBRANCH  27  28
ENDBRANCH  20  22
ENDBRANCH  17  18
ENDBRANCH   6  17
ENDBRANCH   3   6
ENDBRANCH   1   2
BRANCH   1  32
ATOM     32  C   UNL A   1      36.712  22.287  24.305  1.00  0.00     0.042 C 
BRANCH  32  33
ATOM     33  C   UNL A   1      37.104  22.317  25.758  1.00  0.00     0.118 C 
BRANCH  33  34
ATOM     34  N   UNL A   1      38.120  21.325  26.096  1.00  0.00    -0.352 N 
ATOM     35  C   UNL A   1      39.425  21.460  26.511  1.00  0.00     0.251 C 
ATOM     36  H   UNL A   1      37.818  20.391  26.012  1.00  0.00     0.163 HD
ATOM     37  O   UNL A   1      40.132  20.458  26.589  1.00  0.00    -0.269 OA
BRANCH  35  38
ATOM     38  C   UNL A   1      39.986  22.794  26.816  1.00  0.00     0.039 A 
ATOM     39  C   UNL A   1      39.453  23.925  26.194  1.00  0.00     0.014 A 
ATOM     40  C   UNL A   1      41.028  22.940  27.727  1.00  0.00     0.014 A 
ATOM     41  C   UNL A   1      39.921  25.191  26.551  1.00  0.00     0.010 A 
ATOM     42  C   UNL A   1      41.349  24.192  28.220  1.00  0.00     0.010 A 
ATOM     43  C   UNL A   1      40.841  25.338  27.603  1.00  0.00    -0.014 A 
BRANCH  43  44
ATOM     44  C   UNL A   1      41.347  26.669  28.023  1.00  0.00     0.031 A 
ATOM     45  C   UNL A   1      42.772  27.059  27.715  1.00  0.00     0.074 A 
ATOM     46  C   UNL A   1      40.543  27.502  28.711  1.00  0.00     0.049 A 
ATOM     47  N   UNL A   1      43.414  28.158  28.015  1.00  0.00    -0.248 NA
ATOM     48  C   UNL A   1      43.600  26.060  27.019  1.00  0.00     0.031 C 
ATOM     49  C   UNL A   1      39.167  27.208  29.121  1.00  0.00     0.029 A 
ATOM     50  N   UNL A   1      40.759  28.775  29.170  1.00  0.00    -0.354 N 
ATOM     51  C   UNL A   1      44.714  27.974  27.555  1.00  0.00     0.074 A 
ATOM     52  C   UNL A   1      44.798  26.617  27.067  1.00  0.00     0.031 C 
ATOM     53  C   UNL A   1      38.642  28.295  29.706  1.00  0.00     0.029 A 
ATOM     54  C   UNL A   1      39.654  29.343  29.760  1.00  0.00     0.049 A 
ATOM     55  H   UNL A   1      41.624  29.239  29.088  1.00  0.00     0.167 HD
ATOM     56  C   UNL A   1      45.734  28.866  27.492  1.00  0.00     0.034 A 
ATOM     57  C   UNL A   1      39.479  30.576  30.273  1.00  0.00     0.034 A 
ATOM     58  C   UNL A   1      45.624  30.220  27.971  1.00  0.00     0.049 A 
ATOM     59  C   UNL A   1      40.630  31.547  30.217  1.00  0.00     0.074 A 
ATOM     60  C   UNL A   1      46.571  31.228  27.940  1.00  0.00     0.029 A 
ATOM     61  N   UNL A   1      44.492  30.758  28.574  1.00  0.00    -0.354 N 
ATOM     62  N   UNL A   1      41.839  31.374  29.733  1.00  0.00    -0.248 NA
ATOM     63  C   UNL A   1      40.382  32.885  30.763  1.00  0.00     0.031 C 
ATOM     64  C   UNL A   1      46.038  32.348  28.589  1.00  0.00     0.029 A 
ATOM     65  C   UNL A   1      44.727  32.072  28.944  1.00  0.00     0.049 A 
ATOM     66  H   UNL A   1      43.648  30.274  28.718  1.00  0.00     0.167 HD
ATOM     67  C   UNL A   1      42.484  32.599  29.881  1.00  0.00     0.074 A 
ATOM     68  C   UNL A   1      41.517  33.502  30.476  1.00  0.00     0.031 C 
ATOM     69  C   UNL A   1      43.755  32.952  29.554  1.00  0.00     0.034 A 
BRANCH  56  70
ATOM     70  C   UNL A   1      47.039  28.381  26.900  1.00  0.00     0.023 A 
ATOM     71  C   UNL A   1      47.263  28.381  25.509  1.00  0.00     0.031 A 
ATOM     72  C   UNL A   1      48.046  27.846  27.721  1.00  0.00     0.131 A 
ATOM     73  C   UNL A   1      48.404  27.762  24.980  1.00  0.00     0.055 A 
ATOM     74  C   UNL A   1      49.230  27.325  27.192  1.00  0.00     0.041 A 
ATOM     75  F   UNL A   1      47.886  27.792  29.052  1.00  0.00    -0.206 F 
ATOM     76  C   UNL A   1      49.405  27.261  25.812  1.00  0.00     0.022 A 
BRANCH  73  77
ATOM     77  S   UNL A   1      48.466  27.447  23.193  1.00  0.00     0.124 S 
ATOM     78  O   UNL A   1      49.738  28.067  22.829  1.00  0.00    -0.237 OA
ATOM     79  O   UNL A   1      48.423  25.991  23.128  1.00  0.00    -0.237 OA
ATOM     80  O   UNL A   1      47.280  28.132  22.683  1.00  0.00    -0.744 OA
ENDBRANCH  73  77
ENDBRANCH  56  70
BRANCH  57  81
ATOM     81  C   UNL A   1      38.163  30.977  30.850  1.00  0.00     0.023 A 
ATOM     82  C   UNL A   1      37.191  31.606  30.055  1.00  0.00     0.031 A 
ATOM     83  C   UNL A   1      37.869  30.772  32.209  1.00  0.00     0.131 A 
ATOM     84  C   UNL A   1      35.995  32.057  30.636  1.00  0.00     0.055 A 
ATOM     85  C   UNL A   1      36.654  31.169  32.770  1.00  0.00     0.041 A 
ATOM     86  F   UNL A   1      38.759  30.167  33.013  1.00  0.00    -0.206 F 
ATOM     87  C   UNL A   1      35.713  31.829  31.984  1.00  0.00     0.022 A 
BRANCH  84  88
ATOM     88  S   UNL A   1      34.847  33.025  29.618  1.00  0.00     0.124 S 
ATOM     89  O   UNL A   1      33.955  33.582  30.628  1.00  0.00    -0.237 OA
ATOM     90  O   UNL A   1      35.746  33.970  28.963  1.00  0.00    -0.237 OA
ATOM     91  O   UNL A   1      34.248  32.025  28.737  1.00  0.00    -0.744 OA
ENDBRANCH  84  88
ENDBRANCH  57  81
BRANCH  69  92
ATOM     92  C   UNL A   1      44.144  34.392  29.795  1.00  0.00     0.023 A 
ATOM     93  C   UNL A   1      43.955  35.383  28.816  1.00  0.00     0.031 A 
ATOM     94  C   UNL A   1      44.761  34.766  31.001  1.00  0.00     0.131 A 
ATOM     95  C   UNL A   1      44.465  36.673  29.021  1.00  0.00     0.055 A 
ATOM     96  C   UNL A   1      45.188  36.074  31.234  1.00  0.00     0.041 A 
ATOM     97  F   UNL A   1      44.969  33.864  31.973  1.00  0.00    -0.206 F 
ATOM     98  C   UNL A   1      45.062  37.031  30.231  1.00  0.00     0.022 A 
BRANCH  95  99
ATOM     99  S   UNL A   1      44.476  37.829  27.624  1.00  0.00     0.124 S 
ATOM    100  O   UNL A   1      45.717  37.470  26.945  1.00  0.00    -0.237 OA
ATOM    101  O   UNL A   1      43.244  37.483  26.923  1.00  0.00    -0.237 OA
ATOM    102  O   UNL A   1      44.477  39.142  28.266  1.00  0.00    -0.744 OA
ENDBRANCH  95  99
ENDBRANCH  69  92
ENDBRANCH  43  44
ENDBRANCH  35  38
ENDBRANCH  33  34
ENDBRANCH  32  33
ENDBRANCH   1  32
TORSDOF 19
ENDMDL
MODEL 3
REMARK VINA RESULT:     -12.5      4.625      9.663
REMARK SMILES O=CN1CC[NH+](C[C@@H](CC(=O)Nc2ccc(C(F)(F)F)nc2)C(=O)NCCCNC(=O)c2ccc(-c3c4nc(c(-c5cc(S(=O)(=O)[O-])ccc5F)c5ccc([nH]5)c(-c5cc(S(=O)(=O)[O-])ccc5F)c5nc(c(-c6cc(S(=O)(=O)[O-])ccc6F)c6ccc3[nH]6)C=C5)C=C4)cc2)CC1
REMARK SMILES IDX 26 1 25 2 23 3 24 4 8 6 7 7 6 8 1 9 2 10 3 11 4 12 96 13
REMARK SMILES IDX 5 14 95 15 9 17 10 18 11 19 12 20 13 22 14 23 22 24 15 25
REMARK SMILES IDX 21 26 16 27 17 28 18 29 19 30 20 31 27 32 28 33 29 34 30 35
REMARK SMILES IDX 31 37 32 38 33 39 94 40 34 41 93 42 35 43 36 44 37 45 87 46
REMARK SMILES IDX 38 47 92 48 86 49 88 50 39 51 91 52 85 53 84 54 40 56 72 57
REMARK SMILES IDX 52 58 71 59 53 60 56 61 70 62 89 63 54 64 55 65 69 67 90 68
REMARK SMILES IDX 57 69 41 70 42 71 50 72 43 73 49 74 51 75 48 76 44 77 45 78
REMARK SMILES IDX 46 79 47 80 73 81 74 82 82 83 75 84 81 85 83 86 80 87 76 88
REMARK SMILES IDX 77 89 78 90 79 91 58 92 59 93 67 94 60 95 66 96 68 97 65 98
REMARK SMILES IDX 61 99 62 100 63 101 64 102
REMARK H PARENT 25 5 6 16 12 21 29 36 88 55 56 66
REMARK Flexibility Score: inf
ROOT
ATOM      1  C   UNL A   1      32.378  27.527  26.939  1.00  0.00     0.117 C 
ENDROOT
BRANCH   1   2
ATOM      2  N   UNL A   1      31.424  26.518  26.591  1.00  0.00    -0.356 N 
ATOM      3  C   UNL A   1      31.721  25.315  26.022  1.00  0.00     0.229 C 
ATOM      4  O   UNL A   1      30.808  24.492  25.911  1.00  0.00    -0.275 OA
ATOM      5  H   UNL A   1      30.476  26.709  26.778  1.00  0.00     0.163 HD
BRANCH   3   6
ATOM      6  C   UNL A   1      33.121  25.012  25.422  1.00  0.00     0.142 C 
BRANCH   6   7
ATOM      7  C   UNL A   1      33.294  23.488  25.404  1.00  0.00     0.276 C 
BRANCH   7   8
ATOM      8  N   UNL A   1      34.077  22.745  24.406  1.00  0.00    -0.331 N 
ATOM      9  O   UNL A   1      32.087  18.157  23.325  1.00  0.00    -0.279 OA
ATOM     10  C   UNL A   1      32.998  18.601  24.004  1.00  0.00     0.340 C 
ATOM     11  N   UNL A   1      33.309  19.932  24.170  1.00  0.00    -0.334 N 
ATOM     12  C   UNL A   1      34.274  20.338  25.174  1.00  0.00     0.180 C 
ATOM     13  C   UNL A   1      32.463  20.978  23.595  1.00  0.00     0.180 C 
ATOM     14  C   UNL A   1      34.967  21.659  24.821  1.00  0.00     0.284 C 
ATOM     15  C   UNL A   1      33.250  22.265  23.275  1.00  0.00     0.284 C 
ATOM     16  H   UNL A   1      34.720  23.490  24.142  1.00  0.00     0.348 HD
ENDBRANCH   7   8
ENDBRANCH   6   7
BRANCH   6  17
ATOM     17  C   UNL A   1      33.598  25.962  24.310  1.00  0.00     0.119 C 
BRANCH  17  18
ATOM     18  C   UNL A   1      33.286  26.122  22.805  1.00  0.00     0.225 C 
ATOM     19  O   UNL A   1      34.063  25.521  22.038  1.00  0.00    -0.275 OA
ATOM     20  N   UNL A   1      32.241  26.692  22.162  1.00  0.00    -0.325 N 
ATOM     21  H   UNL A   1      32.274  26.528  21.192  1.00  0.00     0.169 HD
BRANCH  20  22
ATOM     22  C   UNL A   1      31.124  27.454  22.520  1.00  0.00     0.059 A 
ATOM     23  C   UNL A   1      30.046  26.996  23.259  1.00  0.00     0.030 A 
ATOM     24  C   UNL A   1      31.127  28.810  22.212  1.00  0.00     0.137 A 
ATOM     25  C   UNL A   1      28.935  27.819  23.461  1.00  0.00     0.035 A 
ATOM     26  N   UNL A   1      30.064  29.634  22.370  1.00  0.00    -0.250 NA
ATOM     27  C   UNL A   1      28.939  29.105  22.930  1.00  0.00     0.144 A 
BRANCH  27  28
ATOM     28  C   UNL A   1      27.648  29.912  22.938  1.00  0.00     0.433 C 
ATOM     29  F   UNL A   1      27.595  30.836  23.937  1.00  0.00    -0.165 F 
ATOM     30  F   UNL A   1      27.420  30.591  21.777  1.00  0.00    -0.165 F 
ATOM     31  F   UNL A   1      26.541  29.125  23.111  1.00  0.00    -0.165 F 
ENDBRANCH  27  28
ENDBRANCH  20  22
ENDBRANCH  17  18
ENDBRANCH   6  17
ENDBRANCH   3   6
ENDBRANCH   1   2
BRANCH   1  32
ATOM     32  C   UNL A   1      31.968  28.962  26.772  1.00  0.00     0.042 C 
BRANCH  32  33
ATOM     33  C   UNL A   1      33.093  29.847  26.305  1.00  0.00     0.118 C 
BRANCH  33  34
ATOM     34  N   UNL A   1      32.961  31.227  26.761  1.00  0.00    -0.352 N 
ATOM     35  C   UNL A   1      33.752  31.995  27.585  1.00  0.00     0.251 C 
ATOM     36  H   UNL A   1      32.164  31.692  26.418  1.00  0.00     0.163 HD
ATOM     37  O   UNL A   1      33.345  33.097  27.943  1.00  0.00    -0.269 OA
BRANCH  35  38
ATOM     38  C   UNL A   1      35.053  31.486  28.071  1.00  0.00     0.039 A 
ATOM     39  C   UNL A   1      36.167  32.328  28.069  1.00  0.00     0.014 A 
ATOM     40  C   UNL A   1      35.178  30.183  28.545  1.00  0.00     0.014 A 
ATOM     41  C   UNL A   1      37.371  31.876  28.613  1.00  0.00     0.010 A 
ATOM     42  C   UNL A   1      36.305  29.809  29.257  1.00  0.00     0.010 A 
ATOM     43  C   UNL A   1      37.437  30.628  29.256  1.00  0.00    -0.014 A 
BRANCH  43  44
ATOM     44  C   UNL A   1      38.694  30.122  29.862  1.00  0.00     0.031 A 
ATOM     45  C   UNL A   1      39.109  30.596  31.233  1.00  0.00     0.074 A 
ATOM     46  C   UNL A   1      39.474  29.273  29.167  1.00  0.00     0.049 A 
ATOM     47  N   UNL A   1      40.177  30.298  31.926  1.00  0.00    -0.248 NA
ATOM     48  C   UNL A   1      38.230  31.577  31.892  1.00  0.00     0.031 C 
ATOM     49  C   UNL A   1      39.207  28.792  27.808  1.00  0.00     0.029 A 
ATOM     50  N   UNL A   1      40.642  28.645  29.514  1.00  0.00    -0.354 N 
ATOM     51  C   UNL A   1      40.098  31.059  33.088  1.00  0.00     0.074 A 
ATOM     52  C   UNL A   1      38.944  31.917  32.950  1.00  0.00     0.031 C 
ATOM     53  C   UNL A   1      40.144  27.894  27.468  1.00  0.00     0.029 A 
ATOM     54  C   UNL A   1      41.104  27.772  28.558  1.00  0.00     0.049 A 
ATOM     55  H   UNL A   1      41.109  28.807  30.367  1.00  0.00     0.167 HD
ATOM     56  C   UNL A   1      40.880  31.012  34.195  1.00  0.00     0.034 A 
ATOM     57  C   UNL A   1      42.175  26.955  28.570  1.00  0.00     0.034 A 
ATOM     58  C   UNL A   1      42.017  30.137  34.318  1.00  0.00     0.049 A 
ATOM     59  C   UNL A   1      43.048  26.934  29.799  1.00  0.00     0.074 A 
ATOM     60  C   UNL A   1      42.871  29.974  35.394  1.00  0.00     0.029 A 
ATOM     61  N   UNL A   1      42.463  29.273  33.324  1.00  0.00    -0.354 N 
ATOM     62  N   UNL A   1      42.931  27.623  30.911  1.00  0.00    -0.248 NA
ATOM     63  C   UNL A   1      44.185  26.009  29.775  1.00  0.00     0.031 C 
ATOM     64  C   UNL A   1      43.873  29.069  35.024  1.00  0.00     0.029 A 
ATOM     65  C   UNL A   1      43.594  28.596  33.751  1.00  0.00     0.049 A 
ATOM     66  H   UNL A   1      42.037  29.160  32.444  1.00  0.00     0.167 HD
ATOM     67  C   UNL A   1      43.962  27.183  31.738  1.00  0.00     0.074 A 
ATOM     68  C   UNL A   1      44.669  26.154  30.999  1.00  0.00     0.031 C 
ATOM     69  C   UNL A   1      44.296  27.585  32.992  1.00  0.00     0.034 A 
BRANCH  56  70
ATOM     70  C   UNL A   1      40.524  31.947  35.331  1.00  0.00     0.023 A 
ATOM     71  C   UNL A   1      39.523  31.621  36.267  1.00  0.00     0.031 A 
ATOM     72  C   UNL A   1      41.136  33.206  35.444  1.00  0.00     0.131 A 
ATOM     73  C   UNL A   1      39.091  32.578  37.197  1.00  0.00     0.055 A 
ATOM     74  C   UNL A   1      40.773  34.116  36.440  1.00  0.00     0.041 A 
ATOM     75  F   UNL A   1      42.078  33.590  34.569  1.00  0.00    -0.206 F 
ATOM     76  C   UNL A   1      39.729  33.814  37.310  1.00  0.00     0.022 A 
BRANCH  73  77
ATOM     77  S   UNL A   1      37.558  32.259  38.116  1.00  0.00     0.124 S 
ATOM     78  O   UNL A   1      37.936  32.671  39.467  1.00  0.00    -0.237 OA
ATOM     79  O   UNL A   1      36.596  33.116  37.433  1.00  0.00    -0.237 OA
ATOM     80  O   UNL A   1      37.349  30.823  37.947  1.00  0.00    -0.744 OA
ENDBRANCH  73  77
ENDBRANCH  56  70
BRANCH  57  81
ATOM     81  C   UNL A   1      42.467  26.069  27.406  1.00  0.00     0.023 A 
ATOM     82  C   UNL A   1      41.988  24.749  27.369  1.00  0.00     0.031 A 
ATOM     83  C   UNL A   1      43.256  26.513  26.331  1.00  0.00     0.131 A 
ATOM     84  C   UNL A   1      42.347  23.903  26.309  1.00  0.00     0.055 A 
ATOM     85  C   UNL A   1      43.562  25.685  25.249  1.00  0.00     0.041 A 
ATOM     86  F   UNL A   1      43.732  27.768  26.310  1.00  0.00    -0.206 F 
ATOM     87  C   UNL A   1      43.118  24.366  25.241  1.00  0.00     0.022 A 
BRANCH  84  88
ATOM     88  S   UNL A   1      41.862  22.157  26.389  1.00  0.00     0.124 S 
ATOM     89  O   UNL A   1      42.582  21.597  25.250  1.00  0.00    -0.237 OA
ATOM     90  O   UNL A   1      42.347  21.768  27.709  1.00  0.00    -0.237 OA
ATOM     91  O   UNL A   1      40.409  22.201  26.250  1.00  0.00    -0.744 OA
ENDBRANCH  84  88
ENDBRANCH  57  81
BRANCH  69  92
ATOM     92  C   UNL A   1      45.451  26.868  33.651  1.00  0.00     0.023 A 
ATOM     93  C   UNL A   1      45.261  25.698  34.406  1.00  0.00     0.031 A 
ATOM     94  C   UNL A   1      46.753  27.394  33.566  1.00  0.00     0.131 A 
ATOM     95  C   UNL A   1      46.333  25.148  35.124  1.00  0.00     0.055 A 
ATOM     96  C   UNL A   1      47.833  26.791  34.212  1.00  0.00     0.041 A 
ATOM     97  F   UNL A   1      46.996  28.509  32.859  1.00  0.00    -0.206 F 
ATOM     98  C   UNL A   1      47.622  25.675  35.015  1.00  0.00     0.022 A 
BRANCH  95  99
ATOM     99  S   UNL A   1      45.985  23.833  36.322  1.00  0.00     0.124 S 
ATOM    100  O   UNL A   1      47.118  23.948  37.235  1.00  0.00    -0.237 OA
ATOM    101  O   UNL A   1      44.690  24.235  36.860  1.00  0.00    -0.237 OA
ATOM    102  O   UNL A   1      45.968  22.621  35.505  1.00  0.00    -0.744 OA
ENDBRANCH  95  99
ENDBRANCH  69  92
ENDBRANCH  43  44
ENDBRANCH  35  38
ENDBRANCH  33  34
ENDBRANCH  32  33
ENDBRANCH   1  32
TORSDOF 19
ENDMDL
