MODEL 1
REMARK VINA RESULT:     -10.9      0.000      0.000
REMARK SMILES O=C(CC1(NS(=O)(=O)C[C@H]2CCCO2)CCC1)NCCCNC(=O)c1ccc(-c2c3nc(c(-c4cc(S(=O)(=O)[O-])ccc4F)c4ccc([nH]4)c(-c4cc(S(=O)(=O)[O-])ccc4F)c4nc(c(-c5cc(S(=O)(=O)[O-])ccc5F)c5ccc2[nH]5)C=C4)C=C3)cc1
REMARK SMILES IDX 19 1 18 2 1 3 2 4 3 6 4 7 15 8 17 9 16 10 5 11 6 13 7 14
REMARK SMILES IDX 8 15 9 16 10 17 11 18 14 19 12 20 13 21 20 22 21 23 22 24
REMARK SMILES IDX 23 25 24 27 25 28 26 29 87 30 27 31 86 32 28 33 29 34 30 35
REMARK SMILES IDX 80 36 31 37 85 38 79 39 81 40 32 41 84 42 78 43 77 44 33 46
REMARK SMILES IDX 65 47 45 48 64 49 46 50 49 51 63 52 82 53 47 54 48 55 62 57
REMARK SMILES IDX 83 58 50 59 34 60 35 61 43 62 36 63 42 64 44 65 41 66 37 67
REMARK SMILES IDX 38 68 39 69 40 70 66 71 67 72 75 73 68 74 74 75 76 76 73 77
REMARK SMILES IDX 69 78 70 79 71 80 72 81 51 82 52 83 60 84 53 85 59 86 61 87
REMARK SMILES IDX 58 88 54 89 55 90 56 91 57 92
REMARK H PARENT 18 5 5 12 22 26 81 45 49 56
REMARK Flexibility Score: inf
ROOT
ATOM      1  C   UNL A   1      31.754  30.594  27.137  1.00  0.00     0.117 C 
ENDROOT
BRANCH   1   2
ATOM      2  N   UNL A   1      32.200  29.804  26.016  1.00  0.00    -0.356 N 
ATOM      3  O   UNL A   1      34.380  29.531  26.692  1.00  0.00    -0.275 OA
ATOM      4  C   UNL A   1      33.494  29.375  25.863  1.00  0.00     0.221 C 
ATOM      5  H   UNL A   1      31.542  29.559  25.325  1.00  0.00     0.163 HD
BRANCH   4   6
ATOM      6  C   UNL A   1      33.724  28.745  24.521  1.00  0.00     0.123 C 
BRANCH   6   7
ATOM      7  C   UNL A   1      32.956  27.455  24.230  1.00  0.00     0.042 C 
ATOM      8  C   UNL A   1      33.527  26.402  23.219  1.00  0.00     0.024 C 
ATOM      9  C   UNL A   1      33.272  26.403  25.352  1.00  0.00     0.024 C 
ATOM     10  C   UNL A   1      33.376  25.311  24.284  1.00  0.00     0.004 C 
BRANCH   7  11
ATOM     11  N   UNL A   1      31.476  27.755  24.098  1.00  0.00    -0.208 NA
ATOM     12  H   UNL A   1      31.432  28.743  23.849  1.00  0.00     0.141 HD
BRANCH  11  13
ATOM     13  S   UNL A   1      30.369  27.009  23.088  1.00  0.00     0.214 S 
ATOM     14  O   UNL A   1      30.970  26.940  21.773  1.00  0.00    -0.212 OA
ATOM     15  O   UNL A   1      30.010  25.785  23.772  1.00  0.00    -0.212 OA
BRANCH  13  16
ATOM     16  C   UNL A   1      28.931  28.061  23.011  1.00  0.00     0.185 C 
BRANCH  16  17
ATOM     17  C   UNL A   1      29.078  29.550  22.705  1.00  0.00     0.134 C 
ATOM     18  C   UNL A   1      27.881  30.417  22.359  1.00  0.00     0.035 C 
ATOM     19  O   UNL A   1      29.776  30.222  23.775  1.00  0.00    -0.377 OA
ATOM     20  C   UNL A   1      27.671  31.267  23.587  1.00  0.00     0.031 C 
ATOM     21  C   UNL A   1      29.069  31.412  24.136  1.00  0.00     0.160 C 
ENDBRANCH  16  17
ENDBRANCH  13  16
ENDBRANCH  11  13
ENDBRANCH   7  11
ENDBRANCH   6   7
ENDBRANCH   4   6
ENDBRANCH   1   2
BRANCH   1  22
ATOM     22  C   UNL A   1      31.735  32.072  26.774  1.00  0.00     0.042 C 
BRANCH  22  23
ATOM     23  C   UNL A   1      32.967  32.846  27.239  1.00  0.00     0.118 C 
BRANCH  23  24
ATOM     24  N   UNL A   1      32.654  34.190  27.700  1.00  0.00    -0.352 N 
ATOM     25  C   UNL A   1      33.156  34.886  28.773  1.00  0.00     0.251 C 
ATOM     26  H   UNL A   1      31.984  34.673  27.164  1.00  0.00     0.163 HD
ATOM     27  O   UNL A   1      32.630  35.945  29.101  1.00  0.00    -0.269 OA
BRANCH  25  28
ATOM     28  C   UNL A   1      34.296  34.342  29.538  1.00  0.00     0.039 A 
ATOM     29  C   UNL A   1      34.036  33.605  30.693  1.00  0.00     0.014 A 
ATOM     30  C   UNL A   1      35.614  34.552  29.118  1.00  0.00     0.014 A 
ATOM     31  C   UNL A   1      35.095  33.033  31.397  1.00  0.00     0.010 A 
ATOM     32  C   UNL A   1      36.660  33.904  29.769  1.00  0.00     0.010 A 
ATOM     33  C   UNL A   1      36.414  33.145  30.923  1.00  0.00    -0.014 A 
BRANCH  33  34
ATOM     34  C   UNL A   1      37.529  32.466  31.635  1.00  0.00     0.031 A 
ATOM     35  C   UNL A   1      38.277  31.333  30.985  1.00  0.00     0.074 A 
ATOM     36  C   UNL A   1      37.857  32.871  32.878  1.00  0.00     0.049 A 
ATOM     37  N   UNL A   1      39.302  30.654  31.434  1.00  0.00    -0.248 NA
ATOM     38  C   UNL A   1      37.792  30.884  29.671  1.00  0.00     0.031 C 
ATOM     39  C   UNL A   1      37.164  33.917  33.634  1.00  0.00     0.029 A 
ATOM     40  N   UNL A   1      38.861  32.466  33.720  1.00  0.00    -0.354 N 
ATOM     41  C   UNL A   1      39.585  29.703  30.460  1.00  0.00     0.074 A 
ATOM     42  C   UNL A   1      38.573  29.840  29.435  1.00  0.00     0.031 C 
ATOM     43  C   UNL A   1      37.797  34.109  34.802  1.00  0.00     0.029 A 
ATOM     44  C   UNL A   1      38.909  33.171  34.902  1.00  0.00     0.049 A 
ATOM     45  H   UNL A   1      39.488  31.739  33.502  1.00  0.00     0.167 HD
ATOM     46  C   UNL A   1      40.610  28.816  30.412  1.00  0.00     0.034 A 
ATOM     47  C   UNL A   1      39.757  33.076  35.945  1.00  0.00     0.034 A 
ATOM     48  C   UNL A   1      41.611  28.693  31.446  1.00  0.00     0.049 A 
ATOM     49  C   UNL A   1      40.882  32.075  35.872  1.00  0.00     0.074 A 
ATOM     50  C   UNL A   1      42.718  27.863  31.481  1.00  0.00     0.029 A 
ATOM     51  N   UNL A   1      41.622  29.413  32.635  1.00  0.00    -0.354 N 
ATOM     52  N   UNL A   1      41.176  31.227  34.912  1.00  0.00    -0.248 NA
ATOM     53  C   UNL A   1      41.802  32.036  37.014  1.00  0.00     0.031 C 
ATOM     54  C   UNL A   1      43.349  28.022  32.719  1.00  0.00     0.029 A 
ATOM     55  C   UNL A   1      42.696  29.022  33.421  1.00  0.00     0.049 A 
ATOM     56  H   UNL A   1      40.962  30.102  32.882  1.00  0.00     0.167 HD
ATOM     57  C   UNL A   1      42.335  30.576  35.325  1.00  0.00     0.074 A 
ATOM     58  C   UNL A   1      42.699  31.154  36.603  1.00  0.00     0.031 C 
ATOM     59  C   UNL A   1      43.037  29.591  34.706  1.00  0.00     0.034 A 
BRANCH  46  60
ATOM     60  C   UNL A   1      40.681  27.897  29.211  1.00  0.00     0.023 A 
ATOM     61  C   UNL A   1      41.614  28.099  28.178  1.00  0.00     0.031 A 
ATOM     62  C   UNL A   1      39.789  26.817  29.085  1.00  0.00     0.131 A 
ATOM     63  C   UNL A   1      41.583  27.288  27.035  1.00  0.00     0.055 A 
ATOM     64  C   UNL A   1      39.823  25.957  27.985  1.00  0.00     0.041 A 
ATOM     65  F   UNL A   1      38.858  26.585  30.024  1.00  0.00    -0.206 F 
ATOM     66  C   UNL A   1      40.714  26.199  26.944  1.00  0.00     0.022 A 
BRANCH  63  67
ATOM     67  S   UNL A   1      42.588  27.769  25.602  1.00  0.00     0.124 S 
ATOM     68  O   UNL A   1      42.422  26.613  24.725  1.00  0.00    -0.237 OA
ATOM     69  O   UNL A   1      41.944  29.003  25.165  1.00  0.00    -0.237 OA
ATOM     70  O   UNL A   1      43.929  27.928  26.163  1.00  0.00    -0.744 OA
ENDBRANCH  63  67
ENDBRANCH  46  60
BRANCH  47  71
ATOM     71  C   UNL A   1      39.587  33.950  37.143  1.00  0.00     0.023 A 
ATOM     72  C   UNL A   1      38.986  33.467  38.317  1.00  0.00     0.031 A 
ATOM     73  C   UNL A   1      39.980  35.301  37.115  1.00  0.00     0.131 A 
ATOM     74  C   UNL A   1      38.744  34.338  39.390  1.00  0.00     0.055 A 
ATOM     75  C   UNL A   1      39.795  36.147  38.208  1.00  0.00     0.041 A 
ATOM     76  F   UNL A   1      40.562  35.815  36.019  1.00  0.00    -0.206 F 
ATOM     77  C   UNL A   1      39.158  35.672  39.350  1.00  0.00     0.022 A 
BRANCH  74  78
ATOM     78  S   UNL A   1      37.785  33.730  40.805  1.00  0.00     0.124 S 
ATOM     79  O   UNL A   1      36.705  33.007  40.143  1.00  0.00    -0.237 OA
ATOM     80  O   UNL A   1      38.768  32.911  41.507  1.00  0.00    -0.237 OA
ATOM     81  O   UNL A   1      37.387  34.954  41.497  1.00  0.00    -0.744 OA
ENDBRANCH  74  78
ENDBRANCH  47  71
BRANCH  59  82
ATOM     82  C   UNL A   1      44.294  29.113  35.396  1.00  0.00     0.023 A 
ATOM     83  C   UNL A   1      44.275  28.047  36.315  1.00  0.00     0.031 A 
ATOM     84  C   UNL A   1      45.520  29.769  35.176  1.00  0.00     0.131 A 
ATOM     85  C   UNL A   1      45.430  27.734  37.046  1.00  0.00     0.055 A 
ATOM     86  C   UNL A   1      46.685  29.395  35.845  1.00  0.00     0.041 A 
ATOM     87  F   UNL A   1      45.601  30.795  34.313  1.00  0.00    -0.206 F 
ATOM     88  C   UNL A   1      46.640  28.387  36.803  1.00  0.00     0.022 A 
BRANCH  85  89
ATOM     89  S   UNL A   1      45.289  26.567  38.429  1.00  0.00     0.124 S 
ATOM     90  O   UNL A   1      46.321  27.051  39.339  1.00  0.00    -0.237 OA
ATOM     91  O   UNL A   1      43.911  26.767  38.864  1.00  0.00    -0.237 OA
ATOM     92  O   UNL A   1      45.564  25.270  37.813  1.00  0.00    -0.744 OA
ENDBRANCH  85  89
ENDBRANCH  59  82
ENDBRANCH  33  34
ENDBRANCH  25  28
ENDBRANCH  23  24
ENDBRANCH  22  23
ENDBRANCH   1  22
TORSDOF 18
ENDMDL
MODEL 2
REMARK VINA RESULT:     -10.8      5.949      9.082
REMARK SMILES O=C(CC1(NS(=O)(=O)C[C@H]2CCCO2)CCC1)NCCCNC(=O)c1ccc(-c2c3nc(c(-c4cc(S(=O)(=O)[O-])ccc4F)c4ccc([nH]4)c(-c4cc(S(=O)(=O)[O-])ccc4F)c4nc(c(-c5cc(S(=O)(=O)[O-])ccc5F)c5ccc2[nH]5)C=C4)C=C3)cc1
REMARK SMILES IDX 19 1 18 2 1 3 2 4 3 6 4 7 15 8 17 9 16 10 5 11 6 13 7 14
REMARK SMILES IDX 8 15 9 16 10 17 11 18 14 19 12 20 13 21 20 22 21 23 22 24
REMARK SMILES IDX 23 25 24 27 25 28 26 29 87 30 27 31 86 32 28 33 29 34 30 35
REMARK SMILES IDX 80 36 31 37 85 38 79 39 81 40 32 41 84 42 78 43 77 44 33 46
REMARK SMILES IDX 65 47 45 48 64 49 46 50 49 51 63 52 82 53 47 54 48 55 62 57
REMARK SMILES IDX 83 58 50 59 34 60 35 61 43 62 36 63 42 64 44 65 41 66 37 67
REMARK SMILES IDX 38 68 39 69 40 70 66 71 67 72 75 73 68 74 74 75 76 76 73 77
REMARK SMILES IDX 69 78 70 79 71 80 72 81 51 82 52 83 60 84 53 85 59 86 61 87
REMARK SMILES IDX 58 88 54 89 55 90 56 91 57 92
REMARK H PARENT 18 5 5 12 22 26 81 45 49 56
REMARK Flexibility Score: inf
ROOT
ATOM      1  C   UNL A   1      35.898  22.674  23.508  1.00  0.00     0.117 C 
ENDROOT
BRANCH   1   2
ATOM      2  N   UNL A   1      35.276  23.893  23.964  1.00  0.00    -0.356 N 
ATOM      3  O   UNL A   1      33.400  23.782  22.640  1.00  0.00    -0.275 OA
ATOM      4  C   UNL A   1      34.095  24.371  23.456  1.00  0.00     0.221 C 
ATOM      5  H   UNL A   1      35.720  24.407  24.676  1.00  0.00     0.163 HD
BRANCH   4   6
ATOM      6  C   UNL A   1      33.778  25.746  23.967  1.00  0.00     0.123 C 
BRANCH   6   7
ATOM      7  C   UNL A   1      33.102  25.829  25.336  1.00  0.00     0.042 C 
ATOM      8  C   UNL A   1      33.337  27.070  26.264  1.00  0.00     0.024 C 
ATOM      9  C   UNL A   1      31.637  26.364  25.156  1.00  0.00     0.024 C 
ATOM     10  C   UNL A   1      31.821  27.251  26.391  1.00  0.00     0.004 C 
BRANCH   7  11
ATOM     11  N   UNL A   1      33.159  24.478  26.021  1.00  0.00    -0.208 NA
ATOM     12  H   UNL A   1      33.438  24.683  26.980  1.00  0.00     0.141 HD
BRANCH  11  13
ATOM     13  S   UNL A   1      31.927  23.354  26.165  1.00  0.00     0.214 S 
ATOM     14  O   UNL A   1      31.362  23.508  27.489  1.00  0.00    -0.212 OA
ATOM     15  O   UNL A   1      31.090  23.570  25.005  1.00  0.00    -0.212 OA
BRANCH  13  16
ATOM     16  C   UNL A   1      32.669  21.736  26.039  1.00  0.00     0.185 C 
BRANCH  16  17
ATOM     17  C   UNL A   1      32.119  20.709  25.053  1.00  0.00     0.134 C 
ATOM     18  C   UNL A   1      32.755  20.487  23.693  1.00  0.00     0.035 C 
ATOM     19  O   UNL A   1      32.018  19.411  25.676  1.00  0.00    -0.377 OA
ATOM     20  C   UNL A   1      33.452  19.154  23.822  1.00  0.00     0.031 C 
ATOM     21  C   UNL A   1      32.585  18.420  24.815  1.00  0.00     0.160 C 
ENDBRANCH  16  17
ENDBRANCH  13  16
ENDBRANCH  11  13
ENDBRANCH   7  11
ENDBRANCH   6   7
ENDBRANCH   4   6
ENDBRANCH   1   2
BRANCH   1  22
ATOM     22  C   UNL A   1      36.151  21.734  24.678  1.00  0.00     0.042 C 
BRANCH  22  23
ATOM     23  C   UNL A   1      37.193  22.241  25.672  1.00  0.00     0.118 C 
BRANCH  23  24
ATOM     24  N   UNL A   1      38.250  21.274  25.931  1.00  0.00    -0.352 N 
ATOM     25  C   UNL A   1      39.531  21.478  26.379  1.00  0.00     0.251 C 
ATOM     26  H   UNL A   1      38.011  20.334  25.759  1.00  0.00     0.163 HD
ATOM     27  O   UNL A   1      40.330  20.547  26.361  1.00  0.00    -0.269 OA
BRANCH  25  28
ATOM     28  C   UNL A   1      39.946  22.817  26.847  1.00  0.00     0.039 A 
ATOM     29  C   UNL A   1      40.811  22.906  27.938  1.00  0.00     0.014 A 
ATOM     30  C   UNL A   1      39.491  23.977  26.212  1.00  0.00     0.014 A 
ATOM     31  C   UNL A   1      41.261  24.156  28.358  1.00  0.00     0.010 A 
ATOM     32  C   UNL A   1      40.013  25.215  26.575  1.00  0.00     0.010 A 
ATOM     33  C   UNL A   1      40.897  25.321  27.658  1.00  0.00    -0.014 A 
BRANCH  33  34
ATOM     34  C   UNL A   1      41.444  26.642  28.063  1.00  0.00     0.031 A 
ATOM     35  C   UNL A   1      42.855  27.030  27.709  1.00  0.00     0.074 A 
ATOM     36  C   UNL A   1      40.664  27.490  28.763  1.00  0.00     0.049 A 
ATOM     37  N   UNL A   1      43.486  28.153  27.938  1.00  0.00    -0.248 NA
ATOM     38  C   UNL A   1      43.675  26.011  27.035  1.00  0.00     0.031 C 
ATOM     39  C   UNL A   1      39.301  27.200  29.218  1.00  0.00     0.029 A 
ATOM     40  N   UNL A   1      40.893  28.769  29.204  1.00  0.00    -0.354 N 
ATOM     41  C   UNL A   1      44.772  27.978  27.437  1.00  0.00     0.074 A 
ATOM     42  C   UNL A   1      44.853  26.613  26.965  1.00  0.00     0.031 C 
ATOM     43  C   UNL A   1      38.798  28.289  29.822  1.00  0.00     0.029 A 
ATOM     44  C   UNL A   1      39.813  29.336  29.842  1.00  0.00     0.049 A 
ATOM     45  H   UNL A   1      41.750  29.238  29.077  1.00  0.00     0.167 HD
ATOM     46  C   UNL A   1      45.780  28.880  27.351  1.00  0.00     0.034 A 
ATOM     47  C   UNL A   1      39.656  30.563  30.377  1.00  0.00     0.034 A 
ATOM     48  C   UNL A   1      45.681  30.240  27.829  1.00  0.00     0.049 A 
ATOM     49  C   UNL A   1      40.797  31.544  30.279  1.00  0.00     0.074 A 
ATOM     50  C   UNL A   1      46.621  31.252  27.753  1.00  0.00     0.029 A 
ATOM     51  N   UNL A   1      44.577  30.776  28.482  1.00  0.00    -0.354 N 
ATOM     52  N   UNL A   1      41.984  31.383  29.741  1.00  0.00    -0.248 NA
ATOM     53  C   UNL A   1      40.565  32.878  30.843  1.00  0.00     0.031 C 
ATOM     54  C   UNL A   1      46.120  32.370  28.429  1.00  0.00     0.029 A 
ATOM     55  C   UNL A   1      44.827  32.092  28.842  1.00  0.00     0.049 A 
ATOM     56  H   UNL A   1      43.738  30.292  28.661  1.00  0.00     0.167 HD
ATOM     57  C   UNL A   1      42.628  32.610  29.874  1.00  0.00     0.074 A 
ATOM     58  C   UNL A   1      41.684  33.503  30.514  1.00  0.00     0.031 C 
ATOM     59  C   UNL A   1      43.885  32.968  29.501  1.00  0.00     0.034 A 
BRANCH  46  60
ATOM     60  C   UNL A   1      47.083  28.413  26.739  1.00  0.00     0.023 A 
ATOM     61  C   UNL A   1      47.261  28.333  25.346  1.00  0.00     0.031 A 
ATOM     62  C   UNL A   1      48.157  28.021  27.558  1.00  0.00     0.131 A 
ATOM     63  C   UNL A   1      48.446  27.801  24.817  1.00  0.00     0.055 A 
ATOM     64  C   UNL A   1      49.369  27.578  27.024  1.00  0.00     0.041 A 
ATOM     65  F   UNL A   1      48.043  28.051  28.896  1.00  0.00    -0.206 F 
ATOM     66  C   UNL A   1      49.513  27.450  25.646  1.00  0.00     0.022 A 
BRANCH  63  67
ATOM     67  S   UNL A   1      48.513  27.428  23.043  1.00  0.00     0.124 S 
ATOM     68  O   UNL A   1      47.370  28.186  22.539  1.00  0.00    -0.237 OA
ATOM     69  O   UNL A   1      49.830  27.928  22.665  1.00  0.00    -0.237 OA
ATOM     70  O   UNL A   1      48.358  25.975  22.992  1.00  0.00    -0.744 OA
ENDBRANCH  63  67
ENDBRANCH  46  60
BRANCH  47  71
ATOM     71  C   UNL A   1      38.377  30.940  31.047  1.00  0.00     0.023 A 
ATOM     72  C   UNL A   1      37.342  31.569  30.337  1.00  0.00     0.031 A 
ATOM     73  C   UNL A   1      38.189  30.721  32.424  1.00  0.00     0.131 A 
ATOM     74  C   UNL A   1      36.193  32.007  31.013  1.00  0.00     0.055 A 
ATOM     75  C   UNL A   1      37.018  31.101  33.080  1.00  0.00     0.041 A 
ATOM     76  F   UNL A   1      39.145  30.121  33.152  1.00  0.00    -0.206 F 
ATOM     77  C   UNL A   1      36.017  31.764  32.377  1.00  0.00     0.022 A 
BRANCH  74  78
ATOM     78  S   UNL A   1      34.971  32.994  30.104  1.00  0.00     0.124 S 
ATOM     79  O   UNL A   1      34.054  33.385  31.168  1.00  0.00    -0.237 OA
ATOM     80  O   UNL A   1      35.798  34.059  29.546  1.00  0.00    -0.237 OA
ATOM     81  O   UNL A   1      34.431  32.050  29.127  1.00  0.00    -0.744 OA
ENDBRANCH  74  78
ENDBRANCH  47  71
BRANCH  59  82
ATOM     82  C   UNL A   1      44.284  34.406  29.746  1.00  0.00     0.023 A 
ATOM     83  C   UNL A   1      43.991  35.424  28.819  1.00  0.00     0.031 A 
ATOM     84  C   UNL A   1      45.016  34.756  30.895  1.00  0.00     0.131 A 
ATOM     85  C   UNL A   1      44.508  36.713  29.010  1.00  0.00     0.055 A 
ATOM     86  C   UNL A   1      45.455  36.060  31.120  1.00  0.00     0.041 A 
ATOM     87  F   UNL A   1      45.329  33.829  31.815  1.00  0.00    -0.206 F 
ATOM     88  C   UNL A   1      45.222  37.043  30.163  1.00  0.00     0.022 A 
BRANCH  85  89
ATOM     89  S   UNL A   1      44.370  37.911  27.653  1.00  0.00     0.124 S 
ATOM     90  O   UNL A   1      44.127  39.156  28.372  1.00  0.00    -0.237 OA
ATOM     91  O   UNL A   1      45.670  37.794  27.001  1.00  0.00    -0.237 OA
ATOM     92  O   UNL A   1      43.238  37.414  26.872  1.00  0.00    -0.744 OA
ENDBRANCH  85  89
ENDBRANCH  59  82
ENDBRANCH  33  34
ENDBRANCH  25  28
ENDBRANCH  23  24
ENDBRANCH  22  23
ENDBRANCH   1  22
TORSDOF 18
ENDMDL
MODEL 3
REMARK VINA RESULT:     -10.8      6.165     11.936
REMARK SMILES O=C(CC1(NS(=O)(=O)C[C@H]2CCCO2)CCC1)NCCCNC(=O)c1ccc(-c2c3nc(c(-c4cc(S(=O)(=O)[O-])ccc4F)c4ccc([nH]4)c(-c4cc(S(=O)(=O)[O-])ccc4F)c4nc(c(-c5cc(S(=O)(=O)[O-])ccc5F)c5ccc2[nH]5)C=C4)C=C3)cc1
REMARK SMILES IDX 19 1 18 2 1 3 2 4 3 6 4 7 15 8 17 9 16 10 5 11 6 13 7 14
REMARK SMILES IDX 8 15 9 16 10 17 11 18 14 19 12 20 13 21 20 22 21 23 22 24
REMARK SMILES IDX 23 25 24 27 25 28 26 29 87 30 27 31 86 32 28 33 29 34 30 35
REMARK SMILES IDX 80 36 31 37 85 38 79 39 81 40 32 41 84 42 78 43 77 44 33 46
REMARK SMILES IDX 65 47 45 48 64 49 46 50 49 51 63 52 82 53 47 54 48 55 62 57
REMARK SMILES IDX 83 58 50 59 34 60 35 61 43 62 36 63 42 64 44 65 41 66 37 67
REMARK SMILES IDX 38 68 39 69 40 70 66 71 67 72 75 73 68 74 74 75 76 76 73 77
REMARK SMILES IDX 69 78 70 79 71 80 72 81 51 82 52 83 60 84 53 85 59 86 61 87
REMARK SMILES IDX 58 88 54 89 55 90 56 91 57 92
REMARK H PARENT 18 5 5 12 22 26 81 45 49 56
REMARK Flexibility Score: inf
ROOT
ATOM      1  C   UNL A   1      37.308  21.224  24.817  1.00  0.00     0.117 C 
ENDROOT
BRANCH   1   2
ATOM      2  N   UNL A   1      35.931  20.874  25.066  1.00  0.00    -0.356 N 
ATOM      3  O   UNL A   1      35.356  22.757  26.252  1.00  0.00    -0.275 OA
ATOM      4  C   UNL A   1      35.078  21.652  25.806  1.00  0.00     0.221 C 
ATOM      5  H   UNL A   1      35.586  20.034  24.685  1.00  0.00     0.163 HD
BRANCH   4   6
ATOM      6  C   UNL A   1      33.772  20.963  26.070  1.00  0.00     0.123 C 
BRANCH   6   7
ATOM      7  C   UNL A   1      32.607  21.326  25.148  1.00  0.00     0.042 C 
ATOM      8  C   UNL A   1      32.842  22.235  23.893  1.00  0.00     0.024 C 
ATOM      9  C   UNL A   1      32.369  20.152  24.132  1.00  0.00     0.024 C 
ATOM     10  C   UNL A   1      32.168  21.177  23.012  1.00  0.00     0.004 C 
BRANCH   7  11
ATOM     11  N   UNL A   1      31.379  21.652  25.974  1.00  0.00    -0.208 NA
ATOM     12  H   UNL A   1      31.312  20.893  26.652  1.00  0.00     0.141 HD
BRANCH  11  13
ATOM     13  S   UNL A   1      31.083  23.043  26.858  1.00  0.00     0.214 S 
ATOM     14  O   UNL A   1      29.802  22.869  27.511  1.00  0.00    -0.212 OA
ATOM     15  O   UNL A   1      32.272  23.230  27.662  1.00  0.00    -0.212 OA
BRANCH  13  16
ATOM     16  C   UNL A   1      30.961  24.392  25.697  1.00  0.00     0.185 C 
BRANCH  16  17
ATOM     17  C   UNL A   1      31.866  25.613  25.835  1.00  0.00     0.134 C 
ATOM     18  C   UNL A   1      33.371  25.516  25.663  1.00  0.00     0.035 C 
ATOM     19  O   UNL A   1      31.421  26.675  24.965  1.00  0.00    -0.377 OA
ATOM     20  C   UNL A   1      33.636  26.173  24.331  1.00  0.00     0.031 C 
ATOM     21  C   UNL A   1      32.537  27.204  24.243  1.00  0.00     0.160 C 
ENDBRANCH  16  17
ENDBRANCH  13  16
ENDBRANCH  11  13
ENDBRANCH   7  11
ENDBRANCH   6   7
ENDBRANCH   4   6
ENDBRANCH   1   2
BRANCH   1  22
ATOM     22  C   UNL A   1      38.218  20.035  25.091  1.00  0.00     0.042 C 
BRANCH  22  23
ATOM     23  C   UNL A   1      39.327  20.317  26.103  1.00  0.00     0.118 C 
BRANCH  23  24
ATOM     24  N   UNL A   1      40.386  19.318  26.080  1.00  0.00    -0.352 N 
ATOM     25  C   UNL A   1      41.748  19.488  26.101  1.00  0.00     0.251 C 
ATOM     26  H   UNL A   1      40.080  18.382  26.046  1.00  0.00     0.163 HD
ATOM     27  O   UNL A   1      42.477  18.522  25.893  1.00  0.00    -0.269 OA
BRANCH  25  28
ATOM     28  C   UNL A   1      42.322  20.827  26.339  1.00  0.00     0.039 A 
ATOM     29  C   UNL A   1      42.553  21.660  25.243  1.00  0.00     0.014 A 
ATOM     30  C   UNL A   1      42.628  21.263  27.632  1.00  0.00     0.014 A 
ATOM     31  C   UNL A   1      43.039  22.950  25.452  1.00  0.00     0.010 A 
ATOM     32  C   UNL A   1      43.025  22.581  27.843  1.00  0.00     0.010 A 
ATOM     33  C   UNL A   1      43.245  23.437  26.755  1.00  0.00    -0.014 A 
BRANCH  33  34
ATOM     34  C   UNL A   1      43.688  24.839  26.971  1.00  0.00     0.031 A 
ATOM     35  C   UNL A   1      42.743  25.862  27.544  1.00  0.00     0.074 A 
ATOM     36  C   UNL A   1      44.947  25.190  26.639  1.00  0.00     0.049 A 
ATOM     37  N   UNL A   1      42.966  27.117  27.843  1.00  0.00    -0.248 NA
ATOM     38  C   UNL A   1      41.359  25.427  27.784  1.00  0.00     0.031 C 
ATOM     39  C   UNL A   1      45.933  24.301  26.020  1.00  0.00     0.029 A 
ATOM     40  N   UNL A   1      45.619  26.376  26.786  1.00  0.00    -0.354 N 
ATOM     41  C   UNL A   1      41.755  27.619  28.308  1.00  0.00     0.074 A 
ATOM     42  C   UNL A   1      40.783  26.555  28.173  1.00  0.00     0.031 C 
ATOM     43  C   UNL A   1      47.097  24.956  25.892  1.00  0.00     0.029 A 
ATOM     44  C   UNL A   1      46.931  26.323  26.373  1.00  0.00     0.049 A 
ATOM     45  H   UNL A   1      45.203  27.191  27.151  1.00  0.00     0.167 HD
ATOM     46  C   UNL A   1      41.485  28.843  28.824  1.00  0.00     0.034 A 
ATOM     47  C   UNL A   1      47.894  27.266  26.388  1.00  0.00     0.034 A 
ATOM     48  C   UNL A   1      42.469  29.893  28.950  1.00  0.00     0.049 A 
ATOM     49  C   UNL A   1      47.566  28.623  26.958  1.00  0.00     0.074 A 
ATOM     50  C   UNL A   1      42.319  31.154  29.499  1.00  0.00     0.029 A 
ATOM     51  N   UNL A   1      43.785  29.809  28.511  1.00  0.00    -0.354 N 
ATOM     52  N   UNL A   1      46.431  29.060  27.455  1.00  0.00    -0.248 NA
ATOM     53  C   UNL A   1      48.656  29.604  26.987  1.00  0.00     0.031 C 
ATOM     54  C   UNL A   1      43.515  31.858  29.320  1.00  0.00     0.029 A 
ATOM     55  C   UNL A   1      44.446  31.006  28.747  1.00  0.00     0.049 A 
ATOM     56  H   UNL A   1      44.190  29.014  28.093  1.00  0.00     0.167 HD
ATOM     57  C   UNL A   1      46.684  30.360  27.886  1.00  0.00     0.074 A 
ATOM     58  C   UNL A   1      48.084  30.618  27.616  1.00  0.00     0.031 C 
ATOM     59  C   UNL A   1      45.838  31.260  28.453  1.00  0.00     0.034 A 
BRANCH  46  60
ATOM     60  C   UNL A   1      40.064  29.115  29.269  1.00  0.00     0.023 A 
ATOM     61  C   UNL A   1      39.700  29.116  30.627  1.00  0.00     0.031 A 
ATOM     62  C   UNL A   1      39.053  29.353  28.321  1.00  0.00     0.131 A 
ATOM     63  C   UNL A   1      38.356  29.272  30.995  1.00  0.00     0.055 A 
ATOM     64  C   UNL A   1      37.731  29.598  28.699  1.00  0.00     0.041 A 
ATOM     65  F   UNL A   1      39.330  29.341  27.008  1.00  0.00    -0.206 F 
ATOM     66  C   UNL A   1      37.372  29.543  30.042  1.00  0.00     0.022 A 
BRANCH  63  67
ATOM     67  S   UNL A   1      37.887  28.960  32.720  1.00  0.00     0.124 S 
ATOM     68  O   UNL A   1      39.013  29.548  33.442  1.00  0.00    -0.237 OA
ATOM     69  O   UNL A   1      36.615  29.664  32.834  1.00  0.00    -0.237 OA
ATOM     70  O   UNL A   1      37.803  27.502  32.794  1.00  0.00    -0.744 OA
ENDBRANCH  63  67
ENDBRANCH  46  60
BRANCH  47  71
ATOM     71  C   UNL A   1      49.256  26.968  25.856  1.00  0.00     0.023 A 
ATOM     72  C   UNL A   1      49.655  27.415  24.586  1.00  0.00     0.031 A 
ATOM     73  C   UNL A   1      50.165  26.187  26.592  1.00  0.00     0.131 A 
ATOM     74  C   UNL A   1      50.902  27.032  24.068  1.00  0.00     0.055 A 
ATOM     75  C   UNL A   1      51.429  25.862  26.099  1.00  0.00     0.041 A 
ATOM     76  F   UNL A   1      49.838  25.735  27.814  1.00  0.00    -0.206 F 
ATOM     77  C   UNL A   1      51.798  26.272  24.822  1.00  0.00     0.022 A 
BRANCH  74  78
ATOM     78  S   UNL A   1      51.296  27.457  22.348  1.00  0.00     0.124 S 
ATOM     79  O   UNL A   1      50.299  26.686  21.616  1.00  0.00    -0.237 OA
ATOM     80  O   UNL A   1      51.117  28.905  22.346  1.00  0.00    -0.237 OA
ATOM     81  O   UNL A   1      52.676  27.001  22.194  1.00  0.00    -0.744 OA
ENDBRANCH  74  78
ENDBRANCH  47  71
BRANCH  59  82
ATOM     82  C   UNL A   1      46.430  32.592  28.855  1.00  0.00     0.023 A 
ATOM     83  C   UNL A   1      46.440  33.692  27.978  1.00  0.00     0.031 A 
ATOM     84  C   UNL A   1      47.043  32.748  30.111  1.00  0.00     0.131 A 
ATOM     85  C   UNL A   1      47.131  34.861  28.330  1.00  0.00     0.055 A 
ATOM     86  C   UNL A   1      47.655  33.943  30.489  1.00  0.00     0.041 A 
ATOM     87  F   UNL A   1      47.068  31.733  30.991  1.00  0.00    -0.206 F 
ATOM     88  C   UNL A   1      47.722  35.001  29.587  1.00  0.00     0.022 A 
BRANCH  85  89
ATOM     89  S   UNL A   1      47.381  36.134  27.061  1.00  0.00     0.124 S 
ATOM     90  O   UNL A   1      47.086  35.401  25.836  1.00  0.00    -0.237 OA
ATOM     91  O   UNL A   1      46.409  37.151  27.446  1.00  0.00    -0.237 OA
ATOM     92  O   UNL A   1      48.782  36.518  27.233  1.00  0.00    -0.744 OA
ENDBRANCH  85  89
ENDBRANCH  59  82
ENDBRANCH  33  34
ENDBRANCH  25  28
ENDBRANCH  23  24
ENDBRANCH  22  23
ENDBRANCH   1  22
TORSDOF 18
ENDMDL
