MODEL 1
REMARK VINA RESULT:     -12.4      0.000      0.000
REMARK SMILES O=C(Cc1ccc(F)c(F)c1)NC1(C(=O)NCCCNC(=O)c2ccc(-c3c4nc(c(-c5cc(S(=O)(=O)[O-])ccc5F)c5ccc([nH]5)c(-c5cc(S(=O)(=O)[O-])ccc5F)c5nc(c(-c6cc(S(=O)(=O)[O-])ccc6F)c6ccc3[nH]6)C=C5)C=C4)cc2)CCCC1
REMARK SMILES IDX 18 1 17 2 16 3 14 4 15 5 13 7 86 8 89 9 87 10 88 11 12 12
REMARK SMILES IDX 1 13 2 14 3 16 4 17 5 18 11 19 6 20 9 21 7 22 10 23 8 24
REMARK SMILES IDX 19 25 20 26 21 27 22 29 23 30 24 31 85 32 25 33 84 34 26 35
REMARK SMILES IDX 27 36 28 37 78 38 29 39 83 40 77 41 79 42 30 43 82 44 76 45
REMARK SMILES IDX 75 46 31 48 63 49 43 50 62 51 44 52 47 53 61 54 80 55 45 56
REMARK SMILES IDX 46 57 60 59 81 60 48 61 32 62 33 63 41 64 34 65 40 66 42 67
REMARK SMILES IDX 39 68 35 69 36 70 37 71 38 72 64 73 65 74 73 75 66 76 72 77
REMARK SMILES IDX 74 78 71 79 67 80 68 81 69 82 70 83 49 84 50 85 58 86 51 87
REMARK SMILES IDX 57 88 59 89 56 90 52 91 53 92 54 93 55 94
REMARK H PARENT 16 6 12 15 20 28 79 47 47 58
REMARK Flexibility Score: inf
ROOT
ATOM      1  C   UNL A   1      31.763  31.559  26.489  1.00  0.00     0.042 C 
ENDROOT
BRANCH   1   2
ATOM      2  C   UNL A   1      31.901  30.074  26.200  1.00  0.00     0.117 C 
BRANCH   2   3
ATOM      3  N   UNL A   1      32.933  29.793  25.230  1.00  0.00    -0.354 N 
ATOM      4  C   UNL A   1      33.166  28.699  24.463  1.00  0.00     0.245 C 
ATOM      5  O   UNL A   1      34.019  28.854  23.574  1.00  0.00    -0.272 OA
ATOM      6  H   UNL A   1      33.581  30.524  25.103  1.00  0.00     0.163 HD
BRANCH   4   7
ATOM      7  C   UNL A   1      32.369  27.352  24.586  1.00  0.00     0.119 C 
ATOM      8  C   UNL A   1      32.329  26.833  26.039  1.00  0.00     0.038 C 
ATOM      9  C   UNL A   1      32.889  26.173  23.753  1.00  0.00     0.038 C 
ATOM     10  C   UNL A   1      33.031  25.478  26.090  1.00  0.00     0.003 C 
ATOM     11  C   UNL A   1      33.519  25.155  24.691  1.00  0.00     0.003 C 
BRANCH   7  12
ATOM     12  N   UNL A   1      30.984  27.749  24.234  1.00  0.00    -0.341 N 
ATOM     13  O   UNL A   1      30.978  27.439  21.951  1.00  0.00    -0.275 OA
ATOM     14  C   UNL A   1      30.405  27.760  22.986  1.00  0.00     0.225 C 
ATOM     15  H   UNL A   1      30.411  28.038  24.982  1.00  0.00     0.164 HD
BRANCH  14  16
ATOM     16  C   UNL A   1      28.965  28.253  22.970  1.00  0.00     0.135 C 
BRANCH  16  17
ATOM     17  C   UNL A   1      28.710  29.705  22.591  1.00  0.00    -0.036 A 
ATOM     18  C   UNL A   1      28.963  30.689  23.567  1.00  0.00     0.007 A 
ATOM     19  C   UNL A   1      28.236  30.126  21.338  1.00  0.00     0.046 A 
ATOM     20  C   UNL A   1      28.708  32.041  23.311  1.00  0.00     0.043 A 
ATOM     21  C   UNL A   1      27.951  31.468  21.102  1.00  0.00     0.159 A 
ATOM     22  C   UNL A   1      28.184  32.420  22.082  1.00  0.00     0.158 A 
ATOM     23  F   UNL A   1      27.438  31.830  19.917  1.00  0.00    -0.204 F 
ATOM     24  F   UNL A   1      27.911  33.711  21.850  1.00  0.00    -0.204 F 
ENDBRANCH  16  17
ENDBRANCH  14  16
ENDBRANCH   7  12
ENDBRANCH   4   7
ENDBRANCH   2   3
ENDBRANCH   1   2
BRANCH   1  25
ATOM     25  C   UNL A   1      32.951  32.112  27.260  1.00  0.00     0.118 C 
BRANCH  25  26
ATOM     26  N   UNL A   1      32.791  33.533  27.558  1.00  0.00    -0.352 N 
ATOM     27  C   UNL A   1      33.347  34.297  28.552  1.00  0.00     0.251 C 
ATOM     28  H   UNL A   1      32.189  34.018  26.949  1.00  0.00     0.163 HD
ATOM     29  O   UNL A   1      32.878  35.412  28.783  1.00  0.00    -0.269 OA
BRANCH  27  30
ATOM     30  C   UNL A   1      34.484  33.781  29.340  1.00  0.00     0.039 A 
ATOM     31  C   UNL A   1      34.249  32.841  30.345  1.00  0.00     0.014 A 
ATOM     32  C   UNL A   1      35.781  34.238  29.096  1.00  0.00     0.014 A 
ATOM     33  C   UNL A   1      35.326  32.316  31.061  1.00  0.00     0.010 A 
ATOM     34  C   UNL A   1      36.857  33.632  29.728  1.00  0.00     0.010 A 
ATOM     35  C   UNL A   1      36.641  32.678  30.731  1.00  0.00    -0.014 A 
BRANCH  35  36
ATOM     36  C   UNL A   1      37.809  32.103  31.444  1.00  0.00     0.031 A 
ATOM     37  C   UNL A   1      38.616  31.009  30.797  1.00  0.00     0.074 A 
ATOM     38  C   UNL A   1      38.100  32.517  32.693  1.00  0.00     0.049 A 
ATOM     39  N   UNL A   1      39.617  30.320  31.280  1.00  0.00    -0.248 NA
ATOM     40  C   UNL A   1      38.214  30.612  29.438  1.00  0.00     0.031 C 
ATOM     41  C   UNL A   1      37.361  33.540  33.436  1.00  0.00     0.029 A 
ATOM     42  N   UNL A   1      39.090  32.128  33.558  1.00  0.00    -0.354 N 
ATOM     43  C   UNL A   1      39.952  29.398  30.293  1.00  0.00     0.074 A 
ATOM     44  C   UNL A   1      38.992  29.563  29.224  1.00  0.00     0.031 C 
ATOM     45  C   UNL A   1      37.950  33.728  34.627  1.00  0.00     0.029 A 
ATOM     46  C   UNL A   1      39.071  32.803  34.756  1.00  0.00     0.049 A 
ATOM     47  H   UNL A   1      39.752  31.433  33.342  1.00  0.00     0.167 HD
ATOM     48  C   UNL A   1      40.985  28.521  30.265  1.00  0.00     0.034 A 
ATOM     49  C   UNL A   1      39.863  32.682  35.839  1.00  0.00     0.034 A 
ATOM     50  C   UNL A   1      41.934  28.379  31.343  1.00  0.00     0.049 A 
ATOM     51  C   UNL A   1      40.982  31.673  35.806  1.00  0.00     0.074 A 
ATOM     52  C   UNL A   1      43.047  27.559  31.411  1.00  0.00     0.029 A 
ATOM     53  N   UNL A   1      41.877  29.070  32.548  1.00  0.00    -0.354 N 
ATOM     54  N   UNL A   1      41.319  30.840  34.847  1.00  0.00    -0.248 NA
ATOM     55  C   UNL A   1      41.834  31.594  36.999  1.00  0.00     0.031 C 
ATOM     56  C   UNL A   1      43.612  27.695  32.684  1.00  0.00     0.029 A 
ATOM     57  C   UNL A   1      42.912  28.668  33.378  1.00  0.00     0.049 A 
ATOM     58  H   UNL A   1      41.199  29.746  32.778  1.00  0.00     0.167 HD
ATOM     59  C   UNL A   1      42.445  30.164  35.308  1.00  0.00     0.074 A 
ATOM     60  C   UNL A   1      42.733  30.696  36.626  1.00  0.00     0.031 C 
ATOM     61  C   UNL A   1      43.179  29.199  34.698  1.00  0.00     0.034 A 
BRANCH  48  62
ATOM     62  C   UNL A   1      41.109  27.636  29.044  1.00  0.00     0.023 A 
ATOM     63  C   UNL A   1      42.112  27.846  28.079  1.00  0.00     0.031 A 
ATOM     64  C   UNL A   1      40.180  26.608  28.807  1.00  0.00     0.131 A 
ATOM     65  C   UNL A   1      42.097  27.117  26.881  1.00  0.00     0.055 A 
ATOM     66  C   UNL A   1      40.232  25.817  27.657  1.00  0.00     0.041 A 
ATOM     67  F   UNL A   1      39.185  26.370  29.676  1.00  0.00    -0.206 F 
ATOM     68  C   UNL A   1      41.182  26.084  26.674  1.00  0.00     0.022 A 
BRANCH  65  69
ATOM     69  S   UNL A   1      43.165  27.671  25.522  1.00  0.00     0.124 S 
ATOM     70  O   UNL A   1      44.071  28.586  26.212  1.00  0.00    -0.237 OA
ATOM     71  O   UNL A   1      43.752  26.422  25.053  1.00  0.00    -0.237 OA
ATOM     72  O   UNL A   1      42.234  28.310  24.594  1.00  0.00    -0.744 OA
ENDBRANCH  65  69
ENDBRANCH  48  62
BRANCH  49  73
ATOM     73  C   UNL A   1      39.637  33.541  37.035  1.00  0.00     0.023 A 
ATOM     74  C   UNL A   1      39.054  33.017  38.199  1.00  0.00     0.031 A 
ATOM     75  C   UNL A   1      39.981  34.905  37.028  1.00  0.00     0.131 A 
ATOM     76  C   UNL A   1      38.795  33.857  39.293  1.00  0.00     0.055 A 
ATOM     77  C   UNL A   1      39.773  35.724  38.138  1.00  0.00     0.041 A 
ATOM     78  F   UNL A   1      40.548  35.456  35.943  1.00  0.00    -0.206 F 
ATOM     79  C   UNL A   1      39.165  35.204  39.277  1.00  0.00     0.022 A 
BRANCH  76  80
ATOM     80  S   UNL A   1      37.898  33.179  40.716  1.00  0.00     0.124 S 
ATOM     81  O   UNL A   1      36.539  33.090  40.195  1.00  0.00    -0.237 OA
ATOM     82  O   UNL A   1      38.587  31.911  40.933  1.00  0.00    -0.237 OA
ATOM     83  O   UNL A   1      38.103  34.183  41.758  1.00  0.00    -0.744 OA
ENDBRANCH  76  80
ENDBRANCH  49  73
BRANCH  61  84
ATOM     84  C   UNL A   1      44.396  28.692  35.434  1.00  0.00     0.023 A 
ATOM     85  C   UNL A   1      44.315  27.660  36.384  1.00  0.00     0.031 A 
ATOM     86  C   UNL A   1      45.658  29.262  35.184  1.00  0.00     0.131 A 
ATOM     87  C   UNL A   1      45.461  27.274  37.096  1.00  0.00     0.055 A 
ATOM     88  C   UNL A   1      46.807  28.824  35.843  1.00  0.00     0.041 A 
ATOM     89  F   UNL A   1      45.795  30.255  34.291  1.00  0.00    -0.206 F 
ATOM     90  C   UNL A   1      46.709  27.834  36.815  1.00  0.00     0.022 A 
BRANCH  87  91
ATOM     91  S   UNL A   1      45.281  26.103  38.469  1.00  0.00     0.124 S 
ATOM     92  O   UNL A   1      46.453  26.411  39.284  1.00  0.00    -0.237 OA
ATOM     93  O   UNL A   1      43.992  26.483  39.037  1.00  0.00    -0.237 OA
ATOM     94  O   UNL A   1      45.309  24.797  37.813  1.00  0.00    -0.744 OA
ENDBRANCH  87  91
ENDBRANCH  61  84
ENDBRANCH  35  36
ENDBRANCH  27  30
ENDBRANCH  25  26
ENDBRANCH   1  25
TORSDOF 16
ENDMDL
MODEL 2
REMARK VINA RESULT:     -12.4      6.341      9.212
REMARK SMILES O=C(Cc1ccc(F)c(F)c1)NC1(C(=O)NCCCNC(=O)c2ccc(-c3c4nc(c(-c5cc(S(=O)(=O)[O-])ccc5F)c5ccc([nH]5)c(-c5cc(S(=O)(=O)[O-])ccc5F)c5nc(c(-c6cc(S(=O)(=O)[O-])ccc6F)c6ccc3[nH]6)C=C5)C=C4)cc2)CCCC1
REMARK SMILES IDX 18 1 17 2 16 3 14 4 15 5 13 7 86 8 89 9 87 10 88 11 12 12
REMARK SMILES IDX 1 13 2 14 3 16 4 17 5 18 11 19 6 20 9 21 7 22 10 23 8 24
REMARK SMILES IDX 19 25 20 26 21 27 22 29 23 30 24 31 85 32 25 33 84 34 26 35
REMARK SMILES IDX 27 36 28 37 78 38 29 39 83 40 77 41 79 42 30 43 82 44 76 45
REMARK SMILES IDX 75 46 31 48 63 49 43 50 62 51 44 52 47 53 61 54 80 55 45 56
REMARK SMILES IDX 46 57 60 59 81 60 48 61 32 62 33 63 41 64 34 65 40 66 42 67
REMARK SMILES IDX 39 68 35 69 36 70 37 71 38 72 64 73 65 74 73 75 66 76 72 77
REMARK SMILES IDX 74 78 71 79 67 80 68 81 69 82 70 83 49 84 50 85 58 86 51 87
REMARK SMILES IDX 57 88 59 89 56 90 52 91 53 92 54 93 55 94
REMARK H PARENT 16 6 12 15 20 28 79 47 47 58
REMARK Flexibility Score: inf
ROOT
ATOM      1  C   UNL A   1      35.832  22.798  24.600  1.00  0.00     0.042 C 
ENDROOT
BRANCH   1   2
ATOM      2  C   UNL A   1      35.224  24.188  24.528  1.00  0.00     0.117 C 
BRANCH   2   3
ATOM      3  N   UNL A   1      34.566  24.439  23.267  1.00  0.00    -0.354 N 
ATOM      4  C   UNL A   1      33.281  24.762  22.976  1.00  0.00     0.245 C 
ATOM      5  O   UNL A   1      33.082  25.117  21.804  1.00  0.00    -0.272 OA
ATOM      6  H   UNL A   1      35.154  24.362  22.481  1.00  0.00     0.163 HD
BRANCH   4   7
ATOM      7  C   UNL A   1      32.123  24.799  24.035  1.00  0.00     0.119 C 
ATOM      8  C   UNL A   1      30.742  25.000  23.378  1.00  0.00     0.038 C 
ATOM      9  C   UNL A   1      32.218  25.890  25.112  1.00  0.00     0.038 C 
ATOM     10  C   UNL A   1      30.149  26.312  23.883  1.00  0.00     0.003 C 
ATOM     11  C   UNL A   1      31.151  26.937  24.836  1.00  0.00     0.003 C 
BRANCH   7  12
ATOM     12  N   UNL A   1      32.136  23.425  24.595  1.00  0.00    -0.341 N 
ATOM     13  O   UNL A   1      32.188  22.143  22.681  1.00  0.00    -0.275 OA
ATOM     14  C   UNL A   1      32.171  22.237  23.903  1.00  0.00     0.225 C 
ATOM     15  H   UNL A   1      32.117  23.356  25.578  1.00  0.00     0.164 HD
BRANCH  14  16
ATOM     16  C   UNL A   1      32.143  20.998  24.787  1.00  0.00     0.135 C 
BRANCH  16  17
ATOM     17  C   UNL A   1      32.824  19.737  24.276  1.00  0.00    -0.036 A 
ATOM     18  C   UNL A   1      32.151  18.983  23.295  1.00  0.00     0.007 A 
ATOM     19  C   UNL A   1      34.074  19.275  24.719  1.00  0.00     0.046 A 
ATOM     20  C   UNL A   1      32.690  17.787  22.808  1.00  0.00     0.043 A 
ATOM     21  C   UNL A   1      34.588  18.066  24.258  1.00  0.00     0.159 A 
ATOM     22  C   UNL A   1      33.900  17.326  23.309  1.00  0.00     0.158 A 
ATOM     23  F   UNL A   1      35.753  17.620  24.749  1.00  0.00    -0.204 F 
ATOM     24  F   UNL A   1      34.399  16.164  22.865  1.00  0.00    -0.204 F 
ENDBRANCH  16  17
ENDBRANCH  14  16
ENDBRANCH   7  12
ENDBRANCH   4   7
ENDBRANCH   2   3
ENDBRANCH   1   2
BRANCH   1  25
ATOM     25  C   UNL A   1      36.282  22.435  26.007  1.00  0.00     0.118 C 
BRANCH  25  26
ATOM     26  N   UNL A   1      37.361  21.451  25.994  1.00  0.00    -0.352 N 
ATOM     27  C   UNL A   1      38.716  21.620  26.126  1.00  0.00     0.251 C 
ATOM     28  H   UNL A   1      37.069  20.519  25.872  1.00  0.00     0.163 HD
ATOM     29  O   UNL A   1      39.467  20.692  25.825  1.00  0.00    -0.269 OA
BRANCH  27  30
ATOM     30  C   UNL A   1      39.263  22.904  26.608  1.00  0.00     0.039 A 
ATOM     31  C   UNL A   1      40.281  22.897  27.563  1.00  0.00     0.014 A 
ATOM     32  C   UNL A   1      38.760  24.114  26.128  1.00  0.00     0.014 A 
ATOM     33  C   UNL A   1      40.834  24.107  27.988  1.00  0.00     0.010 A 
ATOM     34  C   UNL A   1      39.386  25.306  26.464  1.00  0.00     0.010 A 
ATOM     35  C   UNL A   1      40.417  25.318  27.413  1.00  0.00    -0.014 A 
BRANCH  35  36
ATOM     36  C   UNL A   1      41.018  26.615  27.810  1.00  0.00     0.031 A 
ATOM     37  C   UNL A   1      42.461  26.901  27.492  1.00  0.00     0.074 A 
ATOM     38  C   UNL A   1      40.286  27.502  28.512  1.00  0.00     0.049 A 
ATOM     39  N   UNL A   1      43.195  27.933  27.821  1.00  0.00    -0.248 NA
ATOM     40  C   UNL A   1      43.184  25.867  26.736  1.00  0.00     0.031 C 
ATOM     41  C   UNL A   1      38.890  27.315  28.915  1.00  0.00     0.029 A 
ATOM     42  N   UNL A   1      40.612  28.736  29.013  1.00  0.00    -0.354 N 
ATOM     43  C   UNL A   1      44.467  27.663  27.327  1.00  0.00     0.074 A 
ATOM     44  C   UNL A   1      44.421  26.335  26.755  1.00  0.00     0.031 C 
ATOM     45  C   UNL A   1      38.469  28.412  29.562  1.00  0.00     0.029 A 
ATOM     46  C   UNL A   1      39.575  29.357  29.670  1.00  0.00     0.049 A 
ATOM     47  H   UNL A   1      41.503  29.141  28.911  1.00  0.00     0.167 HD
ATOM     48  C   UNL A   1      45.563  28.462  27.321  1.00  0.00     0.034 A 
ATOM     49  C   UNL A   1      39.527  30.548  30.297  1.00  0.00     0.034 A 
ATOM     50  C   UNL A   1      45.582  29.786  27.894  1.00  0.00     0.049 A 
ATOM     51  C   UNL A   1      40.766  31.406  30.315  1.00  0.00     0.074 A 
ATOM     52  C   UNL A   1      46.616  30.706  27.908  1.00  0.00     0.029 A 
ATOM     53  N   UNL A   1      44.517  30.377  28.564  1.00  0.00    -0.354 N 
ATOM     54  N   UNL A   1      41.951  31.160  29.802  1.00  0.00    -0.248 NA
ATOM     55  C   UNL A   1      40.658  32.705  30.988  1.00  0.00     0.031 C 
ATOM     56  C   UNL A   1      46.203  31.816  28.654  1.00  0.00     0.029 A 
ATOM     57  C   UNL A   1      44.881  31.632  29.026  1.00  0.00     0.049 A 
ATOM     58  H   UNL A   1      43.633  29.964  28.692  1.00  0.00     0.167 HD
ATOM     59  C   UNL A   1      42.719  32.292  30.061  1.00  0.00     0.074 A 
ATOM     60  C   UNL A   1      41.857  33.222  30.765  1.00  0.00     0.031 C 
ATOM     61  C   UNL A   1      44.014  32.544  29.740  1.00  0.00     0.034 A 
BRANCH  48  62
ATOM     62  C   UNL A   1      46.824  27.901  26.703  1.00  0.00     0.023 A 
ATOM     63  C   UNL A   1      47.144  28.120  25.350  1.00  0.00     0.031 A 
ATOM     64  C   UNL A   1      47.691  27.087  27.455  1.00  0.00     0.131 A 
ATOM     65  C   UNL A   1      48.230  27.449  24.767  1.00  0.00     0.055 A 
ATOM     66  C   UNL A   1      48.829  26.504  26.892  1.00  0.00     0.041 A 
ATOM     67  F   UNL A   1      47.433  26.820  28.744  1.00  0.00    -0.206 F 
ATOM     68  C   UNL A   1      49.092  26.666  25.534  1.00  0.00     0.022 A 
BRANCH  65  69
ATOM     69  S   UNL A   1      48.380  27.462  22.958  1.00  0.00     0.124 S 
ATOM     70  O   UNL A   1      48.384  26.034  22.652  1.00  0.00    -0.237 OA
ATOM     71  O   UNL A   1      47.192  28.201  22.549  1.00  0.00    -0.237 OA
ATOM     72  O   UNL A   1      49.651  28.144  22.725  1.00  0.00    -0.744 OA
ENDBRANCH  65  69
ENDBRANCH  48  62
BRANCH  49  73
ATOM     73  C   UNL A   1      38.266  31.005  30.946  1.00  0.00     0.023 A 
ATOM     74  C   UNL A   1      37.275  31.671  30.207  1.00  0.00     0.031 A 
ATOM     75  C   UNL A   1      38.038  30.802  32.319  1.00  0.00     0.131 A 
ATOM     76  C   UNL A   1      36.122  32.145  30.850  1.00  0.00     0.055 A 
ATOM     77  C   UNL A   1      36.865  31.226  32.943  1.00  0.00     0.041 A 
ATOM     78  F   UNL A   1      38.950  30.164  33.071  1.00  0.00    -0.206 F 
ATOM     79  C   UNL A   1      35.902  31.913  32.210  1.00  0.00     0.022 A 
BRANCH  76  80
ATOM     80  S   UNL A   1      34.941  33.137  29.896  1.00  0.00     0.124 S 
ATOM     81  O   UNL A   1      34.407  32.149  28.965  1.00  0.00    -0.237 OA
ATOM     82  O   UNL A   1      34.027  33.602  30.934  1.00  0.00    -0.237 OA
ATOM     83  O   UNL A   1      35.777  34.174  29.295  1.00  0.00    -0.744 OA
ENDBRANCH  76  80
ENDBRANCH  49  73
BRANCH  61  84
ATOM     84  C   UNL A   1      44.560  33.904  30.106  1.00  0.00     0.023 A 
ATOM     85  C   UNL A   1      44.435  35.011  29.249  1.00  0.00     0.031 A 
ATOM     86  C   UNL A   1      45.225  34.089  31.331  1.00  0.00     0.131 A 
ATOM     87  C   UNL A   1      45.022  36.236  29.600  1.00  0.00     0.055 A 
ATOM     88  C   UNL A   1      45.745  35.328  31.707  1.00  0.00     0.041 A 
ATOM     89  F   UNL A   1      45.380  33.066  32.187  1.00  0.00    -0.206 F 
ATOM     90  C   UNL A   1      45.657  36.407  30.832  1.00  0.00     0.022 A 
BRANCH  87  91
ATOM     91  S   UNL A   1      45.040  37.576  28.378  1.00  0.00     0.124 S 
ATOM     92  O   UNL A   1      43.703  38.143  28.533  1.00  0.00    -0.237 OA
ATOM     93  O   UNL A   1      46.143  38.409  28.843  1.00  0.00    -0.237 OA
ATOM     94  O   UNL A   1      45.275  36.884  27.113  1.00  0.00    -0.744 OA
ENDBRANCH  87  91
ENDBRANCH  61  84
ENDBRANCH  35  36
ENDBRANCH  27  30
ENDBRANCH  25  26
ENDBRANCH   1  25
TORSDOF 16
ENDMDL
MODEL 3
REMARK VINA RESULT:     -12.3      6.712     11.740
REMARK SMILES O=C(Cc1ccc(F)c(F)c1)NC1(C(=O)NCCCNC(=O)c2ccc(-c3c4nc(c(-c5cc(S(=O)(=O)[O-])ccc5F)c5ccc([nH]5)c(-c5cc(S(=O)(=O)[O-])ccc5F)c5nc(c(-c6cc(S(=O)(=O)[O-])ccc6F)c6ccc3[nH]6)C=C5)C=C4)cc2)CCCC1
REMARK SMILES IDX 18 1 17 2 16 3 14 4 15 5 13 7 86 8 89 9 87 10 88 11 12 12
REMARK SMILES IDX 1 13 2 14 3 16 4 17 5 18 11 19 6 20 9 21 7 22 10 23 8 24
REMARK SMILES IDX 19 25 20 26 21 27 22 29 23 30 24 31 85 32 25 33 84 34 26 35
REMARK SMILES IDX 27 36 28 37 78 38 29 39 83 40 77 41 79 42 30 43 82 44 76 45
REMARK SMILES IDX 75 46 31 48 63 49 43 50 62 51 44 52 47 53 61 54 80 55 45 56
REMARK SMILES IDX 46 57 60 59 81 60 48 61 32 62 33 63 41 64 34 65 40 66 42 67
REMARK SMILES IDX 39 68 35 69 36 70 37 71 38 72 64 73 65 74 73 75 66 76 72 77
REMARK SMILES IDX 74 78 71 79 67 80 68 81 69 82 70 83 49 84 50 85 58 86 51 87
REMARK SMILES IDX 57 88 59 89 56 90 52 91 53 92 54 93 55 94
REMARK H PARENT 16 6 12 15 20 28 79 47 47 58
REMARK Flexibility Score: inf
ROOT
ATOM      1  C   UNL A   1      36.084  21.399  25.532  1.00  0.00     0.042 C 
ENDROOT
BRANCH   1   2
ATOM      2  C   UNL A   1      35.922  22.703  26.293  1.00  0.00     0.117 C 
BRANCH   2   3
ATOM      3  N   UNL A   1      34.866  22.641  27.277  1.00  0.00    -0.354 N 
ATOM      4  C   UNL A   1      33.590  23.101  27.250  1.00  0.00     0.245 C 
ATOM      5  O   UNL A   1      32.870  22.702  28.179  1.00  0.00    -0.272 OA
ATOM      6  H   UNL A   1      35.117  22.186  28.113  1.00  0.00     0.163 HD
BRANCH   4   7
ATOM      7  C   UNL A   1      32.998  23.985  26.097  1.00  0.00     0.119 C 
ATOM      8  C   UNL A   1      33.995  25.062  25.620  1.00  0.00     0.038 C 
ATOM      9  C   UNL A   1      31.705  24.748  26.418  1.00  0.00     0.038 C 
ATOM     10  C   UNL A   1      33.388  26.437  25.885  1.00  0.00     0.003 C 
ATOM     11  C   UNL A   1      32.032  26.229  26.533  1.00  0.00     0.003 C 
BRANCH   7  12
ATOM     12  N   UNL A   1      32.843  23.021  24.980  1.00  0.00    -0.341 N 
ATOM     13  O   UNL A   1      30.956  21.864  25.623  1.00  0.00    -0.275 OA
ATOM     14  C   UNL A   1      31.865  22.065  24.825  1.00  0.00     0.225 C 
ATOM     15  H   UNL A   1      33.519  23.070  24.265  1.00  0.00     0.164 HD
BRANCH  14  16
ATOM     16  C   UNL A   1      32.015  21.215  23.572  1.00  0.00     0.135 C 
BRANCH  16  17
ATOM     17  C   UNL A   1      32.437  19.762  23.738  1.00  0.00    -0.036 A 
ATOM     18  C   UNL A   1      32.488  18.961  22.581  1.00  0.00     0.007 A 
ATOM     19  C   UNL A   1      32.773  19.169  24.965  1.00  0.00     0.046 A 
ATOM     20  C   UNL A   1      32.822  17.603  22.657  1.00  0.00     0.043 A 
ATOM     21  C   UNL A   1      33.069  17.810  25.039  1.00  0.00     0.159 A 
ATOM     22  C   UNL A   1      33.092  17.032  23.893  1.00  0.00     0.158 A 
ATOM     23  F   UNL A   1      33.322  17.260  26.235  1.00  0.00    -0.204 F 
ATOM     24  F   UNL A   1      33.380  15.726  23.968  1.00  0.00    -0.204 F 
ENDBRANCH  16  17
ENDBRANCH  14  16
ENDBRANCH   7  12
ENDBRANCH   4   7
ENDBRANCH   2   3
ENDBRANCH   1   2
BRANCH   1  25
ATOM     25  C   UNL A   1      37.438  21.293  24.847  1.00  0.00     0.118 C 
BRANCH  25  26
ATOM     26  N   UNL A   1      38.270  20.254  25.448  1.00  0.00    -0.352 N 
ATOM     27  C   UNL A   1      39.499  20.344  26.051  1.00  0.00     0.251 C 
ATOM     28  H   UNL A   1      37.889  19.348  25.416  1.00  0.00     0.163 HD
ATOM     29  O   UNL A   1      40.141  19.314  26.256  1.00  0.00    -0.269 OA
BRANCH  27  30
ATOM     30  C   UNL A   1      40.046  21.660  26.436  1.00  0.00     0.039 A 
ATOM     31  C   UNL A   1      41.097  21.722  27.353  1.00  0.00     0.014 A 
ATOM     32  C   UNL A   1      39.512  22.833  25.900  1.00  0.00     0.014 A 
ATOM     33  C   UNL A   1      41.648  22.961  27.684  1.00  0.00     0.010 A 
ATOM     34  C   UNL A   1      40.135  24.050  26.141  1.00  0.00     0.010 A 
ATOM     35  C   UNL A   1      41.198  24.130  27.051  1.00  0.00    -0.014 A 
BRANCH  35  36
ATOM     36  C   UNL A   1      41.795  25.456  27.347  1.00  0.00     0.031 A 
ATOM     37  C   UNL A   1      41.023  26.460  28.162  1.00  0.00     0.074 A 
ATOM     38  C   UNL A   1      42.997  25.777  26.830  1.00  0.00     0.049 A 
ATOM     39  N   UNL A   1      41.329  27.695  28.462  1.00  0.00    -0.248 NA
ATOM     40  C   UNL A   1      39.714  26.024  28.671  1.00  0.00     0.031 C 
ATOM     41  C   UNL A   1      43.817  24.900  25.991  1.00  0.00     0.029 A 
ATOM     42  N   UNL A   1      43.738  26.926  26.931  1.00  0.00    -0.354 N 
ATOM     43  C   UNL A   1      40.244  28.188  29.179  1.00  0.00     0.074 A 
ATOM     44  C   UNL A   1      39.242  27.145  29.191  1.00  0.00     0.031 C 
ATOM     45  C   UNL A   1      44.964  25.527  25.690  1.00  0.00     0.029 A 
ATOM     46  C   UNL A   1      44.941  26.868  26.266  1.00  0.00     0.049 A 
ATOM     47  H   UNL A   1      43.438  27.718  27.433  1.00  0.00     0.167 HD
ATOM     48  C   UNL A   1      40.109  29.387  29.800  1.00  0.00     0.034 A 
ATOM     49  C   UNL A   1      45.909  27.794  26.129  1.00  0.00     0.034 A 
ATOM     50  C   UNL A   1      41.127  30.409  29.778  1.00  0.00     0.049 A 
ATOM     51  C   UNL A   1      45.724  29.135  26.792  1.00  0.00     0.074 A 
ATOM     52  C   UNL A   1      41.125  31.642  30.406  1.00  0.00     0.029 A 
ATOM     53  N   UNL A   1      42.327  30.321  29.083  1.00  0.00    -0.354 N 
ATOM     54  N   UNL A   1      44.713  29.573  27.508  1.00  0.00    -0.248 NA
ATOM     55  C   UNL A   1      46.816  30.103  26.635  1.00  0.00     0.031 C 
ATOM     56  C   UNL A   1      42.284  32.329  30.025  1.00  0.00     0.029 A 
ATOM     57  C   UNL A   1      43.056  31.490  29.237  1.00  0.00     0.049 A 
ATOM     58  H   UNL A   1      42.618  29.541  28.557  1.00  0.00     0.167 HD
ATOM     59  C   UNL A   1      45.065  30.856  27.918  1.00  0.00     0.074 A 
ATOM     60  C   UNL A   1      46.386  31.113  27.376  1.00  0.00     0.031 C 
ATOM     61  C   UNL A   1      44.367  31.738  28.678  1.00  0.00     0.034 A 
BRANCH  48  62
ATOM     62  C   UNL A   1      38.805  29.650  30.518  1.00  0.00     0.023 A 
ATOM     63  C   UNL A   1      37.796  30.448  29.947  1.00  0.00     0.031 A 
ATOM     64  C   UNL A   1      38.586  29.150  31.814  1.00  0.00     0.131 A 
ATOM     65  C   UNL A   1      36.672  30.809  30.706  1.00  0.00     0.055 A 
ATOM     66  C   UNL A   1      37.417  29.431  32.526  1.00  0.00     0.041 A 
ATOM     67  F   UNL A   1      39.517  28.402  32.426  1.00  0.00    -0.206 F 
ATOM     68  C   UNL A   1      36.461  30.284  31.981  1.00  0.00     0.022 A 
BRANCH  65  69
ATOM     69  S   UNL A   1      35.594  32.127  30.076  1.00  0.00     0.124 S 
ATOM     70  O   UNL A   1      34.779  31.402  29.104  1.00  0.00    -0.237 OA
ATOM     71  O   UNL A   1      34.906  32.573  31.281  1.00  0.00    -0.237 OA
ATOM     72  O   UNL A   1      36.531  33.088  29.498  1.00  0.00    -0.744 OA
ENDBRANCH  65  69
ENDBRANCH  48  62
BRANCH  49  73
ATOM     73  C   UNL A   1      47.138  27.486  25.345  1.00  0.00     0.023 A 
ATOM     74  C   UNL A   1      47.228  27.820  23.985  1.00  0.00     0.031 A 
ATOM     75  C   UNL A   1      48.235  26.834  25.938  1.00  0.00     0.131 A 
ATOM     76  C   UNL A   1      48.372  27.467  23.251  1.00  0.00     0.055 A 
ATOM     77  C   UNL A   1      49.392  26.535  25.218  1.00  0.00     0.041 A 
ATOM     78  F   UNL A   1      48.203  26.498  27.238  1.00  0.00    -0.206 F 
ATOM     79  C   UNL A   1      49.461  26.841  23.862  1.00  0.00     0.022 A 
BRANCH  76  80
ATOM     80  S   UNL A   1      48.385  27.774  21.464  1.00  0.00     0.124 S 
ATOM     81  O   UNL A   1      47.021  28.234  21.231  1.00  0.00    -0.237 OA
ATOM     82  O   UNL A   1      49.433  28.781  21.338  1.00  0.00    -0.237 OA
ATOM     83  O   UNL A   1      48.709  26.467  20.897  1.00  0.00    -0.744 OA
ENDBRANCH  76  80
ENDBRANCH  49  73
BRANCH  61  84
ATOM     84  C   UNL A   1      45.044  33.047  29.009  1.00  0.00     0.023 A 
ATOM     85  C   UNL A   1      44.893  34.187  28.202  1.00  0.00     0.031 A 
ATOM     86  C   UNL A   1      45.864  33.147  30.148  1.00  0.00     0.131 A 
ATOM     87  C   UNL A   1      45.600  35.360  28.510  1.00  0.00     0.055 A 
ATOM     88  C   UNL A   1      46.508  34.337  30.488  1.00  0.00     0.041 A 
ATOM     89  F   UNL A   1      46.050  32.088  30.952  1.00  0.00    -0.206 F 
ATOM     90  C   UNL A   1      46.389  35.448  29.659  1.00  0.00     0.022 A 
BRANCH  87  91
ATOM     91  S   UNL A   1      45.561  36.736  27.330  1.00  0.00     0.124 S 
ATOM     92  O   UNL A   1      46.388  36.223  26.240  1.00  0.00    -0.237 OA
ATOM     93  O   UNL A   1      44.136  36.862  27.043  1.00  0.00    -0.237 OA
ATOM     94  O   UNL A   1      46.143  37.847  28.078  1.00  0.00    -0.744 OA
ENDBRANCH  87  91
ENDBRANCH  61  84
ENDBRANCH  35  36
ENDBRANCH  27  30
ENDBRANCH  25  26
ENDBRANCH   1  25
TORSDOF 16
ENDMDL
