MODEL 1
REMARK VINA RESULT:     -12.2      0.000      0.000
REMARK SMILES CC(C)(C)OC(=O)N1CCN(N[C@@H](C(=O)NCCCNC(=O)c2ccc(-c3c4nc(c(-c5cc(S(=O)(=O)[O-])ccc5F)c5ccc([nH]5)c(-c5cc(S(=O)(=O)[O-])ccc5F)c5nc(c(-c6cc(S(=O)(=O)[O-])ccc6F)c6ccc3[nH]6)C=C5)C=C4)cc2)c2ccccc2Cl)CC1
REMARK SMILES IDX 17 1 16 2 14 3 15 4 13 6 12 7 11 9 6 10 7 11 8 12 9 13 94 14
REMARK SMILES IDX 10 15 93 16 5 17 2 18 1 19 3 20 4 21 86 22 87 23 91 24 88 25
REMARK SMILES IDX 90 26 92 27 89 28 18 29 19 30 20 31 21 32 22 34 23 35 24 36
REMARK SMILES IDX 85 37 25 38 84 39 26 40 27 41 28 42 78 43 29 44 83 45 77 46
REMARK SMILES IDX 79 47 30 48 82 49 76 50 75 51 31 53 63 54 43 55 62 56 44 57
REMARK SMILES IDX 47 58 61 59 80 60 45 61 46 62 60 64 81 65 48 66 32 67 33 68
REMARK SMILES IDX 41 69 34 70 40 71 42 72 39 73 35 74 36 75 37 76 38 77 64 78
REMARK SMILES IDX 65 79 73 80 66 81 72 82 74 83 71 84 67 85 68 86 69 87 70 88
REMARK SMILES IDX 49 89 50 90 58 91 51 92 57 93 59 94 56 95 52 96 53 97 54 98
REMARK SMILES IDX 55 99
REMARK H PARENT 16 5 12 8 20 33 79 52 47 63
REMARK Flexibility Score: inf
ROOT
ATOM      1  C   UNL A   1      36.287  20.868  24.759  1.00  0.00     0.117 C 
ENDROOT
BRANCH   1   2
ATOM      2  N   UNL A   1      35.583  20.872  26.031  1.00  0.00    -0.354 N 
ATOM      3  C   UNL A   1      34.273  21.205  26.269  1.00  0.00     0.243 C 
ATOM      4  O   UNL A   1      34.052  21.727  27.367  1.00  0.00    -0.273 OA
ATOM      5  H   UNL A   1      36.110  20.600  26.817  1.00  0.00     0.163 HD
BRANCH   3   6
ATOM      6  C   UNL A   1      33.154  20.939  25.200  1.00  0.00     0.190 C 
BRANCH   6   7
ATOM      7  N   UNL A   1      31.805  21.174  25.829  1.00  0.00    -0.238 NA
ATOM      8  H   UNL A   1      31.238  20.333  25.719  1.00  0.00     0.143 HD
BRANCH   7   9
ATOM      9  N   UNL A   1      31.113  22.301  25.204  1.00  0.00    -0.240 NA
ATOM     10  C   UNL A   1      31.700  26.307  26.061  1.00  0.00     0.410 C 
ATOM     11  O   UNL A   1      31.142  26.844  27.004  1.00  0.00    -0.224 OA
ATOM     12  N   UNL A   1      32.005  24.961  26.046  1.00  0.00    -0.306 N 
ATOM     13  C   UNL A   1      31.342  24.083  26.989  1.00  0.00     0.140 C 
ATOM     14  C   UNL A   1      32.812  24.259  25.053  1.00  0.00     0.140 C 
ATOM     15  C   UNL A   1      30.418  23.150  26.203  1.00  0.00     0.124 C 
ATOM     16  C   UNL A   1      32.018  23.129  24.357  1.00  0.00     0.124 C 
BRANCH  10  17
ATOM     17  O   UNL A   1      32.040  26.937  24.907  1.00  0.00    -0.444 OA
BRANCH  17  18
ATOM     18  C   UNL A   1      31.023  27.229  23.908  1.00  0.00     0.106 C 
ATOM     19  C   UNL A   1      30.766  28.739  24.023  1.00  0.00     0.056 C 
ATOM     20  C   UNL A   1      29.740  26.471  24.257  1.00  0.00     0.056 C 
ATOM     21  C   UNL A   1      31.476  26.941  22.467  1.00  0.00     0.056 C 
ENDBRANCH  17  18
ENDBRANCH  10  17
ENDBRANCH   7   9
ENDBRANCH   6   7
BRANCH   6  22
ATOM     22  C   UNL A   1      33.174  19.532  24.551  1.00  0.00    -0.002 A 
ATOM     23  C   UNL A   1      33.727  18.401  25.188  1.00  0.00     0.007 A 
ATOM     24  C   UNL A   1      32.613  19.308  23.272  1.00  0.00     0.046 A 
ATOM     25  C   UNL A   1      33.697  17.126  24.606  1.00  0.00     0.000 A 
ATOM     26  C   UNL A   1      32.562  18.025  22.703  1.00  0.00     0.021 A 
ATOM     27  Cl  UNL A   1      31.995  20.576  22.275  1.00  0.00    -0.084 Cl
ATOM     28  C   UNL A   1      33.101  16.933  23.369  1.00  0.00     0.002 A 
ENDBRANCH   6  22
ENDBRANCH   3   6
ENDBRANCH   1   2
BRANCH   1  29
ATOM     29  C   UNL A   1      37.531  19.976  24.830  1.00  0.00     0.042 C 
BRANCH  29  30
ATOM     30  C   UNL A   1      38.642  20.510  25.725  1.00  0.00     0.118 C 
BRANCH  30  31
ATOM     31  N   UNL A   1      39.698  19.534  25.933  1.00  0.00    -0.352 N 
ATOM     32  C   UNL A   1      41.034  19.718  26.196  1.00  0.00     0.251 C 
ATOM     33  H   UNL A   1      39.412  18.593  25.877  1.00  0.00     0.163 HD
ATOM     34  O   UNL A   1      41.788  18.750  26.125  1.00  0.00    -0.269 OA
BRANCH  32  35
ATOM     35  C   UNL A   1      41.576  21.057  26.538  1.00  0.00     0.039 A 
ATOM     36  C   UNL A   1      41.840  21.958  25.500  1.00  0.00     0.014 A 
ATOM     37  C   UNL A   1      41.869  21.420  27.855  1.00  0.00     0.014 A 
ATOM     38  C   UNL A   1      42.336  23.234  25.787  1.00  0.00     0.010 A 
ATOM     39  C   UNL A   1      42.298  22.716  28.146  1.00  0.00     0.010 A 
ATOM     40  C   UNL A   1      42.536  23.637  27.116  1.00  0.00    -0.014 A 
BRANCH  40  41
ATOM     41  C   UNL A   1      42.990  25.017  27.447  1.00  0.00     0.031 A 
ATOM     42  C   UNL A   1      42.046  25.990  28.100  1.00  0.00     0.074 A 
ATOM     43  C   UNL A   1      44.231  25.410  27.099  1.00  0.00     0.049 A 
ATOM     44  N   UNL A   1      42.224  27.256  28.381  1.00  0.00    -0.248 NA
ATOM     45  C   UNL A   1      40.714  25.478  28.457  1.00  0.00     0.031 C 
ATOM     46  C   UNL A   1      45.228  24.567  26.435  1.00  0.00     0.029 A 
ATOM     47  N   UNL A   1      44.864  26.620  27.241  1.00  0.00    -0.354 N 
ATOM     48  C   UNL A   1      41.023  27.698  28.928  1.00  0.00     0.074 A 
ATOM     49  C   UNL A   1      40.111  26.574  28.892  1.00  0.00     0.031 C 
ATOM     50  C   UNL A   1      46.353  25.278  26.250  1.00  0.00     0.029 A 
ATOM     51  C   UNL A   1      46.143  26.639  26.734  1.00  0.00     0.049 A 
ATOM     52  H   UNL A   1      44.443  27.401  27.668  1.00  0.00     0.167 HD
ATOM     53  C   UNL A   1      40.718  28.921  29.431  1.00  0.00     0.034 A 
ATOM     54  C   UNL A   1      47.040  27.642  26.650  1.00  0.00     0.034 A 
ATOM     55  C   UNL A   1      41.647  30.025  29.478  1.00  0.00     0.049 A 
ATOM     56  C   UNL A   1      46.665  29.001  27.184  1.00  0.00     0.074 A 
ATOM     57  C   UNL A   1      41.467  31.280  30.033  1.00  0.00     0.029 A 
ATOM     58  N   UNL A   1      42.927  30.011  28.939  1.00  0.00    -0.354 N 
ATOM     59  N   UNL A   1      45.543  29.386  27.747  1.00  0.00    -0.248 NA
ATOM     60  C   UNL A   1      47.679  30.057  27.075  1.00  0.00     0.031 C 
ATOM     61  C   UNL A   1      42.608  32.045  29.769  1.00  0.00     0.029 A 
ATOM     62  C   UNL A   1      43.532  31.247  29.113  1.00  0.00     0.049 A 
ATOM     63  H   UNL A   1      43.345  29.236  28.497  1.00  0.00     0.167 HD
ATOM     64  C   UNL A   1      45.728  30.724  28.082  1.00  0.00     0.074 A 
ATOM     65  C   UNL A   1      47.073  31.073  27.672  1.00  0.00     0.031 C 
ATOM     66  C   UNL A   1      44.867  31.586  28.680  1.00  0.00     0.034 A 
BRANCH  53  67
ATOM     67  C   UNL A   1      39.311  29.135  29.939  1.00  0.00     0.023 A 
ATOM     68  C   UNL A   1      38.325  29.758  29.153  1.00  0.00     0.031 A 
ATOM     69  C   UNL A   1      38.954  28.729  31.237  1.00  0.00     0.131 A 
ATOM     70  C   UNL A   1      37.059  30.027  29.698  1.00  0.00     0.055 A 
ATOM     71  C   UNL A   1      37.669  28.926  31.746  1.00  0.00     0.041 A 
ATOM     72  F   UNL A   1      39.856  28.145  32.042  1.00  0.00    -0.206 F 
ATOM     73  C   UNL A   1      36.716  29.594  30.980  1.00  0.00     0.022 A 
BRANCH  70  74
ATOM     74  S   UNL A   1      35.918  31.079  28.761  1.00  0.00     0.124 S 
ATOM     75  O   UNL A   1      36.842  31.985  28.081  1.00  0.00    -0.237 OA
ATOM     76  O   UNL A   1      35.227  30.117  27.911  1.00  0.00    -0.237 OA
ATOM     77  O   UNL A   1      35.096  31.702  29.796  1.00  0.00    -0.744 OA
ENDBRANCH  70  74
ENDBRANCH  53  67
BRANCH  54  78
ATOM     78  C   UNL A   1      48.374  27.412  26.026  1.00  0.00     0.023 A 
ATOM     79  C   UNL A   1      48.560  27.577  24.644  1.00  0.00     0.031 A 
ATOM     80  C   UNL A   1      49.473  26.986  26.793  1.00  0.00     0.131 A 
ATOM     81  C   UNL A   1      49.804  27.281  24.065  1.00  0.00     0.055 A 
ATOM     82  C   UNL A   1      50.721  26.739  26.220  1.00  0.00     0.041 A 
ATOM     83  F   UNL A   1      49.350  26.816  28.119  1.00  0.00    -0.206 F 
ATOM     84  C   UNL A   1      50.889  26.875  24.846  1.00  0.00     0.022 A 
BRANCH  81  85
ATOM     85  S   UNL A   1      49.962  27.360  22.260  1.00  0.00     0.124 S 
ATOM     86  O   UNL A   1      51.275  26.760  22.051  1.00  0.00    -0.237 OA
ATOM     87  O   UNL A   1      48.817  26.570  21.821  1.00  0.00    -0.237 OA
ATOM     88  O   UNL A   1      49.877  28.790  21.974  1.00  0.00    -0.744 OA
ENDBRANCH  81  85
ENDBRANCH  54  78
BRANCH  66  89
ATOM     89  C   UNL A   1      45.375  32.980  28.953  1.00  0.00     0.023 A 
ATOM     90  C   UNL A   1      45.280  34.001  27.991  1.00  0.00     0.031 A 
ATOM     91  C   UNL A   1      45.971  33.287  30.188  1.00  0.00     0.131 A 
ATOM     92  C   UNL A   1      45.820  35.268  28.262  1.00  0.00     0.055 A 
ATOM     93  C   UNL A   1      46.456  34.564  30.473  1.00  0.00     0.041 A 
ATOM     94  F   UNL A   1      46.090  32.349  31.142  1.00  0.00    -0.206 F 
ATOM     95  C   UNL A   1      46.392  35.560  29.503  1.00  0.00     0.022 A 
BRANCH  92  96
ATOM     96  S   UNL A   1      45.839  36.508  26.938  1.00  0.00     0.124 S 
ATOM     97  O   UNL A   1      46.947  37.367  27.344  1.00  0.00    -0.237 OA
ATOM     98  O   UNL A   1      46.065  35.695  25.749  1.00  0.00    -0.237 OA
ATOM     99  O   UNL A   1      44.514  37.122  27.025  1.00  0.00    -0.744 OA
ENDBRANCH  92  96
ENDBRANCH  66  89
ENDBRANCH  40  41
ENDBRANCH  32  35
ENDBRANCH  30  31
ENDBRANCH  29  30
ENDBRANCH   1  29
TORSDOF 18
ENDMDL
MODEL 2
REMARK VINA RESULT:     -12.0      2.814      7.881
REMARK SMILES CC(C)(C)OC(=O)N1CCN(N[C@@H](C(=O)NCCCNC(=O)c2ccc(-c3c4nc(c(-c5cc(S(=O)(=O)[O-])ccc5F)c5ccc([nH]5)c(-c5cc(S(=O)(=O)[O-])ccc5F)c5nc(c(-c6cc(S(=O)(=O)[O-])ccc6F)c6ccc3[nH]6)C=C5)C=C4)cc2)c2ccccc2Cl)CC1
REMARK SMILES IDX 17 1 16 2 14 3 15 4 13 6 12 7 11 9 6 10 7 11 8 12 9 13 94 14
REMARK SMILES IDX 10 15 93 16 5 17 2 18 1 19 3 20 4 21 86 22 87 23 91 24 88 25
REMARK SMILES IDX 90 26 92 27 89 28 18 29 19 30 20 31 21 32 22 34 23 35 24 36
REMARK SMILES IDX 85 37 25 38 84 39 26 40 27 41 28 42 78 43 29 44 83 45 77 46
REMARK SMILES IDX 79 47 30 48 82 49 76 50 75 51 31 53 63 54 43 55 62 56 44 57
REMARK SMILES IDX 47 58 61 59 80 60 45 61 46 62 60 64 81 65 48 66 32 67 33 68
REMARK SMILES IDX 41 69 34 70 40 71 42 72 39 73 35 74 36 75 37 76 38 77 64 78
REMARK SMILES IDX 65 79 73 80 66 81 72 82 74 83 71 84 67 85 68 86 69 87 70 88
REMARK SMILES IDX 49 89 50 90 58 91 51 92 57 93 59 94 56 95 52 96 53 97 54 98
REMARK SMILES IDX 55 99
REMARK H PARENT 16 5 12 8 20 33 79 52 47 63
REMARK Flexibility Score: inf
ROOT
ATOM      1  C   UNL A   1      35.787  22.071  24.308  1.00  0.00     0.117 C 
ENDROOT
BRANCH   1   2
ATOM      2  N   UNL A   1      35.369  21.498  25.577  1.00  0.00    -0.354 N 
ATOM      3  C   UNL A   1      34.090  21.316  26.040  1.00  0.00     0.243 C 
ATOM      4  O   UNL A   1      33.952  21.415  27.264  1.00  0.00    -0.273 OA
ATOM      5  H   UNL A   1      36.092  21.203  26.176  1.00  0.00     0.163 HD
BRANCH   3   6
ATOM      6  C   UNL A   1      32.901  21.014  25.061  1.00  0.00     0.190 C 
BRANCH   6   7
ATOM      7  N   UNL A   1      31.600  21.137  25.811  1.00  0.00    -0.238 NA
ATOM      8  H   UNL A   1      31.051  20.290  25.663  1.00  0.00     0.143 HD
BRANCH   7   9
ATOM      9  N   UNL A   1      30.826  22.292  25.355  1.00  0.00    -0.240 NA
ATOM     10  C   UNL A   1      31.626  26.261  26.212  1.00  0.00     0.410 C 
ATOM     11  O   UNL A   1      31.255  26.774  27.256  1.00  0.00    -0.224 OA
ATOM     12  N   UNL A   1      31.900  24.913  26.102  1.00  0.00    -0.306 N 
ATOM     13  C   UNL A   1      31.402  24.012  27.123  1.00  0.00     0.140 C 
ATOM     14  C   UNL A   1      32.504  24.235  24.960  1.00  0.00     0.140 C 
ATOM     15  C   UNL A   1      30.336  23.116  26.488  1.00  0.00     0.124 C 
ATOM     16  C   UNL A   1      31.578  23.137  24.384  1.00  0.00     0.124 C 
BRANCH  10  17
ATOM     17  O   UNL A   1      31.765  26.924  25.036  1.00  0.00    -0.444 OA
BRANCH  17  18
ATOM     18  C   UNL A   1      32.826  27.908  24.875  1.00  0.00     0.106 C 
ATOM     19  C   UNL A   1      33.446  27.610  23.502  1.00  0.00     0.056 C 
ATOM     20  C   UNL A   1      33.881  27.696  25.962  1.00  0.00     0.056 C 
ATOM     21  C   UNL A   1      32.320  29.360  24.852  1.00  0.00     0.056 C 
ENDBRANCH  17  18
ENDBRANCH  10  17
ENDBRANCH   7   9
ENDBRANCH   6   7
BRANCH   6  22
ATOM     22  C   UNL A   1      32.952  19.635  24.356  1.00  0.00    -0.002 A 
ATOM     23  C   UNL A   1      33.463  18.476  24.976  1.00  0.00     0.007 A 
ATOM     24  C   UNL A   1      32.465  19.468  23.039  1.00  0.00     0.046 A 
ATOM     25  C   UNL A   1      33.462  17.225  24.341  1.00  0.00     0.000 A 
ATOM     26  C   UNL A   1      32.441  18.210  22.415  1.00  0.00     0.021 A 
ATOM     27  Cl  UNL A   1      31.910  20.780  22.062  1.00  0.00    -0.084 Cl
ATOM     28  C   UNL A   1      32.937  17.088  23.065  1.00  0.00     0.002 A 
ENDBRANCH   6  22
ENDBRANCH   3   6
ENDBRANCH   1   2
BRANCH   1  29
ATOM     29  C   UNL A   1      37.295  22.340  24.304  1.00  0.00     0.042 C 
BRANCH  29  30
ATOM     30  C   UNL A   1      37.893  22.610  25.679  1.00  0.00     0.118 C 
BRANCH  30  31
ATOM     31  N   UNL A   1      39.109  21.849  25.910  1.00  0.00    -0.352 N 
ATOM     32  C   UNL A   1      40.361  22.273  26.285  1.00  0.00     0.251 C 
ATOM     33  H   UNL A   1      39.023  20.877  25.776  1.00  0.00     0.163 HD
ATOM     34  O   UNL A   1      41.298  21.481  26.216  1.00  0.00    -0.269 OA
BRANCH  32  35
ATOM     35  C   UNL A   1      40.599  23.665  26.746  1.00  0.00     0.039 A 
ATOM     36  C   UNL A   1      40.948  23.876  28.084  1.00  0.00     0.014 A 
ATOM     37  C   UNL A   1      40.440  24.761  25.894  1.00  0.00     0.014 A 
ATOM     38  C   UNL A   1      41.195  25.172  28.549  1.00  0.00     0.010 A 
ATOM     39  C   UNL A   1      40.754  26.045  26.340  1.00  0.00     0.010 A 
ATOM     40  C   UNL A   1      41.135  26.266  27.672  1.00  0.00    -0.014 A 
BRANCH  40  41
ATOM     41  C   UNL A   1      41.469  27.644  28.127  1.00  0.00     0.031 A 
ATOM     42  C   UNL A   1      42.902  28.104  28.165  1.00  0.00     0.074 A 
ATOM     43  C   UNL A   1      40.487  28.455  28.568  1.00  0.00     0.049 A 
ATOM     44  N   UNL A   1      43.400  29.228  28.615  1.00  0.00    -0.248 NA
ATOM     45  C   UNL A   1      43.910  27.162  27.657  1.00  0.00     0.031 C 
ATOM     46  C   UNL A   1      39.064  28.113  28.607  1.00  0.00     0.029 A 
ATOM     47  N   UNL A   1      40.534  29.729  29.079  1.00  0.00    -0.354 N 
ATOM     48  C   UNL A   1      44.779  29.121  28.464  1.00  0.00     0.074 A 
ATOM     49  C   UNL A   1      45.038  27.802  27.926  1.00  0.00     0.031 C 
ATOM     50  C   UNL A   1      38.373  29.158  29.092  1.00  0.00     0.029 A 
ATOM     51  C   UNL A   1      39.304  30.224  29.445  1.00  0.00     0.049 A 
ATOM     52  H   UNL A   1      41.371  30.240  29.173  1.00  0.00     0.167 HD
ATOM     53  C   UNL A   1      45.737  30.045  28.731  1.00  0.00     0.034 A 
ATOM     54  C   UNL A   1      38.965  31.397  30.018  1.00  0.00     0.034 A 
ATOM     55  C   UNL A   1      45.458  31.364  29.248  1.00  0.00     0.049 A 
ATOM     56  C   UNL A   1      40.050  32.393  30.337  1.00  0.00     0.074 A 
ATOM     57  C   UNL A   1      46.343  32.403  29.482  1.00  0.00     0.029 A 
ATOM     58  N   UNL A   1      44.202  31.824  29.623  1.00  0.00    -0.354 N 
ATOM     59  N   UNL A   1      41.344  32.296  30.137  1.00  0.00    -0.248 NA
ATOM     60  C   UNL A   1      39.627  33.657  30.953  1.00  0.00     0.031 C 
ATOM     61  C   UNL A   1      45.635  33.461  30.062  1.00  0.00     0.029 A 
ATOM     62  C   UNL A   1      44.295  33.113  30.123  1.00  0.00     0.049 A 
ATOM     63  H   UNL A   1      43.366  31.308  29.545  1.00  0.00     0.167 HD
ATOM     64  C   UNL A   1      41.886  33.499  30.581  1.00  0.00     0.074 A 
ATOM     65  C   UNL A   1      40.778  34.308  31.044  1.00  0.00     0.031 C 
ATOM     66  C   UNL A   1      43.183  33.901  30.600  1.00  0.00     0.034 A 
BRANCH  53  67
ATOM     67  C   UNL A   1      47.175  29.645  28.499  1.00  0.00     0.023 A 
ATOM     68  C   UNL A   1      47.952  29.050  29.508  1.00  0.00     0.031 A 
ATOM     69  C   UNL A   1      47.787  29.884  27.255  1.00  0.00     0.131 A 
ATOM     70  C   UNL A   1      49.313  28.785  29.283  1.00  0.00     0.055 A 
ATOM     71  C   UNL A   1      49.119  29.544  27.010  1.00  0.00     0.041 A 
ATOM     72  F   UNL A   1      47.103  30.466  26.258  1.00  0.00    -0.206 F 
ATOM     73  C   UNL A   1      49.896  29.005  28.033  1.00  0.00     0.022 A 
BRANCH  70  74
ATOM     74  S   UNL A   1      50.343  28.286  30.689  1.00  0.00     0.124 S 
ATOM     75  O   UNL A   1      49.723  29.027  31.786  1.00  0.00    -0.237 OA
ATOM     76  O   UNL A   1      50.164  26.839  30.714  1.00  0.00    -0.237 OA
ATOM     77  O   UNL A   1      51.679  28.744  30.315  1.00  0.00    -0.744 OA
ENDBRANCH  70  74
ENDBRANCH  53  67
BRANCH  54  78
ATOM     78  C   UNL A   1      37.541  31.694  30.343  1.00  0.00     0.023 A 
ATOM     79  C   UNL A   1      36.650  32.125  29.347  1.00  0.00     0.031 A 
ATOM     80  C   UNL A   1      37.057  31.589  31.659  1.00  0.00     0.131 A 
ATOM     81  C   UNL A   1      35.334  32.473  29.687  1.00  0.00     0.055 A 
ATOM     82  C   UNL A   1      35.733  31.889  31.984  1.00  0.00     0.041 A 
ATOM     83  F   UNL A   1      37.866  31.177  32.649  1.00  0.00    -0.206 F 
ATOM     84  C   UNL A   1      34.866  32.346  30.997  1.00  0.00     0.022 A 
BRANCH  81  85
ATOM     85  S   UNL A   1      34.259  33.169  28.402  1.00  0.00     0.124 S 
ATOM     86  O   UNL A   1      33.367  34.014  29.187  1.00  0.00    -0.237 OA
ATOM     87  O   UNL A   1      35.218  33.864  27.551  1.00  0.00    -0.237 OA
ATOM     88  O   UNL A   1      33.638  31.990  27.804  1.00  0.00    -0.744 OA
ENDBRANCH  81  85
ENDBRANCH  54  78
BRANCH  66  89
ATOM     89  C   UNL A   1      43.459  35.294  31.109  1.00  0.00     0.023 A 
ATOM     90  C   UNL A   1      43.565  36.391  30.235  1.00  0.00     0.031 A 
ATOM     91  C   UNL A   1      43.629  35.525  32.485  1.00  0.00     0.131 A 
ATOM     92  C   UNL A   1      43.885  37.659  30.743  1.00  0.00     0.055 A 
ATOM     93  C   UNL A   1      43.891  36.799  32.990  1.00  0.00     0.041 A 
ATOM     94  F   UNL A   1      43.541  34.513  33.363  1.00  0.00    -0.206 F 
ATOM     95  C   UNL A   1      44.032  37.873  32.116  1.00  0.00     0.022 A 
BRANCH  92  96
ATOM     96  S   UNL A   1      44.187  39.014  29.575  1.00  0.00     0.124 S 
ATOM     97  O   UNL A   1      43.053  39.896  29.834  1.00  0.00    -0.237 OA
ATOM     98  O   UNL A   1      45.491  39.510  30.001  1.00  0.00    -0.237 OA
ATOM     99  O   UNL A   1      44.172  38.352  28.271  1.00  0.00    -0.744 OA
ENDBRANCH  92  96
ENDBRANCH  66  89
ENDBRANCH  40  41
ENDBRANCH  32  35
ENDBRANCH  30  31
ENDBRANCH  29  30
ENDBRANCH   1  29
TORSDOF 18
ENDMDL
MODEL 3
REMARK VINA RESULT:     -11.9      1.237      7.388
REMARK SMILES CC(C)(C)OC(=O)N1CCN(N[C@@H](C(=O)NCCCNC(=O)c2ccc(-c3c4nc(c(-c5cc(S(=O)(=O)[O-])ccc5F)c5ccc([nH]5)c(-c5cc(S(=O)(=O)[O-])ccc5F)c5nc(c(-c6cc(S(=O)(=O)[O-])ccc6F)c6ccc3[nH]6)C=C5)C=C4)cc2)c2ccccc2Cl)CC1
REMARK SMILES IDX 17 1 16 2 14 3 15 4 13 6 12 7 11 9 6 10 7 11 8 12 9 13 94 14
REMARK SMILES IDX 10 15 93 16 5 17 2 18 1 19 3 20 4 21 86 22 87 23 91 24 88 25
REMARK SMILES IDX 90 26 92 27 89 28 18 29 19 30 20 31 21 32 22 34 23 35 24 36
REMARK SMILES IDX 85 37 25 38 84 39 26 40 27 41 28 42 78 43 29 44 83 45 77 46
REMARK SMILES IDX 79 47 30 48 82 49 76 50 75 51 31 53 63 54 43 55 62 56 44 57
REMARK SMILES IDX 47 58 61 59 80 60 45 61 46 62 60 64 81 65 48 66 32 67 33 68
REMARK SMILES IDX 41 69 34 70 40 71 42 72 39 73 35 74 36 75 37 76 38 77 64 78
REMARK SMILES IDX 65 79 73 80 66 81 72 82 74 83 71 84 67 85 68 86 69 87 70 88
REMARK SMILES IDX 49 89 50 90 58 91 51 92 57 93 59 94 56 95 52 96 53 97 54 98
REMARK SMILES IDX 55 99
REMARK H PARENT 16 5 12 8 20 33 79 52 47 63
REMARK Flexibility Score: inf
ROOT
ATOM      1  C   UNL A   1      36.218  21.437  24.820  1.00  0.00     0.117 C 
ENDROOT
BRANCH   1   2
ATOM      2  N   UNL A   1      35.497  21.096  26.035  1.00  0.00    -0.354 N 
ATOM      3  C   UNL A   1      34.148  21.193  26.271  1.00  0.00     0.243 C 
ATOM      4  O   UNL A   1      33.833  21.455  27.437  1.00  0.00    -0.273 OA
ATOM      5  H   UNL A   1      36.041  20.751  26.779  1.00  0.00     0.163 HD
BRANCH   3   6
ATOM      6  C   UNL A   1      33.100  20.990  25.120  1.00  0.00     0.190 C 
BRANCH   6   7
ATOM      7  N   UNL A   1      31.715  21.215  25.668  1.00  0.00    -0.238 NA
ATOM      8  H   UNL A   1      31.131  20.412  25.434  1.00  0.00     0.143 HD
BRANCH   7   9
ATOM      9  N   UNL A   1      31.108  22.424  25.109  1.00  0.00    -0.240 NA
ATOM     10  C   UNL A   1      31.943  26.319  26.230  1.00  0.00     0.410 C 
ATOM     11  O   UNL A   1      31.406  26.831  27.199  1.00  0.00    -0.224 OA
ATOM     12  N   UNL A   1      32.159  24.960  26.132  1.00  0.00    -0.306 N 
ATOM     13  C   UNL A   1      31.425  24.069  27.008  1.00  0.00     0.140 C 
ATOM     14  C   UNL A   1      32.935  24.270  25.105  1.00  0.00     0.140 C 
ATOM     15  C   UNL A   1      30.454  23.252  26.152  1.00  0.00     0.124 C 
ATOM     16  C   UNL A   1      32.079  23.242  24.328  1.00  0.00     0.124 C 
BRANCH  10  17
ATOM     17  O   UNL A   1      32.343  26.997  25.124  1.00  0.00    -0.444 OA
BRANCH  17  18
ATOM     18  C   UNL A   1      31.358  27.476  24.166  1.00  0.00     0.106 C 
ATOM     19  C   UNL A   1      31.977  27.215  22.785  1.00  0.00     0.056 C 
ATOM     20  C   UNL A   1      31.160  28.982  24.354  1.00  0.00     0.056 C 
ATOM     21  C   UNL A   1      30.021  26.718  24.228  1.00  0.00     0.056 C 
ENDBRANCH  17  18
ENDBRANCH  10  17
ENDBRANCH   7   9
ENDBRANCH   6   7
BRANCH   6  22
ATOM     22  C   UNL A   1      33.147  19.612  24.411  1.00  0.00    -0.002 A 
ATOM     23  C   UNL A   1      33.721  18.466  25.001  1.00  0.00     0.007 A 
ATOM     24  C   UNL A   1      32.593  19.433  23.122  1.00  0.00     0.046 A 
ATOM     25  C   UNL A   1      33.717  17.217  24.364  1.00  0.00     0.000 A 
ATOM     26  C   UNL A   1      32.567  18.176  22.499  1.00  0.00     0.021 A 
ATOM     27  Cl  UNL A   1      31.951  20.731  22.180  1.00  0.00    -0.084 Cl
ATOM     28  C   UNL A   1      33.126  17.066  23.119  1.00  0.00     0.002 A 
ENDBRANCH   6  22
ENDBRANCH   3   6
ENDBRANCH   1   2
BRANCH   1  29
ATOM     29  C   UNL A   1      37.592  20.760  24.798  1.00  0.00     0.042 C 
BRANCH  29  30
ATOM     30  C   UNL A   1      38.622  21.386  25.730  1.00  0.00     0.118 C 
BRANCH  30  31
ATOM     31  N   UNL A   1      39.690  20.461  26.072  1.00  0.00    -0.352 N 
ATOM     32  C   UNL A   1      40.977  20.709  26.482  1.00  0.00     0.251 C 
ATOM     33  H   UNL A   1      39.454  19.508  25.998  1.00  0.00     0.163 HD
ATOM     34  O   UNL A   1      41.777  19.777  26.512  1.00  0.00    -0.269 OA
BRANCH  32  35
ATOM     35  C   UNL A   1      41.416  22.076  26.864  1.00  0.00     0.039 A 
ATOM     36  C   UNL A   1      41.670  23.005  25.849  1.00  0.00     0.014 A 
ATOM     37  C   UNL A   1      41.624  22.438  28.197  1.00  0.00     0.014 A 
ATOM     38  C   UNL A   1      42.071  24.305  26.172  1.00  0.00     0.010 A 
ATOM     39  C   UNL A   1      41.955  23.755  28.521  1.00  0.00     0.010 A 
ATOM     40  C   UNL A   1      42.183  24.703  27.513  1.00  0.00    -0.014 A 
BRANCH  40  41
ATOM     41  C   UNL A   1      42.532  26.104  27.879  1.00  0.00     0.031 A 
ATOM     42  C   UNL A   1      43.955  26.583  27.775  1.00  0.00     0.074 A 
ATOM     43  C   UNL A   1      41.578  26.921  28.368  1.00  0.00     0.049 A 
ATOM     44  N   UNL A   1      44.471  27.732  28.134  1.00  0.00    -0.248 NA
ATOM     45  C   UNL A   1      44.932  25.633  27.223  1.00  0.00     0.031 C 
ATOM     46  C   UNL A   1      40.169  26.563  28.543  1.00  0.00     0.029 A 
ATOM     47  N   UNL A   1      41.647  28.216  28.819  1.00  0.00    -0.354 N 
ATOM     48  C   UNL A   1      45.834  27.636  27.869  1.00  0.00     0.074 A 
ATOM     49  C   UNL A   1      46.068  26.298  27.368  1.00  0.00     0.031 C 
ATOM     50  C   UNL A   1      39.504  27.619  29.041  1.00  0.00     0.029 A 
ATOM     51  C   UNL A   1      40.445  28.711  29.268  1.00  0.00     0.049 A 
ATOM     52  H   UNL A   1      42.481  28.741  28.819  1.00  0.00     0.167 HD
ATOM     53  C   UNL A   1      46.796  28.582  28.015  1.00  0.00     0.034 A 
ATOM     54  C   UNL A   1      40.137  29.903  29.818  1.00  0.00     0.034 A 
ATOM     55  C   UNL A   1      46.541  29.919  28.497  1.00  0.00     0.049 A 
ATOM     56  C   UNL A   1      41.229  30.926  30.000  1.00  0.00     0.074 A 
ATOM     57  C   UNL A   1      47.425  30.977  28.611  1.00  0.00     0.029 A 
ATOM     58  N   UNL A   1      45.314  30.378  28.958  1.00  0.00    -0.354 N 
ATOM     59  N   UNL A   1      42.503  30.837  29.695  1.00  0.00    -0.248 NA
ATOM     60  C   UNL A   1      40.839  32.210  30.597  1.00  0.00     0.031 C 
ATOM     61  C   UNL A   1      46.752  32.051  29.204  1.00  0.00     0.029 A 
ATOM     62  C   UNL A   1      45.428  31.689  29.394  1.00  0.00     0.049 A 
ATOM     63  H   UNL A   1      44.483  29.849  28.974  1.00  0.00     0.167 HD
ATOM     64  C   UNL A   1      43.061  32.065  30.040  1.00  0.00     0.074 A 
ATOM     65  C   UNL A   1      41.982  32.879  30.561  1.00  0.00     0.031 C 
ATOM     66  C   UNL A   1      44.347  32.483  29.931  1.00  0.00     0.034 A 
BRANCH  53  67
ATOM     67  C   UNL A   1      48.216  28.191  27.677  1.00  0.00     0.023 A 
ATOM     68  C   UNL A   1      48.740  28.345  26.381  1.00  0.00     0.031 A 
ATOM     69  C   UNL A   1      49.053  27.634  28.661  1.00  0.00     0.131 A 
ATOM     70  C   UNL A   1      50.030  27.876  26.085  1.00  0.00     0.055 A 
ATOM     71  C   UNL A   1      50.364  27.245  28.380  1.00  0.00     0.041 A 
ATOM     72  F   UNL A   1      48.605  27.446  29.912  1.00  0.00    -0.206 F 
ATOM     73  C   UNL A   1      50.855  27.350  27.081  1.00  0.00     0.022 A 
BRANCH  70  74
ATOM     74  S   UNL A   1      50.559  27.831  24.351  1.00  0.00     0.124 S 
ATOM     75  O   UNL A   1      51.334  29.065  24.247  1.00  0.00    -0.237 OA
ATOM     76  O   UNL A   1      51.322  26.590  24.286  1.00  0.00    -0.237 OA
ATOM     77  O   UNL A   1      49.300  27.830  23.609  1.00  0.00    -0.744 OA
ENDBRANCH  70  74
ENDBRANCH  53  67
BRANCH  54  78
ATOM     78  C   UNL A   1      38.740  30.196  30.250  1.00  0.00     0.023 A 
ATOM     79  C   UNL A   1      37.882  30.957  29.442  1.00  0.00     0.031 A 
ATOM     80  C   UNL A   1      38.255  29.753  31.493  1.00  0.00     0.131 A 
ATOM     81  C   UNL A   1      36.597  31.287  29.901  1.00  0.00     0.055 A 
ATOM     82  C   UNL A   1      36.960  30.041  31.925  1.00  0.00     0.041 A 
ATOM     83  F   UNL A   1      39.035  29.017  32.303  1.00  0.00    -0.206 F 
ATOM     84  C   UNL A   1      36.126  30.823  31.132  1.00  0.00     0.022 A 
BRANCH  81  85
ATOM     85  S   UNL A   1      35.574  32.398  28.897  1.00  0.00     0.124 S 
ATOM     86  O   UNL A   1      36.370  33.620  28.901  1.00  0.00    -0.237 OA
ATOM     87  O   UNL A   1      35.504  31.680  27.629  1.00  0.00    -0.237 OA
ATOM     88  O   UNL A   1      34.318  32.468  29.640  1.00  0.00    -0.744 OA
ENDBRANCH  81  85
ENDBRANCH  54  78
BRANCH  66  89
ATOM     89  C   UNL A   1      44.643  33.900  30.355  1.00  0.00     0.023 A 
ATOM     90  C   UNL A   1      44.545  34.975  29.454  1.00  0.00     0.031 A 
ATOM     91  C   UNL A   1      45.040  34.176  31.675  1.00  0.00     0.131 A 
ATOM     92  C   UNL A   1      44.888  36.270  29.872  1.00  0.00     0.055 A 
ATOM     93  C   UNL A   1      45.326  35.474  32.100  1.00  0.00     0.041 A 
ATOM     94  F   UNL A   1      45.154  33.187  32.575  1.00  0.00    -0.206 F 
ATOM     95  C   UNL A   1      45.262  36.528  31.193  1.00  0.00     0.022 A 
BRANCH  92  96
ATOM     96  S   UNL A   1      44.919  37.603  28.642  1.00  0.00     0.124 S 
ATOM     97  O   UNL A   1      46.056  37.221  27.809  1.00  0.00    -0.237 OA
ATOM     98  O   UNL A   1      43.605  37.486  28.019  1.00  0.00    -0.237 OA
ATOM     99  O   UNL A   1      45.117  38.808  29.447  1.00  0.00    -0.744 OA
ENDBRANCH  92  96
ENDBRANCH  66  89
ENDBRANCH  40  41
ENDBRANCH  32  35
ENDBRANCH  30  31
ENDBRANCH  29  30
ENDBRANCH   1  29
TORSDOF 18
ENDMDL
