MODEL 1
REMARK VINA RESULT:     -13.6      0.000      0.000
REMARK SMILES Cc1nc(-c2ccccc2)sc1C(=O)N[C@@H](CC1=c2ccccc2=NC1)C(=O)NCCCNC(=O)c1ccc(-c2c3nc(c(-c4cc(S(=O)(=O)[O-])ccc4F)c4ccc([nH]4)c(-c4cc(S(=O)(=O)[O-])ccc4F)c4nc(c(-c5cc(S(=O)(=O)[O-])ccc5F)c5ccc2[nH]5)C=C4)C=C3)cc1
REMARK SMILES IDX 31 1 30 2 29 3 27 4 28 5 16 7 15 8 13 9 14 10 12 12 1 13
REMARK SMILES IDX 2 14 3 15 4 16 11 17 5 18 6 19 10 20 7 21 9 22 8 23 17 24
REMARK SMILES IDX 18 25 19 26 26 27 20 28 24 29 25 30 21 31 23 32 22 33 32 34
REMARK SMILES IDX 33 35 34 36 35 38 36 39 37 40 98 41 38 42 97 43 39 44 40 45
REMARK SMILES IDX 41 46 91 47 42 48 96 49 90 50 92 51 43 52 95 53 89 54 88 55
REMARK SMILES IDX 44 57 76 58 56 59 75 60 57 61 60 62 74 63 93 64 58 65 59 66
REMARK SMILES IDX 73 68 94 69 61 70 45 71 46 72 54 73 47 74 53 75 55 76 52 77
REMARK SMILES IDX 48 78 49 79 50 80 51 81 77 82 78 83 86 84 79 85 85 86 87 87
REMARK SMILES IDX 84 88 80 89 81 90 82 91 83 92 62 93 63 94 71 95 64 96 70 97
REMARK SMILES IDX 72 98 69 99 65 100 66 101 67 102 68 103
REMARK H PARENT 29 6 15 11 33 37 92 56 60 67
REMARK Flexibility Score: inf
ROOT
ATOM      1  C   UNL A   1      31.750  29.117  27.087  1.00  0.00     0.042 C 
ENDROOT
BRANCH   1   2
ATOM      2  C   UNL A   1      31.768  27.680  26.639  1.00  0.00     0.117 C 
BRANCH   2   3
ATOM      3  N   UNL A   1      32.906  27.305  25.842  1.00  0.00    -0.354 N 
ATOM      4  C   UNL A   1      32.952  26.417  24.817  1.00  0.00     0.242 C 
ATOM      5  O   UNL A   1      33.931  26.476  24.064  1.00  0.00    -0.273 OA
ATOM      6  H   UNL A   1      33.755  27.747  26.069  1.00  0.00     0.163 HD
BRANCH   4   7
ATOM      7  C   UNL A   1      31.834  25.388  24.546  1.00  0.00     0.175 C 
BRANCH   7   8
ATOM      8  N   UNL A   1      31.145  24.900  25.723  1.00  0.00    -0.339 N 
ATOM      9  C   UNL A   1      31.205  23.725  26.426  1.00  0.00     0.263 C 
ATOM     10  O   UNL A   1      30.346  23.675  27.316  1.00  0.00    -0.268 OA
ATOM     11  H   UNL A   1      30.501  25.545  26.096  1.00  0.00     0.164 HD
BRANCH   9  12
ATOM     12  C   UNL A   1      32.161  22.637  26.201  1.00  0.00     0.115 A 
ATOM     13  C   UNL A   1      34.227  22.532  27.873  1.00  0.00     0.068 C 
ATOM     14  C   UNL A   1      33.337  22.122  26.756  1.00  0.00     0.062 A 
ATOM     15  N   UNL A   1      33.808  20.967  26.160  1.00  0.00    -0.241 NA
ATOM     16  C   UNL A   1      33.092  20.627  25.125  1.00  0.00     0.124 A 
ATOM     17  S   UNL A   1      31.775  21.637  24.796  1.00  0.00    -0.108 S 
BRANCH  16  18
ATOM     18  C   UNL A   1      33.415  19.449  24.336  1.00  0.00     0.010 A 
ATOM     19  C   UNL A   1      32.520  19.057  23.329  1.00  0.00     0.011 A 
ATOM     20  C   UNL A   1      34.471  18.602  24.689  1.00  0.00     0.011 A 
ATOM     21  C   UNL A   1      32.663  17.824  22.698  1.00  0.00     0.001 A 
ATOM     22  C   UNL A   1      34.607  17.363  24.060  1.00  0.00     0.001 A 
ATOM     23  C   UNL A   1      33.700  16.973  23.074  1.00  0.00     0.000 A 
ENDBRANCH  16  18
ENDBRANCH   9  12
ENDBRANCH   7   8
BRANCH   7  24
ATOM     24  C   UNL A   1      30.889  25.657  23.343  1.00  0.00     0.068 C 
BRANCH  24  25
ATOM     25  C   UNL A   1      29.817  26.698  23.476  1.00  0.00    -0.037 C 
ATOM     26  C   UNL A   1      29.816  27.972  23.080  1.00  0.00     0.001 A 
ATOM     27  C   UNL A   1      28.474  26.327  24.037  1.00  0.00     0.174 C 
ATOM     28  C   UNL A   1      30.767  28.851  22.478  1.00  0.00     0.010 A 
ATOM     29  C   UNL A   1      28.383  28.318  23.145  1.00  0.00     0.065 A 
ATOM     30  N   UNL A   1      27.583  27.457  23.698  1.00  0.00    -0.280 NA
ATOM     31  C   UNL A   1      30.324  29.963  21.868  1.00  0.00     0.001 A 
ATOM     32  C   UNL A   1      27.972  29.558  22.452  1.00  0.00     0.028 A 
ATOM     33  C   UNL A   1      28.909  30.292  21.825  1.00  0.00     0.002 A 
ENDBRANCH  24  25
ENDBRANCH   7  24
ENDBRANCH   4   7
ENDBRANCH   2   3
ENDBRANCH   1   2
BRANCH   1  34
ATOM     34  C   UNL A   1      32.920  29.921  26.562  1.00  0.00     0.118 C 
BRANCH  34  35
ATOM     35  N   UNL A   1      32.889  31.322  26.963  1.00  0.00    -0.352 N 
ATOM     36  C   UNL A   1      33.783  32.070  27.703  1.00  0.00     0.251 C 
ATOM     37  H   UNL A   1      32.098  31.819  26.655  1.00  0.00     0.163 HD
ATOM     38  O   UNL A   1      33.488  33.201  28.048  1.00  0.00    -0.269 OA
BRANCH  36  39
ATOM     39  C   UNL A   1      35.073  31.471  28.106  1.00  0.00     0.039 A 
ATOM     40  C   UNL A   1      36.227  32.256  28.080  1.00  0.00     0.014 A 
ATOM     41  C   UNL A   1      35.134  30.155  28.557  1.00  0.00     0.014 A 
ATOM     42  C   UNL A   1      37.415  31.739  28.598  1.00  0.00     0.010 A 
ATOM     43  C   UNL A   1      36.264  29.707  29.220  1.00  0.00     0.010 A 
ATOM     44  C   UNL A   1      37.428  30.484  29.229  1.00  0.00    -0.014 A 
BRANCH  44  45
ATOM     45  C   UNL A   1      38.653  29.955  29.879  1.00  0.00     0.031 A 
ATOM     46  C   UNL A   1      39.042  30.435  31.254  1.00  0.00     0.074 A 
ATOM     47  C   UNL A   1      39.439  29.091  29.206  1.00  0.00     0.049 A 
ATOM     48  N   UNL A   1      40.087  30.122  31.975  1.00  0.00    -0.248 NA
ATOM     49  C   UNL A   1      38.166  31.439  31.881  1.00  0.00     0.031 C 
ATOM     50  C   UNL A   1      39.206  28.623  27.836  1.00  0.00     0.029 A 
ATOM     51  N   UNL A   1      40.589  28.445  29.581  1.00  0.00    -0.354 N 
ATOM     52  C   UNL A   1      40.000  30.900  33.125  1.00  0.00     0.074 A 
ATOM     53  C   UNL A   1      38.858  31.769  32.960  1.00  0.00     0.031 C 
ATOM     54  C   UNL A   1      40.144  27.720  27.512  1.00  0.00     0.029 A 
ATOM     55  C   UNL A   1      41.073  27.580  28.626  1.00  0.00     0.049 A 
ATOM     56  H   UNL A   1      41.027  28.586  30.451  1.00  0.00     0.167 HD
ATOM     57  C   UNL A   1      40.777  30.866  34.234  1.00  0.00     0.034 A 
ATOM     58  C   UNL A   1      42.144  26.763  28.652  1.00  0.00     0.034 A 
ATOM     59  C   UNL A   1      41.895  29.970  34.388  1.00  0.00     0.049 A 
ATOM     60  C   UNL A   1      42.984  26.727  29.903  1.00  0.00     0.074 A 
ATOM     61  C   UNL A   1      42.716  29.792  35.486  1.00  0.00     0.029 A 
ATOM     62  N   UNL A   1      42.351  29.098  33.404  1.00  0.00    -0.354 N 
ATOM     63  N   UNL A   1      42.844  27.416  31.013  1.00  0.00    -0.248 NA
ATOM     64  C   UNL A   1      44.112  25.791  29.909  1.00  0.00     0.031 C 
ATOM     65  C   UNL A   1      43.708  28.865  35.144  1.00  0.00     0.029 A 
ATOM     66  C   UNL A   1      43.462  28.404  33.860  1.00  0.00     0.049 A 
ATOM     67  H   UNL A   1      41.946  28.990  32.513  1.00  0.00     0.167 HD
ATOM     68  C   UNL A   1      43.858  26.980  31.859  1.00  0.00     0.074 A 
ATOM     69  C   UNL A   1      44.577  25.945  31.139  1.00  0.00     0.031 C 
ATOM     70  C   UNL A   1      44.176  27.395  33.114  1.00  0.00     0.034 A 
BRANCH  57  71
ATOM     71  C   UNL A   1      40.441  31.832  35.349  1.00  0.00     0.023 A 
ATOM     72  C   UNL A   1      39.424  31.560  36.283  1.00  0.00     0.031 A 
ATOM     73  C   UNL A   1      41.113  33.062  35.454  1.00  0.00     0.131 A 
ATOM     74  C   UNL A   1      39.049  32.536  37.219  1.00  0.00     0.055 A 
ATOM     75  C   UNL A   1      40.797  33.992  36.447  1.00  0.00     0.041 A 
ATOM     76  F   UNL A   1      42.077  33.392  34.580  1.00  0.00    -0.206 F 
ATOM     77  C   UNL A   1      39.746  33.739  37.326  1.00  0.00     0.022 A 
BRANCH  74  78
ATOM     78  S   UNL A   1      37.535  32.273  38.183  1.00  0.00     0.124 S 
ATOM     79  O   UNL A   1      36.595  33.159  37.501  1.00  0.00    -0.237 OA
ATOM     80  O   UNL A   1      37.300  30.843  38.019  1.00  0.00    -0.237 OA
ATOM     81  O   UNL A   1      37.910  32.693  39.532  1.00  0.00    -0.744 OA
ENDBRANCH  74  78
ENDBRANCH  57  71
BRANCH  58  82
ATOM     82  C   UNL A   1      42.475  25.907  27.476  1.00  0.00     0.023 A 
ATOM     83  C   UNL A   1      42.178  24.535  27.474  1.00  0.00     0.031 A 
ATOM     84  C   UNL A   1      43.123  26.442  26.348  1.00  0.00     0.131 A 
ATOM     85  C   UNL A   1      42.571  23.735  26.388  1.00  0.00     0.055 A 
ATOM     86  C   UNL A   1      43.463  25.652  25.248  1.00  0.00     0.041 A 
ATOM     87  F   UNL A   1      43.423  27.749  26.293  1.00  0.00    -0.206 F 
ATOM     88  C   UNL A   1      43.199  24.286  25.270  1.00  0.00     0.022 A 
BRANCH  85  89
ATOM     89  S   UNL A   1      42.320  21.941  26.496  1.00  0.00     0.124 S 
ATOM     90  O   UNL A   1      41.016  21.784  25.862  1.00  0.00    -0.237 OA
ATOM     91  O   UNL A   1      43.464  21.430  25.748  1.00  0.00    -0.237 OA
ATOM     92  O   UNL A   1      42.352  21.680  27.934  1.00  0.00    -0.744 OA
ENDBRANCH  85  89
ENDBRANCH  58  82
BRANCH  70  93
ATOM     93  C   UNL A   1      45.340  26.703  33.778  1.00  0.00     0.023 A 
ATOM     94  C   UNL A   1      45.153  25.575  34.597  1.00  0.00     0.031 A 
ATOM     95  C   UNL A   1      46.647  27.198  33.624  1.00  0.00     0.131 A 
ATOM     96  C   UNL A   1      46.239  25.030  35.295  1.00  0.00     0.055 A 
ATOM     97  C   UNL A   1      47.737  26.605  34.261  1.00  0.00     0.041 A 
ATOM     98  F   UNL A   1      46.884  28.273  32.856  1.00  0.00    -0.206 F 
ATOM     99  C   UNL A   1      47.534  25.527  35.117  1.00  0.00     0.022 A 
BRANCH  96 100
ATOM    100  S   UNL A   1      45.916  23.751  36.538  1.00  0.00     0.124 S 
ATOM    101  O   UNL A   1      47.268  23.329  36.895  1.00  0.00    -0.237 OA
ATOM    102  O   UNL A   1      45.188  24.490  37.564  1.00  0.00    -0.237 OA
ATOM    103  O   UNL A   1      45.128  22.757  35.811  1.00  0.00    -0.744 OA
ENDBRANCH  96 100
ENDBRANCH  70  93
ENDBRANCH  44  45
ENDBRANCH  36  39
ENDBRANCH  34  35
ENDBRANCH   1  34
TORSDOF 18
ENDMDL
MODEL 2
REMARK VINA RESULT:     -13.6      2.090      2.801
REMARK SMILES Cc1nc(-c2ccccc2)sc1C(=O)N[C@@H](CC1=c2ccccc2=NC1)C(=O)NCCCNC(=O)c1ccc(-c2c3nc(c(-c4cc(S(=O)(=O)[O-])ccc4F)c4ccc([nH]4)c(-c4cc(S(=O)(=O)[O-])ccc4F)c4nc(c(-c5cc(S(=O)(=O)[O-])ccc5F)c5ccc2[nH]5)C=C4)C=C3)cc1
REMARK SMILES IDX 31 1 30 2 29 3 27 4 28 5 16 7 15 8 13 9 14 10 12 12 1 13
REMARK SMILES IDX 2 14 3 15 4 16 11 17 5 18 6 19 10 20 7 21 9 22 8 23 17 24
REMARK SMILES IDX 18 25 19 26 26 27 20 28 24 29 25 30 21 31 23 32 22 33 32 34
REMARK SMILES IDX 33 35 34 36 35 38 36 39 37 40 98 41 38 42 97 43 39 44 40 45
REMARK SMILES IDX 41 46 91 47 42 48 96 49 90 50 92 51 43 52 95 53 89 54 88 55
REMARK SMILES IDX 44 57 76 58 56 59 75 60 57 61 60 62 74 63 93 64 58 65 59 66
REMARK SMILES IDX 73 68 94 69 61 70 45 71 46 72 54 73 47 74 53 75 55 76 52 77
REMARK SMILES IDX 48 78 49 79 50 80 51 81 77 82 78 83 86 84 79 85 85 86 87 87
REMARK SMILES IDX 84 88 80 89 81 90 82 91 83 92 62 93 63 94 71 95 64 96 70 97
REMARK SMILES IDX 72 98 69 99 65 100 66 101 67 102 68 103
REMARK H PARENT 29 6 15 11 33 37 92 56 60 67
REMARK Flexibility Score: inf
ROOT
ATOM      1  C   UNL A   1      32.861  28.270  26.881  1.00  0.00     0.042 C 
ENDROOT
BRANCH   1   2
ATOM      2  C   UNL A   1      32.412  27.048  26.126  1.00  0.00     0.117 C 
BRANCH   2   3
ATOM      3  N   UNL A   1      31.307  26.339  26.716  1.00  0.00    -0.354 N 
ATOM      4  C   UNL A   1      30.371  25.581  26.091  1.00  0.00     0.242 C 
ATOM      5  O   UNL A   1      29.712  24.808  26.795  1.00  0.00    -0.273 OA
ATOM      6  H   UNL A   1      31.220  26.415  27.693  1.00  0.00     0.163 HD
BRANCH   4   7
ATOM      7  C   UNL A   1      30.135  25.625  24.567  1.00  0.00     0.175 C 
BRANCH   7   8
ATOM      8  N   UNL A   1      30.233  24.348  23.890  1.00  0.00    -0.339 N 
ATOM      9  C   UNL A   1      31.293  23.593  23.460  1.00  0.00     0.263 C 
ATOM     10  O   UNL A   1      30.923  22.605  22.812  1.00  0.00    -0.268 OA
ATOM     11  H   UNL A   1      29.359  23.937  23.699  1.00  0.00     0.164 HD
BRANCH   9  12
ATOM     12  C   UNL A   1      32.709  23.870  23.722  1.00  0.00     0.115 A 
ATOM     13  C   UNL A   1      33.628  26.201  22.828  1.00  0.00     0.068 C 
ATOM     14  C   UNL A   1      33.650  24.883  23.514  1.00  0.00     0.062 A 
ATOM     15  N   UNL A   1      34.898  24.642  24.060  1.00  0.00    -0.241 NA
ATOM     16  C   UNL A   1      34.972  23.458  24.601  1.00  0.00     0.124 A 
ATOM     17  S   UNL A   1      33.549  22.544  24.533  1.00  0.00    -0.108 S 
BRANCH  16  18
ATOM     18  C   UNL A   1      36.198  22.986  25.224  1.00  0.00     0.010 A 
ATOM     19  C   UNL A   1      37.022  23.924  25.862  1.00  0.00     0.011 A 
ATOM     20  C   UNL A   1      36.663  21.681  25.025  1.00  0.00     0.011 A 
ATOM     21  C   UNL A   1      38.304  23.572  26.277  1.00  0.00     0.001 A 
ATOM     22  C   UNL A   1      37.951  21.333  25.435  1.00  0.00     0.001 A 
ATOM     23  C   UNL A   1      38.771  22.279  26.051  1.00  0.00     0.000 A 
ENDBRANCH  16  18
ENDBRANCH   9  12
ENDBRANCH   7   8
BRANCH   7  24
ATOM     24  C   UNL A   1      28.972  26.513  24.047  1.00  0.00     0.068 C 
BRANCH  24  25
ATOM     25  C   UNL A   1      29.287  27.685  23.166  1.00  0.00    -0.037 C 
ATOM     26  C   UNL A   1      28.616  28.827  22.999  1.00  0.00     0.001 A 
ATOM     27  C   UNL A   1      30.572  27.720  22.390  1.00  0.00     0.174 C 
ATOM     28  C   UNL A   1      27.383  29.362  23.478  1.00  0.00     0.010 A 
ATOM     29  C   UNL A   1      29.619  29.682  22.333  1.00  0.00     0.065 A 
ATOM     30  N   UNL A   1      30.719  29.119  21.938  1.00  0.00    -0.280 NA
ATOM     31  C   UNL A   1      27.184  30.690  23.413  1.00  0.00     0.001 A 
ATOM     32  C   UNL A   1      29.329  31.133  22.299  1.00  0.00     0.028 A 
ATOM     33  C   UNL A   1      28.187  31.579  22.853  1.00  0.00     0.002 A 
ENDBRANCH  24  25
ENDBRANCH   7  24
ENDBRANCH   4   7
ENDBRANCH   2   3
ENDBRANCH   1   2
BRANCH   1  34
ATOM     34  C   UNL A   1      33.671  29.230  26.038  1.00  0.00     0.118 C 
BRANCH  34  35
ATOM     35  N   UNL A   1      33.750  30.574  26.599  1.00  0.00    -0.352 N 
ATOM     36  C   UNL A   1      34.641  31.126  27.496  1.00  0.00     0.251 C 
ATOM     37  H   UNL A   1      33.050  31.190  26.285  1.00  0.00     0.163 HD
ATOM     38  O   UNL A   1      34.435  32.240  27.947  1.00  0.00    -0.269 OA
BRANCH  36  39
ATOM     39  C   UNL A   1      35.814  30.341  27.934  1.00  0.00     0.039 A 
ATOM     40  C   UNL A   1      36.999  30.418  27.201  1.00  0.00     0.014 A 
ATOM     41  C   UNL A   1      35.759  29.571  29.094  1.00  0.00     0.014 A 
ATOM     42  C   UNL A   1      38.147  29.797  27.693  1.00  0.00     0.010 A 
ATOM     43  C   UNL A   1      36.931  29.101  29.662  1.00  0.00     0.010 A 
ATOM     44  C   UNL A   1      38.138  29.185  28.959  1.00  0.00    -0.014 A 
BRANCH  44  45
ATOM     45  C   UNL A   1      39.370  28.607  29.550  1.00  0.00     0.031 A 
ATOM     46  C   UNL A   1      39.908  29.151  30.849  1.00  0.00     0.074 A 
ATOM     47  C   UNL A   1      40.030  27.637  28.887  1.00  0.00     0.049 A 
ATOM     48  N   UNL A   1      40.982  28.807  31.508  1.00  0.00    -0.248 NA
ATOM     49  C   UNL A   1      39.165  30.265  31.462  1.00  0.00     0.031 C 
ATOM     50  C   UNL A   1      39.648  27.093  27.580  1.00  0.00     0.029 A 
ATOM     51  N   UNL A   1      41.155  26.928  29.220  1.00  0.00    -0.354 N 
ATOM     52  C   UNL A   1      41.050  29.670  32.598  1.00  0.00     0.074 A 
ATOM     53  C   UNL A   1      39.966  30.614  32.455  1.00  0.00     0.031 C 
ATOM     54  C   UNL A   1      40.486  26.096  27.254  1.00  0.00     0.029 A 
ATOM     55  C   UNL A   1      41.492  25.962  28.301  1.00  0.00     0.049 A 
ATOM     56  H   UNL A   1      41.674  27.095  30.040  1.00  0.00     0.167 HD
ATOM     57  C   UNL A   1      41.913  29.652  33.642  1.00  0.00     0.034 A 
ATOM     58  C   UNL A   1      42.497  25.064  28.306  1.00  0.00     0.034 A 
ATOM     59  C   UNL A   1      42.970  28.682  33.777  1.00  0.00     0.049 A 
ATOM     60  C   UNL A   1      43.434  25.050  29.487  1.00  0.00     0.074 A 
ATOM     61  C   UNL A   1      43.864  28.517  34.819  1.00  0.00     0.029 A 
ATOM     62  N   UNL A   1      43.276  27.708  32.832  1.00  0.00    -0.354 N 
ATOM     63  N   UNL A   1      43.439  25.826  30.548  1.00  0.00    -0.248 NA
ATOM     64  C   UNL A   1      44.486  24.029  29.478  1.00  0.00     0.031 C 
ATOM     65  C   UNL A   1      44.752  27.491  34.473  1.00  0.00     0.029 A 
ATOM     66  C   UNL A   1      44.365  26.961  33.253  1.00  0.00     0.049 A 
ATOM     67  H   UNL A   1      42.790  27.570  31.987  1.00  0.00     0.167 HD
ATOM     68  C   UNL A   1      44.486  25.370  31.344  1.00  0.00     0.074 A 
ATOM     69  C   UNL A   1      45.062  24.232  30.653  1.00  0.00     0.031 C 
ATOM     70  C   UNL A   1      44.937  25.847  32.533  1.00  0.00     0.034 A 
BRANCH  57  71
ATOM     71  C   UNL A   1      41.745  30.719  34.701  1.00  0.00     0.023 A 
ATOM     72  C   UNL A   1      40.559  30.839  35.450  1.00  0.00     0.031 A 
ATOM     73  C   UNL A   1      42.763  31.659  34.936  1.00  0.00     0.131 A 
ATOM     74  C   UNL A   1      40.386  31.921  36.326  1.00  0.00     0.055 A 
ATOM     75  C   UNL A   1      42.621  32.680  35.878  1.00  0.00     0.041 A 
ATOM     76  F   UNL A   1      43.910  31.614  34.239  1.00  0.00    -0.206 F 
ATOM     77  C   UNL A   1      41.419  32.827  36.566  1.00  0.00     0.022 A 
BRANCH  74  78
ATOM     78  S   UNL A   1      38.737  32.217  37.022  1.00  0.00     0.124 S 
ATOM     79  O   UNL A   1      38.279  30.854  37.282  1.00  0.00    -0.237 OA
ATOM     80  O   UNL A   1      39.031  33.028  38.198  1.00  0.00    -0.237 OA
ATOM     81  O   UNL A   1      38.030  32.909  35.946  1.00  0.00    -0.744 OA
ENDBRANCH  74  78
ENDBRANCH  57  71
BRANCH  58  82
ATOM     82  C   UNL A   1      42.664  24.103  27.178  1.00  0.00     0.023 A 
ATOM     83  C   UNL A   1      42.238  22.770  27.295  1.00  0.00     0.031 A 
ATOM     84  C   UNL A   1      43.281  24.493  25.976  1.00  0.00     0.131 A 
ATOM     85  C   UNL A   1      42.477  21.864  26.249  1.00  0.00     0.055 A 
ATOM     86  C   UNL A   1      43.468  23.602  24.918  1.00  0.00     0.041 A 
ATOM     87  F   UNL A   1      43.699  25.757  25.806  1.00  0.00    -0.206 F 
ATOM     88  C   UNL A   1      43.077  22.274  25.057  1.00  0.00     0.022 A 
BRANCH  85  89
ATOM     89  S   UNL A   1      42.065  20.115  26.504  1.00  0.00     0.124 S 
ATOM     90  O   UNL A   1      41.114  19.874  25.424  1.00  0.00    -0.237 OA
ATOM     91  O   UNL A   1      43.368  19.474  26.367  1.00  0.00    -0.237 OA
ATOM     92  O   UNL A   1      41.500  20.093  27.851  1.00  0.00    -0.744 OA
ENDBRANCH  85  89
ENDBRANCH  58  82
BRANCH  70  93
ATOM     93  C   UNL A   1      46.098  25.112  33.157  1.00  0.00     0.023 A 
ATOM     94  C   UNL A   1      45.897  24.002  33.997  1.00  0.00     0.031 A 
ATOM     95  C   UNL A   1      47.417  25.549  32.942  1.00  0.00     0.131 A 
ATOM     96  C   UNL A   1      46.989  23.418  34.655  1.00  0.00     0.055 A 
ATOM     97  C   UNL A   1      48.507  24.916  33.540  1.00  0.00     0.041 A 
ATOM     98  F   UNL A   1      47.667  26.605  32.151  1.00  0.00    -0.206 F 
ATOM     99  C   UNL A   1      48.294  23.857  34.417  1.00  0.00     0.022 A 
BRANCH  96 100
ATOM    100  S   UNL A   1      46.665  22.167  35.926  1.00  0.00     0.124 S 
ATOM    101  O   UNL A   1      45.316  22.520  36.359  1.00  0.00    -0.237 OA
ATOM    102  O   UNL A   1      46.787  20.921  35.176  1.00  0.00    -0.237 OA
ATOM    103  O   UNL A   1      47.715  22.403  36.915  1.00  0.00    -0.744 OA
ENDBRANCH  96 100
ENDBRANCH  70  93
ENDBRANCH  44  45
ENDBRANCH  36  39
ENDBRANCH  34  35
ENDBRANCH   1  34
TORSDOF 18
ENDMDL
MODEL 3
REMARK VINA RESULT:     -13.6      4.513      9.059
REMARK SMILES Cc1nc(-c2ccccc2)sc1C(=O)N[C@@H](CC1=c2ccccc2=NC1)C(=O)NCCCNC(=O)c1ccc(-c2c3nc(c(-c4cc(S(=O)(=O)[O-])ccc4F)c4ccc([nH]4)c(-c4cc(S(=O)(=O)[O-])ccc4F)c4nc(c(-c5cc(S(=O)(=O)[O-])ccc5F)c5ccc2[nH]5)C=C4)C=C3)cc1
REMARK SMILES IDX 31 1 30 2 29 3 27 4 28 5 16 7 15 8 13 9 14 10 12 12 1 13
REMARK SMILES IDX 2 14 3 15 4 16 11 17 5 18 6 19 10 20 7 21 9 22 8 23 17 24
REMARK SMILES IDX 18 25 19 26 26 27 20 28 24 29 25 30 21 31 23 32 22 33 32 34
REMARK SMILES IDX 33 35 34 36 35 38 36 39 37 40 98 41 38 42 97 43 39 44 40 45
REMARK SMILES IDX 41 46 91 47 42 48 96 49 90 50 92 51 43 52 95 53 89 54 88 55
REMARK SMILES IDX 44 57 76 58 56 59 75 60 57 61 60 62 74 63 93 64 58 65 59 66
REMARK SMILES IDX 73 68 94 69 61 70 45 71 46 72 54 73 47 74 53 75 55 76 52 77
REMARK SMILES IDX 48 78 49 79 50 80 51 81 77 82 78 83 86 84 79 85 85 86 87 87
REMARK SMILES IDX 84 88 80 89 81 90 82 91 83 92 62 93 63 94 71 95 64 96 70 97
REMARK SMILES IDX 72 98 69 99 65 100 66 101 67 102 68 103
REMARK H PARENT 29 6 15 11 33 37 92 56 60 67
REMARK Flexibility Score: inf
ROOT
ATOM      1  C   UNL A   1      35.707  22.403  23.651  1.00  0.00     0.042 C 
ENDROOT
BRANCH   1   2
ATOM      2  C   UNL A   1      34.699  23.506  23.469  1.00  0.00     0.117 C 
BRANCH   2   3
ATOM      3  N   UNL A   1      34.936  24.684  24.261  1.00  0.00    -0.354 N 
ATOM      4  C   UNL A   1      34.022  25.477  24.875  1.00  0.00     0.242 C 
ATOM      5  O   UNL A   1      34.437  26.235  25.759  1.00  0.00    -0.273 OA
ATOM      6  H   UNL A   1      35.879  24.947  24.371  1.00  0.00     0.163 HD
BRANCH   4   7
ATOM      7  C   UNL A   1      32.516  25.436  24.541  1.00  0.00     0.175 C 
BRANCH   7   8
ATOM      8  N   UNL A   1      31.649  25.064  25.641  1.00  0.00    -0.339 N 
ATOM      9  C   UNL A   1      31.465  23.899  26.337  1.00  0.00     0.263 C 
ATOM     10  O   UNL A   1      30.524  23.983  27.138  1.00  0.00    -0.268 OA
ATOM     11  H   UNL A   1      31.074  25.800  25.953  1.00  0.00     0.164 HD
BRANCH   9  12
ATOM     12  C   UNL A   1      32.266  22.679  26.200  1.00  0.00     0.115 A 
ATOM     13  C   UNL A   1      34.234  22.368  27.962  1.00  0.00     0.068 C 
ATOM     14  C   UNL A   1      33.336  22.033  26.826  1.00  0.00     0.062 A 
ATOM     15  N   UNL A   1      33.663  20.797  26.300  1.00  0.00    -0.241 NA
ATOM     16  C   UNL A   1      32.943  20.510  25.250  1.00  0.00     0.124 A 
ATOM     17  S   UNL A   1      31.794  21.677  24.823  1.00  0.00    -0.108 S 
BRANCH  16  18
ATOM     18  C   UNL A   1      33.127  19.262  24.526  1.00  0.00     0.010 A 
ATOM     19  C   UNL A   1      34.273  18.500  24.795  1.00  0.00     0.011 A 
ATOM     20  C   UNL A   1      32.307  18.918  23.446  1.00  0.00     0.011 A 
ATOM     21  C   UNL A   1      34.612  17.423  23.981  1.00  0.00     0.001 A 
ATOM     22  C   UNL A   1      32.653  17.842  22.627  1.00  0.00     0.001 A 
ATOM     23  C   UNL A   1      33.807  17.103  22.890  1.00  0.00     0.000 A 
ENDBRANCH  16  18
ENDBRANCH   9  12
ENDBRANCH   7   8
BRANCH   7  24
ATOM     24  C   UNL A   1      31.945  26.584  23.664  1.00  0.00     0.068 C 
BRANCH  24  25
ATOM     25  C   UNL A   1      30.494  26.942  23.786  1.00  0.00    -0.037 C 
ATOM     26  C   UNL A   1      29.887  28.113  23.583  1.00  0.00     0.001 A 
ATOM     27  C   UNL A   1      29.478  25.875  24.082  1.00  0.00     0.174 C 
ATOM     28  C   UNL A   1      30.313  29.437  23.263  1.00  0.00     0.010 A 
ATOM     29  C   UNL A   1      28.468  27.716  23.484  1.00  0.00     0.065 A 
ATOM     30  N   UNL A   1      28.167  26.489  23.782  1.00  0.00    -0.280 NA
ATOM     31  C   UNL A   1      29.415  30.302  22.761  1.00  0.00     0.001 A 
ATOM     32  C   UNL A   1      27.540  28.723  22.925  1.00  0.00     0.028 A 
ATOM     33  C   UNL A   1      28.028  29.921  22.558  1.00  0.00     0.002 A 
ENDBRANCH  24  25
ENDBRANCH   7  24
ENDBRANCH   4   7
ENDBRANCH   2   3
ENDBRANCH   1   2
BRANCH   1  34
ATOM     34  C   UNL A   1      36.472  22.501  24.953  1.00  0.00     0.118 C 
BRANCH  34  35
ATOM     35  N   UNL A   1      37.365  21.373  25.189  1.00  0.00    -0.352 N 
ATOM     36  C   UNL A   1      38.608  21.314  25.785  1.00  0.00     0.251 C 
ATOM     37  H   UNL A   1      37.024  20.507  24.868  1.00  0.00     0.163 HD
ATOM     38  O   UNL A   1      39.250  20.279  25.748  1.00  0.00    -0.269 OA
BRANCH  36  39
ATOM     39  C   UNL A   1      39.164  22.525  26.426  1.00  0.00     0.039 A 
ATOM     40  C   UNL A   1      40.251  22.399  27.292  1.00  0.00     0.014 A 
ATOM     41  C   UNL A   1      38.646  23.784  26.133  1.00  0.00     0.014 A 
ATOM     42  C   UNL A   1      40.870  23.550  27.781  1.00  0.00     0.010 A 
ATOM     43  C   UNL A   1      39.360  24.918  26.482  1.00  0.00     0.010 A 
ATOM     44  C   UNL A   1      40.468  24.819  27.331  1.00  0.00    -0.014 A 
BRANCH  44  45
ATOM     45  C   UNL A   1      41.175  26.053  27.755  1.00  0.00     0.031 A 
ATOM     46  C   UNL A   1      42.601  26.288  27.328  1.00  0.00     0.074 A 
ATOM     47  C   UNL A   1      40.550  26.926  28.571  1.00  0.00     0.049 A 
ATOM     48  N   UNL A   1      43.399  27.281  27.620  1.00  0.00    -0.248 NA
ATOM     49  C   UNL A   1      43.229  25.242  26.504  1.00  0.00     0.031 C 
ATOM     50  C   UNL A   1      39.200  26.759  29.117  1.00  0.00     0.029 A 
ATOM     51  N   UNL A   1      40.961  28.132  29.078  1.00  0.00    -0.354 N 
ATOM     52  C   UNL A   1      44.621  26.970  27.031  1.00  0.00     0.074 A 
ATOM     53  C   UNL A   1      44.486  25.654  26.452  1.00  0.00     0.031 C 
ATOM     54  C   UNL A   1      38.873  27.848  29.829  1.00  0.00     0.029 A 
ATOM     55  C   UNL A   1      40.003  28.769  29.834  1.00  0.00     0.049 A 
ATOM     56  H   UNL A   1      41.857  28.507  28.918  1.00  0.00     0.167 HD
ATOM     57  C   UNL A   1      45.740  27.729  26.946  1.00  0.00     0.034 A 
ATOM     58  C   UNL A   1      40.034  29.965  30.454  1.00  0.00     0.034 A 
ATOM     59  C   UNL A   1      45.842  29.052  27.508  1.00  0.00     0.049 A 
ATOM     60  C   UNL A   1      41.282  30.800  30.330  1.00  0.00     0.074 A 
ATOM     61  C   UNL A   1      46.894  29.946  27.431  1.00  0.00     0.029 A 
ATOM     62  N   UNL A   1      44.847  29.672  28.257  1.00  0.00    -0.354 N 
ATOM     63  N   UNL A   1      42.405  30.523  29.705  1.00  0.00    -0.248 NA
ATOM     64  C   UNL A   1      41.259  32.114  30.980  1.00  0.00     0.031 C 
ATOM     65  C   UNL A   1      46.564  31.076  28.189  1.00  0.00     0.029 A 
ATOM     66  C   UNL A   1      45.275  30.923  28.674  1.00  0.00     0.049 A 
ATOM     67  H   UNL A   1      43.968  29.280  28.462  1.00  0.00     0.167 HD
ATOM     68  C   UNL A   1      43.215  31.641  29.871  1.00  0.00     0.074 A 
ATOM     69  C   UNL A   1      42.436  32.606  30.625  1.00  0.00     0.031 C 
ATOM     70  C   UNL A   1      44.489  31.856  29.447  1.00  0.00     0.034 A 
BRANCH  57  71
ATOM     71  C   UNL A   1      46.932  27.132  26.231  1.00  0.00     0.023 A 
ATOM     72  C   UNL A   1      47.926  26.412  26.921  1.00  0.00     0.031 A 
ATOM     73  C   UNL A   1      47.105  27.324  24.849  1.00  0.00     0.131 A 
ATOM     74  C   UNL A   1      49.083  25.991  26.249  1.00  0.00     0.055 A 
ATOM     75  C   UNL A   1      48.216  26.821  24.169  1.00  0.00     0.041 A 
ATOM     76  F   UNL A   1      46.205  28.021  24.137  1.00  0.00    -0.206 F 
ATOM     77  C   UNL A   1      49.223  26.166  24.872  1.00  0.00     0.022 A 
BRANCH  74  78
ATOM     78  S   UNL A   1      50.471  25.357  27.231  1.00  0.00     0.124 S 
ATOM     79  O   UNL A   1      49.848  24.235  27.930  1.00  0.00    -0.237 OA
ATOM     80  O   UNL A   1      51.450  25.009  26.208  1.00  0.00    -0.237 OA
ATOM     81  O   UNL A   1      50.833  26.488  28.083  1.00  0.00    -0.744 OA
ENDBRANCH  74  78
ENDBRANCH  57  71
BRANCH  58  82
ATOM     82  C   UNL A   1      38.855  30.450  31.227  1.00  0.00     0.023 A 
ATOM     83  C   UNL A   1      37.778  31.081  30.584  1.00  0.00     0.031 A 
ATOM     84  C   UNL A   1      38.800  30.318  32.627  1.00  0.00     0.131 A 
ATOM     85  C   UNL A   1      36.715  31.600  31.343  1.00  0.00     0.055 A 
ATOM     86  C   UNL A   1      37.716  30.788  33.371  1.00  0.00     0.041 A 
ATOM     87  F   UNL A   1      39.798  29.716  33.292  1.00  0.00    -0.206 F 
ATOM     88  C   UNL A   1      36.671  31.446  32.730  1.00  0.00     0.022 A 
BRANCH  85  89
ATOM     89  S   UNL A   1      35.427  32.555  30.493  1.00  0.00     0.124 S 
ATOM     90  O   UNL A   1      34.386  32.621  31.512  1.00  0.00    -0.237 OA
ATOM     91  O   UNL A   1      36.120  33.805  30.201  1.00  0.00    -0.237 OA
ATOM     92  O   UNL A   1      35.109  31.733  29.327  1.00  0.00    -0.744 OA
ENDBRANCH  85  89
ENDBRANCH  58  82
BRANCH  70  93
ATOM     93  C   UNL A   1      45.093  33.198  29.780  1.00  0.00     0.023 A 
ATOM     94  C   UNL A   1      44.952  34.300  28.917  1.00  0.00     0.031 A 
ATOM     95  C   UNL A   1      45.849  33.368  30.952  1.00  0.00     0.131 A 
ATOM     96  C   UNL A   1      45.627  35.496  29.197  1.00  0.00     0.055 A 
ATOM     97  C   UNL A   1      46.456  34.585  31.265  1.00  0.00     0.041 A 
ATOM     98  F   UNL A   1      46.018  32.350  31.811  1.00  0.00    -0.206 F 
ATOM     99  C   UNL A   1      46.362  35.652  30.376  1.00  0.00     0.022 A 
BRANCH  96 100
ATOM    100  S   UNL A   1      45.638  36.799  27.937  1.00  0.00     0.124 S 
ATOM    101  O   UNL A   1      44.415  36.511  27.194  1.00  0.00    -0.237 OA
ATOM    102  O   UNL A   1      45.620  38.014  28.745  1.00  0.00    -0.237 OA
ATOM    103  O   UNL A   1      46.881  36.558  27.206  1.00  0.00    -0.744 OA
ENDBRANCH  96 100
ENDBRANCH  70  93
ENDBRANCH  44  45
ENDBRANCH  36  39
ENDBRANCH  34  35
ENDBRANCH   1  34
TORSDOF 18
ENDMDL
