MODEL 1
REMARK VINA RESULT:     -12.1      0.000      0.000
REMARK SMILES C[C@@H](C(=O)NCCCNC(=O)c1ccc(-c2c3nc(c(-c4cc(S(=O)(=O)[O-])ccc4F)c4ccc([nH]4)c(-c4cc(S(=O)(=O)[O-])ccc4F)c4nc(c(-c5cc(S(=O)(=O)[O-])ccc5F)c5ccc2[nH]5)C=C4)C=C3)cc1)c1ccc(-c2cccc(OC(=O)NCCC3CCCCC3)c2)c(F)c1
REMARK SMILES IDX 3 1 4 2 5 3 2 5 1 6 75 7 76 8 99 9 77 10 97 11 78 12 98 13
REMARK SMILES IDX 79 14 80 15 96 16 81 17 83 18 82 19 84 20 85 21 86 22 87 23
REMARK SMILES IDX 88 25 89 26 90 27 91 28 95 29 92 30 94 31 93 32 6 33 7 34
REMARK SMILES IDX 8 35 9 36 10 37 11 39 12 40 13 41 74 42 14 43 73 44 15 45
REMARK SMILES IDX 16 46 17 47 67 48 18 49 72 50 66 51 68 52 19 53 71 54 65 55
REMARK SMILES IDX 64 56 20 58 52 59 32 60 51 61 33 62 36 63 50 64 69 65 34 66
REMARK SMILES IDX 35 67 49 69 70 70 37 71 21 72 22 73 30 74 23 75 29 76 31 77
REMARK SMILES IDX 28 78 24 79 25 80 26 81 27 82 53 83 54 84 62 85 55 86 61 87
REMARK SMILES IDX 63 88 60 89 56 90 57 91 58 92 59 93 38 94 39 95 47 96 40 97
REMARK SMILES IDX 46 98 48 99 45 100 41 101 42 102 43 103 44 104
REMARK H PARENT 5 4 87 24 9 38 68 57 36 68
REMARK Flexibility Score: inf
ROOT
ATOM      1  C   UNL A   1      30.337  28.042  22.735  1.00  0.00     0.227 C 
ATOM      2  O   UNL A   1      29.985  28.644  21.719  1.00  0.00    -0.274 OA
ATOM      3  N   UNL A   1      31.110  28.753  23.601  1.00  0.00    -0.356 N 
ATOM      4  H   UNL A   1      31.314  29.671  23.308  1.00  0.00     0.163 HD
ENDROOT
BRANCH   1   5
ATOM      5  C   UNL A   1      29.910  26.599  23.074  1.00  0.00     0.105 C 
ATOM      6  C   UNL A   1      28.867  26.526  24.192  1.00  0.00     0.023 C 
BRANCH   5   7
ATOM      7  C   UNL A   1      31.070  25.688  23.470  1.00  0.00    -0.033 A 
ATOM      8  C   UNL A   1      32.105  25.428  22.558  1.00  0.00     0.005 A 
ATOM      9  C   UNL A   1      31.079  25.010  24.695  1.00  0.00     0.044 A 
ATOM     10  C   UNL A   1      33.117  24.509  22.865  1.00  0.00     0.012 A 
ATOM     11  C   UNL A   1      32.099  24.122  25.004  1.00  0.00     0.131 A 
ATOM     12  C   UNL A   1      33.123  23.829  24.094  1.00  0.00     0.018 A 
ATOM     13  F   UNL A   1      32.059  23.512  26.200  1.00  0.00    -0.206 F 
BRANCH  12  14
ATOM     14  C   UNL A   1      34.097  22.766  24.379  1.00  0.00    -0.012 A 
ATOM     15  C   UNL A   1      33.733  21.421  24.516  1.00  0.00     0.009 A 
ATOM     16  C   UNL A   1      35.451  23.111  24.535  1.00  0.00     0.056 A 
ATOM     17  C   UNL A   1      34.700  20.448  24.791  1.00  0.00     0.004 A 
ATOM     18  C   UNL A   1      36.412  22.150  24.828  1.00  0.00     0.133 A 
ATOM     19  C   UNL A   1      36.041  20.812  24.946  1.00  0.00     0.047 A 
BRANCH  18  20
ATOM     20  O   UNL A   1      37.787  22.440  25.018  1.00  0.00    -0.410 OA
BRANCH  20  21
ATOM     21  C   UNL A   1      38.316  23.063  26.147  1.00  0.00     0.412 C 
ATOM     22  O   UNL A   1      37.893  24.074  26.699  1.00  0.00    -0.224 OA
ATOM     23  N   UNL A   1      39.400  22.428  26.675  1.00  0.00    -0.321 N 
ATOM     24  H   UNL A   1      39.783  22.834  27.486  1.00  0.00     0.167 HD
BRANCH  23  25
ATOM     25  C   UNL A   1      40.056  21.236  26.194  1.00  0.00     0.119 C 
BRANCH  25  26
ATOM     26  C   UNL A   1      40.892  20.579  27.293  1.00  0.00     0.025 C 
BRANCH  26  27
ATOM     27  C   UNL A   1      42.330  20.203  26.870  1.00  0.00    -0.009 C 
ATOM     28  C   UNL A   1      42.422  18.751  26.373  1.00  0.00     0.003 C 
ATOM     29  C   UNL A   1      42.829  21.180  25.793  1.00  0.00     0.003 C 
ATOM     30  C   UNL A   1      43.822  18.405  25.865  1.00  0.00     0.000 C 
ATOM     31  C   UNL A   1      44.233  20.824  25.312  1.00  0.00     0.000 C 
ATOM     32  C   UNL A   1      44.299  19.389  24.804  1.00  0.00     0.000 C 
ENDBRANCH  26  27
ENDBRANCH  25  26
ENDBRANCH  23  25
ENDBRANCH  20  21
ENDBRANCH  18  20
ENDBRANCH  12  14
ENDBRANCH   5   7
ENDBRANCH   1   5
BRANCH   3  33
ATOM     33  C   UNL A   1      31.683  28.388  24.879  1.00  0.00     0.117 C 
BRANCH  33  34
ATOM     34  C   UNL A   1      33.185  28.141  24.776  1.00  0.00     0.042 C 
BRANCH  34  35
ATOM     35  C   UNL A   1      34.019  28.875  25.823  1.00  0.00     0.118 C 
BRANCH  35  36
ATOM     36  N   UNL A   1      33.502  30.201  26.114  1.00  0.00    -0.352 N 
ATOM     37  C   UNL A   1      33.835  31.088  27.106  1.00  0.00     0.251 C 
ATOM     38  H   UNL A   1      32.797  30.514  25.502  1.00  0.00     0.163 HD
ATOM     39  O   UNL A   1      33.104  32.057  27.299  1.00  0.00    -0.269 OA
BRANCH  37  40
ATOM     40  C   UNL A   1      35.037  30.882  27.947  1.00  0.00     0.039 A 
ATOM     41  C   UNL A   1      35.106  29.726  28.729  1.00  0.00     0.014 A 
ATOM     42  C   UNL A   1      36.065  31.826  28.013  1.00  0.00     0.014 A 
ATOM     43  C   UNL A   1      36.224  29.497  29.534  1.00  0.00     0.010 A 
ATOM     44  C   UNL A   1      37.220  31.555  28.749  1.00  0.00     0.010 A 
ATOM     45  C   UNL A   1      37.309  30.391  29.525  1.00  0.00    -0.014 A 
BRANCH  45  46
ATOM     46  C   UNL A   1      38.531  30.096  30.321  1.00  0.00     0.031 A 
ATOM     47  C   UNL A   1      38.722  30.688  31.691  1.00  0.00     0.074 A 
ATOM     48  C   UNL A   1      39.477  29.291  29.795  1.00  0.00     0.049 A 
ATOM     49  N   UNL A   1      39.703  30.509  32.539  1.00  0.00    -0.248 NA
ATOM     50  C   UNL A   1      37.689  31.624  32.161  1.00  0.00     0.031 C 
ATOM     51  C   UNL A   1      39.428  28.699  28.455  1.00  0.00     0.029 A 
ATOM     52  N   UNL A   1      40.654  28.821  30.320  1.00  0.00    -0.354 N 
ATOM     53  C   UNL A   1      39.406  31.304  33.642  1.00  0.00     0.074 A 
ATOM     54  C   UNL A   1      38.190  32.021  33.321  1.00  0.00     0.031 C 
ATOM     55  C   UNL A   1      40.497  27.907  28.284  1.00  0.00     0.029 A 
ATOM     56  C   UNL A   1      41.333  27.971  29.478  1.00  0.00     0.049 A 
ATOM     57  H   UNL A   1      40.981  29.068  31.215  1.00  0.00     0.167 HD
ATOM     58  C   UNL A   1      40.070  31.405  34.821  1.00  0.00     0.034 A 
ATOM     59  C   UNL A   1      42.500  27.317  29.644  1.00  0.00     0.034 A 
ATOM     60  C   UNL A   1      41.285  30.684  35.121  1.00  0.00     0.049 A 
ATOM     61  C   UNL A   1      43.233  27.467  30.954  1.00  0.00     0.074 A 
ATOM     62  C   UNL A   1      42.015  30.677  36.298  1.00  0.00     0.029 A 
ATOM     63  N   UNL A   1      41.959  29.851  34.236  1.00  0.00    -0.354 N 
ATOM     64  N   UNL A   1      42.903  28.173  32.010  1.00  0.00    -0.248 NA
ATOM     65  C   UNL A   1      44.485  26.717  31.096  1.00  0.00     0.031 C 
ATOM     66  C   UNL A   1      43.166  29.908  36.098  1.00  0.00     0.029 A 
ATOM     67  C   UNL A   1      43.113  29.357  34.828  1.00  0.00     0.049 A 
ATOM     68  H   UNL A   1      41.660  29.641  33.321  1.00  0.00     0.167 HD
ATOM     69  C   UNL A   1      43.897  27.929  32.954  1.00  0.00     0.074 A 
ATOM     70  C   UNL A   1      44.816  26.987  32.349  1.00  0.00     0.031 C 
ATOM     71  C   UNL A   1      44.038  28.436  34.207  1.00  0.00     0.034 A 
BRANCH  58  72
ATOM     72  C   UNL A   1      39.506  32.348  35.860  1.00  0.00     0.023 A 
ATOM     73  C   UNL A   1      39.883  33.703  35.913  1.00  0.00     0.031 A 
ATOM     74  C   UNL A   1      38.592  31.887  36.823  1.00  0.00     0.131 A 
ATOM     75  C   UNL A   1      39.410  34.525  36.947  1.00  0.00     0.055 A 
ATOM     76  C   UNL A   1      38.057  32.732  37.799  1.00  0.00     0.041 A 
ATOM     77  F   UNL A   1      38.209  30.600  36.842  1.00  0.00    -0.206 F 
ATOM     78  C   UNL A   1      38.478  34.057  37.873  1.00  0.00     0.022 A 
BRANCH  75  79
ATOM     79  S   UNL A   1      40.146  36.170  37.152  1.00  0.00     0.124 S 
ATOM     80  O   UNL A   1      39.345  36.719  38.243  1.00  0.00    -0.237 OA
ATOM     81  O   UNL A   1      41.535  35.856  37.472  1.00  0.00    -0.237 OA
ATOM     82  O   UNL A   1      39.934  36.804  35.852  1.00  0.00    -0.744 OA
ENDBRANCH  75  79
ENDBRANCH  58  72
BRANCH  59  83
ATOM     83  C   UNL A   1      43.055  26.468  28.550  1.00  0.00     0.023 A 
ATOM     84  C   UNL A   1      44.113  26.918  27.744  1.00  0.00     0.031 A 
ATOM     85  C   UNL A   1      42.501  25.206  28.263  1.00  0.00     0.131 A 
ATOM     86  C   UNL A   1      44.548  26.139  26.661  1.00  0.00     0.055 A 
ATOM     87  C   UNL A   1      42.981  24.408  27.224  1.00  0.00     0.041 A 
ATOM     88  F   UNL A   1      41.490  24.725  29.003  1.00  0.00    -0.206 F 
ATOM     89  C   UNL A   1      44.000  24.881  26.405  1.00  0.00     0.022 A 
BRANCH  86  90
ATOM     90  S   UNL A   1      45.780  26.839  25.525  1.00  0.00     0.124 S 
ATOM     91  O   UNL A   1      46.862  27.185  26.440  1.00  0.00    -0.237 OA
ATOM     92  O   UNL A   1      46.033  25.718  24.626  1.00  0.00    -0.237 OA
ATOM     93  O   UNL A   1      45.082  27.973  24.925  1.00  0.00    -0.744 OA
ENDBRANCH  86  90
ENDBRANCH  59  83
BRANCH  71  94
ATOM     94  C   UNL A   1      45.223  27.948  35.010  1.00  0.00     0.023 A 
ATOM     95  C   UNL A   1      45.167  26.762  35.763  1.00  0.00     0.031 A 
ATOM     96  C   UNL A   1      46.409  28.702  35.058  1.00  0.00     0.131 A 
ATOM     97  C   UNL A   1      46.238  26.410  36.597  1.00  0.00     0.055 A 
ATOM     98  C   UNL A   1      47.502  28.304  35.828  1.00  0.00     0.041 A 
ATOM     99  F   UNL A   1      46.522  29.846  34.364  1.00  0.00    -0.206 F 
ATOM    100  C   UNL A   1      47.413  27.164  36.619  1.00  0.00     0.022 A 
BRANCH  97 101
ATOM    101  S   UNL A   1      46.018  25.035  37.760  1.00  0.00     0.124 S 
ATOM    102  O   UNL A   1      46.787  25.489  38.914  1.00  0.00    -0.237 OA
ATOM    103  O   UNL A   1      44.569  25.002  37.931  1.00  0.00    -0.237 OA
ATOM    104  O   UNL A   1      46.585  23.890  37.049  1.00  0.00    -0.744 OA
ENDBRANCH  97 101
ENDBRANCH  71  94
ENDBRANCH  45  46
ENDBRANCH  37  40
ENDBRANCH  35  36
ENDBRANCH  34  35
ENDBRANCH  33  34
ENDBRANCH   3  33
TORSDOF 20
ENDMDL
MODEL 2
REMARK VINA RESULT:     -11.8      4.505      7.853
REMARK SMILES C[C@@H](C(=O)NCCCNC(=O)c1ccc(-c2c3nc(c(-c4cc(S(=O)(=O)[O-])ccc4F)c4ccc([nH]4)c(-c4cc(S(=O)(=O)[O-])ccc4F)c4nc(c(-c5cc(S(=O)(=O)[O-])ccc5F)c5ccc2[nH]5)C=C4)C=C3)cc1)c1ccc(-c2cccc(OC(=O)NCCC3CCCCC3)c2)c(F)c1
REMARK SMILES IDX 3 1 4 2 5 3 2 5 1 6 75 7 76 8 99 9 77 10 97 11 78 12 98 13
REMARK SMILES IDX 79 14 80 15 96 16 81 17 83 18 82 19 84 20 85 21 86 22 87 23
REMARK SMILES IDX 88 25 89 26 90 27 91 28 95 29 92 30 94 31 93 32 6 33 7 34
REMARK SMILES IDX 8 35 9 36 10 37 11 39 12 40 13 41 74 42 14 43 73 44 15 45
REMARK SMILES IDX 16 46 17 47 67 48 18 49 72 50 66 51 68 52 19 53 71 54 65 55
REMARK SMILES IDX 64 56 20 58 52 59 32 60 51 61 33 62 36 63 50 64 69 65 34 66
REMARK SMILES IDX 35 67 49 69 70 70 37 71 21 72 22 73 30 74 23 75 29 76 31 77
REMARK SMILES IDX 28 78 24 79 25 80 26 81 27 82 53 83 54 84 62 85 55 86 61 87
REMARK SMILES IDX 63 88 60 89 56 90 57 91 58 92 59 93 38 94 39 95 47 96 40 97
REMARK SMILES IDX 46 98 48 99 45 100 41 101 42 102 43 103 44 104
REMARK H PARENT 5 4 87 24 9 38 68 57 36 68
REMARK Flexibility Score: inf
ROOT
ATOM      1  C   UNL A   1      35.823  31.521  29.118  1.00  0.00     0.227 C 
ATOM      2  O   UNL A   1      35.545  31.148  27.977  1.00  0.00    -0.274 OA
ATOM      3  N   UNL A   1      34.776  31.980  29.857  1.00  0.00    -0.356 N 
ATOM      4  H   UNL A   1      33.911  31.976  29.388  1.00  0.00     0.163 HD
ENDROOT
BRANCH   1   5
ATOM      5  C   UNL A   1      37.235  31.441  29.731  1.00  0.00     0.105 C 
ATOM      6  C   UNL A   1      38.137  32.610  29.326  1.00  0.00     0.023 C 
BRANCH   5   7
ATOM      7  C   UNL A   1      37.982  30.150  29.398  1.00  0.00    -0.033 A 
ATOM      8  C   UNL A   1      38.622  30.007  28.157  1.00  0.00     0.005 A 
ATOM      9  C   UNL A   1      37.958  29.050  30.264  1.00  0.00     0.044 A 
ATOM     10  C   UNL A   1      39.216  28.791  27.793  1.00  0.00     0.012 A 
ATOM     11  C   UNL A   1      38.573  27.858  29.908  1.00  0.00     0.131 A 
ATOM     12  C   UNL A   1      39.190  27.689  28.662  1.00  0.00     0.018 A 
ATOM     13  F   UNL A   1      38.527  26.843  30.786  1.00  0.00    -0.206 F 
BRANCH  12  14
ATOM     14  C   UNL A   1      39.687  26.370  28.246  1.00  0.00    -0.012 A 
ATOM     15  C   UNL A   1      38.905  25.455  27.532  1.00  0.00     0.009 A 
ATOM     16  C   UNL A   1      41.001  26.002  28.588  1.00  0.00     0.056 A 
ATOM     17  C   UNL A   1      39.426  24.211  27.163  1.00  0.00     0.004 A 
ATOM     18  C   UNL A   1      41.516  24.760  28.239  1.00  0.00     0.133 A 
ATOM     19  C   UNL A   1      40.733  23.862  27.515  1.00  0.00     0.047 A 
BRANCH  18  20
ATOM     20  O   UNL A   1      42.823  24.324  28.574  1.00  0.00    -0.410 OA
BRANCH  20  21
ATOM     21  C   UNL A   1      43.363  23.090  28.214  1.00  0.00     0.412 C 
ATOM     22  O   UNL A   1      43.037  21.988  28.642  1.00  0.00    -0.224 OA
ATOM     23  N   UNL A   1      44.333  23.166  27.261  1.00  0.00    -0.321 N 
ATOM     24  H   UNL A   1      44.719  22.307  26.971  1.00  0.00     0.167 HD
BRANCH  23  25
ATOM     25  C   UNL A   1      44.866  24.346  26.622  1.00  0.00     0.119 C 
BRANCH  25  26
ATOM     26  C   UNL A   1      43.928  24.858  25.528  1.00  0.00     0.025 C 
BRANCH  26  27
ATOM     27  C   UNL A   1      43.715  26.388  25.527  1.00  0.00    -0.009 C 
ATOM     28  C   UNL A   1      42.234  26.764  25.357  1.00  0.00     0.003 C 
ATOM     29  C   UNL A   1      44.285  26.995  26.821  1.00  0.00     0.003 C 
ATOM     30  C   UNL A   1      42.008  28.273  25.451  1.00  0.00     0.000 C 
ATOM     31  C   UNL A   1      44.062  28.503  26.886  1.00  0.00     0.000 C 
ATOM     32  C   UNL A   1      42.586  28.853  26.736  1.00  0.00     0.000 C 
ENDBRANCH  26  27
ENDBRANCH  25  26
ENDBRANCH  23  25
ENDBRANCH  20  21
ENDBRANCH  18  20
ENDBRANCH  12  14
ENDBRANCH   5   7
ENDBRANCH   1   5
BRANCH   3  33
ATOM     33  C   UNL A   1      34.721  32.475  31.217  1.00  0.00     0.117 C 
BRANCH  33  34
ATOM     34  C   UNL A   1      34.414  33.969  31.263  1.00  0.00     0.042 C 
BRANCH  34  35
ATOM     35  C   UNL A   1      35.415  34.794  32.067  1.00  0.00     0.118 C 
BRANCH  35  36
ATOM     36  N   UNL A   1      35.250  34.624  33.500  1.00  0.00    -0.352 N 
ATOM     37  C   UNL A   1      35.994  33.907  34.403  1.00  0.00     0.251 C 
ATOM     38  H   UNL A   1      34.480  35.100  33.888  1.00  0.00     0.163 HD
ATOM     39  O   UNL A   1      35.534  33.720  35.527  1.00  0.00    -0.269 OA
BRANCH  37  40
ATOM     40  C   UNL A   1      37.315  33.348  34.035  1.00  0.00     0.039 A 
ATOM     41  C   UNL A   1      37.353  32.113  33.383  1.00  0.00     0.014 A 
ATOM     42  C   UNL A   1      38.511  33.995  34.364  1.00  0.00     0.014 A 
ATOM     43  C   UNL A   1      38.580  31.555  33.020  1.00  0.00     0.010 A 
ATOM     44  C   UNL A   1      39.731  33.480  33.924  1.00  0.00     0.010 A 
ATOM     45  C   UNL A   1      39.780  32.249  33.254  1.00  0.00    -0.014 A 
BRANCH  45  46
ATOM     46  C   UNL A   1      41.076  31.685  32.788  1.00  0.00     0.031 A 
ATOM     47  C   UNL A   1      41.735  30.552  33.526  1.00  0.00     0.074 A 
ATOM     48  C   UNL A   1      41.662  32.210  31.693  1.00  0.00     0.049 A 
ATOM     49  N   UNL A   1      42.841  29.912  33.241  1.00  0.00    -0.248 NA
ATOM     50  C   UNL A   1      41.080  30.090  34.760  1.00  0.00     0.031 C 
ATOM     51  C   UNL A   1      41.145  33.344  30.923  1.00  0.00     0.029 A 
ATOM     52  N   UNL A   1      42.808  31.855  31.027  1.00  0.00    -0.354 N 
ATOM     53  C   UNL A   1      43.013  28.974  34.254  1.00  0.00     0.074 A 
ATOM     54  C   UNL A   1      41.936  29.179  35.198  1.00  0.00     0.031 C 
ATOM     55  C   UNL A   1      41.942  33.560  29.866  1.00  0.00     0.029 A 
ATOM     56  C   UNL A   1      43.052  32.614  29.906  1.00  0.00     0.049 A 
ATOM     57  H   UNL A   1      43.400  31.127  31.324  1.00  0.00     0.167 HD
ATOM     58  C   UNL A   1      43.966  28.014  34.371  1.00  0.00     0.034 A 
ATOM     59  C   UNL A   1      44.058  32.560  29.009  1.00  0.00     0.034 A 
ATOM     60  C   UNL A   1      45.037  27.828  33.421  1.00  0.00     0.049 A 
ATOM     61  C   UNL A   1      45.118  31.501  29.177  1.00  0.00     0.074 A 
ATOM     62  C   UNL A   1      46.028  26.860  33.418  1.00  0.00     0.029 A 
ATOM     63  N   UNL A   1      45.268  28.629  32.310  1.00  0.00    -0.354 N 
ATOM     64  N   UNL A   1      45.229  30.580  30.106  1.00  0.00    -0.248 NA
ATOM     65  C   UNL A   1      46.178  31.466  28.163  1.00  0.00     0.031 C 
ATOM     66  C   UNL A   1      46.900  27.125  32.356  1.00  0.00     0.029 A 
ATOM     67  C   UNL A   1      46.405  28.203  31.639  1.00  0.00     0.049 A 
ATOM     68  H   UNL A   1      44.706  29.391  32.038  1.00  0.00     0.167 HD
ATOM     69  C   UNL A   1      46.359  29.838  29.771  1.00  0.00     0.074 A 
ATOM     70  C   UNL A   1      46.871  30.402  28.539  1.00  0.00     0.031 C 
ATOM     71  C   UNL A   1      46.923  28.787  30.422  1.00  0.00     0.034 A 
BRANCH  58  72
ATOM     72  C   UNL A   1      43.902  27.113  35.584  1.00  0.00     0.023 A 
ATOM     73  C   UNL A   1      44.391  27.522  36.838  1.00  0.00     0.031 A 
ATOM     74  C   UNL A   1      43.359  25.819  35.485  1.00  0.00     0.131 A 
ATOM     75  C   UNL A   1      44.398  26.626  37.918  1.00  0.00     0.055 A 
ATOM     76  C   UNL A   1      43.290  24.962  36.586  1.00  0.00     0.041 A 
ATOM     77  F   UNL A   1      42.896  25.360  34.312  1.00  0.00    -0.206 F 
ATOM     78  C   UNL A   1      43.825  25.358  37.808  1.00  0.00     0.022 A 
BRANCH  75  79
ATOM     79  S   UNL A   1      45.303  27.087  39.421  1.00  0.00     0.124 S 
ATOM     80  O   UNL A   1      46.688  26.871  39.010  1.00  0.00    -0.237 OA
ATOM     81  O   UNL A   1      44.902  28.476  39.616  1.00  0.00    -0.237 OA
ATOM     82  O   UNL A   1      44.804  26.146  40.422  1.00  0.00    -0.744 OA
ENDBRANCH  75  79
ENDBRANCH  58  72
BRANCH  59  83
ATOM     83  C   UNL A   1      44.119  33.532  27.879  1.00  0.00     0.023 A 
ATOM     84  C   UNL A   1      44.444  34.881  28.097  1.00  0.00     0.031 A 
ATOM     85  C   UNL A   1      43.807  33.135  26.566  1.00  0.00     0.131 A 
ATOM     86  C   UNL A   1      44.398  35.793  27.031  1.00  0.00     0.055 A 
ATOM     87  C   UNL A   1      43.824  34.033  25.499  1.00  0.00     0.041 A 
ATOM     88  F   UNL A   1      43.491  31.857  26.301  1.00  0.00    -0.206 F 
ATOM     89  C   UNL A   1      44.106  35.375  25.731  1.00  0.00     0.022 A 
BRANCH  86  90
ATOM     90  S   UNL A   1      44.630  37.557  27.385  1.00  0.00     0.124 S 
ATOM     91  O   UNL A   1      44.809  37.548  28.833  1.00  0.00    -0.237 OA
ATOM     92  O   UNL A   1      45.816  37.872  26.594  1.00  0.00    -0.237 OA
ATOM     93  O   UNL A   1      43.388  38.165  26.912  1.00  0.00    -0.744 OA
ENDBRANCH  86  90
ENDBRANCH  59  83
BRANCH  71  94
ATOM     94  C   UNL A   1      48.144  28.167  29.783  1.00  0.00     0.023 A 
ATOM     95  C   UNL A   1      48.037  27.209  28.759  1.00  0.00     0.031 A 
ATOM     96  C   UNL A   1      49.433  28.504  30.235  1.00  0.00     0.131 A 
ATOM     97  C   UNL A   1      49.185  26.561  28.282  1.00  0.00     0.055 A 
ATOM     98  C   UNL A   1      50.578  27.913  29.700  1.00  0.00     0.041 A 
ATOM     99  F   UNL A   1      49.600  29.408  31.213  1.00  0.00    -0.206 F 
ATOM    100  C   UNL A   1      50.457  26.921  28.732  1.00  0.00     0.022 A 
BRANCH  97 101
ATOM    101  S   UNL A   1      48.983  25.140  27.171  1.00  0.00     0.124 S 
ATOM    102  O   UNL A   1      47.863  24.434  27.785  1.00  0.00    -0.237 OA
ATOM    103  O   UNL A   1      48.706  25.784  25.891  1.00  0.00    -0.237 OA
ATOM    104  O   UNL A   1      50.270  24.454  27.254  1.00  0.00    -0.744 OA
ENDBRANCH  97 101
ENDBRANCH  71  94
ENDBRANCH  45  46
ENDBRANCH  37  40
ENDBRANCH  35  36
ENDBRANCH  34  35
ENDBRANCH  33  34
ENDBRANCH   3  33
TORSDOF 20
ENDMDL
MODEL 3
REMARK VINA RESULT:     -11.8      4.684     10.424
REMARK SMILES C[C@@H](C(=O)NCCCNC(=O)c1ccc(-c2c3nc(c(-c4cc(S(=O)(=O)[O-])ccc4F)c4ccc([nH]4)c(-c4cc(S(=O)(=O)[O-])ccc4F)c4nc(c(-c5cc(S(=O)(=O)[O-])ccc5F)c5ccc2[nH]5)C=C4)C=C3)cc1)c1ccc(-c2cccc(OC(=O)NCCC3CCCCC3)c2)c(F)c1
REMARK SMILES IDX 3 1 4 2 5 3 2 5 1 6 75 7 76 8 99 9 77 10 97 11 78 12 98 13
REMARK SMILES IDX 79 14 80 15 96 16 81 17 83 18 82 19 84 20 85 21 86 22 87 23
REMARK SMILES IDX 88 25 89 26 90 27 91 28 95 29 92 30 94 31 93 32 6 33 7 34
REMARK SMILES IDX 8 35 9 36 10 37 11 39 12 40 13 41 74 42 14 43 73 44 15 45
REMARK SMILES IDX 16 46 17 47 67 48 18 49 72 50 66 51 68 52 19 53 71 54 65 55
REMARK SMILES IDX 64 56 20 58 52 59 32 60 51 61 33 62 36 63 50 64 69 65 34 66
REMARK SMILES IDX 35 67 49 69 70 70 37 71 21 72 22 73 30 74 23 75 29 76 31 77
REMARK SMILES IDX 28 78 24 79 25 80 26 81 27 82 53 83 54 84 62 85 55 86 61 87
REMARK SMILES IDX 63 88 60 89 56 90 57 91 58 92 59 93 38 94 39 95 47 96 40 97
REMARK SMILES IDX 46 98 48 99 45 100 41 101 42 102 43 103 44 104
REMARK H PARENT 5 4 87 24 9 38 68 57 36 68
REMARK Flexibility Score: inf
ROOT
ATOM      1  C   UNL A   1      41.646  23.602  26.565  1.00  0.00     0.227 C 
ATOM      2  O   UNL A   1      40.556  23.104  26.855  1.00  0.00    -0.274 OA
ATOM      3  N   UNL A   1      42.243  23.101  25.449  1.00  0.00    -0.356 N 
ATOM      4  H   UNL A   1      41.740  22.381  25.004  1.00  0.00     0.163 HD
ENDROOT
BRANCH   1   5
ATOM      5  C   UNL A   1      42.302  24.756  27.349  1.00  0.00     0.105 C 
ATOM      6  C   UNL A   1      43.271  24.275  28.433  1.00  0.00     0.023 C 
BRANCH   5   7
ATOM      7  C   UNL A   1      41.302  25.699  28.015  1.00  0.00    -0.033 A 
ATOM      8  C   UNL A   1      39.995  25.808  27.515  1.00  0.00     0.005 A 
ATOM      9  C   UNL A   1      41.686  26.549  29.060  1.00  0.00     0.044 A 
ATOM     10  C   UNL A   1      39.100  26.748  28.044  1.00  0.00     0.012 A 
ATOM     11  C   UNL A   1      40.786  27.458  29.598  1.00  0.00     0.131 A 
ATOM     12  C   UNL A   1      39.488  27.600  29.091  1.00  0.00     0.018 A 
ATOM     13  F   UNL A   1      41.209  28.238  30.606  1.00  0.00    -0.206 F 
BRANCH  12  14
ATOM     14  C   UNL A   1      38.612  28.679  29.567  1.00  0.00    -0.012 A 
ATOM     15  C   UNL A   1      37.902  28.604  30.772  1.00  0.00     0.009 A 
ATOM     16  C   UNL A   1      38.467  29.834  28.778  1.00  0.00     0.056 A 
ATOM     17  C   UNL A   1      37.078  29.659  31.178  1.00  0.00     0.004 A 
ATOM     18  C   UNL A   1      37.635  30.876  29.169  1.00  0.00     0.133 A 
ATOM     19  C   UNL A   1      36.945  30.797  30.378  1.00  0.00     0.047 A 
BRANCH  18  20
ATOM     20  O   UNL A   1      37.432  32.054  28.406  1.00  0.00    -0.410 OA
BRANCH  20  21
ATOM     21  C   UNL A   1      36.789  33.199  28.874  1.00  0.00     0.412 C 
ATOM     22  O   UNL A   1      35.582  33.356  29.030  1.00  0.00    -0.224 OA
ATOM     23  N   UNL A   1      37.634  34.214  29.207  1.00  0.00    -0.321 N 
ATOM     24  H   UNL A   1      37.209  35.029  29.560  1.00  0.00     0.167 HD
BRANCH  23  25
ATOM     25  C   UNL A   1      39.074  34.244  29.107  1.00  0.00     0.119 C 
BRANCH  25  26
ATOM     26  C   UNL A   1      39.712  34.732  30.408  1.00  0.00     0.025 C 
BRANCH  26  27
ATOM     27  C   UNL A   1      40.300  33.612  31.296  1.00  0.00    -0.009 C 
ATOM     28  C   UNL A   1      39.351  33.227  32.443  1.00  0.00     0.003 C 
ATOM     29  C   UNL A   1      40.636  32.384  30.432  1.00  0.00     0.003 C 
ATOM     30  C   UNL A   1      39.889  32.055  33.265  1.00  0.00     0.000 C 
ATOM     31  C   UNL A   1      41.184  31.233  31.271  1.00  0.00     0.000 C 
ATOM     32  C   UNL A   1      40.221  30.854  32.389  1.00  0.00     0.000 C 
ENDBRANCH  26  27
ENDBRANCH  25  26
ENDBRANCH  23  25
ENDBRANCH  20  21
ENDBRANCH  18  20
ENDBRANCH  12  14
ENDBRANCH   5   7
ENDBRANCH   1   5
BRANCH   3  33
ATOM     33  C   UNL A   1      43.493  23.447  24.807  1.00  0.00     0.117 C 
BRANCH  33  34
ATOM     34  C   UNL A   1      44.611  22.480  25.186  1.00  0.00     0.042 C 
BRANCH  34  35
ATOM     35  C   UNL A   1      45.803  23.134  25.880  1.00  0.00     0.118 C 
BRANCH  35  36
ATOM     36  N   UNL A   1      46.640  23.882  24.958  1.00  0.00    -0.352 N 
ATOM     37  C   UNL A   1      46.892  25.228  24.875  1.00  0.00     0.251 C 
ATOM     38  H   UNL A   1      47.102  23.334  24.282  1.00  0.00     0.163 HD
ATOM     39  O   UNL A   1      47.451  25.661  23.871  1.00  0.00    -0.269 OA
BRANCH  37  40
ATOM     40  C   UNL A   1      46.483  26.152  25.959  1.00  0.00     0.039 A 
ATOM     41  C   UNL A   1      45.176  26.644  25.950  1.00  0.00     0.014 A 
ATOM     42  C   UNL A   1      47.376  26.575  26.947  1.00  0.00     0.014 A 
ATOM     43  C   UNL A   1      44.754  27.517  26.955  1.00  0.00     0.010 A 
ATOM     44  C   UNL A   1      46.930  27.376  27.999  1.00  0.00     0.010 A 
ATOM     45  C   UNL A   1      45.615  27.864  28.010  1.00  0.00    -0.014 A 
BRANCH  45  46
ATOM     46  C   UNL A   1      45.131  28.727  29.122  1.00  0.00     0.031 A 
ATOM     47  C   UNL A   1      44.730  28.130  30.443  1.00  0.00     0.074 A 
ATOM     48  C   UNL A   1      45.047  30.059  28.928  1.00  0.00     0.049 A 
ATOM     49  N   UNL A   1      44.324  28.733  31.532  1.00  0.00    -0.248 NA
ATOM     50  C   UNL A   1      44.766  26.664  30.551  1.00  0.00     0.031 C 
ATOM     51  C   UNL A   1      45.359  30.747  27.673  1.00  0.00     0.029 A 
ATOM     52  N   UNL A   1      44.691  31.073  29.780  1.00  0.00    -0.354 N 
ATOM     53  C   UNL A   1      44.060  27.724  32.453  1.00  0.00     0.074 A 
ATOM     54  C   UNL A   1      44.283  26.468  31.768  1.00  0.00     0.031 C 
ATOM     55  C   UNL A   1      45.228  32.071  27.852  1.00  0.00     0.029 A 
ATOM     56  C   UNL A   1      44.777  32.325  29.216  1.00  0.00     0.049 A 
ATOM     57  H   UNL A   1      44.401  30.919  30.709  1.00  0.00     0.167 HD
ATOM     58  C   UNL A   1      43.692  27.835  33.755  1.00  0.00     0.034 A 
ATOM     59  C   UNL A   1      44.520  33.542  29.735  1.00  0.00     0.034 A 
ATOM     60  C   UNL A   1      43.470  29.097  34.420  1.00  0.00     0.049 A 
ATOM     61  C   UNL A   1      44.087  33.637  31.176  1.00  0.00     0.074 A 
ATOM     62  C   UNL A   1      43.140  29.327  35.746  1.00  0.00     0.029 A 
ATOM     63  N   UNL A   1      43.542  30.345  33.812  1.00  0.00    -0.354 N 
ATOM     64  N   UNL A   1      43.905  32.674  32.051  1.00  0.00    -0.248 NA
ATOM     65  C   UNL A   1      43.843  34.984  31.702  1.00  0.00     0.031 C 
ATOM     66  C   UNL A   1      42.935  30.700  35.917  1.00  0.00     0.029 A 
ATOM     67  C   UNL A   1      43.226  31.342  34.724  1.00  0.00     0.049 A 
ATOM     68  H   UNL A   1      43.784  30.498  32.869  1.00  0.00     0.167 HD
ATOM     69  C   UNL A   1      43.550  33.305  33.240  1.00  0.00     0.074 A 
ATOM     70  C   UNL A   1      43.577  34.729  32.974  1.00  0.00     0.031 C 
ATOM     71  C   UNL A   1      43.231  32.759  34.443  1.00  0.00     0.034 A 
BRANCH  58  72
ATOM     72  C   UNL A   1      43.484  26.554  34.532  1.00  0.00     0.023 A 
ATOM     73  C   UNL A   1      44.568  25.788  35.000  1.00  0.00     0.031 A 
ATOM     74  C   UNL A   1      42.187  26.081  34.797  1.00  0.00     0.131 A 
ATOM     75  C   UNL A   1      44.337  24.558  35.636  1.00  0.00     0.055 A 
ATOM     76  C   UNL A   1      41.963  24.900  35.508  1.00  0.00     0.041 A 
ATOM     77  F   UNL A   1      41.111  26.754  34.359  1.00  0.00    -0.206 F 
ATOM     78  C   UNL A   1      43.042  24.123  35.919  1.00  0.00     0.022 A 
BRANCH  75  79
ATOM     79  S   UNL A   1      45.752  23.469  35.954  1.00  0.00     0.124 S 
ATOM     80  O   UNL A   1      46.213  23.955  37.252  1.00  0.00    -0.237 OA
ATOM     81  O   UNL A   1      45.139  22.145  35.947  1.00  0.00    -0.237 OA
ATOM     82  O   UNL A   1      46.654  23.745  34.837  1.00  0.00    -0.744 OA
ENDBRANCH  75  79
ENDBRANCH  58  72
BRANCH  59  83
ATOM     83  C   UNL A   1      44.657  34.768  28.895  1.00  0.00     0.023 A 
ATOM     84  C   UNL A   1      45.884  35.442  28.786  1.00  0.00     0.031 A 
ATOM     85  C   UNL A   1      43.546  35.311  28.223  1.00  0.00     0.131 A 
ATOM     86  C   UNL A   1      45.959  36.646  28.068  1.00  0.00     0.055 A 
ATOM     87  C   UNL A   1      43.642  36.474  27.459  1.00  0.00     0.041 A 
ATOM     88  F   UNL A   1      42.350  34.706  28.291  1.00  0.00    -0.206 F 
ATOM     89  C   UNL A   1      44.851  37.158  27.391  1.00  0.00     0.022 A 
BRANCH  86  90
ATOM     90  S   UNL A   1      47.509  37.590  28.113  1.00  0.00     0.124 S 
ATOM     91  O   UNL A   1      47.561  38.007  29.510  1.00  0.00    -0.237 OA
ATOM     92  O   UNL A   1      48.487  36.586  27.706  1.00  0.00    -0.237 OA
ATOM     93  O   UNL A   1      47.281  38.663  27.148  1.00  0.00    -0.744 OA
ENDBRANCH  86  90
ENDBRANCH  59  83
BRANCH  71  94
ATOM     94  C   UNL A   1      42.917  33.722  35.565  1.00  0.00     0.023 A 
ATOM     95  C   UNL A   1      41.599  34.131  35.841  1.00  0.00     0.031 A 
ATOM     96  C   UNL A   1      43.952  34.272  36.341  1.00  0.00     0.131 A 
ATOM     97  C   UNL A   1      41.361  35.123  36.803  1.00  0.00     0.055 A 
ATOM     98  C   UNL A   1      43.700  35.200  37.353  1.00  0.00     0.041 A 
ATOM     99  F   UNL A   1      45.230  33.925  36.124  1.00  0.00    -0.206 F 
ATOM    100  C   UNL A   1      42.401  35.646  37.574  1.00  0.00     0.022 A 
BRANCH  97 101
ATOM    101  S   UNL A   1      39.692  35.824  36.932  1.00  0.00     0.124 S 
ATOM    102  O   UNL A   1      39.413  36.197  35.549  1.00  0.00    -0.237 OA
ATOM    103  O   UNL A   1      38.923  34.700  37.457  1.00  0.00    -0.237 OA
ATOM    104  O   UNL A   1      39.861  36.945  37.855  1.00  0.00    -0.744 OA
ENDBRANCH  97 101
ENDBRANCH  71  94
ENDBRANCH  45  46
ENDBRANCH  37  40
ENDBRANCH  35  36
ENDBRANCH  34  35
ENDBRANCH  33  34
ENDBRANCH   3  33
TORSDOF 20
ENDMDL
