MODEL 1
REMARK VINA RESULT:     -14.1      0.000      0.000
REMARK SMILES CCn1nc(C(=O)NCCCNC(=O)c2ccc(-c3c4nc(c(-c5cc(S(=O)(=O)[O-])ccc5F)c5ccc([nH]5)c(-c5cc(S(=O)(=O)[O-])ccc5F)c5nc(c(-c6cc(S(=O)(=O)[O-])ccc6F)c6ccc3[nH]6)C=C5)C=C4)cc2)c2c1CC[C@H]([NH2+]Cc1nn(CC)c3ccccc13)C2
REMARK SMILES IDX 9 1 8 2 6 3 7 4 5 6 3 7 4 8 79 9 78 10 80 11 96 12 81 13
REMARK SMILES IDX 82 14 2 15 1 16 83 17 84 20 85 21 86 22 95 23 87 24 90 25
REMARK SMILES IDX 94 26 91 27 93 28 92 29 88 30 89 31 10 32 11 33 12 34 13 35
REMARK SMILES IDX 14 37 15 38 16 39 77 40 17 41 76 42 18 43 19 44 20 45 70 46
REMARK SMILES IDX 21 47 75 48 69 49 71 50 22 51 74 52 68 53 67 54 23 56 55 57
REMARK SMILES IDX 35 58 54 59 36 60 39 61 53 62 72 63 37 64 38 65 52 67 73 68
REMARK SMILES IDX 40 69 24 70 25 71 33 72 26 73 32 74 34 75 31 76 27 77 28 78
REMARK SMILES IDX 29 79 30 80 56 81 57 82 65 83 58 84 64 85 66 86 63 87 59 88
REMARK SMILES IDX 60 89 61 90 62 91 41 92 42 93 50 94 43 95 49 96 51 97 48 98
REMARK SMILES IDX 44 99 45 100 46 101 47 102
REMARK H PARENT 8 5 83 18 83 19 12 36 71 55 39 66
REMARK Flexibility Score: inf
ROOT
ATOM      1  C   UNL A   1      34.180  29.651  27.345  1.00  0.00     0.118 C 
ENDROOT
BRANCH   1   2
ATOM      2  N   UNL A   1      32.724  29.413  27.420  1.00  0.00    -0.351 N 
ATOM      3  C   UNL A   1      31.901  28.343  27.076  1.00  0.00     0.272 C 
ATOM      4  O   UNL A   1      31.182  27.925  27.992  1.00  0.00    -0.267 OA
ATOM      5  H   UNL A   1      32.228  30.176  27.794  1.00  0.00     0.163 HD
BRANCH   3   6
ATOM      6  C   UNL A   1      31.716  27.858  25.685  1.00  0.00     0.153 A 
ATOM      7  N   UNL A   1      30.972  27.860  23.653  1.00  0.00    -0.269 N 
ATOM      8  N   UNL A   1      30.916  28.528  24.826  1.00  0.00    -0.167 NA
ATOM      9  C   UNL A   1      31.802  26.775  23.716  1.00  0.00     0.043 A 
ATOM     10  C   UNL A   1      32.258  26.753  25.005  1.00  0.00     0.012 A 
ATOM     11  C   UNL A   1      32.218  25.774  22.705  1.00  0.00     0.062 C 
ATOM     12  C   UNL A   1      33.097  25.699  25.537  1.00  0.00     0.105 C 
ATOM     13  C   UNL A   1      32.464  24.386  23.387  1.00  0.00     0.072 C 
ATOM     14  C   UNL A   1      33.151  24.368  24.804  1.00  0.00     0.187 C 
BRANCH   7  15
ATOM     15  C   UNL A   1      30.247  28.403  22.515  1.00  0.00     0.141 C 
ATOM     16  C   UNL A   1      29.610  29.772  22.761  1.00  0.00     0.029 C 
ENDBRANCH   7  15
BRANCH  14  17
ATOM     17  N   UNL A   1      32.660  23.243  25.679  1.00  0.00    -0.338 N 
ATOM     18  H   UNL A   1      31.863  23.589  26.213  1.00  0.00     0.346 HD
ATOM     19  H   UNL A   1      33.462  22.972  26.248  1.00  0.00     0.346 HD
BRANCH  17  20
ATOM     20  C   UNL A   1      32.225  21.983  24.967  1.00  0.00     0.320 C 
BRANCH  20  21
ATOM     21  C   UNL A   1      33.287  20.855  24.941  1.00  0.00     0.124 A 
ATOM     22  N   UNL A   1      34.526  21.052  25.456  1.00  0.00    -0.171 NA
ATOM     23  C   UNL A   1      33.236  19.573  24.268  1.00  0.00     0.029 A 
ATOM     24  N   UNL A   1      35.217  19.951  25.072  1.00  0.00    -0.265 N 
ATOM     25  C   UNL A   1      34.420  18.936  24.614  1.00  0.00     0.069 A 
ATOM     26  C   UNL A   1      32.385  18.861  23.403  1.00  0.00     0.012 A 
ATOM     27  C   UNL A   1      34.749  17.615  24.280  1.00  0.00     0.028 A 
ATOM     28  C   UNL A   1      32.857  17.666  22.812  1.00  0.00     0.001 A 
ATOM     29  C   UNL A   1      34.029  17.057  23.237  1.00  0.00     0.002 A 
BRANCH  24  30
ATOM     30  C   UNL A   1      36.662  19.963  24.861  1.00  0.00     0.141 C 
ATOM     31  C   UNL A   1      37.250  21.351  24.542  1.00  0.00     0.029 C 
ENDBRANCH  24  30
ENDBRANCH  20  21
ENDBRANCH  17  20
ENDBRANCH  14  17
ENDBRANCH   3   6
ENDBRANCH   1   2
BRANCH   1  32
ATOM     32  C   UNL A   1      34.624  31.013  27.914  1.00  0.00     0.042 C 
BRANCH  32  33
ATOM     33  C   UNL A   1      36.020  31.031  28.549  1.00  0.00     0.118 C 
BRANCH  33  34
ATOM     34  N   UNL A   1      36.098  30.837  30.002  1.00  0.00    -0.352 N 
ATOM     35  C   UNL A   1      36.617  29.738  30.697  1.00  0.00     0.251 C 
ATOM     36  H   UNL A   1      35.740  31.568  30.555  1.00  0.00     0.163 HD
ATOM     37  O   UNL A   1      36.270  29.523  31.841  1.00  0.00    -0.269 OA
BRANCH  35  38
ATOM     38  C   UNL A   1      37.636  28.874  30.042  1.00  0.00     0.039 A 
ATOM     39  C   UNL A   1      37.950  28.976  28.684  1.00  0.00     0.014 A 
ATOM     40  C   UNL A   1      38.296  27.937  30.829  1.00  0.00     0.014 A 
ATOM     41  C   UNL A   1      39.054  28.269  28.197  1.00  0.00     0.010 A 
ATOM     42  C   UNL A   1      39.417  27.286  30.381  1.00  0.00     0.010 A 
ATOM     43  C   UNL A   1      39.831  27.487  29.076  1.00  0.00    -0.014 A 
BRANCH  43  44
ATOM     44  C   UNL A   1      41.262  27.280  28.835  1.00  0.00     0.031 A 
ATOM     45  C   UNL A   1      41.479  26.060  28.009  1.00  0.00     0.074 A 
ATOM     46  C   UNL A   1      42.236  28.209  28.955  1.00  0.00     0.049 A 
ATOM     47  N   UNL A   1      41.753  24.875  28.442  1.00  0.00    -0.248 NA
ATOM     48  C   UNL A   1      41.048  26.079  26.595  1.00  0.00     0.031 C 
ATOM     49  C   UNL A   1      42.109  29.602  29.385  1.00  0.00     0.029 A 
ATOM     50  N   UNL A   1      43.551  28.122  28.604  1.00  0.00    -0.354 N 
ATOM     51  C   UNL A   1      41.878  24.098  27.299  1.00  0.00     0.074 A 
ATOM     52  C   UNL A   1      41.110  24.778  26.298  1.00  0.00     0.031 C 
ATOM     53  C   UNL A   1      43.247  30.275  29.089  1.00  0.00     0.029 A 
ATOM     54  C   UNL A   1      44.240  29.336  28.589  1.00  0.00     0.049 A 
ATOM     55  H   UNL A   1      43.982  27.266  28.379  1.00  0.00     0.167 HD
ATOM     56  C   UNL A   1      42.898  23.200  27.185  1.00  0.00     0.034 A 
ATOM     57  C   UNL A   1      45.528  29.549  28.193  1.00  0.00     0.034 A 
ATOM     58  C   UNL A   1      43.556  23.028  28.473  1.00  0.00     0.049 A 
ATOM     59  C   UNL A   1      46.221  28.241  28.305  1.00  0.00     0.074 A 
ATOM     60  C   UNL A   1      43.122  22.712  29.748  1.00  0.00     0.029 A 
ATOM     61  N   UNL A   1      44.786  23.635  28.645  1.00  0.00    -0.354 N 
ATOM     62  N   UNL A   1      46.399  27.623  29.441  1.00  0.00    -0.248 NA
ATOM     63  C   UNL A   1      46.270  27.387  27.127  1.00  0.00     0.031 C 
ATOM     64  C   UNL A   1      43.849  23.587  30.612  1.00  0.00     0.029 A 
ATOM     65  C   UNL A   1      44.779  24.296  29.849  1.00  0.00     0.049 A 
ATOM     66  H   UNL A   1      45.538  23.599  28.013  1.00  0.00     0.167 HD
ATOM     67  C   UNL A   1      46.108  26.295  29.173  1.00  0.00     0.074 A 
ATOM     68  C   UNL A   1      46.154  26.191  27.714  1.00  0.00     0.031 C 
ATOM     69  C   UNL A   1      45.566  25.486  30.132  1.00  0.00     0.034 A 
BRANCH  56  70
ATOM     70  C   UNL A   1      43.593  22.824  25.886  1.00  0.00     0.023 A 
ATOM     71  C   UNL A   1      43.777  21.448  25.656  1.00  0.00     0.031 A 
ATOM     72  C   UNL A   1      44.312  23.681  25.020  1.00  0.00     0.131 A 
ATOM     73  C   UNL A   1      44.736  20.985  24.742  1.00  0.00     0.055 A 
ATOM     74  C   UNL A   1      45.221  23.213  24.065  1.00  0.00     0.041 A 
ATOM     75  F   UNL A   1      44.248  25.014  25.080  1.00  0.00    -0.206 F 
ATOM     76  C   UNL A   1      45.469  21.860  23.947  1.00  0.00     0.022 A 
BRANCH  73  77
ATOM     77  S   UNL A   1      45.137  19.223  24.758  1.00  0.00     0.124 S 
ATOM     78  O   UNL A   1      44.116  18.709  25.666  1.00  0.00    -0.237 OA
ATOM     79  O   UNL A   1      44.988  18.871  23.350  1.00  0.00    -0.237 OA
ATOM     80  O   UNL A   1      46.506  19.193  25.268  1.00  0.00    -0.744 OA
ENDBRANCH  73  77
ENDBRANCH  56  70
BRANCH  57  81
ATOM     81  C   UNL A   1      46.126  30.727  27.490  1.00  0.00     0.023 A 
ATOM     82  C   UNL A   1      45.376  31.593  26.655  1.00  0.00     0.031 A 
ATOM     83  C   UNL A   1      47.413  31.175  27.859  1.00  0.00     0.131 A 
ATOM     84  C   UNL A   1      45.914  32.840  26.243  1.00  0.00     0.055 A 
ATOM     85  C   UNL A   1      47.935  32.407  27.454  1.00  0.00     0.041 A 
ATOM     86  F   UNL A   1      48.176  30.467  28.706  1.00  0.00    -0.206 F 
ATOM     87  C   UNL A   1      47.183  33.251  26.654  1.00  0.00     0.022 A 
BRANCH  84  88
ATOM     88  S   UNL A   1      44.929  34.006  25.239  1.00  0.00     0.124 S 
ATOM     89  O   UNL A   1      45.959  34.850  24.642  1.00  0.00    -0.237 OA
ATOM     90  O   UNL A   1      44.212  33.116  24.333  1.00  0.00    -0.237 OA
ATOM     91  O   UNL A   1      44.084  34.680  26.226  1.00  0.00    -0.744 OA
ENDBRANCH  84  88
ENDBRANCH  57  81
BRANCH  69  92
ATOM     92  C   UNL A   1      45.634  25.936  31.582  1.00  0.00     0.023 A 
ATOM     93  C   UNL A   1      44.547  26.405  32.358  1.00  0.00     0.031 A 
ATOM     94  C   UNL A   1      46.873  25.780  32.231  1.00  0.00     0.131 A 
ATOM     95  C   UNL A   1      44.734  26.705  33.725  1.00  0.00     0.055 A 
ATOM     96  C   UNL A   1      47.046  26.053  33.586  1.00  0.00     0.041 A 
ATOM     97  F   UNL A   1      47.942  25.323  31.557  1.00  0.00    -0.206 F 
ATOM     98  C   UNL A   1      45.977  26.524  34.337  1.00  0.00     0.022 A 
BRANCH  95  99
ATOM     99  S   UNL A   1      43.367  27.366  34.737  1.00  0.00     0.124 S 
ATOM    100  O   UNL A   1      42.304  27.603  33.767  1.00  0.00    -0.237 OA
ATOM    101  O   UNL A   1      43.130  26.286  35.692  1.00  0.00    -0.237 OA
ATOM    102  O   UNL A   1      43.936  28.579  35.326  1.00  0.00    -0.744 OA
ENDBRANCH  95  99
ENDBRANCH  69  92
ENDBRANCH  43  44
ENDBRANCH  35  38
ENDBRANCH  33  34
ENDBRANCH  32  33
ENDBRANCH   1  32
TORSDOF 18
ENDMDL
MODEL 2
REMARK VINA RESULT:     -13.3      3.622      9.097
REMARK SMILES CCn1nc(C(=O)NCCCNC(=O)c2ccc(-c3c4nc(c(-c5cc(S(=O)(=O)[O-])ccc5F)c5ccc([nH]5)c(-c5cc(S(=O)(=O)[O-])ccc5F)c5nc(c(-c6cc(S(=O)(=O)[O-])ccc6F)c6ccc3[nH]6)C=C5)C=C4)cc2)c2c1CC[C@H]([NH2+]Cc1nn(CC)c3ccccc13)C2
REMARK SMILES IDX 9 1 8 2 6 3 7 4 5 6 3 7 4 8 79 9 78 10 80 11 96 12 81 13
REMARK SMILES IDX 82 14 2 15 1 16 83 17 84 20 85 21 86 22 95 23 87 24 90 25
REMARK SMILES IDX 94 26 91 27 93 28 92 29 88 30 89 31 10 32 11 33 12 34 13 35
REMARK SMILES IDX 14 37 15 38 16 39 77 40 17 41 76 42 18 43 19 44 20 45 70 46
REMARK SMILES IDX 21 47 75 48 69 49 71 50 22 51 74 52 68 53 67 54 23 56 55 57
REMARK SMILES IDX 35 58 54 59 36 60 39 61 53 62 72 63 37 64 38 65 52 67 73 68
REMARK SMILES IDX 40 69 24 70 25 71 33 72 26 73 32 74 34 75 31 76 27 77 28 78
REMARK SMILES IDX 29 79 30 80 56 81 57 82 65 83 58 84 64 85 66 86 63 87 59 88
REMARK SMILES IDX 60 89 61 90 62 91 41 92 42 93 50 94 43 95 49 96 51 97 48 98
REMARK SMILES IDX 44 99 45 100 46 101 47 102
REMARK H PARENT 8 5 83 18 83 19 12 36 71 55 39 66
REMARK Flexibility Score: inf
ROOT
ATOM      1  C   UNL A   1      38.229  22.584  25.773  1.00  0.00     0.118 C 
ENDROOT
BRANCH   1   2
ATOM      2  N   UNL A   1      37.679  22.323  24.427  1.00  0.00    -0.351 N 
ATOM      3  C   UNL A   1      36.494  22.668  23.783  1.00  0.00     0.272 C 
ATOM      4  O   UNL A   1      36.640  23.258  22.706  1.00  0.00    -0.267 OA
ATOM      5  H   UNL A   1      38.282  21.787  23.863  1.00  0.00     0.163 HD
BRANCH   3   6
ATOM      6  C   UNL A   1      35.153  22.196  24.214  1.00  0.00     0.153 A 
ATOM      7  N   UNL A   1      33.685  20.836  25.036  1.00  0.00    -0.269 N 
ATOM      8  N   UNL A   1      34.994  20.955  24.723  1.00  0.00    -0.167 NA
ATOM      9  C   UNL A   1      32.983  21.976  24.757  1.00  0.00     0.043 A 
ATOM     10  C   UNL A   1      33.899  22.833  24.215  1.00  0.00     0.012 A 
ATOM     11  C   UNL A   1      31.560  22.347  24.955  1.00  0.00     0.062 C 
ATOM     12  C   UNL A   1      33.556  24.136  23.682  1.00  0.00     0.105 C 
ATOM     13  C   UNL A   1      31.094  23.321  23.820  1.00  0.00     0.072 C 
ATOM     14  C   UNL A   1      32.106  24.419  23.324  1.00  0.00     0.187 C 
BRANCH   7  15
ATOM     15  C   UNL A   1      33.237  19.607  25.672  1.00  0.00     0.141 C 
ATOM     16  C   UNL A   1      32.546  18.618  24.731  1.00  0.00     0.029 C 
ENDBRANCH   7  15
BRANCH  14  17
ATOM     17  N   UNL A   1      31.959  24.732  21.856  1.00  0.00    -0.338 N 
ATOM     18  H   UNL A   1      31.000  24.510  21.586  1.00  0.00     0.346 HD
ATOM     19  H   UNL A   1      32.669  24.172  21.386  1.00  0.00     0.346 HD
BRANCH  17  20
ATOM     20  C   UNL A   1      32.234  26.160  21.446  1.00  0.00     0.320 C 
BRANCH  20  21
ATOM     21  C   UNL A   1      31.632  27.232  22.388  1.00  0.00     0.124 A 
ATOM     22  N   UNL A   1      30.413  27.772  22.140  1.00  0.00    -0.171 NA
ATOM     23  C   UNL A   1      32.260  27.929  23.492  1.00  0.00     0.029 A 
ATOM     24  N   UNL A   1      30.321  28.790  23.031  1.00  0.00    -0.265 N 
ATOM     25  C   UNL A   1      31.263  28.738  24.023  1.00  0.00     0.069 A 
ATOM     26  C   UNL A   1      33.520  28.019  24.112  1.00  0.00     0.012 A 
ATOM     27  C   UNL A   1      31.390  29.511  25.185  1.00  0.00     0.028 A 
ATOM     28  C   UNL A   1      33.734  29.030  25.079  1.00  0.00     0.001 A 
ATOM     29  C   UNL A   1      32.685  29.772  25.600  1.00  0.00     0.002 A 
BRANCH  24  30
ATOM     30  C   UNL A   1      29.521  29.986  22.779  1.00  0.00     0.141 C 
ATOM     31  C   UNL A   1      28.161  29.716  22.107  1.00  0.00     0.029 C 
ENDBRANCH  24  30
ENDBRANCH  20  21
ENDBRANCH  17  20
ENDBRANCH  14  17
ENDBRANCH   3   6
ENDBRANCH   1   2
BRANCH   1  32
ATOM     32  C   UNL A   1      39.300  21.572  26.222  1.00  0.00     0.042 C 
BRANCH  32  33
ATOM     33  C   UNL A   1      40.496  22.176  26.971  1.00  0.00     0.118 C 
BRANCH  33  34
ATOM     34  N   UNL A   1      41.553  22.790  26.159  1.00  0.00    -0.352 N 
ATOM     35  C   UNL A   1      41.927  24.138  26.108  1.00  0.00     0.251 C 
ATOM     36  H   UNL A   1      42.062  22.178  25.578  1.00  0.00     0.163 HD
ATOM     37  O   UNL A   1      42.518  24.569  25.138  1.00  0.00    -0.269 OA
BRANCH  35  38
ATOM     38  C   UNL A   1      41.644  25.018  27.274  1.00  0.00     0.039 A 
ATOM     39  C   UNL A   1      42.542  25.180  28.333  1.00  0.00     0.014 A 
ATOM     40  C   UNL A   1      40.434  25.704  27.291  1.00  0.00     0.014 A 
ATOM     41  C   UNL A   1      42.284  26.174  29.282  1.00  0.00     0.010 A 
ATOM     42  C   UNL A   1      40.199  26.723  28.178  1.00  0.00     0.010 A 
ATOM     43  C   UNL A   1      41.147  26.996  29.149  1.00  0.00    -0.014 A 
BRANCH  43  44
ATOM     44  C   UNL A   1      41.150  28.375  29.648  1.00  0.00     0.031 A 
ATOM     45  C   UNL A   1      42.113  29.205  28.873  1.00  0.00     0.074 A 
ATOM     46  C   UNL A   1      40.184  28.959  30.391  1.00  0.00     0.049 A 
ATOM     47  N   UNL A   1      43.334  29.472  29.196  1.00  0.00    -0.248 NA
ATOM     48  C   UNL A   1      41.804  29.513  27.461  1.00  0.00     0.031 C 
ATOM     49  C   UNL A   1      38.951  28.361  30.904  1.00  0.00     0.029 A 
ATOM     50  N   UNL A   1      40.057  30.266  30.756  1.00  0.00    -0.354 N 
ATOM     51  C   UNL A   1      43.804  30.286  28.176  1.00  0.00     0.074 A 
ATOM     52  C   UNL A   1      42.985  29.974  27.041  1.00  0.00     0.031 C 
ATOM     53  C   UNL A   1      38.119  29.336  31.341  1.00  0.00     0.029 A 
ATOM     54  C   UNL A   1      38.812  30.614  31.283  1.00  0.00     0.049 A 
ATOM     55  H   UNL A   1      40.789  30.917  30.655  1.00  0.00     0.167 HD
ATOM     56  C   UNL A   1      44.545  31.394  28.464  1.00  0.00     0.034 A 
ATOM     57  C   UNL A   1      38.386  31.861  31.642  1.00  0.00     0.034 A 
ATOM     58  C   UNL A   1      44.951  31.371  29.863  1.00  0.00     0.049 A 
ATOM     59  C   UNL A   1      39.610  32.664  31.890  1.00  0.00     0.074 A 
ATOM     60  C   UNL A   1      45.599  30.452  30.668  1.00  0.00     0.029 A 
ATOM     61  N   UNL A   1      44.284  32.214  30.731  1.00  0.00    -0.354 N 
ATOM     62  N   UNL A   1      40.457  32.395  32.846  1.00  0.00    -0.248 NA
ATOM     63  C   UNL A   1      40.153  33.445  30.788  1.00  0.00     0.031 C 
ATOM     64  C   UNL A   1      44.886  30.479  31.906  1.00  0.00     0.029 A 
ATOM     65  C   UNL A   1      43.929  31.495  31.847  1.00  0.00     0.049 A 
ATOM     66  H   UNL A   1      44.096  33.167  30.578  1.00  0.00     0.167 HD
ATOM     67  C   UNL A   1      41.707  32.547  32.265  1.00  0.00     0.074 A 
ATOM     68  C   UNL A   1      41.459  33.308  31.040  1.00  0.00     0.031 C 
ATOM     69  C   UNL A   1      42.768  31.788  32.673  1.00  0.00     0.034 A 
BRANCH  56  70
ATOM     70  C   UNL A   1      44.534  32.687  27.665  1.00  0.00     0.023 A 
ATOM     71  C   UNL A   1      43.976  33.809  28.307  1.00  0.00     0.031 A 
ATOM     72  C   UNL A   1      44.760  32.839  26.277  1.00  0.00     0.131 A 
ATOM     73  C   UNL A   1      43.531  34.920  27.575  1.00  0.00     0.055 A 
ATOM     74  C   UNL A   1      44.373  33.976  25.560  1.00  0.00     0.041 A 
ATOM     75  F   UNL A   1      45.296  31.887  25.508  1.00  0.00    -0.206 F 
ATOM     76  C   UNL A   1      43.717  35.010  26.200  1.00  0.00     0.022 A 
BRANCH  73  77
ATOM     77  S   UNL A   1      42.531  36.154  28.436  1.00  0.00     0.124 S 
ATOM     78  O   UNL A   1      42.915  37.372  27.730  1.00  0.00    -0.237 OA
ATOM     79  O   UNL A   1      41.178  35.664  28.192  1.00  0.00    -0.237 OA
ATOM     80  O   UNL A   1      42.991  36.055  29.819  1.00  0.00    -0.744 OA
ENDBRANCH  73  77
ENDBRANCH  56  70
BRANCH  57  81
ATOM     81  C   UNL A   1      37.024  32.469  31.536  1.00  0.00     0.023 A 
ATOM     82  C   UNL A   1      36.456  32.887  30.306  1.00  0.00     0.031 A 
ATOM     83  C   UNL A   1      36.143  32.393  32.637  1.00  0.00     0.131 A 
ATOM     84  C   UNL A   1      35.072  33.191  30.219  1.00  0.00     0.055 A 
ATOM     85  C   UNL A   1      34.780  32.689  32.542  1.00  0.00     0.041 A 
ATOM     86  F   UNL A   1      36.561  31.938  33.828  1.00  0.00    -0.206 F 
ATOM     87  C   UNL A   1      34.235  33.077  31.330  1.00  0.00     0.022 A 
BRANCH  84  88
ATOM     88  S   UNL A   1      34.306  33.647  28.623  1.00  0.00     0.124 S 
ATOM     89  O   UNL A   1      32.934  33.954  29.014  1.00  0.00    -0.237 OA
ATOM     90  O   UNL A   1      35.126  34.772  28.189  1.00  0.00    -0.237 OA
ATOM     91  O   UNL A   1      34.455  32.437  27.813  1.00  0.00    -0.744 OA
ENDBRANCH  84  88
ENDBRANCH  57  81
BRANCH  69  92
ATOM     92  C   UNL A   1      42.668  31.058  34.002  1.00  0.00     0.023 A 
ATOM     93  C   UNL A   1      42.335  29.693  34.176  1.00  0.00     0.031 A 
ATOM     94  C   UNL A   1      43.034  31.787  35.149  1.00  0.00     0.131 A 
ATOM     95  C   UNL A   1      42.369  29.119  35.466  1.00  0.00     0.055 A 
ATOM     96  C   UNL A   1      43.089  31.209  36.415  1.00  0.00     0.041 A 
ATOM     97  F   UNL A   1      43.378  33.082  35.051  1.00  0.00    -0.206 F 
ATOM     98  C   UNL A   1      42.749  29.873  36.580  1.00  0.00     0.022 A 
BRANCH  95  99
ATOM     99  S   UNL A   1      41.889  27.379  35.732  1.00  0.00     0.124 S 
ATOM    100  O   UNL A   1      43.159  26.663  35.699  1.00  0.00    -0.237 OA
ATOM    101  O   UNL A   1      41.219  27.430  37.028  1.00  0.00    -0.237 OA
ATOM    102  O   UNL A   1      41.000  27.095  34.603  1.00  0.00    -0.744 OA
ENDBRANCH  95  99
ENDBRANCH  69  92
ENDBRANCH  43  44
ENDBRANCH  35  38
ENDBRANCH  33  34
ENDBRANCH  32  33
ENDBRANCH   1  32
TORSDOF 18
ENDMDL
MODEL 3
REMARK VINA RESULT:     -13.0      2.150      2.412
REMARK SMILES CCn1nc(C(=O)NCCCNC(=O)c2ccc(-c3c4nc(c(-c5cc(S(=O)(=O)[O-])ccc5F)c5ccc([nH]5)c(-c5cc(S(=O)(=O)[O-])ccc5F)c5nc(c(-c6cc(S(=O)(=O)[O-])ccc6F)c6ccc3[nH]6)C=C5)C=C4)cc2)c2c1CC[C@H]([NH2+]Cc1nn(CC)c3ccccc13)C2
REMARK SMILES IDX 9 1 8 2 6 3 7 4 5 6 3 7 4 8 79 9 78 10 80 11 96 12 81 13
REMARK SMILES IDX 82 14 2 15 1 16 83 17 84 20 85 21 86 22 95 23 87 24 90 25
REMARK SMILES IDX 94 26 91 27 93 28 92 29 88 30 89 31 10 32 11 33 12 34 13 35
REMARK SMILES IDX 14 37 15 38 16 39 77 40 17 41 76 42 18 43 19 44 20 45 70 46
REMARK SMILES IDX 21 47 75 48 69 49 71 50 22 51 74 52 68 53 67 54 23 56 55 57
REMARK SMILES IDX 35 58 54 59 36 60 39 61 53 62 72 63 37 64 38 65 52 67 73 68
REMARK SMILES IDX 40 69 24 70 25 71 33 72 26 73 32 74 34 75 31 76 27 77 28 78
REMARK SMILES IDX 29 79 30 80 56 81 57 82 65 83 58 84 64 85 66 86 63 87 59 88
REMARK SMILES IDX 60 89 61 90 62 91 41 92 42 93 50 94 43 95 49 96 51 97 48 98
REMARK SMILES IDX 44 99 45 100 46 101 47 102
REMARK H PARENT 8 5 83 18 83 19 12 36 71 55 39 66
REMARK Flexibility Score: inf
ROOT
ATOM      1  C   UNL A   1      34.169  29.820  26.951  1.00  0.00     0.118 C 
ENDROOT
BRANCH   1   2
ATOM      2  N   UNL A   1      32.756  29.490  27.228  1.00  0.00    -0.351 N 
ATOM      3  C   UNL A   1      31.938  28.406  26.918  1.00  0.00     0.272 C 
ATOM      4  O   UNL A   1      31.394  27.870  27.890  1.00  0.00    -0.267 OA
ATOM      5  H   UNL A   1      32.292  30.187  27.745  1.00  0.00     0.163 HD
BRANCH   3   6
ATOM      6  C   UNL A   1      31.554  28.032  25.532  1.00  0.00     0.153 A 
ATOM      7  N   UNL A   1      30.575  28.222  23.612  1.00  0.00    -0.269 N 
ATOM      8  N   UNL A   1      30.706  28.809  24.822  1.00  0.00    -0.167 NA
ATOM      9  C   UNL A   1      31.330  27.087  23.505  1.00  0.00     0.043 A 
ATOM     10  C   UNL A   1      31.933  26.946  24.724  1.00  0.00     0.012 A 
ATOM     11  C   UNL A   1      31.551  26.136  22.389  1.00  0.00     0.062 C 
ATOM     12  C   UNL A   1      32.755  25.808  25.081  1.00  0.00     0.105 C 
ATOM     13  C   UNL A   1      31.780  24.691  22.949  1.00  0.00     0.072 C 
ATOM     14  C   UNL A   1      32.628  24.531  24.266  1.00  0.00     0.187 C 
BRANCH   7  15
ATOM     15  C   UNL A   1      29.759  28.888  22.609  1.00  0.00     0.141 C 
ATOM     16  C   UNL A   1      29.371  30.326  22.955  1.00  0.00     0.029 C 
ENDBRANCH   7  15
BRANCH  14  17
ATOM     17  N   UNL A   1      32.168  23.380  25.123  1.00  0.00    -0.338 N 
ATOM     18  H   UNL A   1      31.310  23.666  25.595  1.00  0.00     0.346 HD
ATOM     19  H   UNL A   1      32.948  23.181  25.751  1.00  0.00     0.346 HD
BRANCH  17  20
ATOM     20  C   UNL A   1      31.887  22.081  24.404  1.00  0.00     0.320 C 
BRANCH  20  21
ATOM     21  C   UNL A   1      32.972  20.990  24.590  1.00  0.00     0.124 A 
ATOM     22  N   UNL A   1      34.138  21.268  25.223  1.00  0.00    -0.171 NA
ATOM     23  C   UNL A   1      33.028  19.658  24.023  1.00  0.00     0.029 A 
ATOM     24  N   UNL A   1      34.895  20.163  25.011  1.00  0.00    -0.265 N 
ATOM     25  C   UNL A   1      34.180  19.090  24.551  1.00  0.00     0.069 A 
ATOM     26  C   UNL A   1      32.299  18.852  23.130  1.00  0.00     0.012 A 
ATOM     27  C   UNL A   1      34.577  17.758  24.366  1.00  0.00     0.028 A 
ATOM     28  C   UNL A   1      32.864  17.630  22.696  1.00  0.00     0.001 A 
ATOM     29  C   UNL A   1      33.994  17.096  23.299  1.00  0.00     0.002 A 
BRANCH  24  30
ATOM     30  C   UNL A   1      36.354  20.207  24.963  1.00  0.00     0.141 C 
ATOM     31  C   UNL A   1      36.938  21.537  24.449  1.00  0.00     0.029 C 
ENDBRANCH  24  30
ENDBRANCH  20  21
ENDBRANCH  17  20
ENDBRANCH  14  17
ENDBRANCH   3   6
ENDBRANCH   1   2
BRANCH   1  32
ATOM     32  C   UNL A   1      34.700  31.027  27.748  1.00  0.00     0.042 C 
BRANCH  32  33
ATOM     33  C   UNL A   1      36.143  30.892  28.252  1.00  0.00     0.118 C 
BRANCH  33  34
ATOM     34  N   UNL A   1      36.330  30.596  29.678  1.00  0.00    -0.352 N 
ATOM     35  C   UNL A   1      37.099  29.576  30.252  1.00  0.00     0.251 C 
ATOM     36  H   UNL A   1      35.855  31.186  30.307  1.00  0.00     0.163 HD
ATOM     37  O   UNL A   1      36.860  29.197  31.381  1.00  0.00    -0.269 OA
BRANCH  35  38
ATOM     38  C   UNL A   1      38.242  29.006  29.489  1.00  0.00     0.039 A 
ATOM     39  C   UNL A   1      39.060  29.783  28.664  1.00  0.00     0.014 A 
ATOM     40  C   UNL A   1      38.495  27.645  29.618  1.00  0.00     0.014 A 
ATOM     41  C   UNL A   1      40.226  29.209  28.145  1.00  0.00     0.010 A 
ATOM     42  C   UNL A   1      39.663  27.086  29.169  1.00  0.00     0.010 A 
ATOM     43  C   UNL A   1      40.559  27.879  28.471  1.00  0.00    -0.014 A 
BRANCH  43  44
ATOM     44  C   UNL A   1      41.958  27.447  28.539  1.00  0.00     0.031 A 
ATOM     45  C   UNL A   1      42.180  26.265  27.660  1.00  0.00     0.074 A 
ATOM     46  C   UNL A   1      43.004  28.187  28.969  1.00  0.00     0.049 A 
ATOM     47  N   UNL A   1      42.161  25.025  28.018  1.00  0.00    -0.248 NA
ATOM     48  C   UNL A   1      42.106  26.449  26.196  1.00  0.00     0.031 C 
ATOM     49  C   UNL A   1      42.989  29.550  29.501  1.00  0.00     0.029 A 
ATOM     50  N   UNL A   1      44.336  27.900  28.916  1.00  0.00    -0.354 N 
ATOM     51  C   UNL A   1      42.437  24.314  26.859  1.00  0.00     0.074 A 
ATOM     52  C   UNL A   1      42.041  25.179  25.787  1.00  0.00     0.031 C 
ATOM     53  C   UNL A   1      44.253  30.037  29.540  1.00  0.00     0.029 A 
ATOM     54  C   UNL A   1      45.183  28.977  29.182  1.00  0.00     0.049 A 
ATOM     55  H   UNL A   1      44.675  27.000  28.706  1.00  0.00     0.167 HD
ATOM     56  C   UNL A   1      43.308  23.265  26.884  1.00  0.00     0.034 A 
ATOM     57  C   UNL A   1      46.546  28.993  29.109  1.00  0.00     0.034 A 
ATOM     58  C   UNL A   1      43.606  22.899  28.263  1.00  0.00     0.049 A 
ATOM     59  C   UNL A   1      46.987  27.581  29.238  1.00  0.00     0.074 A 
ATOM     60  C   UNL A   1      42.838  22.580  29.367  1.00  0.00     0.029 A 
ATOM     61  N   UNL A   1      44.836  23.275  28.768  1.00  0.00    -0.354 N 
ATOM     62  N   UNL A   1      46.794  26.870  30.315  1.00  0.00    -0.248 NA
ATOM     63  C   UNL A   1      47.186  26.811  28.019  1.00  0.00     0.031 C 
ATOM     64  C   UNL A   1      43.461  23.259  30.459  1.00  0.00     0.029 A 
ATOM     65  C   UNL A   1      44.642  23.848  30.001  1.00  0.00     0.049 A 
ATOM     66  H   UNL A   1      45.704  23.153  28.321  1.00  0.00     0.167 HD
ATOM     67  C   UNL A   1      46.379  25.630  29.852  1.00  0.00     0.074 A 
ATOM     68  C   UNL A   1      46.755  25.616  28.438  1.00  0.00     0.031 C 
ATOM     69  C   UNL A   1      45.509  24.865  30.576  1.00  0.00     0.034 A 
BRANCH  56  70
ATOM     70  C   UNL A   1      44.228  22.862  25.743  1.00  0.00     0.023 A 
ATOM     71  C   UNL A   1      44.316  21.484  25.474  1.00  0.00     0.031 A 
ATOM     72  C   UNL A   1      45.203  23.665  25.105  1.00  0.00     0.131 A 
ATOM     73  C   UNL A   1      45.399  20.950  24.758  1.00  0.00     0.055 A 
ATOM     74  C   UNL A   1      46.245  23.133  24.338  1.00  0.00     0.041 A 
ATOM     75  F   UNL A   1      45.264  24.992  25.231  1.00  0.00    -0.206 F 
ATOM     76  C   UNL A   1      46.374  21.765  24.193  1.00  0.00     0.022 A 
BRANCH  73  77
ATOM     77  S   UNL A   1      45.605  19.155  24.752  1.00  0.00     0.124 S 
ATOM     78  O   UNL A   1      44.293  18.719  25.221  1.00  0.00    -0.237 OA
ATOM     79  O   UNL A   1      45.909  18.895  23.348  1.00  0.00    -0.237 OA
ATOM     80  O   UNL A   1      46.710  18.938  25.682  1.00  0.00    -0.744 OA
ENDBRANCH  73  77
ENDBRANCH  56  70
BRANCH  57  81
ATOM     81  C   UNL A   1      47.464  30.095  28.684  1.00  0.00     0.023 A 
ATOM     82  C   UNL A   1      48.496  30.606  29.512  1.00  0.00     0.031 A 
ATOM     83  C   UNL A   1      47.506  30.478  27.326  1.00  0.00     0.131 A 
ATOM     84  C   UNL A   1      49.506  31.442  28.970  1.00  0.00     0.055 A 
ATOM     85  C   UNL A   1      48.508  31.298  26.797  1.00  0.00     0.041 A 
ATOM     86  F   UNL A   1      46.622  29.992  26.442  1.00  0.00    -0.206 F 
ATOM     87  C   UNL A   1      49.520  31.773  27.614  1.00  0.00     0.022 A 
BRANCH  84  88
ATOM     88  S   UNL A   1      50.891  32.038  30.003  1.00  0.00     0.124 S 
ATOM     89  O   UNL A   1      51.917  31.029  29.760  1.00  0.00    -0.237 OA
ATOM     90  O   UNL A   1      51.144  33.367  29.457  1.00  0.00    -0.237 OA
ATOM     91  O   UNL A   1      50.336  32.032  31.357  1.00  0.00    -0.744 OA
ENDBRANCH  84  88
ENDBRANCH  57  81
BRANCH  69  92
ATOM     92  C   UNL A   1      45.296  25.201  32.043  1.00  0.00     0.023 A 
ATOM     93  C   UNL A   1      46.142  24.823  33.112  1.00  0.00     0.031 A 
ATOM     94  C   UNL A   1      44.208  26.042  32.344  1.00  0.00     0.131 A 
ATOM     95  C   UNL A   1      45.874  25.282  34.420  1.00  0.00     0.055 A 
ATOM     96  C   UNL A   1      43.962  26.513  33.631  1.00  0.00     0.041 A 
ATOM     97  F   UNL A   1      43.376  26.452  31.372  1.00  0.00    -0.206 F 
ATOM     98  C   UNL A   1      44.790  26.128  34.677  1.00  0.00     0.022 A 
BRANCH  95  99
ATOM     99  S   UNL A   1      46.912  24.766  35.829  1.00  0.00     0.124 S 
ATOM    100  O   UNL A   1      48.087  24.181  35.194  1.00  0.00    -0.237 OA
ATOM    101  O   UNL A   1      47.130  26.024  36.538  1.00  0.00    -0.237 OA
ATOM    102  O   UNL A   1      46.065  23.809  36.543  1.00  0.00    -0.744 OA
ENDBRANCH  95  99
ENDBRANCH  69  92
ENDBRANCH  43  44
ENDBRANCH  35  38
ENDBRANCH  33  34
ENDBRANCH  32  33
ENDBRANCH   1  32
TORSDOF 18
ENDMDL
