MODEL 1
REMARK VINA RESULT:     -13.8      0.000      0.000
REMARK SMILES O=C(COc1cccc(NC(=O)c2ccc3c(c2)C(=O)N(c2ccccc2-c2ccccc2)C3=O)c1)NCCCNC(=O)c1ccc(-c2c3nc(c(-c4cc(S(=O)(=O)[O-])ccc4F)c4ccc([nH]4)c(-c4cc(S(=O)(=O)[O-])ccc4F)c4nc(c(-c5cc(S(=O)(=O)[O-])ccc5F)c5ccc2[nH]5)C=C4)C=C3)cc1
REMARK SMILES IDX 1 1 2 2 37 3 3 5 4 6 5 7 6 8 36 9 7 10 9 11 8 12 10 13 11 14
REMARK SMILES IDX 12 16 13 17 14 18 18 19 15 20 17 21 16 22 19 23 34 24 20 25
REMARK SMILES IDX 21 26 35 27 22 28 23 29 27 30 24 31 26 32 25 33 28 34 29 35
REMARK SMILES IDX 33 36 30 37 32 38 31 39 38 40 39 41 40 42 41 43 42 44 43 46
REMARK SMILES IDX 44 47 45 48 106 49 46 50 105 51 47 52 48 53 49 54 99 55
REMARK SMILES IDX 50 56 104 57 98 58 100 59 51 60 103 61 97 62 96 63 52 65
REMARK SMILES IDX 84 66 64 67 83 68 65 69 68 70 82 71 101 72 66 73 67 74 81 76
REMARK SMILES IDX 102 77 69 78 53 79 54 80 62 81 55 82 61 83 63 84 60 85 56 86
REMARK SMILES IDX 57 87 58 88 59 89 85 90 86 91 94 92 87 93 93 94 95 95 92 96
REMARK SMILES IDX 88 97 89 98 90 99 91 100 70 101 71 102 79 103 72 104 78 105
REMARK SMILES IDX 80 106 77 107 73 108 74 109 75 110 76 111
REMARK H PARENT 37 4 10 15 41 45 100 64 68 75
REMARK Flexibility Score: inf
ROOT
ATOM      1  O   UNL A   1      41.126  21.979  27.683  1.00  0.00    -0.271 OA
ATOM      2  C   UNL A   1      40.891  21.479  26.587  1.00  0.00     0.257 C 
ATOM      3  N   UNL A   1      41.869  21.131  25.677  1.00  0.00    -0.353 N 
ATOM      4  H   UNL A   1      41.628  20.553  24.917  1.00  0.00     0.163 HD
ENDROOT
BRANCH   2   5
ATOM      5  C   UNL A   1      39.465  21.252  26.082  1.00  0.00     0.329 C 
BRANCH   5   6
ATOM      6  O   UNL A   1      38.555  22.331  26.276  1.00  0.00    -0.484 OA
BRANCH   6   7
ATOM      7  C   UNL A   1      37.443  22.344  25.476  1.00  0.00     0.122 A 
ATOM      8  C   UNL A   1      37.143  23.569  24.890  1.00  0.00     0.046 A 
ATOM      9  C   UNL A   1      36.533  21.283  25.363  1.00  0.00     0.072 A 
ATOM     10  C   UNL A   1      35.944  23.731  24.207  1.00  0.00     0.006 A 
ATOM     11  C   UNL A   1      35.304  21.436  24.709  1.00  0.00     0.045 A 
ATOM     12  C   UNL A   1      35.024  22.677  24.140  1.00  0.00     0.026 A 
BRANCH  11  13
ATOM     13  N   UNL A   1      34.400  20.343  24.779  1.00  0.00    -0.322 N 
ATOM     14  C   UNL A   1      33.167  20.182  25.384  1.00  0.00     0.255 C 
ATOM     15  H   UNL A   1      34.712  19.541  24.300  1.00  0.00     0.170 HD
ATOM     16  O   UNL A   1      32.656  19.078  25.537  1.00  0.00    -0.269 OA
BRANCH  14  17
ATOM     17  C   UNL A   1      32.384  21.376  25.723  1.00  0.00     0.041 A 
ATOM     18  C   UNL A   1      32.415  21.901  27.034  1.00  0.00     0.015 A 
ATOM     19  C   UNL A   1      31.847  22.085  24.651  1.00  0.00     0.028 A 
ATOM     20  C   UNL A   1      32.086  23.249  27.246  1.00  0.00     0.015 A 
ATOM     21  C   UNL A   1      31.555  23.403  24.900  1.00  0.00     0.054 A 
ATOM     22  C   UNL A   1      31.730  23.991  26.129  1.00  0.00     0.053 A 
ATOM     23  C   UNL A   1      31.374  24.452  23.923  1.00  0.00     0.266 C 
ATOM     24  C   UNL A   1      31.718  25.439  25.894  1.00  0.00     0.266 C 
ATOM     25  O   UNL A   1      30.935  24.177  22.822  1.00  0.00    -0.268 OA
ATOM     26  N   UNL A   1      31.776  25.623  24.527  1.00  0.00    -0.242 N 
ATOM     27  O   UNL A   1      31.586  26.201  26.834  1.00  0.00    -0.268 OA
BRANCH  26  28
ATOM     28  C   UNL A   1      32.217  26.779  23.783  1.00  0.00     0.060 A 
ATOM     29  C   UNL A   1      33.611  27.026  23.697  1.00  0.00     0.027 A 
ATOM     30  C   UNL A   1      31.371  27.783  23.240  1.00  0.00     0.006 A 
ATOM     31  C   UNL A   1      34.161  28.167  23.108  1.00  0.00     0.002 A 
ATOM     32  C   UNL A   1      31.955  28.921  22.616  1.00  0.00     0.011 A 
ATOM     33  C   UNL A   1      33.330  29.115  22.553  1.00  0.00     0.001 A 
BRANCH  30  34
ATOM     34  C   UNL A   1      29.906  27.841  23.354  1.00  0.00    -0.016 A 
ATOM     35  C   UNL A   1      29.181  26.741  23.838  1.00  0.00     0.009 A 
ATOM     36  C   UNL A   1      29.197  28.966  22.900  1.00  0.00     0.009 A 
ATOM     37  C   UNL A   1      27.788  26.790  23.927  1.00  0.00     0.001 A 
ATOM     38  C   UNL A   1      27.803  29.012  22.984  1.00  0.00     0.001 A 
ATOM     39  C   UNL A   1      27.101  27.928  23.508  1.00  0.00     0.000 A 
ENDBRANCH  30  34
ENDBRANCH  26  28
ENDBRANCH  14  17
ENDBRANCH  11  13
ENDBRANCH   6   7
ENDBRANCH   5   6
ENDBRANCH   2   5
BRANCH   3  40
ATOM     40  C   UNL A   1      43.235  21.589  25.804  1.00  0.00     0.117 C 
BRANCH  40  41
ATOM     41  C   UNL A   1      43.637  22.580  24.729  1.00  0.00     0.042 C 
BRANCH  41  42
ATOM     42  C   UNL A   1      43.394  24.035  25.110  1.00  0.00     0.118 C 
BRANCH  42  43
ATOM     43  N   UNL A   1      44.514  24.910  24.786  1.00  0.00    -0.352 N 
ATOM     44  C   UNL A   1      44.836  26.150  25.285  1.00  0.00     0.251 C 
ATOM     45  H   UNL A   1      45.134  24.558  24.105  1.00  0.00     0.163 HD
ATOM     46  O   UNL A   1      45.754  26.784  24.770  1.00  0.00    -0.269 OA
BRANCH  44  47
ATOM     47  C   UNL A   1      44.066  26.728  26.408  1.00  0.00     0.039 A 
ATOM     48  C   UNL A   1      43.659  25.891  27.451  1.00  0.00     0.014 A 
ATOM     49  C   UNL A   1      43.745  28.087  26.440  1.00  0.00     0.014 A 
ATOM     50  C   UNL A   1      43.002  26.431  28.560  1.00  0.00     0.010 A 
ATOM     51  C   UNL A   1      43.164  28.636  27.580  1.00  0.00     0.010 A 
ATOM     52  C   UNL A   1      42.787  27.815  28.654  1.00  0.00    -0.014 A 
BRANCH  52  53
ATOM     53  C   UNL A   1      42.162  28.429  29.857  1.00  0.00     0.031 A 
ATOM     54  C   UNL A   1      40.786  29.032  29.761  1.00  0.00     0.074 A 
ATOM     55  C   UNL A   1      42.859  28.516  31.006  1.00  0.00     0.049 A 
ATOM     56  N   UNL A   1      40.120  29.723  30.650  1.00  0.00    -0.248 NA
ATOM     57  C   UNL A   1      40.083  28.861  28.481  1.00  0.00     0.031 C 
ATOM     58  C   UNL A   1      44.213  27.998  31.217  1.00  0.00     0.029 A 
ATOM     59  N   UNL A   1      42.533  29.084  32.213  1.00  0.00    -0.354 N 
ATOM     60  C   UNL A   1      38.927  30.086  30.031  1.00  0.00     0.074 A 
ATOM     61  C   UNL A   1      38.993  29.589  28.673  1.00  0.00     0.031 C 
ATOM     62  C   UNL A   1      44.592  28.257  32.478  1.00  0.00     0.029 A 
ATOM     63  C   UNL A   1      43.535  29.003  33.153  1.00  0.00     0.049 A 
ATOM     64  H   UNL A   1      41.663  29.510  32.390  1.00  0.00     0.167 HD
ATOM     65  C   UNL A   1      37.868  30.753  30.554  1.00  0.00     0.034 A 
ATOM     66  C   UNL A   1      43.603  29.491  34.409  1.00  0.00     0.034 A 
ATOM     67  C   UNL A   1      37.812  31.228  31.916  1.00  0.00     0.049 A 
ATOM     68  C   UNL A   1      42.425  30.254  34.960  1.00  0.00     0.074 A 
ATOM     69  C   UNL A   1      36.769  31.869  32.562  1.00  0.00     0.029 A 
ATOM     70  N   UNL A   1      38.844  31.121  32.839  1.00  0.00    -0.354 N 
ATOM     71  N   UNL A   1      41.288  30.556  34.374  1.00  0.00    -0.248 NA
ATOM     72  C   UNL A   1      42.535  30.734  36.343  1.00  0.00     0.031 C 
ATOM     73  C   UNL A   1      37.193  32.207  33.853  1.00  0.00     0.029 A 
ATOM     74  C   UNL A   1      38.472  31.709  34.040  1.00  0.00     0.049 A 
ATOM     75  H   UNL A   1      39.712  30.690  32.668  1.00  0.00     0.167 HD
ATOM     76  C   UNL A   1      40.536  31.232  35.332  1.00  0.00     0.074 A 
ATOM     77  C   UNL A   1      41.344  31.281  36.533  1.00  0.00     0.031 C 
ATOM     78  C   UNL A   1      39.289  31.759  35.229  1.00  0.00     0.034 A 
BRANCH  65  79
ATOM     79  C   UNL A   1      36.700  31.028  29.636  1.00  0.00     0.023 A 
ATOM     80  C   UNL A   1      36.144  32.314  29.509  1.00  0.00     0.031 A 
ATOM     81  C   UNL A   1      36.110  29.984  28.900  1.00  0.00     0.131 A 
ATOM     82  C   UNL A   1      34.990  32.506  28.736  1.00  0.00     0.055 A 
ATOM     83  C   UNL A   1      35.014  30.199  28.063  1.00  0.00     0.041 A 
ATOM     84  F   UNL A   1      36.582  28.730  28.995  1.00  0.00    -0.206 F 
ATOM     85  C   UNL A   1      34.436  31.463  27.990  1.00  0.00     0.022 A 
BRANCH  82  86
ATOM     86  S   UNL A   1      34.134  34.101  28.842  1.00  0.00     0.124 S 
ATOM     87  O   UNL A   1      33.781  34.152  30.259  1.00  0.00    -0.237 OA
ATOM     88  O   UNL A   1      35.161  35.040  28.405  1.00  0.00    -0.237 OA
ATOM     89  O   UNL A   1      33.002  33.945  27.931  1.00  0.00    -0.744 OA
ENDBRANCH  82  86
ENDBRANCH  65  79
BRANCH  66  90
ATOM     90  C   UNL A   1      44.831  29.293  35.232  1.00  0.00     0.023 A 
ATOM     91  C   UNL A   1      44.898  28.274  36.195  1.00  0.00     0.031 A 
ATOM     92  C   UNL A   1      45.938  30.150  35.100  1.00  0.00     0.131 A 
ATOM     93  C   UNL A   1      46.026  28.166  37.022  1.00  0.00     0.055 A 
ATOM     94  C   UNL A   1      47.082  30.003  35.888  1.00  0.00     0.041 A 
ATOM     95  F   UNL A   1      45.929  31.138  34.192  1.00  0.00    -0.206 F 
ATOM     96  C   UNL A   1      47.123  29.015  36.867  1.00  0.00     0.022 A 
BRANCH  93  97
ATOM     97  S   UNL A   1      46.000  26.951  38.369  1.00  0.00     0.124 S 
ATOM     98  O   UNL A   1      44.784  27.323  39.082  1.00  0.00    -0.237 OA
ATOM     99  O   UNL A   1      45.955  25.690  37.637  1.00  0.00    -0.237 OA
ATOM    100  O   UNL A   1      47.249  27.209  39.084  1.00  0.00    -0.744 OA
ENDBRANCH  93  97
ENDBRANCH  66  90
BRANCH  78 101
ATOM    101  C   UNL A   1      38.705  32.387  36.471  1.00  0.00     0.023 A 
ATOM    102  C   UNL A   1      37.906  31.657  37.368  1.00  0.00     0.031 A 
ATOM    103  C   UNL A   1      38.945  33.743  36.754  1.00  0.00     0.131 A 
ATOM    104  C   UNL A   1      37.332  32.301  38.476  1.00  0.00     0.055 A 
ATOM    105  C   UNL A   1      38.422  34.364  37.889  1.00  0.00     0.041 A 
ATOM    106  F   UNL A   1      39.699  34.490  35.929  1.00  0.00    -0.206 F 
ATOM    107  C   UNL A   1      37.598  33.644  38.751  1.00  0.00     0.022 A 
BRANCH 104 108
ATOM    108  S   UNL A   1      36.157  31.380  39.507  1.00  0.00     0.124 S 
ATOM    109  O   UNL A   1      36.167  30.063  38.878  1.00  0.00    -0.237 OA
ATOM    110  O   UNL A   1      36.771  31.461  40.829  1.00  0.00    -0.237 OA
ATOM    111  O   UNL A   1      34.910  32.129  39.358  1.00  0.00    -0.744 OA
ENDBRANCH 104 108
ENDBRANCH  78 101
ENDBRANCH  52  53
ENDBRANCH  44  47
ENDBRANCH  42  43
ENDBRANCH  41  42
ENDBRANCH  40  41
ENDBRANCH   3  40
TORSDOF 19
ENDMDL
MODEL 2
REMARK VINA RESULT:     -13.1      6.191     11.403
REMARK SMILES O=C(COc1cccc(NC(=O)c2ccc3c(c2)C(=O)N(c2ccccc2-c2ccccc2)C3=O)c1)NCCCNC(=O)c1ccc(-c2c3nc(c(-c4cc(S(=O)(=O)[O-])ccc4F)c4ccc([nH]4)c(-c4cc(S(=O)(=O)[O-])ccc4F)c4nc(c(-c5cc(S(=O)(=O)[O-])ccc5F)c5ccc2[nH]5)C=C4)C=C3)cc1
REMARK SMILES IDX 1 1 2 2 37 3 3 5 4 6 5 7 6 8 36 9 7 10 9 11 8 12 10 13 11 14
REMARK SMILES IDX 12 16 13 17 14 18 18 19 15 20 17 21 16 22 19 23 34 24 20 25
REMARK SMILES IDX 21 26 35 27 22 28 23 29 27 30 24 31 26 32 25 33 28 34 29 35
REMARK SMILES IDX 33 36 30 37 32 38 31 39 38 40 39 41 40 42 41 43 42 44 43 46
REMARK SMILES IDX 44 47 45 48 106 49 46 50 105 51 47 52 48 53 49 54 99 55
REMARK SMILES IDX 50 56 104 57 98 58 100 59 51 60 103 61 97 62 96 63 52 65
REMARK SMILES IDX 84 66 64 67 83 68 65 69 68 70 82 71 101 72 66 73 67 74 81 76
REMARK SMILES IDX 102 77 69 78 53 79 54 80 62 81 55 82 61 83 63 84 60 85 56 86
REMARK SMILES IDX 57 87 58 88 59 89 85 90 86 91 94 92 87 93 93 94 95 95 92 96
REMARK SMILES IDX 88 97 89 98 90 99 91 100 70 101 71 102 79 103 72 104 78 105
REMARK SMILES IDX 80 106 77 107 73 108 74 109 75 110 76 111
REMARK H PARENT 37 4 10 15 41 45 100 64 68 75
REMARK Flexibility Score: inf
ROOT
ATOM      1  O   UNL A   1      34.438  33.407  28.094  1.00  0.00    -0.271 OA
ATOM      2  C   UNL A   1      34.586  32.283  28.566  1.00  0.00     0.257 C 
ATOM      3  N   UNL A   1      34.806  32.036  29.906  1.00  0.00    -0.353 N 
ATOM      4  H   UNL A   1      34.710  31.116  30.243  1.00  0.00     0.163 HD
ENDROOT
BRANCH   2   5
ATOM      5  C   UNL A   1      34.611  31.028  27.692  1.00  0.00     0.329 C 
BRANCH   5   6
ATOM      6  O   UNL A   1      33.468  30.182  27.783  1.00  0.00    -0.484 OA
BRANCH   6   7
ATOM      7  C   UNL A   1      33.164  29.443  26.671  1.00  0.00     0.122 A 
ATOM      8  C   UNL A   1      34.256  28.934  25.975  1.00  0.00     0.046 A 
ATOM      9  C   UNL A   1      31.880  29.324  26.122  1.00  0.00     0.072 A 
ATOM     10  C   UNL A   1      34.063  28.323  24.743  1.00  0.00     0.006 A 
ATOM     11  C   UNL A   1      31.668  28.742  24.866  1.00  0.00     0.045 A 
ATOM     12  C   UNL A   1      32.781  28.251  24.185  1.00  0.00     0.026 A 
BRANCH  11  13
ATOM     13  N   UNL A   1      30.349  28.805  24.343  1.00  0.00    -0.322 N 
ATOM     14  C   UNL A   1      29.718  28.145  23.305  1.00  0.00     0.255 C 
ATOM     15  H   UNL A   1      29.767  29.444  24.816  1.00  0.00     0.170 HD
ATOM     16  O   UNL A   1      28.642  28.520  22.854  1.00  0.00    -0.269 OA
BRANCH  14  17
ATOM     17  C   UNL A   1      30.281  26.877  22.825  1.00  0.00     0.041 A 
ATOM     18  C   UNL A   1      30.933  26.815  21.573  1.00  0.00     0.015 A 
ATOM     19  C   UNL A   1      30.370  25.849  23.761  1.00  0.00     0.028 A 
ATOM     20  C   UNL A   1      31.861  25.791  21.328  1.00  0.00     0.015 A 
ATOM     21  C   UNL A   1      31.300  24.878  23.487  1.00  0.00     0.054 A 
ATOM     22  C   UNL A   1      32.071  24.877  22.350  1.00  0.00     0.053 A 
ATOM     23  C   UNL A   1      31.881  23.943  24.423  1.00  0.00     0.266 C 
ATOM     24  C   UNL A   1      33.189  23.965  22.616  1.00  0.00     0.266 C 
ATOM     25  O   UNL A   1      31.230  23.573  25.383  1.00  0.00    -0.268 OA
ATOM     26  N   UNL A   1      33.149  23.665  23.963  1.00  0.00    -0.242 N 
ATOM     27  O   UNL A   1      33.876  23.569  21.693  1.00  0.00    -0.268 OA
BRANCH  26  28
ATOM     28  C   UNL A   1      34.210  23.194  24.822  1.00  0.00     0.060 A 
ATOM     29  C   UNL A   1      35.214  24.119  25.211  1.00  0.00     0.027 A 
ATOM     30  C   UNL A   1      34.424  21.843  25.204  1.00  0.00     0.006 A 
ATOM     31  C   UNL A   1      36.351  23.765  25.941  1.00  0.00     0.002 A 
ATOM     32  C   UNL A   1      35.573  21.513  25.975  1.00  0.00     0.011 A 
ATOM     33  C   UNL A   1      36.527  22.457  26.337  1.00  0.00     0.001 A 
BRANCH  30  34
ATOM     34  C   UNL A   1      33.625  20.683  24.783  1.00  0.00    -0.016 A 
ATOM     35  C   UNL A   1      33.355  19.635  25.678  1.00  0.00     0.009 A 
ATOM     36  C   UNL A   1      33.189  20.558  23.453  1.00  0.00     0.009 A 
ATOM     37  C   UNL A   1      32.614  18.524  25.271  1.00  0.00     0.001 A 
ATOM     38  C   UNL A   1      32.451  19.444  23.045  1.00  0.00     0.001 A 
ATOM     39  C   UNL A   1      32.155  18.433  23.958  1.00  0.00     0.000 A 
ENDBRANCH  30  34
ENDBRANCH  26  28
ENDBRANCH  14  17
ENDBRANCH  11  13
ENDBRANCH   6   7
ENDBRANCH   5   6
ENDBRANCH   2   5
BRANCH   3  40
ATOM     40  C   UNL A   1      35.175  33.086  30.831  1.00  0.00     0.117 C 
BRANCH  40  41
ATOM     41  C   UNL A   1      34.898  32.732  32.279  1.00  0.00     0.042 C 
BRANCH  41  42
ATOM     42  C   UNL A   1      36.125  32.250  33.042  1.00  0.00     0.118 C 
BRANCH  42  43
ATOM     43  N   UNL A   1      36.292  30.802  33.010  1.00  0.00    -0.352 N 
ATOM     44  C   UNL A   1      37.271  30.041  32.416  1.00  0.00     0.251 C 
ATOM     45  H   UNL A   1      35.596  30.292  33.485  1.00  0.00     0.163 HD
ATOM     46  O   UNL A   1      37.148  28.820  32.388  1.00  0.00    -0.269 OA
BRANCH  44  47
ATOM     47  C   UNL A   1      38.445  30.688  31.790  1.00  0.00     0.039 A 
ATOM     48  C   UNL A   1      39.510  31.091  32.602  1.00  0.00     0.014 A 
ATOM     49  C   UNL A   1      38.503  30.899  30.409  1.00  0.00     0.014 A 
ATOM     50  C   UNL A   1      40.661  31.629  32.022  1.00  0.00     0.010 A 
ATOM     51  C   UNL A   1      39.681  31.358  29.827  1.00  0.00     0.010 A 
ATOM     52  C   UNL A   1      40.775  31.727  30.626  1.00  0.00    -0.014 A 
BRANCH  52  53
ATOM     53  C   UNL A   1      42.018  32.223  29.976  1.00  0.00     0.031 A 
ATOM     54  C   UNL A   1      43.162  31.277  29.726  1.00  0.00     0.074 A 
ATOM     55  C   UNL A   1      42.149  33.532  29.686  1.00  0.00     0.049 A 
ATOM     56  N   UNL A   1      44.370  31.531  29.293  1.00  0.00    -0.248 NA
ATOM     57  C   UNL A   1      42.921  29.860  30.039  1.00  0.00     0.031 C 
ATOM     58  C   UNL A   1      41.125  34.555  29.909  1.00  0.00     0.029 A 
ATOM     59  N   UNL A   1      43.203  34.233  29.154  1.00  0.00    -0.354 N 
ATOM     60  C   UNL A   1      45.039  30.311  29.299  1.00  0.00     0.074 A 
ATOM     61  C   UNL A   1      44.119  29.332  29.836  1.00  0.00     0.031 C 
ATOM     62  C   UNL A   1      41.595  35.745  29.502  1.00  0.00     0.029 A 
ATOM     63  C   UNL A   1      42.969  35.584  29.037  1.00  0.00     0.049 A 
ATOM     64  H   UNL A   1      44.049  33.808  28.882  1.00  0.00     0.167 HD
ATOM     65  C   UNL A   1      46.298  30.031  28.875  1.00  0.00     0.034 A 
ATOM     66  C   UNL A   1      43.775  36.582  28.622  1.00  0.00     0.034 A 
ATOM     67  C   UNL A   1      47.197  31.017  28.326  1.00  0.00     0.049 A 
ATOM     68  C   UNL A   1      45.179  36.252  28.182  1.00  0.00     0.074 A 
ATOM     69  C   UNL A   1      48.472  30.832  27.819  1.00  0.00     0.029 A 
ATOM     70  N   UNL A   1      46.921  32.374  28.217  1.00  0.00    -0.354 N 
ATOM     71  N   UNL A   1      45.785  35.086  28.158  1.00  0.00    -0.248 NA
ATOM     72  C   UNL A   1      46.004  37.369  27.706  1.00  0.00     0.031 C 
ATOM     73  C   UNL A   1      48.991  32.084  27.466  1.00  0.00     0.029 A 
ATOM     74  C   UNL A   1      48.012  33.041  27.679  1.00  0.00     0.049 A 
ATOM     75  H   UNL A   1      46.075  32.800  28.483  1.00  0.00     0.167 HD
ATOM     76  C   UNL A   1      47.051  35.328  27.631  1.00  0.00     0.074 A 
ATOM     77  C   UNL A   1      47.115  36.746  27.341  1.00  0.00     0.031 C 
ATOM     78  C   UNL A   1      48.067  34.457  27.402  1.00  0.00     0.034 A 
BRANCH  65  79
ATOM     79  C   UNL A   1      46.776  28.605  29.017  1.00  0.00     0.023 A 
ATOM     80  C   UNL A   1      46.660  27.678  27.966  1.00  0.00     0.031 A 
ATOM     81  C   UNL A   1      47.326  28.155  30.231  1.00  0.00     0.131 A 
ATOM     82  C   UNL A   1      47.010  26.335  28.174  1.00  0.00     0.055 A 
ATOM     83  C   UNL A   1      47.754  26.837  30.403  1.00  0.00     0.041 A 
ATOM     84  F   UNL A   1      47.444  28.987  31.278  1.00  0.00    -0.206 F 
ATOM     85  C   UNL A   1      47.581  25.913  29.376  1.00  0.00     0.022 A 
BRANCH  82  86
ATOM     86  S   UNL A   1      46.563  25.120  26.904  1.00  0.00     0.124 S 
ATOM     87  O   UNL A   1      47.515  24.045  27.177  1.00  0.00    -0.237 OA
ATOM     88  O   UNL A   1      45.168  24.833  27.218  1.00  0.00    -0.237 OA
ATOM     89  O   UNL A   1      46.787  25.836  25.649  1.00  0.00    -0.744 OA
ENDBRANCH  82  86
ENDBRANCH  65  79
BRANCH  66  90
ATOM     90  C   UNL A   1      43.290  37.992  28.614  1.00  0.00     0.023 A 
ATOM     91  C   UNL A   1      43.554  38.853  29.692  1.00  0.00     0.031 A 
ATOM     92  C   UNL A   1      42.516  38.487  27.550  1.00  0.00     0.131 A 
ATOM     93  C   UNL A   1      43.008  40.145  29.705  1.00  0.00     0.055 A 
ATOM     94  C   UNL A   1      42.021  39.793  27.542  1.00  0.00     0.041 A 
ATOM     95  F   UNL A   1      42.237  37.708  26.492  1.00  0.00    -0.206 F 
ATOM     96  C   UNL A   1      42.254  40.626  28.633  1.00  0.00     0.022 A 
BRANCH  93  97
ATOM     97  S   UNL A   1      43.225  41.163  31.192  1.00  0.00     0.124 S 
ATOM     98  O   UNL A   1      43.430  42.487  30.617  1.00  0.00    -0.237 OA
ATOM     99  O   UNL A   1      41.960  40.953  31.888  1.00  0.00    -0.237 OA
ATOM    100  O   UNL A   1      44.395  40.573  31.839  1.00  0.00    -0.744 OA
ENDBRANCH  93  97
ENDBRANCH  66  90
BRANCH  78 101
ATOM    101  C   UNL A   1      49.314  35.011  26.757  1.00  0.00     0.023 A 
ATOM    102  C   UNL A   1      50.450  35.356  27.511  1.00  0.00     0.031 A 
ATOM    103  C   UNL A   1      49.361  35.206  25.365  1.00  0.00     0.131 A 
ATOM    104  C   UNL A   1      51.564  35.926  26.875  1.00  0.00     0.055 A 
ATOM    105  C   UNL A   1      50.493  35.717  24.730  1.00  0.00     0.041 A 
ATOM    106  F   UNL A   1      48.303  34.897  24.597  1.00  0.00    -0.206 F 
ATOM    107  C   UNL A   1      51.599  36.094  25.488  1.00  0.00     0.022 A 
BRANCH 104 108
ATOM    108  S   UNL A   1      52.935  36.533  27.896  1.00  0.00     0.124 S 
ATOM    109  O   UNL A   1      53.092  35.453  28.866  1.00  0.00    -0.237 OA
ATOM    110  O   UNL A   1      54.012  36.676  26.921  1.00  0.00    -0.237 OA
ATOM    111  O   UNL A   1      52.426  37.789  28.443  1.00  0.00    -0.744 OA
ENDBRANCH 104 108
ENDBRANCH  78 101
ENDBRANCH  52  53
ENDBRANCH  44  47
ENDBRANCH  42  43
ENDBRANCH  41  42
ENDBRANCH  40  41
ENDBRANCH   3  40
TORSDOF 19
ENDMDL
MODEL 3
REMARK VINA RESULT:     -13.0      3.934      6.852
REMARK SMILES O=C(COc1cccc(NC(=O)c2ccc3c(c2)C(=O)N(c2ccccc2-c2ccccc2)C3=O)c1)NCCCNC(=O)c1ccc(-c2c3nc(c(-c4cc(S(=O)(=O)[O-])ccc4F)c4ccc([nH]4)c(-c4cc(S(=O)(=O)[O-])ccc4F)c4nc(c(-c5cc(S(=O)(=O)[O-])ccc5F)c5ccc2[nH]5)C=C4)C=C3)cc1
REMARK SMILES IDX 1 1 2 2 37 3 3 5 4 6 5 7 6 8 36 9 7 10 9 11 8 12 10 13 11 14
REMARK SMILES IDX 12 16 13 17 14 18 18 19 15 20 17 21 16 22 19 23 34 24 20 25
REMARK SMILES IDX 21 26 35 27 22 28 23 29 27 30 24 31 26 32 25 33 28 34 29 35
REMARK SMILES IDX 33 36 30 37 32 38 31 39 38 40 39 41 40 42 41 43 42 44 43 46
REMARK SMILES IDX 44 47 45 48 106 49 46 50 105 51 47 52 48 53 49 54 99 55
REMARK SMILES IDX 50 56 104 57 98 58 100 59 51 60 103 61 97 62 96 63 52 65
REMARK SMILES IDX 84 66 64 67 83 68 65 69 68 70 82 71 101 72 66 73 67 74 81 76
REMARK SMILES IDX 102 77 69 78 53 79 54 80 62 81 55 82 61 83 63 84 60 85 56 86
REMARK SMILES IDX 57 87 58 88 59 89 85 90 86 91 94 92 87 93 93 94 95 95 92 96
REMARK SMILES IDX 88 97 89 98 90 99 91 100 70 101 71 102 79 103 72 104 78 105
REMARK SMILES IDX 80 106 77 107 73 108 74 109 75 110 76 111
REMARK H PARENT 37 4 10 15 41 45 100 64 68 75
REMARK Flexibility Score: inf
ROOT
ATOM      1  O   UNL A   1      40.794  21.093  27.799  1.00  0.00    -0.271 OA
ATOM      2  C   UNL A   1      40.737  21.136  26.574  1.00  0.00     0.257 C 
ATOM      3  N   UNL A   1      41.844  21.254  25.758  1.00  0.00    -0.353 N 
ATOM      4  H   UNL A   1      41.747  21.075  24.794  1.00  0.00     0.163 HD
ENDROOT
BRANCH   2   5
ATOM      5  C   UNL A   1      39.407  21.132  25.818  1.00  0.00     0.329 C 
BRANCH   5   6
ATOM      6  O   UNL A   1      38.488  22.163  26.167  1.00  0.00    -0.484 OA
BRANCH   6   7
ATOM      7  C   UNL A   1      37.342  22.240  25.420  1.00  0.00     0.122 A 
ATOM      8  C   UNL A   1      37.039  23.501  24.919  1.00  0.00     0.046 A 
ATOM      9  C   UNL A   1      36.409  21.202  25.288  1.00  0.00     0.072 A 
ATOM     10  C   UNL A   1      35.814  23.720  24.300  1.00  0.00     0.006 A 
ATOM     11  C   UNL A   1      35.156  21.411  24.699  1.00  0.00     0.045 A 
ATOM     12  C   UNL A   1      34.874  22.687  24.215  1.00  0.00     0.026 A 
BRANCH  11  13
ATOM     13  N   UNL A   1      34.235  20.330  24.747  1.00  0.00    -0.322 N 
ATOM     14  C   UNL A   1      32.996  20.178  25.342  1.00  0.00     0.255 C 
ATOM     15  H   UNL A   1      34.540  19.530  24.260  1.00  0.00     0.170 HD
ATOM     16  O   UNL A   1      32.469  19.080  25.475  1.00  0.00    -0.269 OA
BRANCH  14  17
ATOM     17  C   UNL A   1      32.227  21.378  25.691  1.00  0.00     0.041 A 
ATOM     18  C   UNL A   1      32.268  21.894  27.006  1.00  0.00     0.015 A 
ATOM     19  C   UNL A   1      31.695  22.102  24.626  1.00  0.00     0.028 A 
ATOM     20  C   UNL A   1      31.955  23.243  27.229  1.00  0.00     0.015 A 
ATOM     21  C   UNL A   1      31.418  23.421  24.886  1.00  0.00     0.054 A 
ATOM     22  C   UNL A   1      31.604  23.998  26.119  1.00  0.00     0.053 A 
ATOM     23  C   UNL A   1      31.247  24.479  23.917  1.00  0.00     0.266 C 
ATOM     24  C   UNL A   1      31.608  25.447  25.895  1.00  0.00     0.266 C 
ATOM     25  O   UNL A   1      30.801  24.217  22.815  1.00  0.00    -0.268 OA
ATOM     26  N   UNL A   1      31.664  25.641  24.529  1.00  0.00    -0.242 N 
ATOM     27  O   UNL A   1      31.487  26.203  26.840  1.00  0.00    -0.268 OA
BRANCH  26  28
ATOM     28  C   UNL A   1      32.116  26.797  23.792  1.00  0.00     0.060 A 
ATOM     29  C   UNL A   1      33.512  27.033  23.711  1.00  0.00     0.027 A 
ATOM     30  C   UNL A   1      31.279  27.811  23.252  1.00  0.00     0.006 A 
ATOM     31  C   UNL A   1      34.072  28.173  23.129  1.00  0.00     0.002 A 
ATOM     32  C   UNL A   1      31.873  28.947  22.636  1.00  0.00     0.011 A 
ATOM     33  C   UNL A   1      33.250  29.131  22.577  1.00  0.00     0.001 A 
BRANCH  30  34
ATOM     34  C   UNL A   1      29.814  27.880  23.363  1.00  0.00    -0.016 A 
ATOM     35  C   UNL A   1      29.079  26.783  23.841  1.00  0.00     0.009 A 
ATOM     36  C   UNL A   1      29.114  29.012  22.913  1.00  0.00     0.009 A 
ATOM     37  C   UNL A   1      27.687  26.842  23.926  1.00  0.00     0.001 A 
ATOM     38  C   UNL A   1      27.721  29.069  22.994  1.00  0.00     0.001 A 
ATOM     39  C   UNL A   1      27.009  27.987  23.511  1.00  0.00     0.000 A 
ENDBRANCH  30  34
ENDBRANCH  26  28
ENDBRANCH  14  17
ENDBRANCH  11  13
ENDBRANCH   6   7
ENDBRANCH   5   6
ENDBRANCH   2   5
BRANCH   3  40
ATOM     40  C   UNL A   1      43.142  21.633  26.273  1.00  0.00     0.117 C 
BRANCH  40  41
ATOM     41  C   UNL A   1      43.700  22.886  25.627  1.00  0.00     0.042 C 
BRANCH  41  42
ATOM     42  C   UNL A   1      45.081  23.279  26.134  1.00  0.00     0.118 C 
BRANCH  42  43
ATOM     43  N   UNL A   1      45.822  24.116  25.198  1.00  0.00    -0.352 N 
ATOM     44  C   UNL A   1      46.033  25.475  25.208  1.00  0.00     0.251 C 
ATOM     45  H   UNL A   1      46.233  23.634  24.444  1.00  0.00     0.163 HD
ATOM     46  O   UNL A   1      46.573  26.005  24.241  1.00  0.00    -0.269 OA
BRANCH  44  47
ATOM     47  C   UNL A   1      45.588  26.293  26.357  1.00  0.00     0.039 A 
ATOM     48  C   UNL A   1      46.545  26.787  27.248  1.00  0.00     0.014 A 
ATOM     49  C   UNL A   1      44.235  26.577  26.561  1.00  0.00     0.014 A 
ATOM     50  C   UNL A   1      46.154  27.629  28.293  1.00  0.00     0.010 A 
ATOM     51  C   UNL A   1      43.857  27.479  27.551  1.00  0.00     0.010 A 
ATOM     52  C   UNL A   1      44.812  28.018  28.428  1.00  0.00    -0.014 A 
BRANCH  52  53
ATOM     53  C   UNL A   1      44.377  28.974  29.481  1.00  0.00     0.031 A 
ATOM     54  C   UNL A   1      44.037  28.470  30.858  1.00  0.00     0.074 A 
ATOM     55  C   UNL A   1      44.211  30.277  29.179  1.00  0.00     0.049 A 
ATOM     56  N   UNL A   1      43.521  29.114  31.873  1.00  0.00    -0.248 NA
ATOM     57  C   UNL A   1      44.281  27.043  31.112  1.00  0.00     0.031 C 
ATOM     58  C   UNL A   1      44.476  30.883  27.872  1.00  0.00     0.029 A 
ATOM     59  N   UNL A   1      43.766  31.326  29.944  1.00  0.00    -0.354 N 
ATOM     60  C   UNL A   1      43.361  28.167  32.880  1.00  0.00     0.074 A 
ATOM     61  C   UNL A   1      43.779  26.895  32.328  1.00  0.00     0.031 C 
ATOM     62  C   UNL A   1      44.205  32.196  27.933  1.00  0.00     0.029 A 
ATOM     63  C   UNL A   1      43.699  32.520  29.262  1.00  0.00     0.049 A 
ATOM     64  H   UNL A   1      43.517  31.234  30.892  1.00  0.00     0.167 HD
ATOM     65  C   UNL A   1      42.925  28.346  34.153  1.00  0.00     0.034 A 
ATOM     66  C   UNL A   1      43.260  33.733  29.657  1.00  0.00     0.034 A 
ATOM     67  C   UNL A   1      42.528  29.624  34.692  1.00  0.00     0.049 A 
ATOM     68  C   UNL A   1      42.755  33.903  31.067  1.00  0.00     0.074 A 
ATOM     69  C   UNL A   1      42.121  29.926  35.980  1.00  0.00     0.029 A 
ATOM     70  N   UNL A   1      42.480  30.811  33.973  1.00  0.00    -0.354 N 
ATOM     71  N   UNL A   1      42.645  33.005  32.020  1.00  0.00    -0.248 NA
ATOM     72  C   UNL A   1      42.322  35.250  31.458  1.00  0.00     0.031 C 
ATOM     73  C   UNL A   1      41.764  31.280  36.023  1.00  0.00     0.029 A 
ATOM     74  C   UNL A   1      42.023  31.841  34.783  1.00  0.00     0.049 A 
ATOM     75  H   UNL A   1      42.734  30.909  33.027  1.00  0.00     0.167 HD
ATOM     76  C   UNL A   1      42.162  33.689  33.133  1.00  0.00     0.074 A 
ATOM     77  C   UNL A   1      42.015  35.075  32.735  1.00  0.00     0.031 C 
ATOM     78  C   UNL A   1      41.873  33.218  34.372  1.00  0.00     0.034 A 
BRANCH  65  79
ATOM     79  C   UNL A   1      42.834  27.122  35.033  1.00  0.00     0.023 A 
ATOM     80  C   UNL A   1      43.925  26.682  35.804  1.00  0.00     0.031 A 
ATOM     81  C   UNL A   1      41.650  26.363  35.080  1.00  0.00     0.131 A 
ATOM     82  C   UNL A   1      43.838  25.478  36.519  1.00  0.00     0.055 A 
ATOM     83  C   UNL A   1      41.542  25.212  35.863  1.00  0.00     0.041 A 
ATOM     84  F   UNL A   1      40.581  26.719  34.350  1.00  0.00    -0.206 F 
ATOM     85  C   UNL A   1      42.646  24.754  36.576  1.00  0.00     0.022 A 
BRANCH  82  86
ATOM     86  S   UNL A   1      45.353  24.795  37.247  1.00  0.00     0.124 S 
ATOM     87  O   UNL A   1      45.174  25.122  38.660  1.00  0.00    -0.237 OA
ATOM     88  O   UNL A   1      45.259  23.381  36.901  1.00  0.00    -0.237 OA
ATOM     89  O   UNL A   1      46.420  25.533  36.574  1.00  0.00    -0.744 OA
ENDBRANCH  82  86
ENDBRANCH  65  79
BRANCH  66  90
ATOM     90  C   UNL A   1      43.261  34.883  28.708  1.00  0.00     0.023 A 
ATOM     91  C   UNL A   1      44.463  35.487  28.305  1.00  0.00     0.031 A 
ATOM     92  C   UNL A   1      42.057  35.426  28.225  1.00  0.00     0.131 A 
ATOM     93  C   UNL A   1      44.435  36.626  27.487  1.00  0.00     0.055 A 
ATOM     94  C   UNL A   1      42.036  36.527  27.366  1.00  0.00     0.041 A 
ATOM     95  F   UNL A   1      40.879  34.885  28.575  1.00  0.00    -0.206 F 
ATOM     96  C   UNL A   1      43.231  37.143  27.004  1.00  0.00     0.022 A 
BRANCH  93  97
ATOM     97  S   UNL A   1      45.996  37.479  27.134  1.00  0.00     0.124 S 
ATOM     98  O   UNL A   1      46.582  36.617  26.115  1.00  0.00    -0.237 OA
ATOM     99  O   UNL A   1      45.531  38.785  26.681  1.00  0.00    -0.237 OA
ATOM    100  O   UNL A   1      46.684  37.478  28.425  1.00  0.00    -0.744 OA
ENDBRANCH  93  97
ENDBRANCH  66  90
BRANCH  78 101
ATOM    101  C   UNL A   1      41.418  34.224  35.402  1.00  0.00     0.023 A 
ATOM    102  C   UNL A   1      42.332  34.956  36.180  1.00  0.00     0.031 A 
ATOM    103  C   UNL A   1      40.045  34.444  35.613  1.00  0.00     0.131 A 
ATOM    104  C   UNL A   1      41.860  35.834  37.169  1.00  0.00     0.055 A 
ATOM    105  C   UNL A   1      39.583  35.362  36.555  1.00  0.00     0.041 A 
ATOM    106  F   UNL A   1      39.128  33.769  34.899  1.00  0.00    -0.206 F 
ATOM    107  C   UNL A   1      40.493  36.054  37.350  1.00  0.00     0.022 A 
BRANCH 104 108
ATOM    108  S   UNL A   1      43.060  36.620  38.280  1.00  0.00     0.124 S 
ATOM    109  O   UNL A   1      42.194  37.202  39.300  1.00  0.00    -0.237 OA
ATOM    110  O   UNL A   1      43.878  35.489  38.706  1.00  0.00    -0.237 OA
ATOM    111  O   UNL A   1      43.742  37.586  37.420  1.00  0.00    -0.744 OA
ENDBRANCH 104 108
ENDBRANCH  78 101
ENDBRANCH  52  53
ENDBRANCH  44  47
ENDBRANCH  42  43
ENDBRANCH  41  42
ENDBRANCH  40  41
ENDBRANCH   3  40
TORSDOF 19
ENDMDL
