MODEL 1
REMARK VINA RESULT:     -12.2      0.000      0.000
REMARK SMILES C[C@H](Nc1cccc(F)c1C(=O)NCCCNC(=O)c1ccc(-c2c3nc(c(-c4cc(S(=O)(=O)[O-])ccc4F)c4ccc([nH]4)c(-c4cc(S(=O)(=O)[O-])ccc4F)c4nc(c(-c5cc(S(=O)(=O)[O-])ccc5F)c5ccc2[nH]5)C=C4)C=C3)cc1)c1cccc(Cl)c1
REMARK SMILES IDX 15 1 14 2 13 3 11 4 12 5 10 7 4 8 5 9 6 10 8 11 7 12 9 13
REMARK SMILES IDX 3 14 2 16 1 17 83 18 84 19 89 20 85 21 87 22 86 23 88 24
REMARK SMILES IDX 16 25 17 26 18 27 19 29 20 30 21 31 82 32 22 33 81 34 23 35
REMARK SMILES IDX 24 36 25 37 75 38 26 39 80 40 74 41 76 42 27 43 79 44 73 45
REMARK SMILES IDX 72 46 28 48 60 49 40 50 59 51 41 52 44 53 58 54 77 55 42 56
REMARK SMILES IDX 43 57 57 59 78 60 45 61 29 62 30 63 38 64 31 65 37 66 39 67
REMARK SMILES IDX 36 68 32 69 33 70 34 71 35 72 61 73 62 74 70 75 63 76 69 77
REMARK SMILES IDX 71 78 68 79 64 80 65 81 66 82 67 83 46 84 47 85 55 86 48 87
REMARK SMILES IDX 54 88 56 89 53 90 49 91 50 92 51 93 52 94
REMARK H PARENT 13 6 3 15 17 28 76 47 44 58
REMARK Flexibility Score: inf
ROOT
ATOM      1  C   UNL A   1      31.978  28.104  26.161  1.00  0.00     0.042 C 
ENDROOT
BRANCH   1   2
ATOM      2  C   UNL A   1      32.705  26.772  26.368  1.00  0.00     0.118 C 
BRANCH   2   3
ATOM      3  N   UNL A   1      31.783  25.724  26.759  1.00  0.00    -0.352 N 
ATOM      4  C   UNL A   1      31.716  24.362  26.650  1.00  0.00     0.256 C 
ATOM      5  O   UNL A   1      30.663  23.898  27.114  1.00  0.00    -0.269 OA
ATOM      6  H   UNL A   1      30.998  26.089  27.226  1.00  0.00     0.163 HD
BRANCH   4   7
ATOM      7  C   UNL A   1      32.729  23.412  26.063  1.00  0.00     0.098 A 
ATOM      8  C   UNL A   1      32.866  23.364  24.633  1.00  0.00     0.050 A 
ATOM      9  C   UNL A   1      33.890  22.573  24.076  1.00  0.00     0.027 A 
ATOM     10  C   UNL A   1      34.702  21.757  24.852  1.00  0.00     0.005 A 
ATOM     11  C   UNL A   1      33.596  22.607  26.817  1.00  0.00     0.138 A 
ATOM     12  C   UNL A   1      34.537  21.759  26.223  1.00  0.00     0.040 A 
ATOM     13  F   UNL A   1      33.638  22.633  28.150  1.00  0.00    -0.206 F 
BRANCH   8  14
ATOM     14  N   UNL A   1      32.034  24.093  23.790  1.00  0.00    -0.378 N 
ATOM     15  H   UNL A   1      31.125  23.728  23.697  1.00  0.00     0.161 HD
BRANCH  14  16
ATOM     16  C   UNL A   1      32.282  25.310  23.017  1.00  0.00     0.106 C 
ATOM     17  C   UNL A   1      32.685  25.145  21.554  1.00  0.00     0.036 C 
BRANCH  16  18
ATOM     18  C   UNL A   1      31.068  26.226  23.133  1.00  0.00    -0.025 A 
ATOM     19  C   UNL A   1      29.909  25.830  23.822  1.00  0.00     0.006 A 
ATOM     20  C   UNL A   1      31.090  27.495  22.532  1.00  0.00     0.026 A 
ATOM     21  C   UNL A   1      28.784  26.656  23.862  1.00  0.00     0.002 A 
ATOM     22  C   UNL A   1      29.964  28.317  22.578  1.00  0.00     0.041 A 
ATOM     23  C   UNL A   1      28.807  27.897  23.230  1.00  0.00     0.020 A 
ATOM     24  Cl  UNL A   1      29.997  29.854  21.802  1.00  0.00    -0.084 Cl
ENDBRANCH  16  18
ENDBRANCH  14  16
ENDBRANCH   8  14
ENDBRANCH   4   7
ENDBRANCH   2   3
ENDBRANCH   1   2
BRANCH   1  25
ATOM     25  C   UNL A   1      32.829  29.149  25.430  1.00  0.00     0.118 C 
BRANCH  25  26
ATOM     26  N   UNL A   1      32.459  30.508  25.807  1.00  0.00    -0.352 N 
ATOM     27  C   UNL A   1      32.906  31.311  26.826  1.00  0.00     0.251 C 
ATOM     28  H   UNL A   1      31.771  30.918  25.235  1.00  0.00     0.163 HD
ATOM     29  O   UNL A   1      32.243  32.298  27.132  1.00  0.00    -0.269 OA
BRANCH  27  30
ATOM     30  C   UNL A   1      34.167  31.014  27.540  1.00  0.00     0.039 A 
ATOM     31  C   UNL A   1      34.361  29.729  28.055  1.00  0.00     0.014 A 
ATOM     32  C   UNL A   1      35.115  32.011  27.784  1.00  0.00     0.014 A 
ATOM     33  C   UNL A   1      35.517  29.437  28.782  1.00  0.00     0.010 A 
ATOM     34  C   UNL A   1      36.301  31.700  28.444  1.00  0.00     0.010 A 
ATOM     35  C   UNL A   1      36.507  30.415  28.965  1.00  0.00    -0.014 A 
BRANCH  35  36
ATOM     36  C   UNL A   1      37.744  30.121  29.735  1.00  0.00     0.031 A 
ATOM     37  C   UNL A   1      38.814  29.252  29.131  1.00  0.00     0.074 A 
ATOM     38  C   UNL A   1      37.883  30.606  30.984  1.00  0.00     0.049 A 
ATOM     39  N   UNL A   1      39.924  28.817  29.668  1.00  0.00    -0.248 NA
ATOM     40  C   UNL A   1      38.594  28.784  27.752  1.00  0.00     0.031 C 
ATOM     41  C   UNL A   1      36.898  31.439  31.681  1.00  0.00     0.029 A 
ATOM     42  N   UNL A   1      38.904  30.475  31.890  1.00  0.00    -0.354 N 
ATOM     43  C   UNL A   1      40.524  28.016  28.703  1.00  0.00     0.074 A 
ATOM     44  C   UNL A   1      39.629  27.979  27.568  1.00  0.00     0.031 C 
ATOM     45  C   UNL A   1      37.383  31.776  32.886  1.00  0.00     0.029 A 
ATOM     46  C   UNL A   1      38.687  31.148  33.070  1.00  0.00     0.049 A 
ATOM     47  H   UNL A   1      39.717  29.949  31.712  1.00  0.00     0.167 HD
ATOM     48  C   UNL A   1      41.725  27.390  28.750  1.00  0.00     0.034 A 
ATOM     49  C   UNL A   1      39.450  31.242  34.178  1.00  0.00     0.034 A 
ATOM     50  C   UNL A   1      42.625  27.472  29.870  1.00  0.00     0.049 A 
ATOM     51  C   UNL A   1      40.771  30.522  34.215  1.00  0.00     0.074 A 
ATOM     52  C   UNL A   1      43.892  26.931  29.996  1.00  0.00     0.029 A 
ATOM     53  N   UNL A   1      42.355  28.140  31.056  1.00  0.00    -0.354 N 
ATOM     54  N   UNL A   1      41.328  29.780  33.286  1.00  0.00    -0.248 NA
ATOM     55  C   UNL A   1      41.564  30.646  35.444  1.00  0.00     0.031 C 
ATOM     56  C   UNL A   1      44.366  27.224  31.278  1.00  0.00     0.029 A 
ATOM     57  C   UNL A   1      43.420  28.000  31.930  1.00  0.00     0.049 A 
ATOM     58  H   UNL A   1      41.528  28.639  31.249  1.00  0.00     0.167 HD
ATOM     59  C   UNL A   1      42.542  29.358  33.816  1.00  0.00     0.074 A 
ATOM     60  C   UNL A   1      42.642  29.934  35.141  1.00  0.00     0.031 C 
ATOM     61  C   UNL A   1      43.491  28.569  33.253  1.00  0.00     0.034 A 
BRANCH  48  62
ATOM     62  C   UNL A   1      42.133  26.562  27.559  1.00  0.00     0.023 A 
ATOM     63  C   UNL A   1      41.818  25.195  27.474  1.00  0.00     0.031 A 
ATOM     64  C   UNL A   1      42.826  27.149  26.488  1.00  0.00     0.131 A 
ATOM     65  C   UNL A   1      42.239  24.450  26.364  1.00  0.00     0.055 A 
ATOM     66  C   UNL A   1      43.186  26.417  25.355  1.00  0.00     0.041 A 
ATOM     67  F   UNL A   1      43.167  28.448  26.525  1.00  0.00    -0.206 F 
ATOM     68  C   UNL A   1      42.900  25.056  25.292  1.00  0.00     0.022 A 
BRANCH  65  69
ATOM     69  S   UNL A   1      41.981  22.656  26.373  1.00  0.00     0.124 S 
ATOM     70  O   UNL A   1      40.531  22.567  26.221  1.00  0.00    -0.237 OA
ATOM     71  O   UNL A   1      42.770  22.214  25.230  1.00  0.00    -0.237 OA
ATOM     72  O   UNL A   1      42.491  22.242  27.679  1.00  0.00    -0.744 OA
ENDBRANCH  65  69
ENDBRANCH  48  62
BRANCH  49  73
ATOM     73  C   UNL A   1      38.976  32.044  35.339  1.00  0.00     0.023 A 
ATOM     74  C   UNL A   1      38.334  31.430  36.425  1.00  0.00     0.031 A 
ATOM     75  C   UNL A   1      39.178  33.435  35.387  1.00  0.00     0.131 A 
ATOM     76  C   UNL A   1      37.899  32.209  37.509  1.00  0.00     0.055 A 
ATOM     77  C   UNL A   1      38.775  34.199  36.483  1.00  0.00     0.041 A 
ATOM     78  F   UNL A   1      39.797  34.065  34.377  1.00  0.00    -0.206 F 
ATOM     79  C   UNL A   1      38.127  33.586  37.552  1.00  0.00     0.022 A 
BRANCH  76  80
ATOM     80  S   UNL A   1      37.009  31.395  38.864  1.00  0.00     0.124 S 
ATOM     81  O   UNL A   1      35.802  32.208  38.957  1.00  0.00    -0.237 OA
ATOM     82  O   UNL A   1      36.834  30.042  38.348  1.00  0.00    -0.237 OA
ATOM     83  O   UNL A   1      37.929  31.512  39.994  1.00  0.00    -0.744 OA
ENDBRANCH  76  80
ENDBRANCH  49  73
BRANCH  61  84
ATOM     84  C   UNL A   1      44.729  28.289  34.058  1.00  0.00     0.023 A 
ATOM     85  C   UNL A   1      44.830  27.140  34.859  1.00  0.00     0.031 A 
ATOM     86  C   UNL A   1      45.843  29.139  33.961  1.00  0.00     0.131 A 
ATOM     87  C   UNL A   1      46.023  26.878  35.548  1.00  0.00     0.055 A 
ATOM     88  C   UNL A   1      47.041  28.852  34.615  1.00  0.00     0.041 A 
ATOM     89  F   UNL A   1      45.793  30.246  33.201  1.00  0.00    -0.206 F 
ATOM     90  C   UNL A   1      47.135  27.717  35.415  1.00  0.00     0.022 A 
BRANCH  87  91
ATOM     91  S   UNL A   1      46.106  25.426  36.629  1.00  0.00     0.124 S 
ATOM     92  O   UNL A   1      46.480  26.023  37.908  1.00  0.00    -0.237 OA
ATOM     93  O   UNL A   1      44.751  24.891  36.549  1.00  0.00    -0.237 OA
ATOM     94  O   UNL A   1      47.135  24.594  36.008  1.00  0.00    -0.744 OA
ENDBRANCH  87  91
ENDBRANCH  61  84
ENDBRANCH  35  36
ENDBRANCH  27  30
ENDBRANCH  25  26
ENDBRANCH   1  25
TORSDOF 16
ENDMDL
MODEL 2
REMARK VINA RESULT:     -12.1      3.032      8.291
REMARK SMILES C[C@H](Nc1cccc(F)c1C(=O)NCCCNC(=O)c1ccc(-c2c3nc(c(-c4cc(S(=O)(=O)[O-])ccc4F)c4ccc([nH]4)c(-c4cc(S(=O)(=O)[O-])ccc4F)c4nc(c(-c5cc(S(=O)(=O)[O-])ccc5F)c5ccc2[nH]5)C=C4)C=C3)cc1)c1cccc(Cl)c1
REMARK SMILES IDX 15 1 14 2 13 3 11 4 12 5 10 7 4 8 5 9 6 10 8 11 7 12 9 13
REMARK SMILES IDX 3 14 2 16 1 17 83 18 84 19 89 20 85 21 87 22 86 23 88 24
REMARK SMILES IDX 16 25 17 26 18 27 19 29 20 30 21 31 82 32 22 33 81 34 23 35
REMARK SMILES IDX 24 36 25 37 75 38 26 39 80 40 74 41 76 42 27 43 79 44 73 45
REMARK SMILES IDX 72 46 28 48 60 49 40 50 59 51 41 52 44 53 58 54 77 55 42 56
REMARK SMILES IDX 43 57 57 59 78 60 45 61 29 62 30 63 38 64 31 65 37 66 39 67
REMARK SMILES IDX 36 68 32 69 33 70 34 71 35 72 61 73 62 74 70 75 63 76 69 77
REMARK SMILES IDX 71 78 68 79 64 80 65 81 66 82 67 83 46 84 47 85 55 86 48 87
REMARK SMILES IDX 54 88 56 89 53 90 49 91 50 92 51 93 52 94
REMARK H PARENT 13 6 3 15 17 28 76 47 44 58
REMARK Flexibility Score: inf
ROOT
ATOM      1  C   UNL A   1      33.389  27.954  26.898  1.00  0.00     0.042 C 
ENDROOT
BRANCH   1   2
ATOM      2  C   UNL A   1      31.959  28.280  27.340  1.00  0.00     0.118 C 
BRANCH   2   3
ATOM      3  N   UNL A   1      31.073  27.150  27.136  1.00  0.00    -0.352 N 
ATOM      4  C   UNL A   1      30.645  26.395  26.079  1.00  0.00     0.256 C 
ATOM      5  O   UNL A   1      29.815  25.536  26.412  1.00  0.00    -0.269 OA
ATOM      6  H   UNL A   1      30.675  26.846  27.983  1.00  0.00     0.163 HD
BRANCH   4   7
ATOM      7  C   UNL A   1      31.052  26.486  24.629  1.00  0.00     0.098 A 
ATOM      8  C   UNL A   1      31.661  25.335  24.023  1.00  0.00     0.050 A 
ATOM      9  C   UNL A   1      31.935  25.362  22.641  1.00  0.00     0.027 A 
ATOM     10  C   UNL A   1      31.735  26.497  21.867  1.00  0.00     0.005 A 
ATOM     11  C   UNL A   1      30.825  27.599  23.808  1.00  0.00     0.138 A 
ATOM     12  C   UNL A   1      31.201  27.625  22.460  1.00  0.00     0.040 A 
ATOM     13  F   UNL A   1      30.180  28.691  24.222  1.00  0.00    -0.206 F 
BRANCH   8  14
ATOM     14  N   UNL A   1      31.964  24.191  24.754  1.00  0.00    -0.378 N 
ATOM     15  H   UNL A   1      31.409  23.408  24.536  1.00  0.00     0.161 HD
BRANCH  14  16
ATOM     16  C   UNL A   1      32.968  23.954  25.791  1.00  0.00     0.106 C 
ATOM     17  C   UNL A   1      32.652  22.900  26.848  1.00  0.00     0.036 C 
BRANCH  16  18
ATOM     18  C   UNL A   1      34.307  23.654  25.125  1.00  0.00    -0.025 A 
ATOM     19  C   UNL A   1      34.382  23.041  23.863  1.00  0.00     0.006 A 
ATOM     20  C   UNL A   1      35.504  23.982  25.783  1.00  0.00     0.026 A 
ATOM     21  C   UNL A   1      35.617  22.714  23.299  1.00  0.00     0.002 A 
ATOM     22  C   UNL A   1      36.735  23.657  25.213  1.00  0.00     0.041 A 
ATOM     23  C   UNL A   1      36.795  23.013  23.979  1.00  0.00     0.020 A 
ATOM     24  Cl  UNL A   1      38.190  24.032  26.052  1.00  0.00    -0.084 Cl
ENDBRANCH  16  18
ENDBRANCH  14  16
ENDBRANCH   8  14
ENDBRANCH   4   7
ENDBRANCH   2   3
ENDBRANCH   1   2
BRANCH   1  25
ATOM     25  C   UNL A   1      34.013  29.046  26.022  1.00  0.00     0.118 C 
BRANCH  25  26
ATOM     26  N   UNL A   1      33.817  30.374  26.592  1.00  0.00    -0.352 N 
ATOM     27  C   UNL A   1      34.414  30.989  27.664  1.00  0.00     0.251 C 
ATOM     28  H   UNL A   1      33.143  30.921  26.130  1.00  0.00     0.163 HD
ATOM     29  O   UNL A   1      33.883  31.987  28.140  1.00  0.00    -0.269 OA
BRANCH  27  30
ATOM     30  C   UNL A   1      35.679  30.477  28.235  1.00  0.00     0.039 A 
ATOM     31  C   UNL A   1      36.871  30.706  27.540  1.00  0.00     0.014 A 
ATOM     32  C   UNL A   1      35.689  29.700  29.396  1.00  0.00     0.014 A 
ATOM     33  C   UNL A   1      38.072  30.186  28.027  1.00  0.00     0.010 A 
ATOM     34  C   UNL A   1      36.896  29.246  29.921  1.00  0.00     0.010 A 
ATOM     35  C   UNL A   1      38.098  29.468  29.234  1.00  0.00    -0.014 A 
BRANCH  35  36
ATOM     36  C   UNL A   1      39.367  28.909  29.768  1.00  0.00     0.031 A 
ATOM     37  C   UNL A   1      39.994  29.512  30.996  1.00  0.00     0.074 A 
ATOM     38  C   UNL A   1      39.967  27.888  29.126  1.00  0.00     0.049 A 
ATOM     39  N   UNL A   1      41.132  29.220  31.570  1.00  0.00    -0.248 NA
ATOM     40  C   UNL A   1      39.259  30.608  31.650  1.00  0.00     0.031 C 
ATOM     41  C   UNL A   1      39.464  27.241  27.911  1.00  0.00     0.029 A 
ATOM     42  N   UNL A   1      41.127  27.210  29.404  1.00  0.00    -0.354 N 
ATOM     43  C   UNL A   1      41.257  30.103  32.636  1.00  0.00     0.074 A 
ATOM     44  C   UNL A   1      40.107  30.977  32.599  1.00  0.00     0.031 C 
ATOM     45  C   UNL A   1      40.289  26.237  27.575  1.00  0.00     0.029 A 
ATOM     46  C   UNL A   1      41.402  26.196  28.517  1.00  0.00     0.049 A 
ATOM     47  H   UNL A   1      41.709  27.430  30.168  1.00  0.00     0.167 HD
ATOM     48  C   UNL A   1      42.230  30.160  33.578  1.00  0.00     0.034 A 
ATOM     49  C   UNL A   1      42.438  25.335  28.464  1.00  0.00     0.034 A 
ATOM     50  C   UNL A   1      43.347  29.254  33.628  1.00  0.00     0.049 A 
ATOM     51  C   UNL A   1      43.517  25.431  29.509  1.00  0.00     0.074 A 
ATOM     52  C   UNL A   1      44.354  29.182  34.574  1.00  0.00     0.029 A 
ATOM     53  N   UNL A   1      43.604  28.259  32.695  1.00  0.00    -0.354 N 
ATOM     54  N   UNL A   1      43.611  26.264  30.519  1.00  0.00    -0.248 NA
ATOM     55  C   UNL A   1      44.630  24.478  29.407  1.00  0.00     0.031 C 
ATOM     56  C   UNL A   1      45.249  28.182  34.184  1.00  0.00     0.029 A 
ATOM     57  C   UNL A   1      44.768  27.588  33.027  1.00  0.00     0.049 A 
ATOM     58  H   UNL A   1      43.040  28.060  31.912  1.00  0.00     0.167 HD
ATOM     59  C   UNL A   1      44.787  25.928  31.180  1.00  0.00     0.074 A 
ATOM     60  C   UNL A   1      45.366  24.811  30.460  1.00  0.00     0.031 C 
ATOM     61  C   UNL A   1      45.335  26.489  32.286  1.00  0.00     0.034 A 
BRANCH  48  62
ATOM     62  C   UNL A   1      42.131  31.237  34.626  1.00  0.00     0.023 A 
ATOM     63  C   UNL A   1      42.712  32.502  34.435  1.00  0.00     0.031 A 
ATOM     64  C   UNL A   1      41.430  31.004  35.822  1.00  0.00     0.131 A 
ATOM     65  C   UNL A   1      42.624  33.470  35.446  1.00  0.00     0.055 A 
ATOM     66  C   UNL A   1      41.290  31.994  36.796  1.00  0.00     0.041 A 
ATOM     67  F   UNL A   1      40.869  29.808  36.062  1.00  0.00    -0.206 F 
ATOM     68  C   UNL A   1      41.896  33.234  36.615  1.00  0.00     0.022 A 
BRANCH  65  69
ATOM     69  S   UNL A   1      43.542  35.021  35.246  1.00  0.00     0.124 S 
ATOM     70  O   UNL A   1      44.903  34.531  35.038  1.00  0.00    -0.237 OA
ATOM     71  O   UNL A   1      42.898  35.626  34.087  1.00  0.00    -0.237 OA
ATOM     72  O   UNL A   1      43.324  35.715  36.514  1.00  0.00    -0.744 OA
ENDBRANCH  65  69
ENDBRANCH  48  62
BRANCH  49  73
ATOM     73  C   UNL A   1      42.502  24.316  27.381  1.00  0.00     0.023 A 
ATOM     74  C   UNL A   1      41.763  23.126  27.468  1.00  0.00     0.031 A 
ATOM     75  C   UNL A   1      43.287  24.527  26.234  1.00  0.00     0.131 A 
ATOM     76  C   UNL A   1      41.839  22.181  26.432  1.00  0.00     0.055 A 
ATOM     77  C   UNL A   1      43.330  23.601  25.191  1.00  0.00     0.041 A 
ATOM     78  F   UNL A   1      44.002  25.656  26.101  1.00  0.00    -0.206 F 
ATOM     79  C   UNL A   1      42.606  22.417  25.288  1.00  0.00     0.022 A 
BRANCH  76  80
ATOM     80  S   UNL A   1      40.929  20.621  26.607  1.00  0.00     0.124 S 
ATOM     81  O   UNL A   1      39.668  20.938  25.946  1.00  0.00    -0.237 OA
ATOM     82  O   UNL A   1      41.800  19.679  25.912  1.00  0.00    -0.237 OA
ATOM     83  O   UNL A   1      40.847  20.436  28.054  1.00  0.00    -0.744 OA
ENDBRANCH  76  80
ENDBRANCH  49  73
BRANCH  61  84
ATOM     84  C   UNL A   1      46.620  25.902  32.799  1.00  0.00     0.023 A 
ATOM     85  C   UNL A   1      46.619  24.829  33.703  1.00  0.00     0.031 A 
ATOM     86  C   UNL A   1      47.855  26.372  32.318  1.00  0.00     0.131 A 
ATOM     87  C   UNL A   1      47.836  24.265  34.113  1.00  0.00     0.055 A 
ATOM     88  C   UNL A   1      49.059  25.781  32.697  1.00  0.00     0.041 A 
ATOM     89  F   UNL A   1      47.903  27.393  31.446  1.00  0.00    -0.206 F 
ATOM     90  C   UNL A   1      49.054  24.723  33.600  1.00  0.00     0.022 A 
BRANCH  87  91
ATOM     91  S   UNL A   1      47.810  22.926  35.334  1.00  0.00     0.124 S 
ATOM     92  O   UNL A   1      49.233  22.652  35.512  1.00  0.00    -0.237 OA
ATOM     93  O   UNL A   1      47.134  23.543  36.470  1.00  0.00    -0.237 OA
ATOM     94  O   UNL A   1      47.054  21.867  34.666  1.00  0.00    -0.744 OA
ENDBRANCH  87  91
ENDBRANCH  61  84
ENDBRANCH  35  36
ENDBRANCH  27  30
ENDBRANCH  25  26
ENDBRANCH   1  25
TORSDOF 16
ENDMDL
MODEL 3
REMARK VINA RESULT:     -12.0      2.516      3.527
REMARK SMILES C[C@H](Nc1cccc(F)c1C(=O)NCCCNC(=O)c1ccc(-c2c3nc(c(-c4cc(S(=O)(=O)[O-])ccc4F)c4ccc([nH]4)c(-c4cc(S(=O)(=O)[O-])ccc4F)c4nc(c(-c5cc(S(=O)(=O)[O-])ccc5F)c5ccc2[nH]5)C=C4)C=C3)cc1)c1cccc(Cl)c1
REMARK SMILES IDX 15 1 14 2 13 3 11 4 12 5 10 7 4 8 5 9 6 10 8 11 7 12 9 13
REMARK SMILES IDX 3 14 2 16 1 17 83 18 84 19 89 20 85 21 87 22 86 23 88 24
REMARK SMILES IDX 16 25 17 26 18 27 19 29 20 30 21 31 82 32 22 33 81 34 23 35
REMARK SMILES IDX 24 36 25 37 75 38 26 39 80 40 74 41 76 42 27 43 79 44 73 45
REMARK SMILES IDX 72 46 28 48 60 49 40 50 59 51 41 52 44 53 58 54 77 55 42 56
REMARK SMILES IDX 43 57 57 59 78 60 45 61 29 62 30 63 38 64 31 65 37 66 39 67
REMARK SMILES IDX 36 68 32 69 33 70 34 71 35 72 61 73 62 74 70 75 63 76 69 77
REMARK SMILES IDX 71 78 68 79 64 80 65 81 66 82 67 83 46 84 47 85 55 86 48 87
REMARK SMILES IDX 54 88 56 89 53 90 49 91 50 92 51 93 52 94
REMARK H PARENT 13 6 3 15 17 28 76 47 44 58
REMARK Flexibility Score: inf
ROOT
ATOM      1  C   UNL A   1      31.543  32.023  26.851  1.00  0.00     0.042 C 
ENDROOT
BRANCH   1   2
ATOM      2  C   UNL A   1      31.757  30.510  26.744  1.00  0.00     0.118 C 
BRANCH   2   3
ATOM      3  N   UNL A   1      32.255  30.139  25.433  1.00  0.00    -0.352 N 
ATOM      4  C   UNL A   1      32.243  29.025  24.640  1.00  0.00     0.256 C 
ATOM      5  O   UNL A   1      32.870  29.188  23.582  1.00  0.00    -0.269 OA
ATOM      6  H   UNL A   1      32.727  30.887  25.001  1.00  0.00     0.163 HD
BRANCH   4   7
ATOM      7  C   UNL A   1      31.583  27.693  24.894  1.00  0.00     0.098 A 
ATOM      8  C   UNL A   1      30.552  27.264  23.991  1.00  0.00     0.050 A 
ATOM      9  C   UNL A   1      30.012  25.972  24.143  1.00  0.00     0.027 A 
ATOM     10  C   UNL A   1      30.364  25.140  25.197  1.00  0.00     0.005 A 
ATOM     11  C   UNL A   1      31.944  26.810  25.921  1.00  0.00     0.138 A 
ATOM     12  C   UNL A   1      31.316  25.573  26.100  1.00  0.00     0.040 A 
ATOM     13  F   UNL A   1      32.951  27.046  26.765  1.00  0.00    -0.206 F 
BRANCH   8  14
ATOM     14  N   UNL A   1      30.092  28.076  22.960  1.00  0.00    -0.378 N 
ATOM     15  H   UNL A   1      30.790  28.382  22.338  1.00  0.00     0.161 HD
BRANCH  14  16
ATOM     16  C   UNL A   1      28.745  28.551  22.642  1.00  0.00     0.106 C 
ATOM     17  C   UNL A   1      27.594  28.030  23.497  1.00  0.00     0.036 C 
BRANCH  16  18
ATOM     18  C   UNL A   1      28.749  30.077  22.630  1.00  0.00    -0.025 A 
ATOM     19  C   UNL A   1      29.220  30.821  23.724  1.00  0.00     0.006 A 
ATOM     20  C   UNL A   1      28.261  30.768  21.508  1.00  0.00     0.026 A 
ATOM     21  C   UNL A   1      29.154  32.216  23.721  1.00  0.00     0.002 A 
ATOM     22  C   UNL A   1      28.202  32.161  21.509  1.00  0.00     0.041 A 
ATOM     23  C   UNL A   1      28.635  32.887  22.616  1.00  0.00     0.020 A 
ATOM     24  Cl  UNL A   1      27.565  32.989  20.141  1.00  0.00    -0.084 Cl
ENDBRANCH  16  18
ENDBRANCH  14  16
ENDBRANCH   8  14
ENDBRANCH   4   7
ENDBRANCH   2   3
ENDBRANCH   1   2
BRANCH   1  25
ATOM     25  C   UNL A   1      32.855  32.815  26.906  1.00  0.00     0.118 C 
BRANCH  25  26
ATOM     26  N   UNL A   1      32.681  34.101  27.572  1.00  0.00    -0.352 N 
ATOM     27  C   UNL A   1      33.204  34.584  28.745  1.00  0.00     0.251 C 
ATOM     28  H   UNL A   1      32.088  34.728  27.100  1.00  0.00     0.163 HD
ATOM     29  O   UNL A   1      32.687  35.572  29.258  1.00  0.00    -0.269 OA
BRANCH  27  30
ATOM     30  C   UNL A   1      34.375  33.944  29.384  1.00  0.00     0.039 A 
ATOM     31  C   UNL A   1      34.159  32.905  30.294  1.00  0.00     0.014 A 
ATOM     32  C   UNL A   1      35.671  34.417  29.163  1.00  0.00     0.014 A 
ATOM     33  C   UNL A   1      35.242  32.320  30.954  1.00  0.00     0.010 A 
ATOM     34  C   UNL A   1      36.757  33.785  29.764  1.00  0.00     0.010 A 
ATOM     35  C   UNL A   1      36.554  32.742  30.679  1.00  0.00    -0.014 A 
BRANCH  35  36
ATOM     36  C   UNL A   1      37.717  32.131  31.371  1.00  0.00     0.031 A 
ATOM     37  C   UNL A   1      38.490  31.024  30.705  1.00  0.00     0.074 A 
ATOM     38  C   UNL A   1      38.053  32.548  32.607  1.00  0.00     0.049 A 
ATOM     39  N   UNL A   1      39.482  30.312  31.172  1.00  0.00    -0.248 NA
ATOM     40  C   UNL A   1      38.073  30.646  29.343  1.00  0.00     0.031 C 
ATOM     41  C   UNL A   1      37.360  33.597  33.361  1.00  0.00     0.029 A 
ATOM     42  N   UNL A   1      39.060  32.148  33.448  1.00  0.00    -0.354 N 
ATOM     43  C   UNL A   1      39.795  29.396  30.175  1.00  0.00     0.074 A 
ATOM     44  C   UNL A   1      38.853  29.604  29.098  1.00  0.00     0.031 C 
ATOM     45  C   UNL A   1      37.989  33.783  34.533  1.00  0.00     0.029 A 
ATOM     46  C   UNL A   1      39.096  32.839  34.636  1.00  0.00     0.049 A 
ATOM     47  H   UNL A   1      39.698  31.433  33.221  1.00  0.00     0.167 HD
ATOM     48  C   UNL A   1      40.795  28.482  30.148  1.00  0.00     0.034 A 
ATOM     49  C   UNL A   1      39.924  32.720  35.694  1.00  0.00     0.034 A 
ATOM     50  C   UNL A   1      41.753  28.316  31.209  1.00  0.00     0.049 A 
ATOM     51  C   UNL A   1      41.015  31.684  35.651  1.00  0.00     0.074 A 
ATOM     52  C   UNL A   1      42.844  27.467  31.258  1.00  0.00     0.029 A 
ATOM     53  N   UNL A   1      41.738  29.016  32.408  1.00  0.00    -0.354 N 
ATOM     54  N   UNL A   1      41.305  30.836  34.692  1.00  0.00    -0.248 NA
ATOM     55  C   UNL A   1      41.888  31.585  36.828  1.00  0.00     0.031 C 
ATOM     56  C   UNL A   1      43.455  27.612  32.506  1.00  0.00     0.029 A 
ATOM     57  C   UNL A   1      42.782  28.596  33.214  1.00  0.00     0.049 A 
ATOM     58  H   UNL A   1      41.080  29.708  32.650  1.00  0.00     0.167 HD
ATOM     59  C   UNL A   1      42.400  30.110  35.146  1.00  0.00     0.074 A 
ATOM     60  C   UNL A   1      42.726  30.624  36.461  1.00  0.00     0.031 C 
ATOM     61  C   UNL A   1      43.078  29.111  34.528  1.00  0.00     0.034 A 
BRANCH  48  62
ATOM     62  C   UNL A   1      40.903  27.592  28.937  1.00  0.00     0.023 A 
ATOM     63  C   UNL A   1      41.890  27.800  27.959  1.00  0.00     0.031 A 
ATOM     64  C   UNL A   1      40.022  26.511  28.769  1.00  0.00     0.131 A 
ATOM     65  C   UNL A   1      41.941  26.969  26.831  1.00  0.00     0.055 A 
ATOM     66  C   UNL A   1      40.119  25.646  27.677  1.00  0.00     0.041 A 
ATOM     67  F   UNL A   1      39.050  26.276  29.666  1.00  0.00    -0.206 F 
ATOM     68  C   UNL A   1      41.078  25.878  26.695  1.00  0.00     0.022 A 
BRANCH  65  69
ATOM     69  S   UNL A   1      43.102  27.379  25.501  1.00  0.00     0.124 S 
ATOM     70  O   UNL A   1      43.436  26.054  24.985  1.00  0.00    -0.237 OA
ATOM     71  O   UNL A   1      42.298  28.221  24.624  1.00  0.00    -0.237 OA
ATOM     72  O   UNL A   1      44.191  28.063  26.196  1.00  0.00    -0.744 OA
ENDBRANCH  65  69
ENDBRANCH  48  62
BRANCH  49  73
ATOM     73  C   UNL A   1      39.745  33.602  36.880  1.00  0.00     0.023 A 
ATOM     74  C   UNL A   1      39.217  33.098  38.079  1.00  0.00     0.031 A 
ATOM     75  C   UNL A   1      40.118  34.957  36.836  1.00  0.00     0.131 A 
ATOM     76  C   UNL A   1      39.060  33.951  39.183  1.00  0.00     0.055 A 
ATOM     77  C   UNL A   1      39.993  35.791  37.948  1.00  0.00     0.041 A 
ATOM     78  F   UNL A   1      40.637  35.481  35.715  1.00  0.00    -0.206 F 
ATOM     79  C   UNL A   1      39.457  35.289  39.131  1.00  0.00     0.022 A 
BRANCH  76  80
ATOM     80  S   UNL A   1      38.309  33.288  40.696  1.00  0.00     0.124 S 
ATOM     81  O   UNL A   1      38.794  34.224  41.703  1.00  0.00    -0.237 OA
ATOM     82  O   UNL A   1      36.885  33.357  40.387  1.00  0.00    -0.237 OA
ATOM     83  O   UNL A   1      38.858  31.936  40.784  1.00  0.00    -0.744 OA
ENDBRANCH  76  80
ENDBRANCH  49  73
BRANCH  61  84
ATOM     84  C   UNL A   1      44.249  28.512  35.255  1.00  0.00     0.023 A 
ATOM     85  C   UNL A   1      44.068  27.524  36.235  1.00  0.00     0.031 A 
ATOM     86  C   UNL A   1      45.560  28.880  34.908  1.00  0.00     0.131 A 
ATOM     87  C   UNL A   1      45.186  26.942  36.849  1.00  0.00     0.055 A 
ATOM     88  C   UNL A   1      46.669  28.269  35.491  1.00  0.00     0.041 A 
ATOM     89  F   UNL A   1      45.781  29.816  33.970  1.00  0.00    -0.206 F 
ATOM     90  C   UNL A   1      46.486  27.295  36.469  1.00  0.00     0.022 A 
BRANCH  87  91
ATOM     91  S   UNL A   1      44.925  25.718  38.160  1.00  0.00     0.124 S 
ATOM     92  O   UNL A   1      44.461  24.559  37.403  1.00  0.00    -0.237 OA
ATOM     93  O   UNL A   1      46.252  25.599  38.754  1.00  0.00    -0.237 OA
ATOM     94  O   UNL A   1      43.918  26.343  39.017  1.00  0.00    -0.744 OA
ENDBRANCH  87  91
ENDBRANCH  61  84
ENDBRANCH  35  36
ENDBRANCH  27  30
ENDBRANCH  25  26
ENDBRANCH   1  25
TORSDOF 16
ENDMDL
