MODEL 1
REMARK VINA RESULT:     -11.7      0.000      0.000
REMARK SMILES CC1(C)CCN(c2ncccc2C(=O)NCCCNC(=O)c2ccc(-c3c4nc(c(-c5cc(S(=O)(=O)[O-])ccc5F)c5ccc([nH]5)c(-c5cc(S(=O)(=O)[O-])ccc5F)c5nc(c(-c6cc(S(=O)(=O)[O-])ccc6F)c6ccc3[nH]6)C=C5)C=C4)cc2)C1
REMARK SMILES IDX 18 1 17 2 16 3 15 4 13 5 14 6 12 8 7 9 8 10 9 11 11 12 10 13
REMARK SMILES IDX 6 14 1 15 2 16 3 17 4 18 85 19 5 20 19 21 20 22 21 24 22 25
REMARK SMILES IDX 23 26 84 27 24 28 83 29 25 30 26 31 27 32 77 33 28 34 82 35
REMARK SMILES IDX 76 36 78 37 29 38 81 39 75 40 74 41 30 43 62 44 42 45 61 46
REMARK SMILES IDX 43 47 46 48 60 49 79 50 44 51 45 52 59 54 80 55 47 56 31 57
REMARK SMILES IDX 32 58 40 59 33 60 39 61 41 62 38 63 34 64 35 65 36 66 37 67
REMARK SMILES IDX 63 68 64 69 72 70 65 71 71 72 73 73 70 74 66 75 67 76 68 77
REMARK SMILES IDX 69 78 48 79 49 80 57 81 50 82 56 83 58 84 55 85 51 86 52 87
REMARK SMILES IDX 53 88 54 89
REMARK H PARENT 15 7 19 23 78 42 46 53
REMARK Flexibility Score: inf
ROOT
ATOM      1  C   UNL A   1      33.992  29.142  26.129  1.00  0.00     0.118 C 
ENDROOT
BRANCH   1   2
ATOM      2  C   UNL A   1      33.190  28.134  26.958  1.00  0.00     0.042 C 
BRANCH   2   3
ATOM      3  C   UNL A   1      31.687  28.415  26.968  1.00  0.00     0.118 C 
BRANCH   3   4
ATOM      4  N   UNL A   1      30.935  27.188  26.798  1.00  0.00    -0.352 N 
ATOM      5  C   UNL A   1      30.690  26.307  25.776  1.00  0.00     0.255 C 
ATOM      6  O   UNL A   1      29.946  25.387  26.116  1.00  0.00    -0.269 OA
ATOM      7  H   UNL A   1      30.483  26.919  27.629  1.00  0.00     0.163 HD
BRANCH   5   8
ATOM      8  C   UNL A   1      31.293  26.397  24.400  1.00  0.00     0.082 A 
ATOM      9  C   UNL A   1      30.655  27.132  23.375  1.00  0.00     0.141 A 
ATOM     10  N   UNL A   1      31.059  27.037  22.075  1.00  0.00    -0.238 NA
ATOM     11  C   UNL A   1      32.146  26.302  21.781  1.00  0.00     0.113 A 
ATOM     12  C   UNL A   1      32.471  25.720  24.056  1.00  0.00     0.019 A 
ATOM     13  C   UNL A   1      32.899  25.656  22.733  1.00  0.00     0.021 A 
BRANCH   9  14
ATOM     14  N   UNL A   1      29.665  28.061  23.607  1.00  0.00    -0.355 N 
ATOM     15  C   UNL A   1      28.829  30.401  21.501  1.00  0.00     0.013 C 
ATOM     16  C   UNL A   1      28.756  30.191  23.022  1.00  0.00    -0.016 C 
ATOM     17  C   UNL A   1      28.550  31.543  23.709  1.00  0.00     0.013 C 
ATOM     18  C   UNL A   1      27.646  29.194  23.395  1.00  0.00     0.030 C 
ATOM     19  C   UNL A   1      30.029  29.482  23.539  1.00  0.00     0.124 C 
ATOM     20  C   UNL A   1      28.301  27.833  23.166  1.00  0.00     0.119 C 
ENDBRANCH   9  14
ENDBRANCH   5   8
ENDBRANCH   3   4
ENDBRANCH   2   3
ENDBRANCH   1   2
BRANCH   1  21
ATOM     21  N   UNL A   1      33.818  30.506  26.609  1.00  0.00    -0.352 N 
ATOM     22  C   UNL A   1      34.468  31.182  27.611  1.00  0.00     0.251 C 
ATOM     23  H   UNL A   1      33.127  31.025  26.139  1.00  0.00     0.163 HD
ATOM     24  O   UNL A   1      33.987  32.229  28.036  1.00  0.00    -0.269 OA
BRANCH  22  25
ATOM     25  C   UNL A   1      35.727  30.656  28.181  1.00  0.00     0.039 A 
ATOM     26  C   UNL A   1      35.667  29.832  29.308  1.00  0.00     0.014 A 
ATOM     27  C   UNL A   1      36.967  31.014  27.643  1.00  0.00     0.014 A 
ATOM     28  C   UNL A   1      36.845  29.321  29.859  1.00  0.00     0.010 A 
ATOM     29  C   UNL A   1      38.135  30.450  28.150  1.00  0.00     0.010 A 
ATOM     30  C   UNL A   1      38.087  29.601  29.266  1.00  0.00    -0.014 A 
BRANCH  30  31
ATOM     31  C   UNL A   1      39.345  29.017  29.799  1.00  0.00     0.031 A 
ATOM     32  C   UNL A   1      40.033  29.651  30.979  1.00  0.00     0.074 A 
ATOM     33  C   UNL A   1      39.902  27.959  29.178  1.00  0.00     0.049 A 
ATOM     34  N   UNL A   1      41.180  29.348  31.531  1.00  0.00    -0.248 NA
ATOM     35  C   UNL A   1      39.353  30.798  31.597  1.00  0.00     0.031 C 
ATOM     36  C   UNL A   1      39.348  27.284  28.002  1.00  0.00     0.029 A 
ATOM     37  N   UNL A   1      41.062  27.273  29.436  1.00  0.00    -0.354 N 
ATOM     38  C   UNL A   1      41.367  30.276  32.551  1.00  0.00     0.074 A 
ATOM     39  C   UNL A   1      40.242  31.186  32.498  1.00  0.00     0.031 C 
ATOM     40  C   UNL A   1      40.156  26.270  27.655  1.00  0.00     0.029 A 
ATOM     41  C   UNL A   1      41.308  26.250  28.550  1.00  0.00     0.049 A 
ATOM     42  H   UNL A   1      41.661  27.491  30.186  1.00  0.00     0.167 HD
ATOM     43  C   UNL A   1      42.373  30.348  33.459  1.00  0.00     0.034 A 
ATOM     44  C   UNL A   1      42.351  25.402  28.458  1.00  0.00     0.034 A 
ATOM     45  C   UNL A   1      43.480  29.422  33.502  1.00  0.00     0.049 A 
ATOM     46  C   UNL A   1      43.467  25.511  29.465  1.00  0.00     0.074 A 
ATOM     47  C   UNL A   1      44.525  29.366  34.409  1.00  0.00     0.029 A 
ATOM     48  N   UNL A   1      43.693  28.393  32.591  1.00  0.00    -0.354 N 
ATOM     49  N   UNL A   1      43.606  26.365  30.454  1.00  0.00    -0.248 NA
ATOM     50  C   UNL A   1      44.559  24.536  29.352  1.00  0.00     0.031 C 
ATOM     51  C   UNL A   1      45.401  28.351  34.009  1.00  0.00     0.029 A 
ATOM     52  C   UNL A   1      44.866  27.719  32.898  1.00  0.00     0.049 A 
ATOM     53  H   UNL A   1      43.098  28.175  31.837  1.00  0.00     0.167 HD
ATOM     54  C   UNL A   1      44.788  26.008  31.099  1.00  0.00     0.074 A 
ATOM     55  C   UNL A   1      45.312  24.856  30.395  1.00  0.00     0.031 C 
ATOM     56  C   UNL A   1      45.383  26.578  32.178  1.00  0.00     0.034 A 
BRANCH  43  57
ATOM     57  C   UNL A   1      42.328  31.482  34.457  1.00  0.00     0.023 A 
ATOM     58  C   UNL A   1      41.430  31.480  35.539  1.00  0.00     0.031 A 
ATOM     59  C   UNL A   1      43.173  32.596  34.309  1.00  0.00     0.131 A 
ATOM     60  C   UNL A   1      41.338  32.602  36.377  1.00  0.00     0.055 A 
ATOM     61  C   UNL A   1      43.137  33.674  35.198  1.00  0.00     0.041 A 
ATOM     62  F   UNL A   1      44.040  32.667  33.286  1.00  0.00    -0.206 F 
ATOM     63  C   UNL A   1      42.203  33.688  36.230  1.00  0.00     0.022 A 
BRANCH  60  64
ATOM     64  S   UNL A   1      39.967  32.685  37.564  1.00  0.00     0.124 S 
ATOM     65  O   UNL A   1      39.056  31.676  37.031  1.00  0.00    -0.237 OA
ATOM     66  O   UNL A   1      40.622  32.354  38.825  1.00  0.00    -0.237 OA
ATOM     67  O   UNL A   1      39.496  34.063  37.447  1.00  0.00    -0.744 OA
ENDBRANCH  60  64
ENDBRANCH  43  57
BRANCH  44  68
ATOM     68  C   UNL A   1      42.399  24.381  27.372  1.00  0.00     0.023 A 
ATOM     69  C   UNL A   1      41.648  23.199  27.458  1.00  0.00     0.031 A 
ATOM     70  C   UNL A   1      43.221  24.561  26.245  1.00  0.00     0.131 A 
ATOM     71  C   UNL A   1      41.767  22.221  26.458  1.00  0.00     0.055 A 
ATOM     72  C   UNL A   1      43.297  23.609  25.228  1.00  0.00     0.041 A 
ATOM     73  F   UNL A   1      43.954  25.678  26.110  1.00  0.00    -0.206 F 
ATOM     74  C   UNL A   1      42.575  22.424  25.337  1.00  0.00     0.022 A 
BRANCH  71  75
ATOM     75  S   UNL A   1      40.903  20.641  26.681  1.00  0.00     0.124 S 
ATOM     76  O   UNL A   1      39.638  20.897  26.003  1.00  0.00    -0.237 OA
ATOM     77  O   UNL A   1      41.808  19.706  26.023  1.00  0.00    -0.237 OA
ATOM     78  O   UNL A   1      40.817  20.505  28.134  1.00  0.00    -0.744 OA
ENDBRANCH  71  75
ENDBRANCH  44  68
BRANCH  56  79
ATOM     79  C   UNL A   1      46.646  25.927  32.685  1.00  0.00     0.023 A 
ATOM     80  C   UNL A   1      46.616  24.882  33.625  1.00  0.00     0.031 A 
ATOM     81  C   UNL A   1      47.900  26.369  32.227  1.00  0.00     0.131 A 
ATOM     82  C   UNL A   1      47.818  24.353  34.119  1.00  0.00     0.055 A 
ATOM     83  C   UNL A   1      49.090  25.796  32.676  1.00  0.00     0.041 A 
ATOM     84  F   UNL A   1      47.988  27.365  31.332  1.00  0.00    -0.206 F 
ATOM     85  C   UNL A   1      49.055  24.791  33.638  1.00  0.00     0.022 A 
BRANCH  82  86
ATOM     86  S   UNL A   1      47.747  23.144  35.470  1.00  0.00     0.124 S 
ATOM     87  O   UNL A   1      48.864  23.563  36.311  1.00  0.00    -0.237 OA
ATOM     88  O   UNL A   1      46.415  23.368  36.020  1.00  0.00    -0.237 OA
ATOM     89  O   UNL A   1      47.929  21.861  34.793  1.00  0.00    -0.744 OA
ENDBRANCH  82  86
ENDBRANCH  56  79
ENDBRANCH  30  31
ENDBRANCH  22  25
ENDBRANCH   1  21
TORSDOF 14
ENDMDL
MODEL 2
REMARK VINA RESULT:     -11.7      1.025      2.604
REMARK SMILES CC1(C)CCN(c2ncccc2C(=O)NCCCNC(=O)c2ccc(-c3c4nc(c(-c5cc(S(=O)(=O)[O-])ccc5F)c5ccc([nH]5)c(-c5cc(S(=O)(=O)[O-])ccc5F)c5nc(c(-c6cc(S(=O)(=O)[O-])ccc6F)c6ccc3[nH]6)C=C5)C=C4)cc2)C1
REMARK SMILES IDX 18 1 17 2 16 3 15 4 13 5 14 6 12 8 7 9 8 10 9 11 11 12 10 13
REMARK SMILES IDX 6 14 1 15 2 16 3 17 4 18 85 19 5 20 19 21 20 22 21 24 22 25
REMARK SMILES IDX 23 26 84 27 24 28 83 29 25 30 26 31 27 32 77 33 28 34 82 35
REMARK SMILES IDX 76 36 78 37 29 38 81 39 75 40 74 41 30 43 62 44 42 45 61 46
REMARK SMILES IDX 43 47 46 48 60 49 79 50 44 51 45 52 59 54 80 55 47 56 31 57
REMARK SMILES IDX 32 58 40 59 33 60 39 61 41 62 38 63 34 64 35 65 36 66 37 67
REMARK SMILES IDX 63 68 64 69 72 70 65 71 71 72 73 73 70 74 66 75 67 76 68 77
REMARK SMILES IDX 69 78 48 79 49 80 57 81 50 82 56 83 58 84 55 85 51 86 52 87
REMARK SMILES IDX 53 88 54 89
REMARK H PARENT 15 7 19 23 78 42 46 53
REMARK Flexibility Score: inf
ROOT
ATOM      1  C   UNL A   1      33.879  29.098  26.172  1.00  0.00     0.118 C 
ENDROOT
BRANCH   1   2
ATOM      2  C   UNL A   1      33.257  28.079  27.131  1.00  0.00     0.042 C 
BRANCH   2   3
ATOM      3  C   UNL A   1      31.755  28.275  27.336  1.00  0.00     0.118 C 
BRANCH   3   4
ATOM      4  N   UNL A   1      31.049  27.017  27.192  1.00  0.00    -0.352 N 
ATOM      5  C   UNL A   1      30.681  26.197  26.157  1.00  0.00     0.255 C 
ATOM      6  O   UNL A   1      30.055  25.209  26.538  1.00  0.00    -0.269 OA
ATOM      7  H   UNL A   1      30.759  26.660  28.062  1.00  0.00     0.163 HD
BRANCH   5   8
ATOM      8  C   UNL A   1      31.038  26.424  24.713  1.00  0.00     0.082 A 
ATOM      9  C   UNL A   1      32.260  25.948  24.184  1.00  0.00     0.141 A 
ATOM     10  N   UNL A   1      32.703  26.338  22.953  1.00  0.00    -0.238 NA
ATOM     11  C   UNL A   1      31.912  27.116  22.191  1.00  0.00     0.113 A 
ATOM     12  C   UNL A   1      30.215  27.155  23.846  1.00  0.00     0.019 A 
ATOM     13  C   UNL A   1      30.656  27.521  22.577  1.00  0.00     0.021 A 
BRANCH   9  14
ATOM     14  N   UNL A   1      33.040  24.997  24.804  1.00  0.00    -0.355 N 
ATOM     15  C   UNL A   1      35.202  23.117  23.255  1.00  0.00     0.013 C 
ATOM     16  C   UNL A   1      34.363  23.026  24.541  1.00  0.00    -0.016 C 
ATOM     17  C   UNL A   1      34.296  21.567  24.998  1.00  0.00     0.013 C 
ATOM     18  C   UNL A   1      34.931  23.937  25.642  1.00  0.00     0.030 C 
ATOM     19  C   UNL A   1      32.951  23.615  24.316  1.00  0.00     0.124 C 
ATOM     20  C   UNL A   1      34.370  25.313  25.288  1.00  0.00     0.119 C 
ENDBRANCH   9  14
ENDBRANCH   5   8
ENDBRANCH   3   4
ENDBRANCH   2   3
ENDBRANCH   1   2
BRANCH   1  21
ATOM     21  N   UNL A   1      33.701  30.467  26.637  1.00  0.00    -0.352 N 
ATOM     22  C   UNL A   1      34.354  31.158  27.626  1.00  0.00     0.251 C 
ATOM     23  H   UNL A   1      33.002  30.976  26.167  1.00  0.00     0.163 HD
ATOM     24  O   UNL A   1      33.870  32.207  28.042  1.00  0.00    -0.269 OA
BRANCH  22  25
ATOM     25  C   UNL A   1      35.621  30.647  28.192  1.00  0.00     0.039 A 
ATOM     26  C   UNL A   1      35.574  29.824  29.320  1.00  0.00     0.014 A 
ATOM     27  C   UNL A   1      36.854  31.018  27.649  1.00  0.00     0.014 A 
ATOM     28  C   UNL A   1      36.759  29.327  29.868  1.00  0.00     0.010 A 
ATOM     29  C   UNL A   1      38.030  30.467  28.153  1.00  0.00     0.010 A 
ATOM     30  C   UNL A   1      37.995  29.619  29.270  1.00  0.00    -0.014 A 
BRANCH  30  31
ATOM     31  C   UNL A   1      39.262  29.050  29.799  1.00  0.00     0.031 A 
ATOM     32  C   UNL A   1      39.949  29.694  30.974  1.00  0.00     0.074 A 
ATOM     33  C   UNL A   1      39.827  27.996  29.179  1.00  0.00     0.049 A 
ATOM     34  N   UNL A   1      41.101  29.404  31.522  1.00  0.00    -0.248 NA
ATOM     35  C   UNL A   1      39.259  30.835  31.592  1.00  0.00     0.031 C 
ATOM     36  C   UNL A   1      39.274  27.311  28.007  1.00  0.00     0.029 A 
ATOM     37  N   UNL A   1      40.995  27.322  29.434  1.00  0.00    -0.354 N 
ATOM     38  C   UNL A   1      41.283  30.337  32.539  1.00  0.00     0.074 A 
ATOM     39  C   UNL A   1      40.148  31.235  32.488  1.00  0.00     0.031 C 
ATOM     40  C   UNL A   1      40.091  26.304  27.660  1.00  0.00     0.029 A 
ATOM     41  C   UNL A   1      41.248  26.299  28.550  1.00  0.00     0.049 A 
ATOM     42  H   UNL A   1      41.595  27.548  30.181  1.00  0.00     0.167 HD
ATOM     43  C   UNL A   1      42.292  30.421  33.443  1.00  0.00     0.034 A 
ATOM     44  C   UNL A   1      42.299  25.461  28.455  1.00  0.00     0.034 A 
ATOM     45  C   UNL A   1      43.408  29.507  33.483  1.00  0.00     0.049 A 
ATOM     46  C   UNL A   1      43.418  25.585  29.458  1.00  0.00     0.074 A 
ATOM     47  C   UNL A   1      44.458  29.465  34.385  1.00  0.00     0.029 A 
ATOM     48  N   UNL A   1      43.628  28.478  32.574  1.00  0.00    -0.354 N 
ATOM     49  N   UNL A   1      43.552  26.443  30.444  1.00  0.00    -0.248 NA
ATOM     50  C   UNL A   1      44.520  24.621  29.342  1.00  0.00     0.031 C 
ATOM     51  C   UNL A   1      45.342  28.457  33.985  1.00  0.00     0.029 A 
ATOM     52  C   UNL A   1      44.809  27.817  32.878  1.00  0.00     0.049 A 
ATOM     53  H   UNL A   1      43.032  28.252  31.824  1.00  0.00     0.167 HD
ATOM     54  C   UNL A   1      44.741  26.100  31.084  1.00  0.00     0.074 A 
ATOM     55  C   UNL A   1      45.274  24.951  30.381  1.00  0.00     0.031 C 
ATOM     56  C   UNL A   1      45.334  26.679  32.159  1.00  0.00     0.034 A 
BRANCH  43  57
ATOM     57  C   UNL A   1      42.240  31.558  34.437  1.00  0.00     0.023 A 
ATOM     58  C   UNL A   1      41.371  31.533  35.543  1.00  0.00     0.031 A 
ATOM     59  C   UNL A   1      43.046  32.696  34.263  1.00  0.00     0.131 A 
ATOM     60  C   UNL A   1      41.268  32.656  36.380  1.00  0.00     0.055 A 
ATOM     61  C   UNL A   1      43.001  33.776  35.148  1.00  0.00     0.041 A 
ATOM     62  F   UNL A   1      43.883  32.789  33.217  1.00  0.00    -0.206 F 
ATOM     63  C   UNL A   1      42.096  33.767  36.205  1.00  0.00     0.022 A 
BRANCH  60  64
ATOM     64  S   UNL A   1      39.928  32.703  37.603  1.00  0.00     0.124 S 
ATOM     65  O   UNL A   1      39.053  31.638  37.120  1.00  0.00    -0.237 OA
ATOM     66  O   UNL A   1      40.632  32.435  38.852  1.00  0.00    -0.237 OA
ATOM     67  O   UNL A   1      39.388  34.054  37.467  1.00  0.00    -0.744 OA
ENDBRANCH  60  64
ENDBRANCH  43  57
BRANCH  44  68
ATOM     68  C   UNL A   1      42.353  24.438  27.372  1.00  0.00     0.023 A 
ATOM     69  C   UNL A   1      41.587  23.264  27.448  1.00  0.00     0.031 A 
ATOM     70  C   UNL A   1      43.195  24.606  26.259  1.00  0.00     0.131 A 
ATOM     71  C   UNL A   1      41.711  22.284  26.452  1.00  0.00     0.055 A 
ATOM     72  C   UNL A   1      43.276  23.651  25.244  1.00  0.00     0.041 A 
ATOM     73  F   UNL A   1      43.943  25.714  26.133  1.00  0.00    -0.206 F 
ATOM     74  C   UNL A   1      42.539  22.475  25.344  1.00  0.00     0.022 A 
BRANCH  71  75
ATOM     75  S   UNL A   1      40.825  20.715  26.664  1.00  0.00     0.124 S 
ATOM     76  O   UNL A   1      40.840  20.559  28.114  1.00  0.00    -0.237 OA
ATOM     77  O   UNL A   1      39.531  21.015  26.063  1.00  0.00    -0.237 OA
ATOM     78  O   UNL A   1      41.647  19.758  25.925  1.00  0.00    -0.744 OA
ENDBRANCH  71  75
ENDBRANCH  44  68
BRANCH  56  79
ATOM     79  C   UNL A   1      46.606  26.042  32.662  1.00  0.00     0.023 A 
ATOM     80  C   UNL A   1      46.591  24.996  33.601  1.00  0.00     0.031 A 
ATOM     81  C   UNL A   1      47.854  26.500  32.202  1.00  0.00     0.131 A 
ATOM     82  C   UNL A   1      47.800  24.480  34.092  1.00  0.00     0.055 A 
ATOM     83  C   UNL A   1      49.052  25.941  32.649  1.00  0.00     0.041 A 
ATOM     84  F   UNL A   1      47.928  27.499  31.309  1.00  0.00    -0.206 F 
ATOM     85  C   UNL A   1      49.030  24.934  33.609  1.00  0.00     0.022 A 
BRANCH  82  86
ATOM     86  S   UNL A   1      47.747  23.268  35.441  1.00  0.00     0.124 S 
ATOM     87  O   UNL A   1      46.629  23.756  36.242  1.00  0.00    -0.237 OA
ATOM     88  O   UNL A   1      47.520  22.016  34.726  1.00  0.00    -0.237 OA
ATOM     89  O   UNL A   1      49.061  23.394  36.067  1.00  0.00    -0.744 OA
ENDBRANCH  82  86
ENDBRANCH  56  79
ENDBRANCH  30  31
ENDBRANCH  22  25
ENDBRANCH   1  21
TORSDOF 14
ENDMDL
MODEL 3
REMARK VINA RESULT:     -11.6      1.355      1.813
REMARK SMILES CC1(C)CCN(c2ncccc2C(=O)NCCCNC(=O)c2ccc(-c3c4nc(c(-c5cc(S(=O)(=O)[O-])ccc5F)c5ccc([nH]5)c(-c5cc(S(=O)(=O)[O-])ccc5F)c5nc(c(-c6cc(S(=O)(=O)[O-])ccc6F)c6ccc3[nH]6)C=C5)C=C4)cc2)C1
REMARK SMILES IDX 18 1 17 2 16 3 15 4 13 5 14 6 12 8 7 9 8 10 9 11 11 12 10 13
REMARK SMILES IDX 6 14 1 15 2 16 3 17 4 18 85 19 5 20 19 21 20 22 21 24 22 25
REMARK SMILES IDX 23 26 84 27 24 28 83 29 25 30 26 31 27 32 77 33 28 34 82 35
REMARK SMILES IDX 76 36 78 37 29 38 81 39 75 40 74 41 30 43 62 44 42 45 61 46
REMARK SMILES IDX 43 47 46 48 60 49 79 50 44 51 45 52 59 54 80 55 47 56 31 57
REMARK SMILES IDX 32 58 40 59 33 60 39 61 41 62 38 63 34 64 35 65 36 66 37 67
REMARK SMILES IDX 63 68 64 69 72 70 65 71 71 72 73 73 70 74 66 75 67 76 68 77
REMARK SMILES IDX 69 78 48 79 49 80 57 81 50 82 56 83 58 84 55 85 51 86 52 87
REMARK SMILES IDX 53 88 54 89
REMARK H PARENT 15 7 19 23 78 42 46 53
REMARK Flexibility Score: inf
ROOT
ATOM      1  C   UNL A   1      32.992  29.981  26.518  1.00  0.00     0.118 C 
ENDROOT
BRANCH   1   2
ATOM      2  C   UNL A   1      31.759  29.337  27.159  1.00  0.00     0.042 C 
BRANCH   2   3
ATOM      3  C   UNL A   1      32.017  27.929  27.694  1.00  0.00     0.118 C 
BRANCH   3   4
ATOM      4  N   UNL A   1      31.072  26.985  27.132  1.00  0.00    -0.352 N 
ATOM      5  C   UNL A   1      30.819  26.450  25.894  1.00  0.00     0.255 C 
ATOM      6  O   UNL A   1      29.865  25.673  25.903  1.00  0.00    -0.269 OA
ATOM      7  H   UNL A   1      30.452  26.639  27.813  1.00  0.00     0.163 HD
BRANCH   5   8
ATOM      8  C   UNL A   1      31.635  26.720  24.659  1.00  0.00     0.082 A 
ATOM      9  C   UNL A   1      31.098  27.464  23.583  1.00  0.00     0.141 A 
ATOM     10  N   UNL A   1      31.728  27.523  22.374  1.00  0.00    -0.238 NA
ATOM     11  C   UNL A   1      32.932  26.937  22.236  1.00  0.00     0.113 A 
ATOM     12  C   UNL A   1      32.928  26.206  24.491  1.00  0.00     0.019 A 
ATOM     13  C   UNL A   1      33.582  26.299  23.266  1.00  0.00     0.021 A 
BRANCH   9  14
ATOM     14  N   UNL A   1      29.977  28.257  23.690  1.00  0.00    -0.355 N 
ATOM     15  C   UNL A   1      29.112  30.500  21.492  1.00  0.00     0.013 C 
ATOM     16  C   UNL A   1      28.883  30.263  22.994  1.00  0.00    -0.016 C 
ATOM     17  C   UNL A   1      28.424  31.569  23.647  1.00  0.00     0.013 C 
ATOM     18  C   UNL A   1      27.872  29.128  23.231  1.00  0.00     0.030 C 
ATOM     19  C   UNL A   1      30.163  29.713  23.664  1.00  0.00     0.124 C 
ATOM     20  C   UNL A   1      28.717  27.865  23.087  1.00  0.00     0.119 C 
ENDBRANCH   9  14
ENDBRANCH   5   8
ENDBRANCH   3   4
ENDBRANCH   2   3
ENDBRANCH   1   2
BRANCH   1  21
ATOM     21  N   UNL A   1      33.046  31.417  26.757  1.00  0.00    -0.352 N 
ATOM     22  C   UNL A   1      33.858  32.146  27.588  1.00  0.00     0.251 C 
ATOM     23  H   UNL A   1      32.399  31.947  26.239  1.00  0.00     0.163 HD
ATOM     24  O   UNL A   1      33.560  33.309  27.845  1.00  0.00    -0.269 OA
BRANCH  22  25
ATOM     25  C   UNL A   1      35.072  31.540  28.177  1.00  0.00     0.039 A 
ATOM     26  C   UNL A   1      36.266  32.265  28.159  1.00  0.00     0.014 A 
ATOM     27  C   UNL A   1      35.051  30.243  28.697  1.00  0.00     0.014 A 
ATOM     28  C   UNL A   1      37.423  31.713  28.713  1.00  0.00     0.010 A 
ATOM     29  C   UNL A   1      36.186  29.721  29.311  1.00  0.00     0.010 A 
ATOM     30  C   UNL A   1      37.386  30.448  29.322  1.00  0.00    -0.014 A 
BRANCH  30  31
ATOM     31  C   UNL A   1      38.590  29.869  29.974  1.00  0.00     0.031 A 
ATOM     32  C   UNL A   1      39.022  30.356  31.331  1.00  0.00     0.074 A 
ATOM     33  C   UNL A   1      39.330  28.958  29.313  1.00  0.00     0.049 A 
ATOM     34  N   UNL A   1      40.088  30.044  32.023  1.00  0.00    -0.248 NA
ATOM     35  C   UNL A   1      38.153  31.348  31.981  1.00  0.00     0.031 C 
ATOM     36  C   UNL A   1      39.032  28.439  27.976  1.00  0.00     0.029 A 
ATOM     37  N   UNL A   1      40.489  28.314  29.666  1.00  0.00    -0.354 N 
ATOM     38  C   UNL A   1      40.027  30.813  33.181  1.00  0.00     0.074 A 
ATOM     39  C   UNL A   1      38.850  31.647  33.066  1.00  0.00     0.031 C 
ATOM     40  C   UNL A   1      39.971  27.543  27.632  1.00  0.00     0.029 A 
ATOM     41  C   UNL A   1      40.963  27.458  28.699  1.00  0.00     0.049 A 
ATOM     42  H   UNL A   1      40.939  28.451  30.531  1.00  0.00     0.167 HD
ATOM     43  C   UNL A   1      40.865  30.807  34.249  1.00  0.00     0.034 A 
ATOM     44  C   UNL A   1      42.078  26.702  28.667  1.00  0.00     0.034 A 
ATOM     45  C   UNL A   1      42.028  29.958  34.349  1.00  0.00     0.049 A 
ATOM     46  C   UNL A   1      43.005  26.725  29.856  1.00  0.00     0.074 A 
ATOM     47  C   UNL A   1      42.916  29.829  35.404  1.00  0.00     0.029 A 
ATOM     48  N   UNL A   1      42.474  29.098  33.351  1.00  0.00    -0.354 N 
ATOM     49  N   UNL A   1      42.908  27.423  30.965  1.00  0.00    -0.248 NA
ATOM     50  C   UNL A   1      44.183  25.851  29.794  1.00  0.00     0.031 C 
ATOM     51  C   UNL A   1      43.930  28.945  35.019  1.00  0.00     0.029 A 
ATOM     52  C   UNL A   1      43.637  28.461  33.755  1.00  0.00     0.049 A 
ATOM     53  H   UNL A   1      42.028  28.962  32.484  1.00  0.00     0.167 HD
ATOM     54  C   UNL A   1      43.999  27.046  31.745  1.00  0.00     0.074 A 
ATOM     55  C   UNL A   1      44.728  26.052  30.985  1.00  0.00     0.031 C 
ATOM     56  C   UNL A   1      44.361  27.479  32.980  1.00  0.00     0.034 A 
BRANCH  43  57
ATOM     57  C   UNL A   1      40.562  31.768  35.375  1.00  0.00     0.023 A 
ATOM     58  C   UNL A   1      39.481  31.563  36.252  1.00  0.00     0.031 A 
ATOM     59  C   UNL A   1      41.343  32.923  35.558  1.00  0.00     0.131 A 
ATOM     60  C   UNL A   1      39.162  32.536  37.212  1.00  0.00     0.055 A 
ATOM     61  C   UNL A   1      41.072  33.846  36.571  1.00  0.00     0.041 A 
ATOM     62  F   UNL A   1      42.377  33.187  34.742  1.00  0.00    -0.206 F 
ATOM     63  C   UNL A   1      39.965  33.663  37.395  1.00  0.00     0.022 A 
BRANCH  60  64
ATOM     64  S   UNL A   1      37.594  32.380  38.112  1.00  0.00     0.124 S 
ATOM     65  O   UNL A   1      36.700  33.188  37.286  1.00  0.00    -0.237 OA
ATOM     66  O   UNL A   1      37.359  30.941  38.089  1.00  0.00    -0.237 OA
ATOM     67  O   UNL A   1      37.896  32.944  39.426  1.00  0.00    -0.744 OA
ENDBRANCH  60  64
ENDBRANCH  43  57
BRANCH  44  68
ATOM     68  C   UNL A   1      42.389  25.867  27.473  1.00  0.00     0.023 A 
ATOM     69  C   UNL A   1      41.990  24.523  27.407  1.00  0.00     0.031 A 
ATOM     70  C   UNL A   1      43.116  26.393  26.390  1.00  0.00     0.131 A 
ATOM     71  C   UNL A   1      42.358  23.737  26.303  1.00  0.00     0.055 A 
ATOM     72  C   UNL A   1      43.435  25.622  25.271  1.00  0.00     0.041 A 
ATOM     73  F   UNL A   1      43.514  27.676  26.399  1.00  0.00    -0.206 F 
ATOM     74  C   UNL A   1      43.065  24.281  25.229  1.00  0.00     0.022 A 
BRANCH  71  75
ATOM     75  S   UNL A   1      41.961  21.967  26.327  1.00  0.00     0.124 S 
ATOM     76  O   UNL A   1      42.345  21.595  27.683  1.00  0.00    -0.237 OA
ATOM     77  O   UNL A   1      40.531  21.975  26.042  1.00  0.00    -0.237 OA
ATOM     78  O   UNL A   1      42.803  21.417  25.266  1.00  0.00    -0.744 OA
ENDBRANCH  71  75
ENDBRANCH  44  68
BRANCH  56  79
ATOM     79  C   UNL A   1      45.579  26.839  33.598  1.00  0.00     0.023 A 
ATOM     80  C   UNL A   1      45.492  25.661  34.360  1.00  0.00     0.031 A 
ATOM     81  C   UNL A   1      46.846  27.425  33.429  1.00  0.00     0.131 A 
ATOM     82  C   UNL A   1      46.641  25.139  34.973  1.00  0.00     0.055 A 
ATOM     83  C   UNL A   1      47.996  26.867  33.991  1.00  0.00     0.041 A 
ATOM     84  F   UNL A   1      46.988  28.552  32.714  1.00  0.00    -0.206 F 
ATOM     85  C   UNL A   1      47.896  25.724  34.778  1.00  0.00     0.022 A 
BRANCH  82  86
ATOM     86  S   UNL A   1      46.463  23.733  36.105  1.00  0.00     0.124 S 
ATOM     87  O   UNL A   1      45.035  23.447  36.012  1.00  0.00    -0.237 OA
ATOM     88  O   UNL A   1      47.352  22.739  35.511  1.00  0.00    -0.237 OA
ATOM     89  O   UNL A   1      46.906  24.269  37.391  1.00  0.00    -0.744 OA
ENDBRANCH  82  86
ENDBRANCH  56  79
ENDBRANCH  30  31
ENDBRANCH  22  25
ENDBRANCH   1  21
TORSDOF 14
ENDMDL
