MODEL 1
REMARK VINA RESULT:     -15.3      0.000      0.000
REMARK SMILES CC1=Nc2ncnn2[C@H](c2ccc(F)cc2)[C@@H]1C(=O)NCCCNC(=O)c1ccc(-c2c3nc(c(-c4cc(S(=O)(=O)[O-])ccc4F)c4ccc([nH]4)c(-c4cc(S(=O)(=O)[O-])ccc4F)c4nc(c(-c5cc(S(=O)(=O)[O-])ccc5F)c5ccc2[nH]5)C=C4)C=C3)cc1
REMARK SMILES IDX 23 1 22 2 21 3 20 4 18 5 19 6 17 8 1 9 2 10 3 11 4 12 9 13
REMARK SMILES IDX 5 14 8 15 6 16 7 17 10 18 11 19 16 20 12 21 15 22 13 23
REMARK SMILES IDX 14 24 24 25 25 26 26 28 27 29 28 30 89 31 29 32 88 33 30 34
REMARK SMILES IDX 31 35 32 36 82 37 33 38 87 39 81 40 83 41 34 42 86 43 80 44
REMARK SMILES IDX 79 45 35 47 67 48 47 49 66 50 48 51 51 52 65 53 84 54 49 55
REMARK SMILES IDX 50 56 64 58 85 59 52 60 36 61 37 62 45 63 38 64 44 65 46 66
REMARK SMILES IDX 43 67 39 68 40 69 41 70 42 71 68 72 69 73 77 74 70 75 76 76
REMARK SMILES IDX 78 77 75 78 71 79 72 80 73 81 74 82 53 83 54 84 62 85 55 86
REMARK SMILES IDX 61 87 63 88 60 89 56 90 57 91 58 92 59 93
REMARK H PARENT 20 7 24 27 83 46 51 57
REMARK Flexibility Score: inf
ROOT
ATOM      1  C   UNL A   1      35.145  29.328  27.590  1.00  0.00     0.118 C 
ENDROOT
BRANCH   1   2
ATOM      2  C   UNL A   1      33.425  29.311  27.235  1.00  0.00     0.042 C 
BRANCH   2   3
ATOM      3  C   UNL A   1      31.759  27.971  27.705  1.00  0.00     0.117 C 
BRANCH   3   4
ATOM      4  N   UNL A   1      30.855  27.071  26.808  1.00  0.00    -0.355 N 
ATOM      5  C   UNL A   1      30.815  26.913  25.465  1.00  0.00     0.231 C 
ATOM      6  O   UNL A   1      29.851  26.284  25.019  1.00  0.00    -0.274 OA
ATOM      7  H   UNL A   1      30.202  26.526  27.303  1.00  0.00     0.163 HD
BRANCH   5   8
ATOM      8  C   UNL A   1      31.865  27.496  24.502  1.00  0.00     0.152 C 
ATOM      9  C   UNL A   1      30.288  29.451  23.712  1.00  0.00     0.063 C 
ATOM     10  C   UNL A   1      31.071  28.193  23.389  1.00  0.00     0.034 C 
ATOM     11  N   UNL A   1      30.979  27.755  22.175  1.00  0.00    -0.220 NA
ATOM     12  C   UNL A   1      31.720  26.687  21.833  1.00  0.00     0.248 A 
ATOM     13  C   UNL A   1      33.056  26.623  23.968  1.00  0.00     0.159 C 
ATOM     14  N   UNL A   1      31.652  25.955  20.742  1.00  0.00    -0.198 NA
ATOM     15  N   UNL A   1      32.787  26.246  22.577  1.00  0.00    -0.221 N 
ATOM     16  C   UNL A   1      32.788  25.209  20.787  1.00  0.00     0.248 A 
ATOM     17  N   UNL A   1      33.587  25.452  21.831  1.00  0.00    -0.157 NA
BRANCH  13  18
ATOM     18  C   UNL A   1      33.374  25.361  24.889  1.00  0.00    -0.022 A 
ATOM     19  C   UNL A   1      35.121  25.154  25.364  1.00  0.00     0.009 A 
ATOM     20  C   UNL A   1      32.377  23.906  24.449  1.00  0.00     0.009 A 
ATOM     21  C   UNL A   1      35.899  23.542  25.228  1.00  0.00     0.039 A 
ATOM     22  C   UNL A   1      33.182  22.305  24.288  1.00  0.00     0.039 A 
ATOM     23  C   UNL A   1      34.941  22.137  24.644  1.00  0.00     0.123 A 
ATOM     24  F   UNL A   1      35.611  21.057  24.224  1.00  0.00    -0.207 F 
ENDBRANCH  13  18
ENDBRANCH   5   8
ENDBRANCH   3   4
ENDBRANCH   2   3
ENDBRANCH   1   2
BRANCH   1  25
ATOM     25  N   UNL A   1      35.577  29.886  28.888  1.00  0.00    -0.352 N 
ATOM     26  C   UNL A   1      36.754  29.715  29.601  1.00  0.00     0.251 C 
ATOM     27  H   UNL A   1      34.919  30.478  29.319  1.00  0.00     0.163 HD
ATOM     28  O   UNL A   1      36.834  30.129  30.754  1.00  0.00    -0.269 OA
BRANCH  26  29
ATOM     29  C   UNL A   1      37.895  29.013  28.976  1.00  0.00     0.039 A 
ATOM     30  C   UNL A   1      38.516  29.499  27.829  1.00  0.00     0.014 A 
ATOM     31  C   UNL A   1      38.410  27.888  29.606  1.00  0.00     0.014 A 
ATOM     32  C   UNL A   1      39.729  28.926  27.437  1.00  0.00     0.010 A 
ATOM     33  C   UNL A   1      39.659  27.409  29.319  1.00  0.00     0.010 A 
ATOM     34  C   UNL A   1      40.327  27.920  28.228  1.00  0.00    -0.014 A 
BRANCH  34  35
ATOM     35  C   UNL A   1      41.761  27.635  28.149  1.00  0.00     0.031 A 
ATOM     36  C   UNL A   1      41.994  26.356  27.422  1.00  0.00     0.074 A 
ATOM     37  C   UNL A   1      42.752  28.501  28.475  1.00  0.00     0.049 A 
ATOM     38  N   UNL A   1      42.237  25.214  27.969  1.00  0.00    -0.248 NA
ATOM     39  C   UNL A   1      41.649  26.245  25.989  1.00  0.00     0.031 C 
ATOM     40  C   UNL A   1      42.635  29.885  28.957  1.00  0.00     0.029 A 
ATOM     41  N   UNL A   1      44.108  28.343  28.400  1.00  0.00    -0.354 N 
ATOM     42  C   UNL A   1      42.399  24.317  26.923  1.00  0.00     0.074 A 
ATOM     43  C   UNL A   1      41.787  24.931  25.778  1.00  0.00     0.031 C 
ATOM     44  C   UNL A   1      43.847  30.494  28.940  1.00  0.00     0.029 A 
ATOM     45  C   UNL A   1      44.863  29.509  28.608  1.00  0.00     0.049 A 
ATOM     46  H   UNL A   1      44.525  27.472  28.210  1.00  0.00     0.167 HD
ATOM     47  C   UNL A   1      43.309  23.310  27.037  1.00  0.00     0.034 A 
ATOM     48  C   UNL A   1      46.226  29.627  28.608  1.00  0.00     0.034 A 
ATOM     49  C   UNL A   1      43.749  23.196  28.410  1.00  0.00     0.049 A 
ATOM     50  C   UNL A   1      46.729  28.278  28.937  1.00  0.00     0.074 A 
ATOM     51  C   UNL A   1      43.183  22.784  29.598  1.00  0.00     0.029 A 
ATOM     52  N   UNL A   1      44.782  24.046  28.727  1.00  0.00    -0.354 N 
ATOM     53  N   UNL A   1      46.510  27.705  30.088  1.00  0.00    -0.248 NA
ATOM     54  C   UNL A   1      47.089  27.384  27.847  1.00  0.00     0.031 C 
ATOM     55  C   UNL A   1      43.740  23.628  30.607  1.00  0.00     0.029 A 
ATOM     56  C   UNL A   1      44.700  24.459  30.032  1.00  0.00     0.049 A 
ATOM     57  H   UNL A   1      45.488  24.322  28.099  1.00  0.00     0.167 HD
ATOM     58  C   UNL A   1      46.266  26.384  29.772  1.00  0.00     0.074 A 
ATOM     59  C   UNL A   1      46.793  26.213  28.418  1.00  0.00     0.031 C 
ATOM     60  C   UNL A   1      45.387  25.646  30.511  1.00  0.00     0.034 A 
BRANCH  47  61
ATOM     61  C   UNL A   1      44.156  22.788  25.896  1.00  0.00     0.023 A 
ATOM     62  C   UNL A   1      44.278  21.393  25.740  1.00  0.00     0.031 A 
ATOM     63  C   UNL A   1      45.057  23.573  25.141  1.00  0.00     0.131 A 
ATOM     64  C   UNL A   1      45.261  20.845  24.893  1.00  0.00     0.055 A 
ATOM     65  C   UNL A   1      46.001  23.027  24.269  1.00  0.00     0.041 A 
ATOM     66  F   UNL A   1      45.146  24.902  25.280  1.00  0.00    -0.206 F 
ATOM     67  C   UNL A   1      46.118  21.655  24.151  1.00  0.00     0.022 A 
BRANCH  64  68
ATOM     68  S   UNL A   1      45.469  19.045  24.834  1.00  0.00     0.124 S 
ATOM     69  O   UNL A   1      44.232  18.576  25.446  1.00  0.00    -0.237 OA
ATOM     70  O   UNL A   1      45.613  18.805  23.402  1.00  0.00    -0.237 OA
ATOM     71  O   UNL A   1      46.680  18.819  25.621  1.00  0.00    -0.744 OA
ENDBRANCH  64  68
ENDBRANCH  47  61
BRANCH  48  72
ATOM     72  C   UNL A   1      47.131  30.672  28.026  1.00  0.00     0.023 A 
ATOM     73  C   UNL A   1      46.660  31.715  27.180  1.00  0.00     0.031 A 
ATOM     74  C   UNL A   1      48.420  30.847  28.568  1.00  0.00     0.131 A 
ATOM     75  C   UNL A   1      47.448  32.873  26.943  1.00  0.00     0.055 A 
ATOM     76  C   UNL A   1      49.187  31.998  28.342  1.00  0.00     0.041 A 
ATOM     77  F   UNL A   1      48.938  29.947  29.418  1.00  0.00    -0.206 F 
ATOM     78  C   UNL A   1      48.698  33.022  27.544  1.00  0.00     0.022 A 
BRANCH  75  79
ATOM     79  S   UNL A   1      46.816  34.276  25.950  1.00  0.00     0.124 S 
ATOM     80  O   UNL A   1      47.929  34.538  25.045  1.00  0.00    -0.237 OA
ATOM     81  O   UNL A   1      45.606  33.726  25.348  1.00  0.00    -0.237 OA
ATOM     82  O   UNL A   1      46.578  35.319  26.949  1.00  0.00    -0.744 OA
ENDBRANCH  75  79
ENDBRANCH  48  72
BRANCH  60  83
ATOM     83  C   UNL A   1      45.065  26.130  31.910  1.00  0.00     0.023 A 
ATOM     84  C   UNL A   1      43.924  26.868  32.306  1.00  0.00     0.031 A 
ATOM     85  C   UNL A   1      45.969  25.733  32.910  1.00  0.00     0.131 A 
ATOM     86  C   UNL A   1      43.728  27.169  33.673  1.00  0.00     0.055 A 
ATOM     87  C   UNL A   1      45.760  26.013  34.255  1.00  0.00     0.041 A 
ATOM     88  F   UNL A   1      47.065  25.026  32.588  1.00  0.00    -0.206 F 
ATOM     89  C   UNL A   1      44.638  26.734  34.643  1.00  0.00     0.022 A 
BRANCH  86  90
ATOM     90  S   UNL A   1      42.276  28.129  34.229  1.00  0.00     0.124 S 
ATOM     91  O   UNL A   1      41.261  27.106  34.448  1.00  0.00    -0.237 OA
ATOM     92  O   UNL A   1      42.773  28.803  35.425  1.00  0.00    -0.237 OA
ATOM     93  O   UNL A   1      42.003  29.024  33.101  1.00  0.00    -0.744 OA
ENDBRANCH  86  90
ENDBRANCH  60  83
ENDBRANCH  34  35
ENDBRANCH  26  29
ENDBRANCH   1  25
TORSDOF 14
ENDMDL
MODEL 2
REMARK VINA RESULT:     -15.0      1.860      2.919
REMARK SMILES CC1=Nc2ncnn2[C@H](c2ccc(F)cc2)[C@@H]1C(=O)NCCCNC(=O)c1ccc(-c2c3nc(c(-c4cc(S(=O)(=O)[O-])ccc4F)c4ccc([nH]4)c(-c4cc(S(=O)(=O)[O-])ccc4F)c4nc(c(-c5cc(S(=O)(=O)[O-])ccc5F)c5ccc2[nH]5)C=C4)C=C3)cc1
REMARK SMILES IDX 23 1 22 2 21 3 20 4 18 5 19 6 17 8 1 9 2 10 3 11 4 12 9 13
REMARK SMILES IDX 5 14 8 15 6 16 7 17 10 18 11 19 16 20 12 21 15 22 13 23
REMARK SMILES IDX 14 24 24 25 25 26 26 28 27 29 28 30 89 31 29 32 88 33 30 34
REMARK SMILES IDX 31 35 32 36 82 37 33 38 87 39 81 40 83 41 34 42 86 43 80 44
REMARK SMILES IDX 79 45 35 47 67 48 47 49 66 50 48 51 51 52 65 53 84 54 49 55
REMARK SMILES IDX 50 56 64 58 85 59 52 60 36 61 37 62 45 63 38 64 44 65 46 66
REMARK SMILES IDX 43 67 39 68 40 69 41 70 42 71 68 72 69 73 77 74 70 75 76 76
REMARK SMILES IDX 78 77 75 78 71 79 72 80 73 81 74 82 53 83 54 84 62 85 55 86
REMARK SMILES IDX 61 87 63 88 60 89 56 90 57 91 58 92 59 93
REMARK H PARENT 20 7 24 27 83 46 51 57
REMARK Flexibility Score: inf
ROOT
ATOM      1  C   UNL A   1      35.275  29.461  27.270  1.00  0.00     0.118 C 
ENDROOT
BRANCH   1   2
ATOM      2  C   UNL A   1      33.768  28.590  27.029  1.00  0.00     0.042 C 
BRANCH   2   3
ATOM      3  C   UNL A   1      33.233  26.572  26.374  1.00  0.00     0.117 C 
BRANCH   3   4
ATOM      4  N   UNL A   1      33.473  25.808  25.035  1.00  0.00    -0.355 N 
ATOM      5  C   UNL A   1      33.809  24.520  24.796  1.00  0.00     0.231 C 
ATOM      6  O   UNL A   1      34.135  24.248  23.636  1.00  0.00    -0.274 OA
ATOM      7  H   UNL A   1      33.360  26.359  24.226  1.00  0.00     0.163 HD
BRANCH   5   8
ATOM      8  C   UNL A   1      33.838  23.428  25.880  1.00  0.00     0.152 C 
ATOM      9  C   UNL A   1      36.461  23.482  26.091  1.00  0.00     0.063 C 
ATOM     10  C   UNL A   1      35.196  22.728  25.733  1.00  0.00     0.034 C 
ATOM     11  N   UNL A   1      35.352  21.529  25.273  1.00  0.00    -0.220 NA
ATOM     12  C   UNL A   1      34.250  20.803  25.017  1.00  0.00     0.248 A 
ATOM     13  C   UNL A   1      32.637  22.432  26.065  1.00  0.00     0.159 C 
ATOM     14  N   UNL A   1      34.148  19.659  24.376  1.00  0.00    -0.198 NA
ATOM     15  N   UNL A   1      33.009  21.126  25.512  1.00  0.00    -0.221 N 
ATOM     16  C   UNL A   1      32.883  19.248  24.654  1.00  0.00     0.248 A 
ATOM     17  N   UNL A   1      32.187  20.054  25.462  1.00  0.00    -0.157 NA
BRANCH  13  18
ATOM     18  C   UNL A   1      31.266  22.980  25.464  1.00  0.00    -0.022 A 
ATOM     19  C   UNL A   1      31.237  23.210  23.656  1.00  0.00     0.009 A 
ATOM     20  C   UNL A   1      30.469  24.204  26.545  1.00  0.00     0.009 A 
ATOM     21  C   UNL A   1      30.576  24.727  22.960  1.00  0.00     0.039 A 
ATOM     22  C   UNL A   1      29.840  25.730  25.831  1.00  0.00     0.039 A 
ATOM     23  C   UNL A   1      29.927  25.999  24.051  1.00  0.00     0.123 A 
ATOM     24  F   UNL A   1      29.771  27.231  23.550  1.00  0.00    -0.207 F 
ENDBRANCH  13  18
ENDBRANCH   5   8
ENDBRANCH   3   4
ENDBRANCH   2   3
ENDBRANCH   1   2
BRANCH   1  25
ATOM     25  N   UNL A   1      35.619  29.877  28.645  1.00  0.00    -0.352 N 
ATOM     26  C   UNL A   1      36.738  29.608  29.420  1.00  0.00     0.251 C 
ATOM     27  H   UNL A   1      34.943  30.440  29.085  1.00  0.00     0.163 HD
ATOM     28  O   UNL A   1      36.740  29.904  30.611  1.00  0.00    -0.269 OA
BRANCH  26  29
ATOM     29  C   UNL A   1      37.909  28.942  28.810  1.00  0.00     0.039 A 
ATOM     30  C   UNL A   1      38.583  29.492  27.724  1.00  0.00     0.014 A 
ATOM     31  C   UNL A   1      38.397  27.783  29.400  1.00  0.00     0.014 A 
ATOM     32  C   UNL A   1      39.815  28.942  27.359  1.00  0.00     0.010 A 
ATOM     33  C   UNL A   1      39.659  27.321  29.145  1.00  0.00     0.010 A 
ATOM     34  C   UNL A   1      40.377  27.893  28.119  1.00  0.00    -0.014 A 
BRANCH  34  35
ATOM     35  C   UNL A   1      41.814  27.613  28.092  1.00  0.00     0.031 A 
ATOM     36  C   UNL A   1      42.078  26.338  27.367  1.00  0.00     0.074 A 
ATOM     37  C   UNL A   1      42.789  28.480  28.460  1.00  0.00     0.049 A 
ATOM     38  N   UNL A   1      42.304  25.194  27.918  1.00  0.00    -0.248 NA
ATOM     39  C   UNL A   1      41.787  26.234  25.922  1.00  0.00     0.031 C 
ATOM     40  C   UNL A   1      42.650  29.861  28.944  1.00  0.00     0.029 A 
ATOM     41  N   UNL A   1      44.147  28.326  28.434  1.00  0.00    -0.354 N 
ATOM     42  C   UNL A   1      42.508  24.303  26.874  1.00  0.00     0.074 A 
ATOM     43  C   UNL A   1      41.937  24.921  25.710  1.00  0.00     0.031 C 
ATOM     44  C   UNL A   1      43.860  30.474  28.975  1.00  0.00     0.029 A 
ATOM     45  C   UNL A   1      44.891  29.493  28.677  1.00  0.00     0.049 A 
ATOM     46  H   UNL A   1      44.574  27.457  28.256  1.00  0.00     0.167 HD
ATOM     47  C   UNL A   1      43.416  23.299  27.016  1.00  0.00     0.034 A 
ATOM     48  C   UNL A   1      46.252  29.615  28.729  1.00  0.00     0.034 A 
ATOM     49  C   UNL A   1      43.805  23.178  28.405  1.00  0.00     0.049 A 
ATOM     50  C   UNL A   1      46.747  28.266  29.070  1.00  0.00     0.074 A 
ATOM     51  C   UNL A   1      43.195  22.758  29.568  1.00  0.00     0.029 A 
ATOM     52  N   UNL A   1      44.822  24.029  28.765  1.00  0.00    -0.354 N 
ATOM     53  N   UNL A   1      46.486  27.686  30.208  1.00  0.00    -0.248 NA
ATOM     54  C   UNL A   1      47.150  27.379  27.990  1.00  0.00     0.031 C 
ATOM     55  C   UNL A   1      43.711  23.599  30.602  1.00  0.00     0.029 A 
ATOM     56  C   UNL A   1      44.689  24.435  30.067  1.00  0.00     0.049 A 
ATOM     57  H   UNL A   1      45.550  24.310  28.165  1.00  0.00     0.167 HD
ATOM     58  C   UNL A   1      46.258  26.366  29.877  1.00  0.00     0.074 A 
ATOM     59  C   UNL A   1      46.836  26.204  28.543  1.00  0.00     0.031 C 
ATOM     60  C   UNL A   1      45.354  25.621  30.579  1.00  0.00     0.034 A 
BRANCH  47  61
ATOM     61  C   UNL A   1      44.307  22.785  25.906  1.00  0.00     0.023 A 
ATOM     62  C   UNL A   1      44.404  21.392  25.719  1.00  0.00     0.031 A 
ATOM     63  C   UNL A   1      45.263  23.567  25.217  1.00  0.00     0.131 A 
ATOM     64  C   UNL A   1      45.415  20.842  24.907  1.00  0.00     0.055 A 
ATOM     65  C   UNL A   1      46.236  23.019  24.379  1.00  0.00     0.041 A 
ATOM     66  F   UNL A   1      45.375  24.889  25.395  1.00  0.00    -0.206 F 
ATOM     67  C   UNL A   1      46.327  21.649  24.230  1.00  0.00     0.022 A 
BRANCH  64  68
ATOM     68  S   UNL A   1      45.585  19.038  24.811  1.00  0.00     0.124 S 
ATOM     69  O   UNL A   1      44.340  18.584  25.419  1.00  0.00    -0.237 OA
ATOM     70  O   UNL A   1      45.718  18.825  23.374  1.00  0.00    -0.237 OA
ATOM     71  O   UNL A   1      46.793  18.771  25.589  1.00  0.00    -0.744 OA
ENDBRANCH  64  68
ENDBRANCH  47  61
BRANCH  48  72
ATOM     72  C   UNL A   1      47.175  30.666  28.187  1.00  0.00     0.023 A 
ATOM     73  C   UNL A   1      46.745  31.678  27.283  1.00  0.00     0.031 A 
ATOM     74  C   UNL A   1      48.417  30.883  28.815  1.00  0.00     0.131 A 
ATOM     75  C   UNL A   1      47.524  32.846  27.073  1.00  0.00     0.055 A 
ATOM     76  C   UNL A   1      49.174  32.045  28.615  1.00  0.00     0.041 A 
ATOM     77  F   UNL A   1      48.890  30.015  29.723  1.00  0.00    -0.206 F 
ATOM     78  C   UNL A   1      48.723  33.039  27.758  1.00  0.00     0.022 A 
BRANCH  75  79
ATOM     79  S   UNL A   1      46.936  34.210  26.002  1.00  0.00     0.124 S 
ATOM     80  O   UNL A   1      48.084  34.434  25.131  1.00  0.00    -0.237 OA
ATOM     81  O   UNL A   1      45.749  33.640  25.375  1.00  0.00    -0.237 OA
ATOM     82  O   UNL A   1      46.665  35.293  26.948  1.00  0.00    -0.744 OA
ENDBRANCH  75  79
ENDBRANCH  48  72
BRANCH  60  83
ATOM     83  C   UNL A   1      44.979  26.098  31.966  1.00  0.00     0.023 A 
ATOM     84  C   UNL A   1      43.817  26.823  32.324  1.00  0.00     0.031 A 
ATOM     85  C   UNL A   1      45.851  25.706  32.996  1.00  0.00     0.131 A 
ATOM     86  C   UNL A   1      43.570  27.117  33.685  1.00  0.00     0.055 A 
ATOM     87  C   UNL A   1      45.592  25.979  34.335  1.00  0.00     0.041 A 
ATOM     88  F   UNL A   1      46.964  25.010  32.711  1.00  0.00    -0.206 F 
ATOM     89  C   UNL A   1      44.450  26.687  34.685  1.00  0.00     0.022 A 
BRANCH  86  90
ATOM     90  S   UNL A   1      42.090  28.061  34.193  1.00  0.00     0.124 S 
ATOM     91  O   UNL A   1      41.342  27.104  35.000  1.00  0.00    -0.237 OA
ATOM     92  O   UNL A   1      42.662  29.195  34.912  1.00  0.00    -0.237 OA
ATOM     93  O   UNL A   1      41.452  28.411  32.921  1.00  0.00    -0.744 OA
ENDBRANCH  86  90
ENDBRANCH  60  83
ENDBRANCH  34  35
ENDBRANCH  26  29
ENDBRANCH   1  25
TORSDOF 14
ENDMDL
MODEL 3
REMARK VINA RESULT:     -14.8      4.594     10.314
REMARK SMILES CC1=Nc2ncnn2[C@H](c2ccc(F)cc2)[C@@H]1C(=O)NCCCNC(=O)c1ccc(-c2c3nc(c(-c4cc(S(=O)(=O)[O-])ccc4F)c4ccc([nH]4)c(-c4cc(S(=O)(=O)[O-])ccc4F)c4nc(c(-c5cc(S(=O)(=O)[O-])ccc5F)c5ccc2[nH]5)C=C4)C=C3)cc1
REMARK SMILES IDX 23 1 22 2 21 3 20 4 18 5 19 6 17 8 1 9 2 10 3 11 4 12 9 13
REMARK SMILES IDX 5 14 8 15 6 16 7 17 10 18 11 19 16 20 12 21 15 22 13 23
REMARK SMILES IDX 14 24 24 25 25 26 26 28 27 29 28 30 89 31 29 32 88 33 30 34
REMARK SMILES IDX 31 35 32 36 82 37 33 38 87 39 81 40 83 41 34 42 86 43 80 44
REMARK SMILES IDX 79 45 35 47 67 48 47 49 66 50 48 51 51 52 65 53 84 54 49 55
REMARK SMILES IDX 50 56 64 58 85 59 52 60 36 61 37 62 45 63 38 64 44 65 46 66
REMARK SMILES IDX 43 67 39 68 40 69 41 70 42 71 68 72 69 73 77 74 70 75 76 76
REMARK SMILES IDX 78 77 75 78 71 79 72 80 73 81 74 82 53 83 54 84 62 85 55 86
REMARK SMILES IDX 61 87 63 88 60 89 56 90 57 91 58 92 59 93
REMARK H PARENT 20 7 24 27 83 46 51 57
REMARK Flexibility Score: inf
ROOT
ATOM      1  C   UNL A   1      39.336  23.693  26.924  1.00  0.00     0.118 C 
ENDROOT
BRANCH   1   2
ATOM      2  C   UNL A   1      37.701  23.672  26.282  1.00  0.00     0.042 C 
BRANCH   2   3
ATOM      3  C   UNL A   1      36.816  23.352  24.306  1.00  0.00     0.117 C 
BRANCH   3   4
ATOM      4  N   UNL A   1      35.381  22.937  23.857  1.00  0.00    -0.355 N 
ATOM      5  C   UNL A   1      34.188  23.047  24.485  1.00  0.00     0.231 C 
ATOM      6  O   UNL A   1      33.244  22.441  23.971  1.00  0.00    -0.274 OA
ATOM      7  H   UNL A   1      35.337  22.524  22.965  1.00  0.00     0.163 HD
BRANCH   5   8
ATOM      8  C   UNL A   1      33.977  23.838  25.789  1.00  0.00     0.152 C 
ATOM      9  C   UNL A   1      34.223  21.704  27.312  1.00  0.00     0.063 C 
ATOM     10  C   UNL A   1      33.371  22.843  26.789  1.00  0.00     0.034 C 
ATOM     11  N   UNL A   1      32.143  22.876  27.196  1.00  0.00    -0.220 NA
ATOM     12  C   UNL A   1      31.380  23.915  26.814  1.00  0.00     0.248 A 
ATOM     13  C   UNL A   1      33.264  25.237  25.787  1.00  0.00     0.159 C 
ATOM     14  N   UNL A   1      30.078  24.067  26.934  1.00  0.00    -0.198 NA
ATOM     15  N   UNL A   1      31.900  25.079  26.305  1.00  0.00    -0.221 N 
ATOM     16  C   UNL A   1      29.884  25.383  26.652  1.00  0.00     0.248 A 
ATOM     17  N   UNL A   1      30.995  26.079  26.390  1.00  0.00    -0.157 NA
BRANCH  13  18
ATOM     18  C   UNL A   1      33.296  25.958  24.366  1.00  0.00    -0.022 A 
ATOM     19  C   UNL A   1      33.945  27.661  24.363  1.00  0.00     0.009 A 
ATOM     20  C   UNL A   1      31.859  25.536  23.335  1.00  0.00     0.009 A 
ATOM     21  C   UNL A   1      33.063  28.951  23.481  1.00  0.00     0.039 A 
ATOM     22  C   UNL A   1      30.971  26.848  22.484  1.00  0.00     0.039 A 
ATOM     23  C   UNL A   1      31.555  28.550  22.589  1.00  0.00     0.123 A 
ATOM     24  F   UNL A   1      30.745  29.560  22.246  1.00  0.00    -0.207 F 
ENDBRANCH  13  18
ENDBRANCH   5   8
ENDBRANCH   3   4
ENDBRANCH   2   3
ENDBRANCH   1   2
BRANCH   1  25
ATOM     25  N   UNL A   1      40.382  24.365  26.127  1.00  0.00    -0.352 N 
ATOM     26  C   UNL A   1      40.770  25.696  26.077  1.00  0.00     0.251 C 
ATOM     27  H   UNL A   1      40.889  23.769  25.530  1.00  0.00     0.163 HD
ATOM     28  O   UNL A   1      41.546  26.073  25.204  1.00  0.00    -0.269 OA
BRANCH  26  29
ATOM     29  C   UNL A   1      40.225  26.655  27.062  1.00  0.00     0.039 A 
ATOM     30  C   UNL A   1      39.680  26.236  28.271  1.00  0.00     0.014 A 
ATOM     31  C   UNL A   1      40.346  28.014  26.803  1.00  0.00     0.014 A 
ATOM     32  C   UNL A   1      39.411  27.197  29.249  1.00  0.00     0.010 A 
ATOM     33  C   UNL A   1      40.219  28.951  27.793  1.00  0.00     0.010 A 
ATOM     34  C   UNL A   1      39.745  28.551  29.023  1.00  0.00    -0.014 A 
BRANCH  34  35
ATOM     35  C   UNL A   1      39.937  29.488  30.131  1.00  0.00     0.031 A 
ATOM     36  C   UNL A   1      38.693  30.275  30.363  1.00  0.00     0.074 A 
ATOM     37  C   UNL A   1      40.994  29.493  30.980  1.00  0.00     0.049 A 
ATOM     38  N   UNL A   1      38.478  31.478  29.952  1.00  0.00    -0.248 NA
ATOM     39  C   UNL A   1      37.465  29.599  30.831  1.00  0.00     0.031 C 
ATOM     40  C   UNL A   1      42.154  28.590  31.002  1.00  0.00     0.029 A 
ATOM     41  N   UNL A   1      41.242  30.296  32.059  1.00  0.00    -0.354 N 
ATOM     42  C   UNL A   1      37.210  31.814  30.403  1.00  0.00     0.074 A 
ATOM     43  C   UNL A   1      36.555  30.570  30.699  1.00  0.00     0.031 C 
ATOM     44  C   UNL A   1      42.867  28.766  32.142  1.00  0.00     0.029 A 
ATOM     45  C   UNL A   1      42.325  29.905  32.864  1.00  0.00     0.049 A 
ATOM     46  H   UNL A   1      40.698  31.091  32.258  1.00  0.00     0.167 HD
ATOM     47  C   UNL A   1      36.953  33.092  30.794  1.00  0.00     0.034 A 
ATOM     48  C   UNL A   1      42.797  30.535  33.982  1.00  0.00     0.034 A 
ATOM     49  C   UNL A   1      38.028  33.963  30.373  1.00  0.00     0.049 A 
ATOM     50  C   UNL A   1      42.373  31.942  33.841  1.00  0.00     0.074 A 
ATOM     51  C   UNL A   1      38.490  34.451  29.169  1.00  0.00     0.029 A 
ATOM     52  N   UNL A   1      39.082  33.999  31.255  1.00  0.00    -0.354 N 
ATOM     53  N   UNL A   1      42.812  32.719  32.890  1.00  0.00    -0.248 NA
ATOM     54  C   UNL A   1      41.132  32.361  34.473  1.00  0.00     0.031 C 
ATOM     55  C   UNL A   1      39.912  34.520  29.297  1.00  0.00     0.029 A 
ATOM     56  C   UNL A   1      40.272  34.172  30.598  1.00  0.00     0.049 A 
ATOM     57  H   UNL A   1      38.992  33.911  32.232  1.00  0.00     0.167 HD
ATOM     58  C   UNL A   1      41.707  33.452  32.508  1.00  0.00     0.074 A 
ATOM     59  C   UNL A   1      40.758  33.312  33.612  1.00  0.00     0.031 C 
ATOM     60  C   UNL A   1      41.547  33.839  31.209  1.00  0.00     0.034 A 
BRANCH  47  61
ATOM     61  C   UNL A   1      36.043  33.470  31.943  1.00  0.00     0.023 A 
ATOM     62  C   UNL A   1      34.946  34.313  31.676  1.00  0.00     0.031 A 
ATOM     63  C   UNL A   1      36.352  33.276  33.309  1.00  0.00     0.131 A 
ATOM     64  C   UNL A   1      34.235  34.927  32.727  1.00  0.00     0.055 A 
ATOM     65  C   UNL A   1      35.617  33.851  34.348  1.00  0.00     0.041 A 
ATOM     66  F   UNL A   1      37.438  32.606  33.714  1.00  0.00    -0.206 F 
ATOM     67  C   UNL A   1      34.561  34.694  34.061  1.00  0.00     0.022 A 
BRANCH  64  68
ATOM     68  S   UNL A   1      32.922  36.113  32.328  1.00  0.00     0.124 S 
ATOM     69  O   UNL A   1      33.189  37.190  33.273  1.00  0.00    -0.237 OA
ATOM     70  O   UNL A   1      33.195  36.402  30.924  1.00  0.00    -0.237 OA
ATOM     71  O   UNL A   1      31.697  35.355  32.574  1.00  0.00    -0.744 OA
ENDBRANCH  64  68
ENDBRANCH  47  61
BRANCH  48  72
ATOM     72  C   UNL A   1      43.267  29.995  35.301  1.00  0.00     0.023 A 
ATOM     73  C   UNL A   1      42.872  28.720  35.797  1.00  0.00     0.031 A 
ATOM     74  C   UNL A   1      44.375  30.591  35.935  1.00  0.00     0.131 A 
ATOM     75  C   UNL A   1      43.595  28.091  36.845  1.00  0.00     0.055 A 
ATOM     76  C   UNL A   1      45.093  29.959  36.959  1.00  0.00     0.041 A 
ATOM     77  F   UNL A   1      44.860  31.768  35.511  1.00  0.00    -0.206 F 
ATOM     78  C   UNL A   1      44.717  28.700  37.406  1.00  0.00     0.022 A 
BRANCH  75  79
ATOM     79  S   UNL A   1      43.173  26.405  37.421  1.00  0.00     0.124 S 
ATOM     80  O   UNL A   1      43.712  25.571  36.353  1.00  0.00    -0.237 OA
ATOM     81  O   UNL A   1      43.850  26.325  38.710  1.00  0.00    -0.237 OA
ATOM     82  O   UNL A   1      41.712  26.428  37.502  1.00  0.00    -0.744 OA
ENDBRANCH  75  79
ENDBRANCH  48  72
BRANCH  60  83
ATOM     83  C   UNL A   1      42.780  33.870  30.329  1.00  0.00     0.023 A 
ATOM     84  C   UNL A   1      43.224  32.844  29.461  1.00  0.00     0.031 A 
ATOM     85  C   UNL A   1      43.499  35.077  30.338  1.00  0.00     0.131 A 
ATOM     86  C   UNL A   1      44.352  33.065  28.638  1.00  0.00     0.055 A 
ATOM     87  C   UNL A   1      44.594  35.298  29.511  1.00  0.00     0.041 A 
ATOM     88  F   UNL A   1      43.116  36.086  31.139  1.00  0.00    -0.206 F 
ATOM     89  C   UNL A   1      45.027  34.291  28.657  1.00  0.00     0.022 A 
BRANCH  86  90
ATOM     90  S   UNL A   1      44.968  31.765  27.511  1.00  0.00     0.124 S 
ATOM     91  O   UNL A   1      46.035  31.134  28.279  1.00  0.00    -0.237 OA
ATOM     92  O   UNL A   1      43.780  30.950  27.278  1.00  0.00    -0.237 OA
ATOM     93  O   UNL A   1      45.427  32.515  26.339  1.00  0.00    -0.744 OA
ENDBRANCH  86  90
ENDBRANCH  60  83
ENDBRANCH  34  35
ENDBRANCH  26  29
ENDBRANCH   1  25
TORSDOF 14
ENDMDL
