MODEL 1
REMARK VINA RESULT:     -11.7      0.000      0.000
REMARK SMILES CC1=C(C)C[C@@H](C(=O)N[C@H](C)C(C)(C)C)[C@@H](C(=O)NCCCNC(=O)c2ccc(-c3c4nc(c(-c5cc(S(=O)(=O)[O-])ccc5F)c5ccc([nH]5)c(-c5cc(S(=O)(=O)[O-])ccc5F)c5nc(c(-c6cc(S(=O)(=O)[O-])ccc6F)c6ccc3[nH]6)C=C5)C=C4)cc2)C1
REMARK SMILES IDX 21 1 20 2 19 3 17 4 18 5 16 7 1 8 2 9 3 10 89 11 4 12 5 13
REMARK SMILES IDX 6 14 7 15 8 16 9 17 10 19 11 20 12 21 13 22 14 23 15 24
REMARK SMILES IDX 22 25 23 26 24 27 25 29 26 30 27 31 88 32 28 33 87 34 29 35
REMARK SMILES IDX 30 36 31 37 81 38 32 39 86 40 80 41 82 42 33 43 85 44 79 45
REMARK SMILES IDX 78 46 34 48 66 49 46 50 65 51 47 52 50 53 64 54 83 55 48 56
REMARK SMILES IDX 49 57 63 59 84 60 51 61 35 62 36 63 44 64 37 65 43 66 45 67
REMARK SMILES IDX 42 68 38 69 39 70 40 71 41 72 67 73 68 74 76 75 69 76 75 77
REMARK SMILES IDX 77 78 74 79 70 80 71 81 72 82 73 83 52 84 53 85 61 86 54 87
REMARK SMILES IDX 60 88 62 89 59 90 55 91 56 92 57 93 58 94
REMARK H PARENT 19 6 9 18 23 28 82 47 50 58
REMARK Flexibility Score: inf
ROOT
ATOM      1  C   UNL A   1      31.486  32.209  26.570  1.00  0.00     0.042 C 
ENDROOT
BRANCH   1   2
ATOM      2  C   UNL A   1      31.439  30.694  26.497  1.00  0.00     0.117 C 
BRANCH   2   3
ATOM      3  N   UNL A   1      32.694  30.150  26.014  1.00  0.00    -0.356 N 
ATOM      4  C   UNL A   1      32.968  29.019  25.318  1.00  0.00     0.224 C 
ATOM      5  O   UNL A   1      34.121  28.605  25.426  1.00  0.00    -0.275 OA
ATOM      6  H   UNL A   1      33.483  30.697  26.230  1.00  0.00     0.163 HD
BRANCH   4   7
ATOM      7  C   UNL A   1      31.882  28.289  24.516  1.00  0.00     0.095 C 
ATOM      8  C   UNL A   1      32.583  25.871  21.485  1.00  0.00     0.039 C 
ATOM      9  C   UNL A   1      31.901  26.327  22.752  1.00  0.00    -0.074 C 
ATOM     10  C   UNL A   1      30.907  25.681  23.387  1.00  0.00    -0.074 C 
ATOM     11  C   UNL A   1      32.439  27.641  23.238  1.00  0.00     0.045 C 
ATOM     12  C   UNL A   1      30.354  24.343  22.966  1.00  0.00     0.039 C 
ATOM     13  C   UNL A   1      30.260  26.249  24.628  1.00  0.00     0.045 C 
ATOM     14  C   UNL A   1      31.026  27.345  25.382  1.00  0.00     0.095 C 
BRANCH  14  15
ATOM     15  C   UNL A   1      31.563  26.830  26.722  1.00  0.00     0.224 C 
ATOM     16  O   UNL A   1      31.532  27.584  27.706  1.00  0.00    -0.275 OA
ATOM     17  N   UNL A   1      32.021  25.580  26.967  1.00  0.00    -0.353 N 
ATOM     18  H   UNL A   1      32.422  25.494  27.862  1.00  0.00     0.163 HD
BRANCH  17  19
ATOM     19  C   UNL A   1      32.058  24.325  26.213  1.00  0.00     0.084 C 
ATOM     20  C   UNL A   1      31.428  23.204  27.047  1.00  0.00     0.031 C 
BRANCH  19  21
ATOM     21  C   UNL A   1      33.529  23.963  25.766  1.00  0.00    -0.018 C 
ATOM     22  C   UNL A   1      34.342  25.240  25.447  1.00  0.00     0.013 C 
ATOM     23  C   UNL A   1      34.270  23.224  26.899  1.00  0.00     0.013 C 
ATOM     24  C   UNL A   1      33.547  23.058  24.510  1.00  0.00     0.013 C 
ENDBRANCH  19  21
ENDBRANCH  17  19
ENDBRANCH  14  15
ENDBRANCH   4   7
ENDBRANCH   2   3
ENDBRANCH   1   2
BRANCH   1  25
ATOM     25  C   UNL A   1      32.764  32.746  27.189  1.00  0.00     0.118 C 
BRANCH  25  26
ATOM     26  N   UNL A   1      32.616  34.110  27.676  1.00  0.00    -0.352 N 
ATOM     27  C   UNL A   1      33.233  34.721  28.739  1.00  0.00     0.251 C 
ATOM     28  H   UNL A   1      31.983  34.673  27.174  1.00  0.00     0.163 HD
ATOM     29  O   UNL A   1      32.816  35.804  29.144  1.00  0.00    -0.269 OA
BRANCH  27  30
ATOM     30  C   UNL A   1      34.376  34.056  29.397  1.00  0.00     0.039 A 
ATOM     31  C   UNL A   1      35.676  34.421  29.045  1.00  0.00     0.014 A 
ATOM     32  C   UNL A   1      34.159  33.082  30.374  1.00  0.00     0.014 A 
ATOM     33  C   UNL A   1      36.755  33.842  29.714  1.00  0.00     0.010 A 
ATOM     34  C   UNL A   1      35.226  32.599  31.118  1.00  0.00     0.010 A 
ATOM     35  C   UNL A   1      36.539  32.949  30.776  1.00  0.00    -0.014 A 
BRANCH  35  36
ATOM     36  C   UNL A   1      37.669  32.314  31.499  1.00  0.00     0.031 A 
ATOM     37  C   UNL A   1      38.437  31.198  30.840  1.00  0.00     0.074 A 
ATOM     38  C   UNL A   1      37.972  32.703  32.753  1.00  0.00     0.049 A 
ATOM     39  N   UNL A   1      39.409  30.464  31.317  1.00  0.00    -0.248 NA
ATOM     40  C   UNL A   1      38.031  30.832  29.473  1.00  0.00     0.031 C 
ATOM     41  C   UNL A   1      37.271  33.744  33.509  1.00  0.00     0.029 A 
ATOM     42  N   UNL A   1      38.948  32.269  33.616  1.00  0.00    -0.354 N 
ATOM     43  C   UNL A   1      39.713  29.543  30.320  1.00  0.00     0.074 A 
ATOM     44  C   UNL A   1      38.770  29.759  29.247  1.00  0.00     0.031 C 
ATOM     45  C   UNL A   1      37.862  33.892  34.706  1.00  0.00     0.029 A 
ATOM     46  C   UNL A   1      38.949  32.925  34.825  1.00  0.00     0.049 A 
ATOM     47  H   UNL A   1      39.586  31.556  33.389  1.00  0.00     0.167 HD
ATOM     48  C   UNL A   1      40.710  28.624  30.287  1.00  0.00     0.034 A 
ATOM     49  C   UNL A   1      39.734  32.759  35.908  1.00  0.00     0.034 A 
ATOM     50  C   UNL A   1      41.652  28.439  31.361  1.00  0.00     0.049 A 
ATOM     51  C   UNL A   1      40.825  31.719  35.858  1.00  0.00     0.074 A 
ATOM     52  C   UNL A   1      42.731  27.574  31.421  1.00  0.00     0.029 A 
ATOM     53  N   UNL A   1      41.627  29.127  32.569  1.00  0.00    -0.354 N 
ATOM     54  N   UNL A   1      41.133  30.888  34.887  1.00  0.00    -0.248 NA
ATOM     55  C   UNL A   1      41.687  31.606  37.040  1.00  0.00     0.031 C 
ATOM     56  C   UNL A   1      43.310  27.685  32.689  1.00  0.00     0.029 A 
ATOM     57  C   UNL A   1      42.654  28.685  33.390  1.00  0.00     0.049 A 
ATOM     58  H   UNL A   1      40.976  29.825  32.807  1.00  0.00     0.167 HD
ATOM     59  C   UNL A   1      42.250  30.184  35.329  1.00  0.00     0.074 A 
ATOM     60  C   UNL A   1      42.566  30.698  36.646  1.00  0.00     0.031 C 
ATOM     61  C   UNL A   1      42.956  29.208  34.702  1.00  0.00     0.034 A 
BRANCH  48  62
ATOM     62  C   UNL A   1      40.805  27.744  29.063  1.00  0.00     0.023 A 
ATOM     63  C   UNL A   1      41.732  28.000  28.037  1.00  0.00     0.031 A 
ATOM     64  C   UNL A   1      39.934  26.652  28.901  1.00  0.00     0.131 A 
ATOM     65  C   UNL A   1      41.711  27.232  26.862  1.00  0.00     0.055 A 
ATOM     66  C   UNL A   1      39.980  25.834  27.770  1.00  0.00     0.041 A 
ATOM     67  F   UNL A   1      39.011  26.369  29.832  1.00  0.00    -0.206 F 
ATOM     68  C   UNL A   1      40.860  26.132  26.734  1.00  0.00     0.022 A 
BRANCH  65  69
ATOM     69  S   UNL A   1      42.695  27.791  25.445  1.00  0.00     0.124 S 
ATOM     70  O   UNL A   1      42.713  26.593  24.608  1.00  0.00    -0.237 OA
ATOM     71  O   UNL A   1      41.913  28.912  24.938  1.00  0.00    -0.237 OA
ATOM     72  O   UNL A   1      43.983  28.145  26.039  1.00  0.00    -0.744 OA
ENDBRANCH  65  69
ENDBRANCH  48  62
BRANCH  49  73
ATOM     73  C   UNL A   1      39.525  33.589  37.131  1.00  0.00     0.023 A 
ATOM     74  C   UNL A   1      40.296  34.739  37.367  1.00  0.00     0.031 A 
ATOM     75  C   UNL A   1      38.582  33.218  38.106  1.00  0.00     0.131 A 
ATOM     76  C   UNL A   1      40.151  35.445  38.572  1.00  0.00     0.055 A 
ATOM     77  C   UNL A   1      38.399  33.958  39.275  1.00  0.00     0.041 A 
ATOM     78  F   UNL A   1      37.815  32.131  37.930  1.00  0.00    -0.206 F 
ATOM     79  C   UNL A   1      39.197  35.071  39.521  1.00  0.00     0.022 A 
BRANCH  76  80
ATOM     80  S   UNL A   1      41.299  36.804  38.926  1.00  0.00     0.124 S 
ATOM     81  O   UNL A   1      41.980  36.957  37.646  1.00  0.00    -0.237 OA
ATOM     82  O   UNL A   1      40.388  37.879  39.302  1.00  0.00    -0.237 OA
ATOM     83  O   UNL A   1      42.122  36.278  40.014  1.00  0.00    -0.744 OA
ENDBRANCH  76  80
ENDBRANCH  49  73
BRANCH  61  84
ATOM     84  C   UNL A   1      44.182  28.680  35.409  1.00  0.00     0.023 A 
ATOM     85  C   UNL A   1      44.109  27.649  36.362  1.00  0.00     0.031 A 
ATOM     86  C   UNL A   1      45.446  29.233  35.129  1.00  0.00     0.131 A 
ATOM     87  C   UNL A   1      45.267  27.249  37.046  1.00  0.00     0.055 A 
ATOM     88  C   UNL A   1      46.603  28.779  35.760  1.00  0.00     0.041 A 
ATOM     89  F   UNL A   1      45.575  30.223  34.232  1.00  0.00    -0.206 F 
ATOM     90  C   UNL A   1      46.516  27.794  36.737  1.00  0.00     0.022 A 
BRANCH  87  91
ATOM     91  S   UNL A   1      45.101  26.088  38.430  1.00  0.00     0.124 S 
ATOM     92  O   UNL A   1      45.059  24.802  37.744  1.00  0.00    -0.237 OA
ATOM     93  O   UNL A   1      46.306  26.357  39.209  1.00  0.00    -0.237 OA
ATOM     94  O   UNL A   1      43.849  26.492  39.068  1.00  0.00    -0.744 OA
ENDBRANCH  87  91
ENDBRANCH  61  84
ENDBRANCH  35  36
ENDBRANCH  27  30
ENDBRANCH  25  26
ENDBRANCH   1  25
TORSDOF 16
ENDMDL
MODEL 2
REMARK VINA RESULT:     -11.7      1.326      2.635
REMARK SMILES CC1=C(C)C[C@@H](C(=O)N[C@H](C)C(C)(C)C)[C@@H](C(=O)NCCCNC(=O)c2ccc(-c3c4nc(c(-c5cc(S(=O)(=O)[O-])ccc5F)c5ccc([nH]5)c(-c5cc(S(=O)(=O)[O-])ccc5F)c5nc(c(-c6cc(S(=O)(=O)[O-])ccc6F)c6ccc3[nH]6)C=C5)C=C4)cc2)C1
REMARK SMILES IDX 21 1 20 2 19 3 17 4 18 5 16 7 1 8 2 9 3 10 89 11 4 12 5 13
REMARK SMILES IDX 6 14 7 15 8 16 9 17 10 19 11 20 12 21 13 22 14 23 15 24
REMARK SMILES IDX 22 25 23 26 24 27 25 29 26 30 27 31 88 32 28 33 87 34 29 35
REMARK SMILES IDX 30 36 31 37 81 38 32 39 86 40 80 41 82 42 33 43 85 44 79 45
REMARK SMILES IDX 78 46 34 48 66 49 46 50 65 51 47 52 50 53 64 54 83 55 48 56
REMARK SMILES IDX 49 57 63 59 84 60 51 61 35 62 36 63 44 64 37 65 43 66 45 67
REMARK SMILES IDX 42 68 38 69 39 70 40 71 41 72 67 73 68 74 76 75 69 76 75 77
REMARK SMILES IDX 77 78 74 79 70 80 71 81 72 82 73 83 52 84 53 85 61 86 54 87
REMARK SMILES IDX 60 88 62 89 59 90 55 91 56 92 57 93 58 94
REMARK H PARENT 19 6 9 18 23 28 82 47 50 58
REMARK Flexibility Score: inf
ROOT
ATOM      1  C   UNL A   1      31.532  31.762  26.513  1.00  0.00     0.042 C 
ENDROOT
BRANCH   1   2
ATOM      2  C   UNL A   1      31.817  30.431  25.843  1.00  0.00     0.117 C 
BRANCH   2   3
ATOM      3  N   UNL A   1      31.651  29.327  26.769  1.00  0.00    -0.356 N 
ATOM      4  C   UNL A   1      31.872  27.998  26.622  1.00  0.00     0.224 C 
ATOM      5  O   UNL A   1      31.250  27.275  27.401  1.00  0.00    -0.275 OA
ATOM      6  H   UNL A   1      31.321  29.590  27.658  1.00  0.00     0.163 HD
BRANCH   4   7
ATOM      7  C   UNL A   1      32.785  27.454  25.515  1.00  0.00     0.095 C 
ATOM      8  C   UNL A   1      34.843  24.103  25.753  1.00  0.00     0.039 C 
ATOM      9  C   UNL A   1      33.978  25.143  25.081  1.00  0.00    -0.074 C 
ATOM     10  C   UNL A   1      33.550  25.105  23.807  1.00  0.00    -0.074 C 
ATOM     11  C   UNL A   1      33.656  26.284  25.999  1.00  0.00     0.045 C 
ATOM     12  C   UNL A   1      33.813  23.968  22.852  1.00  0.00     0.039 C 
ATOM     13  C   UNL A   1      32.724  26.223  23.216  1.00  0.00     0.045 C 
ATOM     14  C   UNL A   1      32.035  27.181  24.197  1.00  0.00     0.095 C 
BRANCH  14  15
ATOM     15  C   UNL A   1      30.515  26.976  24.204  1.00  0.00     0.224 C 
ATOM     16  O   UNL A   1      30.020  26.215  25.049  1.00  0.00    -0.275 OA
ATOM     17  N   UNL A   1      29.625  27.607  23.404  1.00  0.00    -0.353 N 
ATOM     18  H   UNL A   1      28.714  27.248  23.496  1.00  0.00     0.163 HD
BRANCH  17  19
ATOM     19  C   UNL A   1      29.701  28.703  22.434  1.00  0.00     0.084 C 
ATOM     20  C   UNL A   1      31.053  29.413  22.564  1.00  0.00     0.031 C 
BRANCH  19  21
ATOM     21  C   UNL A   1      28.495  29.709  22.603  1.00  0.00    -0.018 C 
ATOM     22  C   UNL A   1      27.244  28.986  23.156  1.00  0.00     0.013 C 
ATOM     23  C   UNL A   1      28.858  30.821  23.608  1.00  0.00     0.013 C 
ATOM     24  C   UNL A   1      28.107  30.379  21.262  1.00  0.00     0.013 C 
ENDBRANCH  19  21
ENDBRANCH  17  19
ENDBRANCH  14  15
ENDBRANCH   4   7
ENDBRANCH   2   3
ENDBRANCH   1   2
BRANCH   1  25
ATOM     25  C   UNL A   1      32.713  32.314  27.291  1.00  0.00     0.118 C 
BRANCH  25  26
ATOM     26  N   UNL A   1      32.593  33.743  27.545  1.00  0.00    -0.352 N 
ATOM     27  C   UNL A   1      33.203  34.504  28.511  1.00  0.00     0.251 C 
ATOM     28  H   UNL A   1      31.990  34.231  26.940  1.00  0.00     0.163 HD
ATOM     29  O   UNL A   1      32.808  35.649  28.721  1.00  0.00    -0.269 OA
BRANCH  27  30
ATOM     30  C   UNL A   1      34.310  33.927  29.301  1.00  0.00     0.039 A 
ATOM     31  C   UNL A   1      34.028  32.970  30.275  1.00  0.00     0.014 A 
ATOM     32  C   UNL A   1      35.628  34.323  29.063  1.00  0.00     0.014 A 
ATOM     33  C   UNL A   1      35.079  32.375  30.975  1.00  0.00     0.010 A 
ATOM     34  C   UNL A   1      36.674  33.646  29.673  1.00  0.00     0.010 A 
ATOM     35  C   UNL A   1      36.412  32.686  30.659  1.00  0.00    -0.014 A 
BRANCH  35  36
ATOM     36  C   UNL A   1      37.547  32.072  31.393  1.00  0.00     0.031 A 
ATOM     37  C   UNL A   1      38.350  30.981  30.734  1.00  0.00     0.074 A 
ATOM     38  C   UNL A   1      37.824  32.458  32.654  1.00  0.00     0.049 A 
ATOM     39  N   UNL A   1      39.333  30.266  31.218  1.00  0.00    -0.248 NA
ATOM     40  C   UNL A   1      37.971  30.617  29.360  1.00  0.00     0.031 C 
ATOM     41  C   UNL A   1      37.088  33.474  33.409  1.00  0.00     0.029 A 
ATOM     42  N   UNL A   1      38.798  32.040  33.525  1.00  0.00    -0.354 N 
ATOM     43  C   UNL A   1      39.673  29.362  30.217  1.00  0.00     0.074 A 
ATOM     44  C   UNL A   1      38.738  29.564  29.134  1.00  0.00     0.031 C 
ATOM     45  C   UNL A   1      37.660  33.626  34.615  1.00  0.00     0.029 A 
ATOM     46  C   UNL A   1      38.768  32.685  34.741  1.00  0.00     0.049 A 
ATOM     47  H   UNL A   1      39.457  31.344  33.301  1.00  0.00     0.167 HD
ATOM     48  C   UNL A   1      40.691  28.468  30.190  1.00  0.00     0.034 A 
ATOM     49  C   UNL A   1      39.543  32.528  35.832  1.00  0.00     0.034 A 
ATOM     50  C   UNL A   1      41.624  28.295  31.275  1.00  0.00     0.049 A 
ATOM     51  C   UNL A   1      40.659  31.515  35.787  1.00  0.00     0.074 A 
ATOM     52  C   UNL A   1      42.723  27.457  31.342  1.00  0.00     0.029 A 
ATOM     53  N   UNL A   1      41.567  28.972  32.488  1.00  0.00    -0.354 N 
ATOM     54  N   UNL A   1      41.000  30.701  34.814  1.00  0.00    -0.248 NA
ATOM     55  C   UNL A   1      41.508  31.412  36.980  1.00  0.00     0.031 C 
ATOM     56  C   UNL A   1      43.282  27.570  32.619  1.00  0.00     0.029 A 
ATOM     57  C   UNL A   1      42.593  28.548  33.319  1.00  0.00     0.049 A 
ATOM     58  H   UNL A   1      40.896  29.652  32.723  1.00  0.00     0.167 HD
ATOM     59  C   UNL A   1      42.128  30.020  35.264  1.00  0.00     0.074 A 
ATOM     60  C   UNL A   1      42.414  30.529  36.590  1.00  0.00     0.031 C 
ATOM     61  C   UNL A   1      42.865  29.066  34.639  1.00  0.00     0.034 A 
BRANCH  48  62
ATOM     62  C   UNL A   1      40.824  27.601  28.960  1.00  0.00     0.023 A 
ATOM     63  C   UNL A   1      41.773  27.875  27.959  1.00  0.00     0.031 A 
ATOM     64  C   UNL A   1      39.968  26.503  28.767  1.00  0.00     0.131 A 
ATOM     65  C   UNL A   1      41.787  27.119  26.777  1.00  0.00     0.055 A 
ATOM     66  C   UNL A   1      40.048  25.696  27.629  1.00  0.00     0.041 A 
ATOM     67  F   UNL A   1      39.025  26.202  29.672  1.00  0.00    -0.206 F 
ATOM     68  C   UNL A   1      40.950  26.013  26.617  1.00  0.00     0.022 A 
BRANCH  65  69
ATOM     69  S   UNL A   1      42.800  27.701  25.389  1.00  0.00     0.124 S 
ATOM     70  O   UNL A   1      42.994  26.468  24.629  1.00  0.00    -0.237 OA
ATOM     71  O   UNL A   1      41.942  28.704  24.770  1.00  0.00    -0.237 OA
ATOM     72  O   UNL A   1      44.003  28.221  26.036  1.00  0.00    -0.744 OA
ENDBRANCH  65  69
ENDBRANCH  48  62
BRANCH  49  73
ATOM     73  C   UNL A   1      39.297  33.343  37.059  1.00  0.00     0.023 A 
ATOM     74  C   UNL A   1      39.958  34.565  37.262  1.00  0.00     0.031 A 
ATOM     75  C   UNL A   1      38.434  32.887  38.070  1.00  0.00     0.131 A 
ATOM     76  C   UNL A   1      39.789  35.262  38.469  1.00  0.00     0.055 A 
ATOM     77  C   UNL A   1      38.221  33.613  39.243  1.00  0.00     0.041 A 
ATOM     78  F   UNL A   1      37.773  31.727  37.928  1.00  0.00    -0.206 F 
ATOM     79  C   UNL A   1      38.913  34.802  39.454  1.00  0.00     0.022 A 
BRANCH  76  80
ATOM     80  S   UNL A   1      40.807  36.732  38.774  1.00  0.00     0.124 S 
ATOM     81  O   UNL A   1      39.792  37.756  38.983  1.00  0.00    -0.237 OA
ATOM     82  O   UNL A   1      41.570  36.332  39.952  1.00  0.00    -0.237 OA
ATOM     83  O   UNL A   1      41.588  36.864  37.545  1.00  0.00    -0.744 OA
ENDBRANCH  76  80
ENDBRANCH  49  73
BRANCH  61  84
ATOM     84  C   UNL A   1      44.094  28.563  35.358  1.00  0.00     0.023 A 
ATOM     85  C   UNL A   1      44.038  27.507  36.285  1.00  0.00     0.031 A 
ATOM     86  C   UNL A   1      45.344  29.162  35.116  1.00  0.00     0.131 A 
ATOM     87  C   UNL A   1      45.195  27.129  36.983  1.00  0.00     0.055 A 
ATOM     88  C   UNL A   1      46.504  28.732  35.759  1.00  0.00     0.041 A 
ATOM     89  F   UNL A   1      45.458  30.177  34.244  1.00  0.00    -0.206 F 
ATOM     90  C   UNL A   1      46.431  27.721  36.711  1.00  0.00     0.022 A 
BRANCH  87  91
ATOM     91  S   UNL A   1      45.041  25.931  38.336  1.00  0.00     0.124 S 
ATOM     92  O   UNL A   1      44.404  24.800  37.670  1.00  0.00    -0.237 OA
ATOM     93  O   UNL A   1      46.430  25.734  38.738  1.00  0.00    -0.237 OA
ATOM     94  O   UNL A   1      44.206  26.625  39.315  1.00  0.00    -0.744 OA
ENDBRANCH  87  91
ENDBRANCH  61  84
ENDBRANCH  35  36
ENDBRANCH  27  30
ENDBRANCH  25  26
ENDBRANCH   1  25
TORSDOF 16
ENDMDL
MODEL 3
REMARK VINA RESULT:     -11.6      1.961      7.851
REMARK SMILES CC1=C(C)C[C@@H](C(=O)N[C@H](C)C(C)(C)C)[C@@H](C(=O)NCCCNC(=O)c2ccc(-c3c4nc(c(-c5cc(S(=O)(=O)[O-])ccc5F)c5ccc([nH]5)c(-c5cc(S(=O)(=O)[O-])ccc5F)c5nc(c(-c6cc(S(=O)(=O)[O-])ccc6F)c6ccc3[nH]6)C=C5)C=C4)cc2)C1
REMARK SMILES IDX 21 1 20 2 19 3 17 4 18 5 16 7 1 8 2 9 3 10 89 11 4 12 5 13
REMARK SMILES IDX 6 14 7 15 8 16 9 17 10 19 11 20 12 21 13 22 14 23 15 24
REMARK SMILES IDX 22 25 23 26 24 27 25 29 26 30 27 31 88 32 28 33 87 34 29 35
REMARK SMILES IDX 30 36 31 37 81 38 32 39 86 40 80 41 82 42 33 43 85 44 79 45
REMARK SMILES IDX 78 46 34 48 66 49 46 50 65 51 47 52 50 53 64 54 83 55 48 56
REMARK SMILES IDX 49 57 63 59 84 60 51 61 35 62 36 63 44 64 37 65 43 66 45 67
REMARK SMILES IDX 42 68 38 69 39 70 40 71 41 72 67 73 68 74 76 75 69 76 75 77
REMARK SMILES IDX 77 78 74 79 70 80 71 81 72 82 73 83 52 84 53 85 61 86 54 87
REMARK SMILES IDX 60 88 62 89 59 90 55 91 56 92 57 93 58 94
REMARK H PARENT 19 6 9 18 23 28 82 47 50 58
REMARK Flexibility Score: inf
ROOT
ATOM      1  C   UNL A   1      31.519  32.203  26.521  1.00  0.00     0.042 C 
ENDROOT
BRANCH   1   2
ATOM      2  C   UNL A   1      31.409  30.705  26.309  1.00  0.00     0.117 C 
BRANCH   2   3
ATOM      3  N   UNL A   1      32.666  30.141  25.857  1.00  0.00    -0.356 N 
ATOM      4  C   UNL A   1      32.944  28.984  25.208  1.00  0.00     0.224 C 
ATOM      5  O   UNL A   1      34.097  28.574  25.339  1.00  0.00    -0.275 OA
ATOM      6  H   UNL A   1      33.455  30.696  26.056  1.00  0.00     0.163 HD
BRANCH   4   7
ATOM      7  C   UNL A   1      31.864  28.224  24.427  1.00  0.00     0.095 C 
ATOM      8  C   UNL A   1      32.580  25.735  21.457  1.00  0.00     0.039 C 
ATOM      9  C   UNL A   1      31.896  26.218  22.714  1.00  0.00    -0.074 C 
ATOM     10  C   UNL A   1      30.911  25.579  23.368  1.00  0.00    -0.074 C 
ATOM     11  C   UNL A   1      32.423  27.548  23.165  1.00  0.00     0.045 C 
ATOM     12  C   UNL A   1      30.369  24.226  22.983  1.00  0.00     0.039 C 
ATOM     13  C   UNL A   1      30.261  26.172  24.596  1.00  0.00     0.045 C 
ATOM     14  C   UNL A   1      31.018  27.294  25.319  1.00  0.00     0.095 C 
BRANCH  14  15
ATOM     15  C   UNL A   1      31.564  26.818  26.671  1.00  0.00     0.224 C 
ATOM     16  O   UNL A   1      31.534  27.600  27.634  1.00  0.00    -0.275 OA
ATOM     17  N   UNL A   1      32.028  25.578  26.949  1.00  0.00    -0.353 N 
ATOM     18  H   UNL A   1      32.433  25.518  27.843  1.00  0.00     0.163 HD
BRANCH  17  19
ATOM     19  C   UNL A   1      32.067  24.302  26.229  1.00  0.00     0.084 C 
ATOM     20  C   UNL A   1      31.430  23.206  27.090  1.00  0.00     0.031 C 
BRANCH  19  21
ATOM     21  C   UNL A   1      33.540  23.926  25.800  1.00  0.00    -0.018 C 
ATOM     22  C   UNL A   1      34.362  25.194  25.470  1.00  0.00     0.013 C 
ATOM     23  C   UNL A   1      34.266  23.200  26.950  1.00  0.00     0.013 C 
ATOM     24  C   UNL A   1      33.563  23.003  24.557  1.00  0.00     0.013 C 
ENDBRANCH  19  21
ENDBRANCH  17  19
ENDBRANCH  14  15
ENDBRANCH   4   7
ENDBRANCH   2   3
ENDBRANCH   1   2
BRANCH   1  25
ATOM     25  C   UNL A   1      32.785  32.620  27.249  1.00  0.00     0.118 C 
BRANCH  25  26
ATOM     26  N   UNL A   1      32.738  34.004  27.698  1.00  0.00    -0.352 N 
ATOM     27  C   UNL A   1      33.454  34.614  28.698  1.00  0.00     0.251 C 
ATOM     28  H   UNL A   1      32.102  34.584  27.219  1.00  0.00     0.163 HD
ATOM     29  O   UNL A   1      33.119  35.730  29.092  1.00  0.00    -0.269 OA
BRANCH  27  30
ATOM     30  C   UNL A   1      34.603  33.911  29.302  1.00  0.00     0.039 A 
ATOM     31  C   UNL A   1      34.372  32.897  30.233  1.00  0.00     0.014 A 
ATOM     32  C   UNL A   1      35.909  34.244  28.935  1.00  0.00     0.014 A 
ATOM     33  C   UNL A   1      35.454  32.186  30.754  1.00  0.00     0.010 A 
ATOM     34  C   UNL A   1      36.970  33.459  29.361  1.00  0.00     0.010 A 
ATOM     35  C   UNL A   1      36.759  32.441  30.301  1.00  0.00    -0.014 A 
BRANCH  35  36
ATOM     36  C   UNL A   1      37.928  31.704  30.843  1.00  0.00     0.031 A 
ATOM     37  C   UNL A   1      38.445  32.043  32.217  1.00  0.00     0.074 A 
ATOM     38  C   UNL A   1      38.548  30.773  30.091  1.00  0.00     0.049 A 
ATOM     39  N   UNL A   1      39.488  31.573  32.851  1.00  0.00    -0.248 NA
ATOM     40  C   UNL A   1      37.712  33.079  32.963  1.00  0.00     0.031 C 
ATOM     41  C   UNL A   1      38.163  30.391  28.730  1.00  0.00     0.029 A 
ATOM     42  N   UNL A   1      39.634  29.979  30.362  1.00  0.00    -0.354 N 
ATOM     43  C   UNL A   1      39.544  32.268  34.055  1.00  0.00     0.074 A 
ATOM     44  C   UNL A   1      38.481  33.246  34.026  1.00  0.00     0.031 C 
ATOM     45  C   UNL A   1      38.977  29.412  28.301  1.00  0.00     0.029 A 
ATOM     46  C   UNL A   1      39.971  29.131  29.332  1.00  0.00     0.049 A 
ATOM     47  H   UNL A   1      40.125  30.013  31.215  1.00  0.00     0.167 HD
ATOM     48  C   UNL A   1      40.385  32.085  35.103  1.00  0.00     0.034 A 
ATOM     49  C   UNL A   1      40.973  28.236  29.231  1.00  0.00     0.034 A 
ATOM     50  C   UNL A   1      41.427  31.090  35.119  1.00  0.00     0.049 A 
ATOM     51  C   UNL A   1      41.908  28.061  30.401  1.00  0.00     0.074 A 
ATOM     52  C   UNL A   1      42.307  30.780  36.141  1.00  0.00     0.029 A 
ATOM     53  N   UNL A   1      41.735  30.244  34.059  1.00  0.00    -0.354 N 
ATOM     54  N   UNL A   1      41.919  28.691  31.554  1.00  0.00    -0.248 NA
ATOM     55  C   UNL A   1      42.955  27.041  30.265  1.00  0.00     0.031 C 
ATOM     56  C   UNL A   1      43.193  29.803  35.674  1.00  0.00     0.029 A 
ATOM     57  C   UNL A   1      42.809  29.434  34.394  1.00  0.00     0.049 A 
ATOM     58  H   UNL A   1      41.260  30.223  33.198  1.00  0.00     0.167 HD
ATOM     59  C   UNL A   1      42.946  28.113  32.295  1.00  0.00     0.074 A 
ATOM     60  C   UNL A   1      43.522  27.078  31.461  1.00  0.00     0.031 C 
ATOM     61  C   UNL A   1      43.373  28.405  33.551  1.00  0.00     0.034 A 
BRANCH  48  62
ATOM     62  C   UNL A   1      40.218  32.996  36.296  1.00  0.00     0.023 A 
ATOM     63  C   UNL A   1      39.487  32.603  37.432  1.00  0.00     0.031 A 
ATOM     64  C   UNL A   1      40.768  34.290  36.287  1.00  0.00     0.131 A 
ATOM     65  C   UNL A   1      39.254  33.519  38.469  1.00  0.00     0.055 A 
ATOM     66  C   UNL A   1      40.611  35.165  37.364  1.00  0.00     0.041 A 
ATOM     67  F   UNL A   1      41.455  34.734  35.224  1.00  0.00    -0.206 F 
ATOM     68  C   UNL A   1      39.836  34.789  38.457  1.00  0.00     0.022 A 
BRANCH  65  69
ATOM     69  S   UNL A   1      38.050  33.083  39.754  1.00  0.00     0.124 S 
ATOM     70  O   UNL A   1      36.840  32.868  38.964  1.00  0.00    -0.237 OA
ATOM     71  O   UNL A   1      38.642  31.893  40.352  1.00  0.00    -0.237 OA
ATOM     72  O   UNL A   1      38.022  34.266  40.614  1.00  0.00    -0.744 OA
ENDBRANCH  65  69
ENDBRANCH  48  62
BRANCH  49  73
ATOM     73  C   UNL A   1      41.152  27.436  27.983  1.00  0.00     0.023 A 
ATOM     74  C   UNL A   1      40.840  26.068  27.948  1.00  0.00     0.031 A 
ATOM     75  C   UNL A   1      41.682  28.019  26.818  1.00  0.00     0.131 A 
ATOM     76  C   UNL A   1      41.112  25.315  26.795  1.00  0.00     0.055 A 
ATOM     77  C   UNL A   1      41.894  27.279  25.653  1.00  0.00     0.041 A 
ATOM     78  F   UNL A   1      41.994  29.324  26.793  1.00  0.00    -0.206 F 
ATOM     79  C   UNL A   1      41.623  25.915  25.642  1.00  0.00     0.022 A 
BRANCH  76  80
ATOM     80  S   UNL A   1      40.881  23.517  26.856  1.00  0.00     0.124 S 
ATOM     81  O   UNL A   1      41.802  23.065  25.820  1.00  0.00    -0.237 OA
ATOM     82  O   UNL A   1      41.260  23.210  28.231  1.00  0.00    -0.237 OA
ATOM     83  O   UNL A   1      39.462  23.347  26.550  1.00  0.00    -0.744 OA
ENDBRANCH  76  80
ENDBRANCH  49  73
BRANCH  61  84
ATOM     84  C   UNL A   1      44.473  27.543  34.123  1.00  0.00     0.023 A 
ATOM     85  C   UNL A   1      44.209  26.317  34.757  1.00  0.00     0.031 A 
ATOM     86  C   UNL A   1      45.812  27.968  34.040  1.00  0.00     0.131 A 
ATOM     87  C   UNL A   1      45.259  25.592  35.341  1.00  0.00     0.055 A 
ATOM     88  C   UNL A   1      46.859  27.207  34.558  1.00  0.00     0.041 A 
ATOM     89  F   UNL A   1      46.125  29.133  33.450  1.00  0.00    -0.206 F 
ATOM     90  C   UNL A   1      46.585  26.020  35.227  1.00  0.00     0.022 A 
BRANCH  87  91
ATOM     91  S   UNL A   1      44.857  24.141  36.352  1.00  0.00     0.124 S 
ATOM     92  O   UNL A   1      43.701  23.593  35.650  1.00  0.00    -0.237 OA
ATOM     93  O   UNL A   1      46.084  23.355  36.270  1.00  0.00    -0.237 OA
ATOM     94  O   UNL A   1      44.572  24.709  37.668  1.00  0.00    -0.744 OA
ENDBRANCH  87  91
ENDBRANCH  61  84
ENDBRANCH  35  36
ENDBRANCH  27  30
ENDBRANCH  25  26
ENDBRANCH   1  25
TORSDOF 16
ENDMDL
