MODEL 1
REMARK VINA RESULT:     -12.2      0.000      0.000
REMARK SMILES C[C@H]1[C@H](C(=O)NCCCNC(=O)c2ccc(-c3c4nc(c(-c5cc(S(=O)(=O)[O-])ccc5F)c5ccc([nH]5)c(-c5cc(S(=O)(=O)[O-])ccc5F)c5nc(c(-c6cc(S(=O)(=O)[O-])ccc6F)c6ccc3[nH]6)C=C5)C=C4)cc2)CCN1C(=O)NCc1cnn(C)c1
REMARK SMILES IDX 8 1 7 2 6 3 4 4 5 5 3 7 1 8 2 9 78 10 76 11 77 12 79 13
REMARK SMILES IDX 80 14 81 15 82 17 83 18 84 19 88 20 85 21 86 22 87 23 9 24
REMARK SMILES IDX 10 25 11 26 12 28 13 29 14 30 75 31 15 32 74 33 16 34 17 35
REMARK SMILES IDX 18 36 68 37 19 38 73 39 67 40 69 41 20 42 72 43 66 44 65 45
REMARK SMILES IDX 21 47 53 48 33 49 52 50 34 51 37 52 51 53 70 54 35 55 36 56
REMARK SMILES IDX 50 58 71 59 38 60 22 61 23 62 31 63 24 64 30 65 32 66 29 67
REMARK SMILES IDX 25 68 26 69 27 70 28 71 54 72 55 73 63 74 56 75 62 76 64 77
REMARK SMILES IDX 61 78 57 79 58 80 59 81 60 82 39 83 40 84 48 85 41 86 47 87
REMARK SMILES IDX 49 88 46 89 42 90 43 91 44 92 45 93
REMARK H PARENT 6 6 81 16 10 27 69 46 37 57
REMARK Flexibility Score: inf
ROOT
ATOM      1  C   UNL A   1      31.891  28.201  27.289  1.00  0.00     0.042 C 
ENDROOT
BRANCH   1   2
ATOM      2  C   UNL A   1      31.340  27.182  26.303  1.00  0.00     0.117 C 
BRANCH   2   3
ATOM      3  N   UNL A   1      31.164  25.864  26.894  1.00  0.00    -0.356 N 
ATOM      4  C   UNL A   1      31.695  24.654  26.591  1.00  0.00     0.225 C 
ATOM      5  O   UNL A   1      31.345  23.695  27.289  1.00  0.00    -0.275 OA
ATOM      6  H   UNL A   1      30.542  25.848  27.656  1.00  0.00     0.163 HD
BRANCH   4   7
ATOM      7  C   UNL A   1      32.659  24.420  25.439  1.00  0.00     0.102 C 
ATOM      8  C   UNL A   1      35.153  24.697  25.440  1.00  0.00     0.032 C 
ATOM      9  C   UNL A   1      33.991  23.805  25.898  1.00  0.00     0.096 C 
ATOM     10  N   UNL A   1      34.057  22.502  25.246  1.00  0.00    -0.321 N 
ATOM     11  C   UNL A   1      32.130  23.547  24.303  1.00  0.00     0.037 C 
ATOM     12  C   UNL A   1      33.195  22.487  24.075  1.00  0.00     0.122 C 
BRANCH  10  13
ATOM     13  C   UNL A   1      34.746  21.372  25.558  1.00  0.00     0.317 C 
ATOM     14  O   UNL A   1      35.929  21.432  25.913  1.00  0.00    -0.249 OA
ATOM     15  N   UNL A   1      34.230  20.137  25.496  1.00  0.00    -0.334 N 
ATOM     16  H   UNL A   1      34.929  19.453  25.603  1.00  0.00     0.165 HD
BRANCH  15  17
ATOM     17  C   UNL A   1      32.929  19.530  25.314  1.00  0.00     0.157 C 
BRANCH  17  18
ATOM     18  C   UNL A   1      33.088  18.077  25.061  1.00  0.00     0.009 A 
ATOM     19  C   UNL A   1      33.756  17.472  23.971  1.00  0.00     0.140 A 
ATOM     20  C   UNL A   1      32.602  17.004  25.783  1.00  0.00     0.113 A 
ATOM     21  N   UNL A   1      33.735  16.141  24.023  1.00  0.00    -0.181 NA
ATOM     22  N   UNL A   1      32.998  15.877  25.120  1.00  0.00    -0.275 N 
ATOM     23  C   UNL A   1      32.717  14.507  25.481  1.00  0.00     0.173 C 
ENDBRANCH  17  18
ENDBRANCH  15  17
ENDBRANCH  10  13
ENDBRANCH   4   7
ENDBRANCH   2   3
ENDBRANCH   1   2
BRANCH   1  24
ATOM     24  C   UNL A   1      33.292  28.710  26.968  1.00  0.00     0.118 C 
BRANCH  24  25
ATOM     25  N   UNL A   1      33.401  30.157  27.099  1.00  0.00    -0.352 N 
ATOM     26  C   UNL A   1      34.347  30.927  27.726  1.00  0.00     0.251 C 
ATOM     27  H   UNL A   1      32.679  30.665  26.663  1.00  0.00     0.163 HD
ATOM     28  O   UNL A   1      34.117  32.129  27.883  1.00  0.00    -0.269 OA
BRANCH  26  29
ATOM     29  C   UNL A   1      35.613  30.345  28.229  1.00  0.00     0.039 A 
ATOM     30  C   UNL A   1      36.729  30.340  27.385  1.00  0.00     0.014 A 
ATOM     31  C   UNL A   1      35.701  29.756  29.493  1.00  0.00     0.014 A 
ATOM     32  C   UNL A   1      37.938  29.797  27.826  1.00  0.00     0.010 A 
ATOM     33  C   UNL A   1      36.928  29.284  29.959  1.00  0.00     0.010 A 
ATOM     34  C   UNL A   1      38.059  29.292  29.130  1.00  0.00    -0.014 A 
BRANCH  34  35
ATOM     35  C   UNL A   1      39.357  28.773  29.638  1.00  0.00     0.031 A 
ATOM     36  C   UNL A   1      40.080  29.489  30.747  1.00  0.00     0.074 A 
ATOM     37  C   UNL A   1      39.912  27.691  29.058  1.00  0.00     0.049 A 
ATOM     38  N   UNL A   1      41.246  29.224  31.282  1.00  0.00    -0.248 NA
ATOM     39  C   UNL A   1      39.413  30.669  31.316  1.00  0.00     0.031 C 
ATOM     40  C   UNL A   1      39.323  26.923  27.960  1.00  0.00     0.029 A 
ATOM     41  N   UNL A   1      41.107  27.059  29.298  1.00  0.00    -0.354 N 
ATOM     42  C   UNL A   1      41.451  30.201  32.251  1.00  0.00     0.074 A 
ATOM     43  C   UNL A   1      40.320  31.103  32.177  1.00  0.00     0.031 C 
ATOM     44  C   UNL A   1      40.160  25.932  27.614  1.00  0.00     0.029 A 
ATOM     45  C   UNL A   1      41.354  26.006  28.449  1.00  0.00     0.049 A 
ATOM     46  H   UNL A   1      41.727  27.333  30.011  1.00  0.00     0.167 HD
ATOM     47  C   UNL A   1      42.468  30.317  33.142  1.00  0.00     0.034 A 
ATOM     48  C   UNL A   1      42.423  25.193  28.347  1.00  0.00     0.034 A 
ATOM     49  C   UNL A   1      43.592  29.410  33.201  1.00  0.00     0.049 A 
ATOM     50  C   UNL A   1      43.561  25.358  29.320  1.00  0.00     0.074 A 
ATOM     51  C   UNL A   1      44.652  29.406  34.091  1.00  0.00     0.029 A 
ATOM     52  N   UNL A   1      43.806  28.351  32.328  1.00  0.00    -0.354 N 
ATOM     53  N   UNL A   1      43.710  26.251  30.272  1.00  0.00    -0.248 NA
ATOM     54  C   UNL A   1      44.658  24.389  29.224  1.00  0.00     0.031 C 
ATOM     55  C   UNL A   1      45.538  28.388  33.716  1.00  0.00     0.029 A 
ATOM     56  C   UNL A   1      44.995  27.706  32.639  1.00  0.00     0.049 A 
ATOM     57  H   UNL A   1      43.201  28.093  31.595  1.00  0.00     0.167 HD
ATOM     58  C   UNL A   1      44.906  25.930  30.907  1.00  0.00     0.074 A 
ATOM     59  C   UNL A   1      45.425  24.752  30.240  1.00  0.00     0.031 C 
ATOM     60  C   UNL A   1      45.516  26.547  31.952  1.00  0.00     0.034 A 
BRANCH  47  61
ATOM     61  C   UNL A   1      42.415  31.480  34.107  1.00  0.00     0.023 A 
ATOM     62  C   UNL A   1      41.612  31.442  35.260  1.00  0.00     0.031 A 
ATOM     63  C   UNL A   1      43.151  32.653  33.859  1.00  0.00     0.131 A 
ATOM     64  C   UNL A   1      41.499  32.577  36.077  1.00  0.00     0.055 A 
ATOM     65  C   UNL A   1      43.099  33.751  34.720  1.00  0.00     0.041 A 
ATOM     66  F   UNL A   1      43.923  32.757  32.766  1.00  0.00    -0.206 F 
ATOM     67  C   UNL A   1      42.256  33.725  35.828  1.00  0.00     0.022 A 
BRANCH  64  68
ATOM     68  S   UNL A   1      40.237  32.586  37.379  1.00  0.00     0.124 S 
ATOM     69  O   UNL A   1      41.034  32.276  38.564  1.00  0.00    -0.237 OA
ATOM     70  O   UNL A   1      39.712  33.945  37.300  1.00  0.00    -0.237 OA
ATOM     71  O   UNL A   1      39.310  31.534  36.968  1.00  0.00    -0.744 OA
ENDBRANCH  64  68
ENDBRANCH  47  61
BRANCH  48  72
ATOM     72  C   UNL A   1      42.471  24.152  27.283  1.00  0.00     0.023 A 
ATOM     73  C   UNL A   1      41.677  22.997  27.361  1.00  0.00     0.031 A 
ATOM     74  C   UNL A   1      43.333  24.289  26.180  1.00  0.00     0.131 A 
ATOM     75  C   UNL A   1      41.795  22.001  26.380  1.00  0.00     0.055 A 
ATOM     76  C   UNL A   1      43.414  23.315  25.183  1.00  0.00     0.041 A 
ATOM     77  F   UNL A   1      44.098  25.385  26.048  1.00  0.00    -0.206 F 
ATOM     78  C   UNL A   1      42.650  22.157  25.286  1.00  0.00     0.022 A 
BRANCH  75  79
ATOM     79  S   UNL A   1      40.859  20.462  26.590  1.00  0.00     0.124 S 
ATOM     80  O   UNL A   1      41.638  19.529  25.785  1.00  0.00    -0.237 OA
ATOM     81  O   UNL A   1      40.918  20.269  28.035  1.00  0.00    -0.237 OA
ATOM     82  O   UNL A   1      39.538  20.793  26.061  1.00  0.00    -0.744 OA
ENDBRANCH  75  79
ENDBRANCH  48  72
BRANCH  60  83
ATOM     83  C   UNL A   1      46.799  25.929  32.452  1.00  0.00     0.023 A 
ATOM     84  C   UNL A   1      46.804  24.959  33.470  1.00  0.00     0.031 A 
ATOM     85  C   UNL A   1      48.037  26.341  31.927  1.00  0.00     0.131 A 
ATOM     86  C   UNL A   1      48.022  24.485  33.978  1.00  0.00     0.055 A 
ATOM     87  C   UNL A   1      49.244  25.817  32.392  1.00  0.00     0.041 A 
ATOM     88  F   UNL A   1      48.094  27.265  30.955  1.00  0.00    -0.206 F 
ATOM     89  C   UNL A   1      49.242  24.894  33.435  1.00  0.00     0.022 A 
BRANCH  86  90
ATOM     90  S   UNL A   1      47.994  23.406  35.438  1.00  0.00     0.124 S 
ATOM     91  O   UNL A   1      49.358  23.541  35.941  1.00  0.00    -0.237 OA
ATOM     92  O   UNL A   1      46.950  24.015  36.254  1.00  0.00    -0.237 OA
ATOM     93  O   UNL A   1      47.664  22.093  34.887  1.00  0.00    -0.744 OA
ENDBRANCH  86  90
ENDBRANCH  60  83
ENDBRANCH  34  35
ENDBRANCH  26  29
ENDBRANCH  24  25
ENDBRANCH   1  24
TORSDOF 16
ENDMDL
MODEL 2
REMARK VINA RESULT:     -12.1      1.546      2.022
REMARK SMILES C[C@H]1[C@H](C(=O)NCCCNC(=O)c2ccc(-c3c4nc(c(-c5cc(S(=O)(=O)[O-])ccc5F)c5ccc([nH]5)c(-c5cc(S(=O)(=O)[O-])ccc5F)c5nc(c(-c6cc(S(=O)(=O)[O-])ccc6F)c6ccc3[nH]6)C=C5)C=C4)cc2)CCN1C(=O)NCc1cnn(C)c1
REMARK SMILES IDX 8 1 7 2 6 3 4 4 5 5 3 7 1 8 2 9 78 10 76 11 77 12 79 13
REMARK SMILES IDX 80 14 81 15 82 17 83 18 84 19 88 20 85 21 86 22 87 23 9 24
REMARK SMILES IDX 10 25 11 26 12 28 13 29 14 30 75 31 15 32 74 33 16 34 17 35
REMARK SMILES IDX 18 36 68 37 19 38 73 39 67 40 69 41 20 42 72 43 66 44 65 45
REMARK SMILES IDX 21 47 53 48 33 49 52 50 34 51 37 52 51 53 70 54 35 55 36 56
REMARK SMILES IDX 50 58 71 59 38 60 22 61 23 62 31 63 24 64 30 65 32 66 29 67
REMARK SMILES IDX 25 68 26 69 27 70 28 71 54 72 55 73 63 74 56 75 62 76 64 77
REMARK SMILES IDX 61 78 57 79 58 80 59 81 60 82 39 83 40 84 48 85 41 86 47 87
REMARK SMILES IDX 49 88 46 89 42 90 43 91 44 92 45 93
REMARK H PARENT 6 6 81 16 10 27 69 46 37 57
REMARK Flexibility Score: inf
ROOT
ATOM      1  C   UNL A   1      33.487  28.848  24.800  1.00  0.00     0.042 C 
ENDROOT
BRANCH   1   2
ATOM      2  C   UNL A   1      31.994  28.724  24.536  1.00  0.00     0.117 C 
BRANCH   2   3
ATOM      3  N   UNL A   1      31.291  28.020  25.597  1.00  0.00    -0.356 N 
ATOM      4  C   UNL A   1      31.169  26.701  25.887  1.00  0.00     0.225 C 
ATOM      5  O   UNL A   1      30.489  26.403  26.876  1.00  0.00    -0.275 OA
ATOM      6  H   UNL A   1      30.812  28.612  26.221  1.00  0.00     0.163 HD
BRANCH   4   7
ATOM      7  C   UNL A   1      31.793  25.593  25.055  1.00  0.00     0.102 C 
ATOM      8  C   UNL A   1      34.225  25.010  24.846  1.00  0.00     0.032 C 
ATOM      9  C   UNL A   1      32.990  24.931  25.755  1.00  0.00     0.096 C 
ATOM     10  N   UNL A   1      32.595  23.542  25.961  1.00  0.00    -0.321 N 
ATOM     11  C   UNL A   1      30.846  24.473  24.631  1.00  0.00     0.037 C 
ATOM     12  C   UNL A   1      31.541  23.181  25.026  1.00  0.00     0.122 C 
BRANCH  10  13
ATOM     13  C   UNL A   1      33.024  22.605  26.848  1.00  0.00     0.317 C 
ATOM     14  O   UNL A   1      32.607  22.599  28.011  1.00  0.00    -0.249 OA
ATOM     15  N   UNL A   1      33.916  21.649  26.556  1.00  0.00    -0.334 N 
ATOM     16  H   UNL A   1      34.212  21.178  27.368  1.00  0.00     0.165 HD
BRANCH  15  17
ATOM     17  C   UNL A   1      34.566  21.117  25.377  1.00  0.00     0.157 C 
BRANCH  17  18
ATOM     18  C   UNL A   1      33.904  19.853  24.971  1.00  0.00     0.009 A 
ATOM     19  C   UNL A   1      32.514  19.605  24.904  1.00  0.00     0.140 A 
ATOM     20  C   UNL A   1      34.470  18.643  24.613  1.00  0.00     0.113 A 
ATOM     21  N   UNL A   1      32.226  18.369  24.497  1.00  0.00    -0.181 NA
ATOM     22  N   UNL A   1      33.434  17.791  24.355  1.00  0.00    -0.275 N 
ATOM     23  C   UNL A   1      33.522  16.405  23.960  1.00  0.00     0.173 C 
ENDBRANCH  17  18
ENDBRANCH  15  17
ENDBRANCH  10  13
ENDBRANCH   4   7
ENDBRANCH   2   3
ENDBRANCH   1   2
BRANCH   1  24
ATOM     24  C   UNL A   1      33.867  29.028  26.267  1.00  0.00     0.118 C 
BRANCH  24  25
ATOM     25  N   UNL A   1      33.728  30.408  26.712  1.00  0.00    -0.352 N 
ATOM     26  C   UNL A   1      34.456  31.127  27.625  1.00  0.00     0.251 C 
ATOM     27  H   UNL A   1      32.994  30.906  26.286  1.00  0.00     0.163 HD
ATOM     28  O   UNL A   1      34.021  32.222  27.993  1.00  0.00    -0.269 OA
BRANCH  26  29
ATOM     29  C   UNL A   1      35.727  30.612  28.184  1.00  0.00     0.039 A 
ATOM     30  C   UNL A   1      35.676  29.791  29.317  1.00  0.00     0.014 A 
ATOM     31  C   UNL A   1      36.966  30.971  27.648  1.00  0.00     0.014 A 
ATOM     32  C   UNL A   1      36.856  29.290  29.872  1.00  0.00     0.010 A 
ATOM     33  C   UNL A   1      38.137  30.409  28.157  1.00  0.00     0.010 A 
ATOM     34  C   UNL A   1      38.097  29.568  29.279  1.00  0.00    -0.014 A 
BRANCH  34  35
ATOM     35  C   UNL A   1      39.356  28.988  29.817  1.00  0.00     0.031 A 
ATOM     36  C   UNL A   1      40.063  29.645  30.973  1.00  0.00     0.074 A 
ATOM     37  C   UNL A   1      39.895  27.905  29.223  1.00  0.00     0.049 A 
ATOM     38  N   UNL A   1      41.198  29.322  31.540  1.00  0.00    -0.248 NA
ATOM     39  C   UNL A   1      39.417  30.830  31.554  1.00  0.00     0.031 C 
ATOM     40  C   UNL A   1      39.320  27.192  28.081  1.00  0.00     0.029 A 
ATOM     41  N   UNL A   1      41.057  27.224  29.486  1.00  0.00    -0.354 N 
ATOM     42  C   UNL A   1      41.401  30.261  32.546  1.00  0.00     0.074 A 
ATOM     43  C   UNL A   1      40.306  31.205  32.460  1.00  0.00     0.031 C 
ATOM     44  C   UNL A   1      40.134  26.182  27.735  1.00  0.00     0.029 A 
ATOM     45  C   UNL A   1      41.299  26.188  28.614  1.00  0.00     0.049 A 
ATOM     46  H   UNL A   1      41.660  27.454  30.229  1.00  0.00     0.167 HD
ATOM     47  C   UNL A   1      42.389  30.314  33.475  1.00  0.00     0.034 A 
ATOM     48  C   UNL A   1      42.342  25.341  28.524  1.00  0.00     0.034 A 
ATOM     49  C   UNL A   1      43.477  29.367  33.546  1.00  0.00     0.049 A 
ATOM     50  C   UNL A   1      43.448  25.436  29.542  1.00  0.00     0.074 A 
ATOM     51  C   UNL A   1      44.503  29.298  34.473  1.00  0.00     0.029 A 
ATOM     52  N   UNL A   1      43.686  28.327  32.649  1.00  0.00    -0.354 N 
ATOM     53  N   UNL A   1      43.593  26.294  30.526  1.00  0.00    -0.248 NA
ATOM     54  C   UNL A   1      44.514  24.432  29.455  1.00  0.00     0.031 C 
ATOM     55  C   UNL A   1      45.367  28.261  34.098  1.00  0.00     0.029 A 
ATOM     56  C   UNL A   1      44.840  27.631  32.981  1.00  0.00     0.049 A 
ATOM     57  H   UNL A   1      43.100  28.113  31.887  1.00  0.00     0.167 HD
ATOM     58  C   UNL A   1      44.753  25.912  31.193  1.00  0.00     0.074 A 
ATOM     59  C   UNL A   1      45.256  24.737  30.509  1.00  0.00     0.031 C 
ATOM     60  C   UNL A   1      45.345  26.476  32.277  1.00  0.00     0.034 A 
BRANCH  47  61
ATOM     61  C   UNL A   1      42.340  31.449  34.474  1.00  0.00     0.023 A 
ATOM     62  C   UNL A   1      41.414  31.458  35.531  1.00  0.00     0.031 A 
ATOM     63  C   UNL A   1      43.208  32.549  34.353  1.00  0.00     0.131 A 
ATOM     64  C   UNL A   1      41.320  32.576  36.375  1.00  0.00     0.055 A 
ATOM     65  C   UNL A   1      43.166  33.622  35.246  1.00  0.00     0.041 A 
ATOM     66  F   UNL A   1      44.103  32.607  33.354  1.00  0.00    -0.206 F 
ATOM     67  C   UNL A   1      42.207  33.648  36.255  1.00  0.00     0.022 A 
BRANCH  64  68
ATOM     68  S   UNL A   1      39.928  32.674  37.533  1.00  0.00     0.124 S 
ATOM     69  O   UNL A   1      39.091  31.563  37.084  1.00  0.00    -0.237 OA
ATOM     70  O   UNL A   1      40.581  32.501  38.825  1.00  0.00    -0.237 OA
ATOM     71  O   UNL A   1      39.369  34.002  37.288  1.00  0.00    -0.744 OA
ENDBRANCH  64  68
ENDBRANCH  47  61
BRANCH  48  72
ATOM     72  C   UNL A   1      42.393  24.331  27.430  1.00  0.00     0.023 A 
ATOM     73  C   UNL A   1      41.628  23.157  27.491  1.00  0.00     0.031 A 
ATOM     74  C   UNL A   1      43.230  24.519  26.316  1.00  0.00     0.131 A 
ATOM     75  C   UNL A   1      41.749  22.191  26.480  1.00  0.00     0.055 A 
ATOM     76  C   UNL A   1      43.314  23.576  25.290  1.00  0.00     0.041 A 
ATOM     77  F   UNL A   1      43.966  25.636  26.200  1.00  0.00    -0.206 F 
ATOM     78  C   UNL A   1      42.578  22.398  25.375  1.00  0.00     0.022 A 
BRANCH  75  79
ATOM     79  S   UNL A   1      40.853  20.625  26.664  1.00  0.00     0.124 S 
ATOM     80  O   UNL A   1      40.870  20.441  28.110  1.00  0.00    -0.237 OA
ATOM     81  O   UNL A   1      39.558  20.949  26.073  1.00  0.00    -0.237 OA
ATOM     82  O   UNL A   1      41.664  19.679  25.902  1.00  0.00    -0.744 OA
ENDBRANCH  75  79
ENDBRANCH  48  72
BRANCH  60  83
ATOM     83  C   UNL A   1      46.588  25.797  32.803  1.00  0.00     0.023 A 
ATOM     84  C   UNL A   1      47.831  25.934  32.161  1.00  0.00     0.031 A 
ATOM     85  C   UNL A   1      46.519  24.975  33.942  1.00  0.00     0.131 A 
ATOM     86  C   UNL A   1      48.939  25.207  32.621  1.00  0.00     0.055 A 
ATOM     87  C   UNL A   1      47.641  24.305  34.433  1.00  0.00     0.041 A 
ATOM     88  F   UNL A   1      45.359  24.805  34.594  1.00  0.00    -0.206 F 
ATOM     89  C   UNL A   1      48.857  24.405  33.762  1.00  0.00     0.022 A 
BRANCH  86  90
ATOM     90  S   UNL A   1      50.465  25.234  31.638  1.00  0.00     0.124 S 
ATOM     91  O   UNL A   1      49.976  25.662  30.331  1.00  0.00    -0.237 OA
ATOM     92  O   UNL A   1      51.284  26.200  32.361  1.00  0.00    -0.237 OA
ATOM     93  O   UNL A   1      50.937  23.851  31.700  1.00  0.00    -0.744 OA
ENDBRANCH  86  90
ENDBRANCH  60  83
ENDBRANCH  34  35
ENDBRANCH  26  29
ENDBRANCH  24  25
ENDBRANCH   1  24
TORSDOF 16
ENDMDL
MODEL 3
REMARK VINA RESULT:     -12.0      5.255      8.947
REMARK SMILES C[C@H]1[C@H](C(=O)NCCCNC(=O)c2ccc(-c3c4nc(c(-c5cc(S(=O)(=O)[O-])ccc5F)c5ccc([nH]5)c(-c5cc(S(=O)(=O)[O-])ccc5F)c5nc(c(-c6cc(S(=O)(=O)[O-])ccc6F)c6ccc3[nH]6)C=C5)C=C4)cc2)CCN1C(=O)NCc1cnn(C)c1
REMARK SMILES IDX 8 1 7 2 6 3 4 4 5 5 3 7 1 8 2 9 78 10 76 11 77 12 79 13
REMARK SMILES IDX 80 14 81 15 82 17 83 18 84 19 88 20 85 21 86 22 87 23 9 24
REMARK SMILES IDX 10 25 11 26 12 28 13 29 14 30 75 31 15 32 74 33 16 34 17 35
REMARK SMILES IDX 18 36 68 37 19 38 73 39 67 40 69 41 20 42 72 43 66 44 65 45
REMARK SMILES IDX 21 47 53 48 33 49 52 50 34 51 37 52 51 53 70 54 35 55 36 56
REMARK SMILES IDX 50 58 71 59 38 60 22 61 23 62 31 63 24 64 30 65 32 66 29 67
REMARK SMILES IDX 25 68 26 69 27 70 28 71 54 72 55 73 63 74 56 75 62 76 64 77
REMARK SMILES IDX 61 78 57 79 58 80 59 81 60 82 39 83 40 84 48 85 41 86 47 87
REMARK SMILES IDX 49 88 46 89 42 90 43 91 44 92 45 93
REMARK H PARENT 6 6 81 16 10 27 69 46 37 57
REMARK Flexibility Score: inf
ROOT
ATOM      1  C   UNL A   1      37.811  19.584  25.024  1.00  0.00     0.042 C 
ENDROOT
BRANCH   1   2
ATOM      2  C   UNL A   1      36.631  20.521  24.813  1.00  0.00     0.117 C 
BRANCH   2   3
ATOM      3  N   UNL A   1      36.946  21.632  23.929  1.00  0.00    -0.356 N 
ATOM      4  C   UNL A   1      36.251  22.745  23.584  1.00  0.00     0.225 C 
ATOM      5  O   UNL A   1      36.793  23.523  22.791  1.00  0.00    -0.275 OA
ATOM      6  H   UNL A   1      37.828  21.563  23.498  1.00  0.00     0.163 HD
BRANCH   4   7
ATOM      7  C   UNL A   1      34.855  23.060  24.096  1.00  0.00     0.102 C 
ATOM      8  C   UNL A   1      34.068  25.156  25.228  1.00  0.00     0.032 C 
ATOM      9  C   UNL A   1      34.466  24.532  23.884  1.00  0.00     0.096 C 
ATOM     10  N   UNL A   1      33.324  24.500  22.977  1.00  0.00    -0.321 N 
ATOM     11  C   UNL A   1      33.730  22.210  23.510  1.00  0.00     0.037 C 
ATOM     12  C   UNL A   1      32.678  23.198  23.035  1.00  0.00     0.122 C 
BRANCH  10  13
ATOM     13  C   UNL A   1      32.818  25.437  22.131  1.00  0.00     0.317 C 
ATOM     14  O   UNL A   1      33.318  25.616  21.015  1.00  0.00    -0.249 OA
ATOM     15  N   UNL A   1      31.781  26.232  22.426  1.00  0.00    -0.334 N 
ATOM     16  H   UNL A   1      31.675  26.943  21.754  1.00  0.00     0.165 HD
BRANCH  15  17
ATOM     17  C   UNL A   1      30.774  26.336  23.460  1.00  0.00     0.157 C 
BRANCH  17  18
ATOM     18  C   UNL A   1      31.004  27.565  24.258  1.00  0.00     0.009 A 
ATOM     19  C   UNL A   1      30.830  28.902  23.831  1.00  0.00     0.140 A 
ATOM     20  C   UNL A   1      31.469  27.694  25.554  1.00  0.00     0.113 A 
ATOM     21  N   UNL A   1      31.113  29.792  24.782  1.00  0.00    -0.181 NA
ATOM     22  N   UNL A   1      31.530  29.034  25.814  1.00  0.00    -0.275 N 
ATOM     23  C   UNL A   1      31.972  29.667  27.034  1.00  0.00     0.173 C 
ENDBRANCH  17  18
ENDBRANCH  15  17
ENDBRANCH  10  13
ENDBRANCH   4   7
ENDBRANCH   2   3
ENDBRANCH   1   2
BRANCH   1  24
ATOM     24  C   UNL A   1      38.920  20.137  25.913  1.00  0.00     0.118 C 
BRANCH  24  25
ATOM     25  N   UNL A   1      40.062  19.238  26.002  1.00  0.00    -0.352 N 
ATOM     26  C   UNL A   1      41.399  19.507  26.144  1.00  0.00     0.251 C 
ATOM     27  H   UNL A   1      39.837  18.281  25.954  1.00  0.00     0.163 HD
ATOM     28  O   UNL A   1      42.205  18.585  25.986  1.00  0.00    -0.269 OA
BRANCH  26  29
ATOM     29  C   UNL A   1      41.888  20.868  26.462  1.00  0.00     0.039 A 
ATOM     30  C   UNL A   1      42.017  21.793  25.419  1.00  0.00     0.014 A 
ATOM     31  C   UNL A   1      42.275  21.228  27.755  1.00  0.00     0.014 A 
ATOM     32  C   UNL A   1      42.478  23.085  25.683  1.00  0.00     0.010 A 
ATOM     33  C   UNL A   1      42.662  22.540  28.029  1.00  0.00     0.010 A 
ATOM     34  C   UNL A   1      42.775  23.482  26.996  1.00  0.00    -0.014 A 
BRANCH  34  35
ATOM     35  C   UNL A   1      43.202  24.874  27.303  1.00  0.00     0.031 A 
ATOM     36  C   UNL A   1      42.242  25.838  27.947  1.00  0.00     0.074 A 
ATOM     37  C   UNL A   1      44.435  25.284  26.945  1.00  0.00     0.049 A 
ATOM     38  N   UNL A   1      42.411  27.104  28.237  1.00  0.00    -0.248 NA
ATOM     39  C   UNL A   1      40.913  25.315  28.293  1.00  0.00     0.031 C 
ATOM     40  C   UNL A   1      45.448  24.453  26.293  1.00  0.00     0.029 A 
ATOM     41  N   UNL A   1      45.039  26.511  27.062  1.00  0.00    -0.354 N 
ATOM     42  C   UNL A   1      41.212  27.528  28.802  1.00  0.00     0.074 A 
ATOM     43  C   UNL A   1      40.305  26.400  28.746  1.00  0.00     0.031 C 
ATOM     44  C   UNL A   1      46.543  25.193  26.059  1.00  0.00     0.029 A 
ATOM     45  C   UNL A   1      46.303  26.556  26.521  1.00  0.00     0.049 A 
ATOM     46  H   UNL A   1      44.610  27.284  27.492  1.00  0.00     0.167 HD
ATOM     47  C   UNL A   1      40.906  28.733  29.347  1.00  0.00     0.034 A 
ATOM     48  C   UNL A   1      47.171  27.579  26.403  1.00  0.00     0.034 A 
ATOM     49  C   UNL A   1      41.821  29.850  29.392  1.00  0.00     0.049 A 
ATOM     50  C   UNL A   1      46.802  28.920  26.981  1.00  0.00     0.074 A 
ATOM     51  C   UNL A   1      41.633  31.098  29.961  1.00  0.00     0.029 A 
ATOM     52  N   UNL A   1      43.096  29.857  28.839  1.00  0.00    -0.354 N 
ATOM     53  N   UNL A   1      45.685  29.286  27.567  1.00  0.00    -0.248 NA
ATOM     54  C   UNL A   1      47.819  29.974  26.907  1.00  0.00     0.031 C 
ATOM     55  C   UNL A   1      42.765  31.879  29.694  1.00  0.00     0.029 A 
ATOM     56  C   UNL A   1      43.692  31.096  29.026  1.00  0.00     0.049 A 
ATOM     57  H   UNL A   1      43.516  29.093  28.382  1.00  0.00     0.167 HD
ATOM     58  C   UNL A   1      45.880  30.608  27.959  1.00  0.00     0.074 A 
ATOM     59  C   UNL A   1      47.227  30.963  27.558  1.00  0.00     0.031 C 
ATOM     60  C   UNL A   1      45.027  31.448  28.600  1.00  0.00     0.034 A 
BRANCH  47  61
ATOM     61  C   UNL A   1      39.516  28.903  29.916  1.00  0.00     0.023 A 
ATOM     62  C   UNL A   1      38.483  29.496  29.168  1.00  0.00     0.031 A 
ATOM     63  C   UNL A   1      39.223  28.495  31.230  1.00  0.00     0.131 A 
ATOM     64  C   UNL A   1      37.235  29.740  29.762  1.00  0.00     0.055 A 
ATOM     65  C   UNL A   1      37.954  28.665  31.788  1.00  0.00     0.041 A 
ATOM     66  F   UNL A   1      40.171  27.938  32.000  1.00  0.00    -0.206 F 
ATOM     67  C   UNL A   1      36.955  29.305  31.060  1.00  0.00     0.022 A 
BRANCH  64  68
ATOM     68  S   UNL A   1      36.034  30.763  28.868  1.00  0.00     0.124 S 
ATOM     69  O   UNL A   1      35.299  29.757  28.105  1.00  0.00    -0.237 OA
ATOM     70  O   UNL A   1      35.300  31.406  29.951  1.00  0.00    -0.237 OA
ATOM     71  O   UNL A   1      36.871  31.654  28.066  1.00  0.00    -0.744 OA
ENDBRANCH  64  68
ENDBRANCH  47  61
BRANCH  48  72
ATOM     72  C   UNL A   1      48.473  27.377  25.708  1.00  0.00     0.023 A 
ATOM     73  C   UNL A   1      48.577  27.495  24.314  1.00  0.00     0.031 A 
ATOM     74  C   UNL A   1      49.631  27.039  26.432  1.00  0.00     0.131 A 
ATOM     75  C   UNL A   1      49.800  27.230  23.679  1.00  0.00     0.055 A 
ATOM     76  C   UNL A   1      50.857  26.821  25.800  1.00  0.00     0.041 A 
ATOM     77  F   UNL A   1      49.590  26.936  27.770  1.00  0.00    -0.206 F 
ATOM     78  C   UNL A   1      50.943  26.905  24.414  1.00  0.00     0.022 A 
BRANCH  75  79
ATOM     79  S   UNL A   1      49.860  27.254  21.867  1.00  0.00     0.124 S 
ATOM     80  O   UNL A   1      48.807  26.307  21.523  1.00  0.00    -0.237 OA
ATOM     81  O   UNL A   1      49.584  28.657  21.575  1.00  0.00    -0.237 OA
ATOM     82  O   UNL A   1      51.221  26.815  21.567  1.00  0.00    -0.744 OA
ENDBRANCH  75  79
ENDBRANCH  48  72
BRANCH  60  83
ATOM     83  C   UNL A   1      45.550  32.825  28.931  1.00  0.00     0.023 A 
ATOM     84  C   UNL A   1      45.366  33.914  28.060  1.00  0.00     0.031 A 
ATOM     85  C   UNL A   1      46.272  33.043  30.118  1.00  0.00     0.131 A 
ATOM     86  C   UNL A   1      45.955  35.152  28.355  1.00  0.00     0.055 A 
ATOM     87  C   UNL A   1      46.800  34.295  30.437  1.00  0.00     0.041 A 
ATOM     88  F   UNL A   1      46.480  32.041  30.985  1.00  0.00    -0.206 F 
ATOM     89  C   UNL A   1      46.657  35.355  29.546  1.00  0.00     0.022 A 
BRANCH  86  90
ATOM     90  S   UNL A   1      45.887  36.467  27.106  1.00  0.00     0.124 S 
ATOM     91  O   UNL A   1      46.478  35.812  25.944  1.00  0.00    -0.237 OA
ATOM     92  O   UNL A   1      44.457  36.743  27.023  1.00  0.00    -0.237 OA
ATOM     93  O   UNL A   1      46.693  37.537  27.690  1.00  0.00    -0.744 OA
ENDBRANCH  86  90
ENDBRANCH  60  83
ENDBRANCH  34  35
ENDBRANCH  26  29
ENDBRANCH  24  25
ENDBRANCH   1  24
TORSDOF 16
ENDMDL
