MODEL 1
REMARK VINA RESULT:     -12.0      0.000      0.000
REMARK SMILES O=C(NCCCNC(=O)[C@H]1CSC2(CCCCC2)[NH2+]1)c1ccc(-c2c3nc(c(-c4cc(S(=O)(=O)[O-])ccc4F)c4ccc([nH]4)c(-c4cc(S(=O)(=O)[O-])ccc4F)c4nc(c(-c5cc(S(=O)(=O)[O-])ccc5F)c5ccc2[nH]5)C=C4)C=C3)cc1
REMARK SMILES IDX 1 1 2 2 3 3 20 5 21 6 82 7 22 8 81 9 23 10 24 11 25 12 75 13
REMARK SMILES IDX 26 14 80 15 74 16 76 17 27 18 79 19 73 20 72 21 28 23 60 24
REMARK SMILES IDX 40 25 59 26 41 27 44 28 58 29 77 30 42 31 43 32 57 34 78 35
REMARK SMILES IDX 45 36 29 37 30 38 38 39 31 40 37 41 39 42 36 43 32 44 33 45
REMARK SMILES IDX 34 46 35 47 61 48 62 49 70 50 63 51 69 52 71 53 68 54 64 55
REMARK SMILES IDX 65 56 66 57 67 58 46 59 47 60 55 61 48 62 54 63 56 64 53 65
REMARK SMILES IDX 49 66 50 67 51 68 52 69 4 70 5 71 6 72 7 73 8 74 9 76 10 77
REMARK SMILES IDX 11 78 19 79 12 80 13 81 14 84 18 85 15 86 17 87 16 88
REMARK H PARENT 3 4 76 22 44 33 7 75 19 82 19 83
REMARK Flexibility Score: inf
ROOT
ATOM      1  O   UNL A   1      32.623  35.519  28.914  1.00  0.00    -0.269 OA
ATOM      2  C   UNL A   1      33.142  34.452  28.612  1.00  0.00     0.251 C 
ATOM      3  N   UNL A   1      32.590  33.675  27.623  1.00  0.00    -0.352 N 
ATOM      4  H   UNL A   1      31.917  34.126  27.062  1.00  0.00     0.163 HD
ENDROOT
BRANCH   2   5
ATOM      5  C   UNL A   1      34.368  33.989  29.289  1.00  0.00     0.039 A 
ATOM      6  C   UNL A   1      34.266  33.146  30.398  1.00  0.00     0.014 A 
ATOM      7  C   UNL A   1      35.621  34.369  28.805  1.00  0.00     0.014 A 
ATOM      8  C   UNL A   1      35.398  32.806  31.114  1.00  0.00     0.010 A 
ATOM      9  C   UNL A   1      36.772  33.915  29.451  1.00  0.00     0.010 A 
ATOM     10  C   UNL A   1      36.664  33.131  30.611  1.00  0.00    -0.014 A 
BRANCH  10  11
ATOM     11  C   UNL A   1      37.847  32.493  31.230  1.00  0.00     0.031 A 
ATOM     12  C   UNL A   1      38.561  31.360  30.560  1.00  0.00     0.074 A 
ATOM     13  C   UNL A   1      38.260  32.978  32.419  1.00  0.00     0.049 A 
ATOM     14  N   UNL A   1      39.584  30.671  30.994  1.00  0.00    -0.248 NA
ATOM     15  C   UNL A   1      38.065  30.936  29.242  1.00  0.00     0.031 C 
ATOM     16  C   UNL A   1      37.620  34.086  33.142  1.00  0.00     0.029 A 
ATOM     17  N   UNL A   1      39.307  32.624  33.228  1.00  0.00    -0.354 N 
ATOM     18  C   UNL A   1      39.840  29.716  30.020  1.00  0.00     0.074 A 
ATOM     19  C   UNL A   1      38.860  29.907  28.972  1.00  0.00     0.031 C 
ATOM     20  C   UNL A   1      38.307  34.341  34.263  1.00  0.00     0.029 A 
ATOM     21  C   UNL A   1      39.368  33.354  34.394  1.00  0.00     0.049 A 
ATOM     22  H   UNL A   1      39.952  31.917  32.998  1.00  0.00     0.167 HD
ATOM     23  C   UNL A   1      40.806  28.765  30.020  1.00  0.00     0.034 A 
ATOM     24  C   UNL A   1      40.152  33.207  35.477  1.00  0.00     0.034 A 
ATOM     25  C   UNL A   1      41.775  28.613  31.079  1.00  0.00     0.049 A 
ATOM     26  C   UNL A   1      41.171  32.102  35.465  1.00  0.00     0.074 A 
ATOM     27  C   UNL A   1      42.842  27.736  31.145  1.00  0.00     0.029 A 
ATOM     28  N   UNL A   1      41.778  29.334  32.267  1.00  0.00    -0.354 N 
ATOM     29  N   UNL A   1      41.440  31.244  34.508  1.00  0.00    -0.248 NA
ATOM     30  C   UNL A   1      41.986  31.939  36.673  1.00  0.00     0.031 C 
ATOM     31  C   UNL A   1      43.434  27.862  32.406  1.00  0.00     0.029 A 
ATOM     32  C   UNL A   1      42.791  28.878  33.096  1.00  0.00     0.049 A 
ATOM     33  H   UNL A   1      41.153  30.062  32.488  1.00  0.00     0.167 HD
ATOM     34  C   UNL A   1      42.465  30.444  34.998  1.00  0.00     0.074 A 
ATOM     35  C   UNL A   1      42.788  30.946  36.318  1.00  0.00     0.031 C 
ATOM     36  C   UNL A   1      43.080  29.384  34.416  1.00  0.00     0.034 A 
BRANCH  23  37
ATOM     37  C   UNL A   1      40.838  27.779  28.880  1.00  0.00     0.023 A 
ATOM     38  C   UNL A   1      41.778  27.861  27.840  1.00  0.00     0.031 A 
ATOM     39  C   UNL A   1      39.931  26.702  28.868  1.00  0.00     0.131 A 
ATOM     40  C   UNL A   1      41.771  26.901  26.814  1.00  0.00     0.055 A 
ATOM     41  C   UNL A   1      39.970  25.717  27.880  1.00  0.00     0.041 A 
ATOM     42  F   UNL A   1      38.997  26.587  29.825  1.00  0.00    -0.206 F 
ATOM     43  C   UNL A   1      40.890  25.816  26.842  1.00  0.00     0.022 A 
BRANCH  40  44
ATOM     44  S   UNL A   1      42.873  27.134  25.393  1.00  0.00     0.124 S 
ATOM     45  O   UNL A   1      42.223  28.239  24.691  1.00  0.00    -0.237 OA
ATOM     46  O   UNL A   1      44.148  27.445  26.029  1.00  0.00    -0.237 OA
ATOM     47  O   UNL A   1      42.819  25.848  24.701  1.00  0.00    -0.744 OA
ENDBRANCH  40  44
ENDBRANCH  23  37
BRANCH  24  48
ATOM     48  C   UNL A   1      39.948  34.061  36.683  1.00  0.00     0.023 A 
ATOM     49  C   UNL A   1      39.409  33.531  37.862  1.00  0.00     0.031 A 
ATOM     50  C   UNL A   1      40.235  35.440  36.652  1.00  0.00     0.131 A 
ATOM     51  C   UNL A   1      39.111  34.382  38.938  1.00  0.00     0.055 A 
ATOM     52  C   UNL A   1      40.008  36.268  37.750  1.00  0.00     0.041 A 
ATOM     53  F   UNL A   1      40.751  36.005  35.547  1.00  0.00    -0.206 F 
ATOM     54  C   UNL A   1      39.424  35.743  38.897  1.00  0.00     0.022 A 
BRANCH  51  55
ATOM     55  S   UNL A   1      38.182  33.706  40.340  1.00  0.00     0.124 S 
ATOM     56  O   UNL A   1      39.120  32.719  40.866  1.00  0.00    -0.237 OA
ATOM     57  O   UNL A   1      37.970  34.892  41.161  1.00  0.00    -0.237 OA
ATOM     58  O   UNL A   1      36.981  33.155  39.716  1.00  0.00    -0.744 OA
ENDBRANCH  51  55
ENDBRANCH  24  48
BRANCH  36  59
ATOM     59  C   UNL A   1      44.175  28.720  35.210  1.00  0.00     0.023 A 
ATOM     60  C   UNL A   1      43.901  27.655  36.084  1.00  0.00     0.031 A 
ATOM     61  C   UNL A   1      45.504  29.163  35.097  1.00  0.00     0.131 A 
ATOM     62  C   UNL A   1      44.934  27.099  36.849  1.00  0.00     0.055 A 
ATOM     63  C   UNL A   1      46.539  28.563  35.812  1.00  0.00     0.041 A 
ATOM     64  F   UNL A   1      45.818  30.183  34.281  1.00  0.00    -0.206 F 
ATOM     65  C   UNL A   1      46.256  27.532  36.703  1.00  0.00     0.022 A 
BRANCH  62  66
ATOM     66  S   UNL A   1      44.518  25.853  38.099  1.00  0.00     0.124 S 
ATOM     67  O   UNL A   1      43.917  24.800  37.286  1.00  0.00    -0.237 OA
ATOM     68  O   UNL A   1      45.819  25.545  38.682  1.00  0.00    -0.237 OA
ATOM     69  O   UNL A   1      43.592  26.555  38.987  1.00  0.00    -0.744 OA
ENDBRANCH  62  66
ENDBRANCH  36  59
ENDBRANCH  10  11
ENDBRANCH   2   5
BRANCH   3  70
ATOM     70  C   UNL A   1      32.852  32.279  27.279  1.00  0.00     0.118 C 
BRANCH  70  71
ATOM     71  C   UNL A   1      31.689  31.651  26.541  1.00  0.00     0.042 C 
BRANCH  71  72
ATOM     72  C   UNL A   1      31.909  30.174  26.314  1.00  0.00     0.118 C 
BRANCH  72  73
ATOM     73  N   UNL A   1      32.277  29.831  24.958  1.00  0.00    -0.351 N 
ATOM     74  C   UNL A   1      31.873  28.838  24.128  1.00  0.00     0.279 C 
ATOM     75  H   UNL A   1      32.950  30.433  24.563  1.00  0.00     0.163 HD
ATOM     76  O   UNL A   1      32.198  28.974  22.940  1.00  0.00    -0.268 OA
BRANCH  74  77
ATOM     77  C   UNL A   1      31.016  27.614  24.535  1.00  0.00     0.283 C 
ATOM     78  C   UNL A   1      30.676  26.591  23.473  1.00  0.00     0.151 C 
ATOM     79  N   UNL A   1      31.482  26.958  25.782  1.00  0.00    -0.322 N 
ATOM     80  S   UNL A   1      31.700  25.149  23.837  1.00  0.00    -0.089 SA
ATOM     81  C   UNL A   1      32.257  25.751  25.487  1.00  0.00     0.143 C 
ATOM     82  H   UNL A   1      30.672  26.703  26.347  1.00  0.00     0.348 HD
ATOM     83  H   UNL A   1      32.081  27.611  26.287  1.00  0.00     0.348 HD
ATOM     84  C   UNL A   1      33.768  26.048  25.644  1.00  0.00     0.081 C 
ATOM     85  C   UNL A   1      31.924  24.625  26.491  1.00  0.00     0.081 C 
ATOM     86  C   UNL A   1      34.653  24.841  25.356  1.00  0.00     0.007 C 
ATOM     87  C   UNL A   1      32.793  23.370  26.280  1.00  0.00     0.007 C 
ATOM     88  C   UNL A   1      34.290  23.678  26.274  1.00  0.00     0.001 C 
ENDBRANCH  74  77
ENDBRANCH  72  73
ENDBRANCH  71  72
ENDBRANCH  70  71
ENDBRANCH   3  70
TORSDOF 13
ENDMDL
MODEL 2
REMARK VINA RESULT:     -11.9      6.022     11.883
REMARK SMILES O=C(NCCCNC(=O)[C@H]1CSC2(CCCCC2)[NH2+]1)c1ccc(-c2c3nc(c(-c4cc(S(=O)(=O)[O-])ccc4F)c4ccc([nH]4)c(-c4cc(S(=O)(=O)[O-])ccc4F)c4nc(c(-c5cc(S(=O)(=O)[O-])ccc5F)c5ccc2[nH]5)C=C4)C=C3)cc1
REMARK SMILES IDX 1 1 2 2 3 3 20 5 21 6 82 7 22 8 81 9 23 10 24 11 25 12 75 13
REMARK SMILES IDX 26 14 80 15 74 16 76 17 27 18 79 19 73 20 72 21 28 23 60 24
REMARK SMILES IDX 40 25 59 26 41 27 44 28 58 29 77 30 42 31 43 32 57 34 78 35
REMARK SMILES IDX 45 36 29 37 30 38 38 39 31 40 37 41 39 42 36 43 32 44 33 45
REMARK SMILES IDX 34 46 35 47 61 48 62 49 70 50 63 51 69 52 71 53 68 54 64 55
REMARK SMILES IDX 65 56 66 57 67 58 46 59 47 60 55 61 48 62 54 63 56 64 53 65
REMARK SMILES IDX 49 66 50 67 51 68 52 69 4 70 5 71 6 72 7 73 8 74 9 76 10 77
REMARK SMILES IDX 11 78 19 79 12 80 13 81 14 84 18 85 15 86 17 87 16 88
REMARK H PARENT 3 4 76 22 44 33 7 75 19 82 19 83
REMARK Flexibility Score: inf
ROOT
ATOM      1  O   UNL A   1      42.245  18.505  25.832  1.00  0.00    -0.269 OA
ATOM      2  C   UNL A   1      41.536  19.484  26.031  1.00  0.00     0.251 C 
ATOM      3  N   UNL A   1      40.172  19.379  25.914  1.00  0.00    -0.352 N 
ATOM      4  H   UNL A   1      39.824  18.458  25.878  1.00  0.00     0.163 HD
ENDROOT
BRANCH   2   5
ATOM      5  C   UNL A   1      42.128  20.781  26.411  1.00  0.00     0.039 A 
ATOM      6  C   UNL A   1      42.462  21.703  25.416  1.00  0.00     0.014 A 
ATOM      7  C   UNL A   1      42.324  21.093  27.758  1.00  0.00     0.014 A 
ATOM      8  C   UNL A   1      43.128  22.867  25.750  1.00  0.00     0.010 A 
ATOM      9  C   UNL A   1      42.875  22.329  28.101  1.00  0.00     0.010 A 
ATOM     10  C   UNL A   1      43.282  23.221  27.096  1.00  0.00    -0.014 A 
BRANCH  10  11
ATOM     11  C   UNL A   1      43.714  24.600  27.411  1.00  0.00     0.031 A 
ATOM     12  C   UNL A   1      42.747  25.623  27.923  1.00  0.00     0.074 A 
ATOM     13  C   UNL A   1      45.017  24.897  27.225  1.00  0.00     0.049 A 
ATOM     14  N   UNL A   1      42.964  26.880  28.204  1.00  0.00    -0.248 NA
ATOM     15  C   UNL A   1      41.359  25.188  28.141  1.00  0.00     0.031 C 
ATOM     16  C   UNL A   1      46.031  23.956  26.730  1.00  0.00     0.029 A 
ATOM     17  N   UNL A   1      45.721  26.053  27.432  1.00  0.00    -0.354 N 
ATOM     18  C   UNL A   1      41.740  27.398  28.606  1.00  0.00     0.074 A 
ATOM     19  C   UNL A   1      40.779  26.319  28.526  1.00  0.00     0.031 C 
ATOM     20  C   UNL A   1      47.225  24.560  26.707  1.00  0.00     0.029 A 
ATOM     21  C   UNL A   1      47.049  25.955  27.081  1.00  0.00     0.049 A 
ATOM     22  H   UNL A   1      45.318  26.874  27.796  1.00  0.00     0.167 HD
ATOM     23  C   UNL A   1      41.459  28.665  28.996  1.00  0.00     0.034 A 
ATOM     24  C   UNL A   1      48.007  26.896  27.010  1.00  0.00     0.034 A 
ATOM     25  C   UNL A   1      42.450  29.713  29.074  1.00  0.00     0.049 A 
ATOM     26  C   UNL A   1      47.642  28.304  27.392  1.00  0.00     0.074 A 
ATOM     27  C   UNL A   1      42.291  31.010  29.529  1.00  0.00     0.029 A 
ATOM     28  N   UNL A   1      43.772  29.594  28.665  1.00  0.00    -0.354 N 
ATOM     29  N   UNL A   1      46.491  28.764  27.828  1.00  0.00    -0.248 NA
ATOM     30  C   UNL A   1      48.692  29.319  27.268  1.00  0.00     0.031 C 
ATOM     31  C   UNL A   1      43.488  31.699  29.310  1.00  0.00     0.029 A 
ATOM     32  C   UNL A   1      44.422  30.811  28.799  1.00  0.00     0.049 A 
ATOM     33  H   UNL A   1      44.187  28.766  28.329  1.00  0.00     0.167 HD
ATOM     34  C   UNL A   1      46.686  30.123  28.039  1.00  0.00     0.074 A 
ATOM     35  C   UNL A   1      48.072  30.398  27.719  1.00  0.00     0.031 C 
ATOM     36  C   UNL A   1      45.800  31.063  28.454  1.00  0.00     0.034 A 
BRANCH  23  37
ATOM     37  C   UNL A   1      40.028  29.015  29.311  1.00  0.00     0.023 A 
ATOM     38  C   UNL A   1      39.556  29.140  30.628  1.00  0.00     0.031 A 
ATOM     39  C   UNL A   1      39.129  29.277  28.260  1.00  0.00     0.131 A 
ATOM     40  C   UNL A   1      38.214  29.487  30.860  1.00  0.00     0.055 A 
ATOM     41  C   UNL A   1      37.814  29.683  28.497  1.00  0.00     0.041 A 
ATOM     42  F   UNL A   1      39.519  29.152  26.982  1.00  0.00    -0.206 F 
ATOM     43  C   UNL A   1      37.349  29.784  29.803  1.00  0.00     0.022 A 
BRANCH  40  44
ATOM     44  S   UNL A   1      37.588  29.462  32.562  1.00  0.00     0.124 S 
ATOM     45  O   UNL A   1      38.591  30.265  33.259  1.00  0.00    -0.237 OA
ATOM     46  O   UNL A   1      36.270  30.069  32.423  1.00  0.00    -0.237 OA
ATOM     47  O   UNL A   1      37.588  28.042  32.908  1.00  0.00    -0.744 OA
ENDBRANCH  40  44
ENDBRANCH  23  37
BRANCH  24  48
ATOM     48  C   UNL A   1      49.361  26.563  26.482  1.00  0.00     0.023 A 
ATOM     49  C   UNL A   1      49.813  27.090  25.265  1.00  0.00     0.031 A 
ATOM     50  C   UNL A   1      50.202  25.659  27.161  1.00  0.00     0.131 A 
ATOM     51  C   UNL A   1      51.039  26.662  24.731  1.00  0.00     0.055 A 
ATOM     52  C   UNL A   1      51.453  25.295  26.664  1.00  0.00     0.041 A 
ATOM     53  F   UNL A   1      49.821  25.120  28.331  1.00  0.00    -0.206 F 
ATOM     54  C   UNL A   1      51.869  25.783  25.430  1.00  0.00     0.022 A 
BRANCH  51  55
ATOM     55  S   UNL A   1      51.467  27.167  23.044  1.00  0.00     0.124 S 
ATOM     56  O   UNL A   1      51.673  28.601  23.209  1.00  0.00    -0.237 OA
ATOM     57  O   UNL A   1      52.662  26.371  22.785  1.00  0.00    -0.237 OA
ATOM     58  O   UNL A   1      50.287  26.791  22.268  1.00  0.00    -0.744 OA
ENDBRANCH  51  55
ENDBRANCH  24  48
BRANCH  36  59
ATOM     59  C   UNL A   1      46.325  32.469  28.596  1.00  0.00     0.023 A 
ATOM     60  C   UNL A   1      46.402  33.334  27.493  1.00  0.00     0.031 A 
ATOM     61  C   UNL A   1      46.758  32.942  29.845  1.00  0.00     0.131 A 
ATOM     62  C   UNL A   1      46.949  34.615  27.649  1.00  0.00     0.055 A 
ATOM     63  C   UNL A   1      47.240  34.240  30.010  1.00  0.00     0.041 A 
ATOM     64  F   UNL A   1      46.712  32.152  30.930  1.00  0.00    -0.206 F 
ATOM     65  C   UNL A   1      47.349  35.081  28.905  1.00  0.00     0.022 A 
BRANCH  62  66
ATOM     66  S   UNL A   1      47.204  35.638  26.176  1.00  0.00     0.124 S 
ATOM     67  O   UNL A   1      46.040  36.519  26.214  1.00  0.00    -0.237 OA
ATOM     68  O   UNL A   1      48.490  36.269  26.450  1.00  0.00    -0.237 OA
ATOM     69  O   UNL A   1      47.212  34.668  25.081  1.00  0.00    -0.744 OA
ENDBRANCH  62  66
ENDBRANCH  36  59
ENDBRANCH  10  11
ENDBRANCH   2   5
BRANCH   3  70
ATOM     70  C   UNL A   1      39.161  20.430  25.832  1.00  0.00     0.118 C 
BRANCH  70  71
ATOM     71  C   UNL A   1      37.935  19.977  25.068  1.00  0.00     0.042 C 
BRANCH  71  72
ATOM     72  C   UNL A   1      36.956  21.110  24.866  1.00  0.00     0.118 C 
BRANCH  72  73
ATOM     73  N   UNL A   1      35.854  21.115  25.801  1.00  0.00    -0.351 N 
ATOM     74  C   UNL A   1      34.523  21.321  25.639  1.00  0.00     0.279 C 
ATOM     75  H   UNL A   1      36.119  20.934  26.732  1.00  0.00     0.163 HD
ATOM     76  O   UNL A   1      33.816  21.007  26.606  1.00  0.00    -0.268 OA
BRANCH  74  77
ATOM     77  C   UNL A   1      33.843  21.854  24.354  1.00  0.00     0.283 C 
ATOM     78  C   UNL A   1      32.336  21.999  24.348  1.00  0.00     0.151 C 
ATOM     79  N   UNL A   1      34.499  23.064  23.799  1.00  0.00    -0.322 N 
ATOM     80  S   UNL A   1      32.014  23.772  24.448  1.00  0.00    -0.089 SA
ATOM     81  C   UNL A   1      33.761  24.277  24.154  1.00  0.00     0.143 C 
ATOM     82  H   UNL A   1      34.538  22.984  22.782  1.00  0.00     0.348 HD
ATOM     83  H   UNL A   1      35.439  23.130  24.190  1.00  0.00     0.348 HD
ATOM     84  C   UNL A   1      34.480  25.005  25.316  1.00  0.00     0.081 C 
ATOM     85  C   UNL A   1      33.729  25.268  22.968  1.00  0.00     0.081 C 
ATOM     86  C   UNL A   1      33.776  26.286  25.751  1.00  0.00     0.007 C 
ATOM     87  C   UNL A   1      33.051  26.602  23.332  1.00  0.00     0.007 C 
ATOM     88  C   UNL A   1      33.650  27.253  24.579  1.00  0.00     0.001 C 
ENDBRANCH  74  77
ENDBRANCH  72  73
ENDBRANCH  71  72
ENDBRANCH  70  71
ENDBRANCH   3  70
TORSDOF 13
ENDMDL
MODEL 3
REMARK VINA RESULT:     -11.9      1.369      2.571
REMARK SMILES O=C(NCCCNC(=O)[C@H]1CSC2(CCCCC2)[NH2+]1)c1ccc(-c2c3nc(c(-c4cc(S(=O)(=O)[O-])ccc4F)c4ccc([nH]4)c(-c4cc(S(=O)(=O)[O-])ccc4F)c4nc(c(-c5cc(S(=O)(=O)[O-])ccc5F)c5ccc2[nH]5)C=C4)C=C3)cc1
REMARK SMILES IDX 1 1 2 2 3 3 20 5 21 6 82 7 22 8 81 9 23 10 24 11 25 12 75 13
REMARK SMILES IDX 26 14 80 15 74 16 76 17 27 18 79 19 73 20 72 21 28 23 60 24
REMARK SMILES IDX 40 25 59 26 41 27 44 28 58 29 77 30 42 31 43 32 57 34 78 35
REMARK SMILES IDX 45 36 29 37 30 38 38 39 31 40 37 41 39 42 36 43 32 44 33 45
REMARK SMILES IDX 34 46 35 47 61 48 62 49 70 50 63 51 69 52 71 53 68 54 64 55
REMARK SMILES IDX 65 56 66 57 67 58 46 59 47 60 55 61 48 62 54 63 56 64 53 65
REMARK SMILES IDX 49 66 50 67 51 68 52 69 4 70 5 71 6 72 7 73 8 74 9 76 10 77
REMARK SMILES IDX 11 78 19 79 12 80 13 81 14 84 18 85 15 86 17 87 16 88
REMARK H PARENT 3 4 76 22 44 33 7 75 19 82 19 83
REMARK Flexibility Score: inf
ROOT
ATOM      1  O   UNL A   1      32.680  35.471  28.916  1.00  0.00    -0.269 OA
ATOM      2  C   UNL A   1      33.204  34.405  28.618  1.00  0.00     0.251 C 
ATOM      3  N   UNL A   1      32.668  33.633  27.617  1.00  0.00    -0.352 N 
ATOM      4  H   UNL A   1      32.004  34.086  27.047  1.00  0.00     0.163 HD
ENDROOT
BRANCH   2   5
ATOM      5  C   UNL A   1      34.419  33.939  29.314  1.00  0.00     0.039 A 
ATOM      6  C   UNL A   1      34.304  33.021  30.360  1.00  0.00     0.014 A 
ATOM      7  C   UNL A   1      35.675  34.394  28.908  1.00  0.00     0.014 A 
ATOM      8  C   UNL A   1      35.419  32.672  31.098  1.00  0.00     0.010 A 
ATOM      9  C   UNL A   1      36.815  33.936  29.570  1.00  0.00     0.010 A 
ATOM     10  C   UNL A   1      36.691  33.073  30.671  1.00  0.00    -0.014 A 
BRANCH  10  11
ATOM     11  C   UNL A   1      37.871  32.435  31.294  1.00  0.00     0.031 A 
ATOM     12  C   UNL A   1      38.597  31.312  30.621  1.00  0.00     0.074 A 
ATOM     13  C   UNL A   1      38.270  32.911  32.492  1.00  0.00     0.049 A 
ATOM     14  N   UNL A   1      39.619  30.625  31.057  1.00  0.00    -0.248 NA
ATOM     15  C   UNL A   1      38.115  30.898  29.294  1.00  0.00     0.031 C 
ATOM     16  C   UNL A   1      37.618  34.008  33.220  1.00  0.00     0.029 A 
ATOM     17  N   UNL A   1      39.311  32.555  33.307  1.00  0.00    -0.354 N 
ATOM     18  C   UNL A   1      39.890  29.679  30.077  1.00  0.00     0.074 A 
ATOM     19  C   UNL A   1      38.918  29.876  29.022  1.00  0.00     0.031 C 
ATOM     20  C   UNL A   1      38.293  34.256  34.349  1.00  0.00     0.029 A 
ATOM     21  C   UNL A   1      39.357  33.273  34.480  1.00  0.00     0.049 A 
ATOM     22  H   UNL A   1      39.963  31.853  33.077  1.00  0.00     0.167 HD
ATOM     23  C   UNL A   1      40.861  28.734  30.077  1.00  0.00     0.034 A 
ATOM     24  C   UNL A   1      40.132  33.120  35.569  1.00  0.00     0.034 A 
ATOM     25  C   UNL A   1      41.820  28.577  31.144  1.00  0.00     0.049 A 
ATOM     26  C   UNL A   1      41.157  32.021  35.557  1.00  0.00     0.074 A 
ATOM     27  C   UNL A   1      42.891  27.704  31.212  1.00  0.00     0.029 A 
ATOM     28  N   UNL A   1      41.809  29.286  32.339  1.00  0.00    -0.354 N 
ATOM     29  N   UNL A   1      41.439  31.173  34.594  1.00  0.00    -0.248 NA
ATOM     30  C   UNL A   1      41.962  31.850  36.771  1.00  0.00     0.031 C 
ATOM     31  C   UNL A   1      43.470  27.821  32.479  1.00  0.00     0.029 A 
ATOM     32  C   UNL A   1      42.816  28.828  33.173  1.00  0.00     0.049 A 
ATOM     33  H   UNL A   1      41.178  30.009  32.560  1.00  0.00     0.167 HD
ATOM     34  C   UNL A   1      42.463  30.373  35.086  1.00  0.00     0.074 A 
ATOM     35  C   UNL A   1      42.772  30.865  36.414  1.00  0.00     0.031 C 
ATOM     36  C   UNL A   1      43.090  29.322  34.500  1.00  0.00     0.034 A 
BRANCH  23  37
ATOM     37  C   UNL A   1      40.909  27.758  28.928  1.00  0.00     0.023 A 
ATOM     38  C   UNL A   1      41.823  27.885  27.871  1.00  0.00     0.031 A 
ATOM     39  C   UNL A   1      40.044  26.647  28.925  1.00  0.00     0.131 A 
ATOM     40  C   UNL A   1      41.833  26.934  26.837  1.00  0.00     0.055 A 
ATOM     41  C   UNL A   1      40.101  25.672  27.928  1.00  0.00     0.041 A 
ATOM     42  F   UNL A   1      39.135  26.487  29.899  1.00  0.00    -0.206 F 
ATOM     43  C   UNL A   1      40.996  25.815  26.873  1.00  0.00     0.022 A 
BRANCH  40  44
ATOM     44  S   UNL A   1      42.897  27.222  25.396  1.00  0.00     0.124 S 
ATOM     45  O   UNL A   1      42.869  25.916  24.741  1.00  0.00    -0.237 OA
ATOM     46  O   UNL A   1      42.203  28.300  24.702  1.00  0.00    -0.237 OA
ATOM     47  O   UNL A   1      44.183  27.587  25.987  1.00  0.00    -0.744 OA
ENDBRANCH  40  44
ENDBRANCH  23  37
BRANCH  24  48
ATOM     48  C   UNL A   1      39.912  33.961  36.781  1.00  0.00     0.023 A 
ATOM     49  C   UNL A   1      39.335  33.425  37.939  1.00  0.00     0.031 A 
ATOM     50  C   UNL A   1      40.223  35.336  36.776  1.00  0.00     0.131 A 
ATOM     51  C   UNL A   1      39.025  34.267  39.019  1.00  0.00     0.055 A 
ATOM     52  C   UNL A   1      39.983  36.153  37.880  1.00  0.00     0.041 A 
ATOM     53  F   UNL A   1      40.776  35.906  35.693  1.00  0.00    -0.206 F 
ATOM     54  C   UNL A   1      39.362  35.623  39.004  1.00  0.00     0.022 A 
BRANCH  51  55
ATOM     55  S   UNL A   1      38.050  33.589  40.388  1.00  0.00     0.124 S 
ATOM     56  O   UNL A   1      37.861  34.767  41.228  1.00  0.00    -0.237 OA
ATOM     57  O   UNL A   1      36.864  33.095  39.697  1.00  0.00    -0.237 OA
ATOM     58  O   UNL A   1      38.922  32.557  40.946  1.00  0.00    -0.744 OA
ENDBRANCH  51  55
ENDBRANCH  24  48
BRANCH  36  59
ATOM     59  C   UNL A   1      44.181  28.656  35.298  1.00  0.00     0.023 A 
ATOM     60  C   UNL A   1      43.902  27.588  36.167  1.00  0.00     0.031 A 
ATOM     61  C   UNL A   1      45.509  29.100  35.194  1.00  0.00     0.131 A 
ATOM     62  C   UNL A   1      44.932  27.030  36.937  1.00  0.00     0.055 A 
ATOM     63  C   UNL A   1      46.541  28.499  35.913  1.00  0.00     0.041 A 
ATOM     64  F   UNL A   1      45.827  30.123  34.384  1.00  0.00    -0.206 F 
ATOM     65  C   UNL A   1      46.253  27.464  36.799  1.00  0.00     0.022 A 
BRANCH  62  66
ATOM     66  S   UNL A   1      44.509  25.780  38.179  1.00  0.00     0.124 S 
ATOM     67  O   UNL A   1      43.491  24.997  37.485  1.00  0.00    -0.237 OA
ATOM     68  O   UNL A   1      45.787  25.113  38.402  1.00  0.00    -0.237 OA
ATOM     69  O   UNL A   1      44.019  26.571  39.308  1.00  0.00    -0.744 OA
ENDBRANCH  62  66
ENDBRANCH  36  59
ENDBRANCH  10  11
ENDBRANCH   2   5
BRANCH   3  70
ATOM     70  C   UNL A   1      32.936  32.239  27.272  1.00  0.00     0.118 C 
BRANCH  70  71
ATOM     71  C   UNL A   1      31.784  31.612  26.516  1.00  0.00     0.042 C 
BRANCH  71  72
ATOM     72  C   UNL A   1      32.221  30.380  25.758  1.00  0.00     0.118 C 
BRANCH  72  73
ATOM     73  N   UNL A   1      31.628  29.150  26.234  1.00  0.00    -0.351 N 
ATOM     74  C   UNL A   1      31.203  28.035  25.590  1.00  0.00     0.279 C 
ATOM     75  H   UNL A   1      31.510  29.116  27.212  1.00  0.00     0.163 HD
ATOM     76  O   UNL A   1      30.975  27.057  26.316  1.00  0.00    -0.268 OA
BRANCH  74  77
ATOM     77  C   UNL A   1      31.039  27.886  24.057  1.00  0.00     0.283 C 
ATOM     78  C   UNL A   1      29.924  27.003  23.538  1.00  0.00     0.151 C 
ATOM     79  N   UNL A   1      31.079  29.180  23.332  1.00  0.00    -0.322 N 
ATOM     80  S   UNL A   1      28.671  28.128  22.887  1.00  0.00    -0.089 SA
ATOM     81  C   UNL A   1      29.732  29.632  22.980  1.00  0.00     0.143 C 
ATOM     82  H   UNL A   1      31.625  29.066  22.478  1.00  0.00     0.348 HD
ATOM     83  H   UNL A   1      31.506  29.879  23.940  1.00  0.00     0.348 HD
ATOM     84  C   UNL A   1      29.280  30.742  23.961  1.00  0.00     0.081 C 
ATOM     85  C   UNL A   1      29.714  30.260  21.569  1.00  0.00     0.081 C 
ATOM     86  C   UNL A   1      27.882  31.273  23.666  1.00  0.00     0.007 C 
ATOM     87  C   UNL A   1      28.336  30.843  21.199  1.00  0.00     0.007 C 
ATOM     88  C   UNL A   1      27.805  31.823  22.246  1.00  0.00     0.001 C 
ENDBRANCH  74  77
ENDBRANCH  72  73
ENDBRANCH  71  72
ENDBRANCH  70  71
ENDBRANCH   3  70
TORSDOF 13
ENDMDL
