MODEL 1
REMARK VINA RESULT:     -12.6      0.000      0.000
REMARK SMILES C#Cc1cc(Cl)cc2c1O[C@H](C(F)(F)F)C(C(=O)NCCCNC(=O)c1ccc(-c3c4nc(c(-c5cc(S(=O)(=O)[O-])ccc5F)c5ccc([nH]5)c(-c5cc(S(=O)(=O)[O-])ccc5F)c5nc(c(-c6cc(S(=O)(=O)[O-])ccc6F)c6ccc3[nH]6)C=C5)C=C4)cc1)=C2
REMARK SMILES IDX 22 1 21 2 20 3 19 4 17 5 18 6 16 8 3 9 4 10 9 11 5 12 8 13
REMARK SMILES IDX 10 14 6 15 7 16 89 17 11 18 2 19 1 20 12 21 13 22 14 23
REMARK SMILES IDX 15 24 23 25 24 26 25 28 26 29 27 30 88 31 28 32 87 33 29 34
REMARK SMILES IDX 30 35 31 36 81 37 32 38 86 39 80 40 82 41 33 42 85 43 79 44
REMARK SMILES IDX 78 45 34 47 66 48 46 49 65 50 47 51 50 52 64 53 83 54 48 55
REMARK SMILES IDX 49 56 63 58 84 59 51 60 35 61 36 62 44 63 37 64 43 65 45 66
REMARK SMILES IDX 42 67 38 68 39 69 40 70 41 71 67 72 68 73 76 74 69 75 75 76
REMARK SMILES IDX 77 77 74 78 70 79 71 80 72 81 73 82 52 83 53 84 61 85 54 86
REMARK SMILES IDX 60 87 62 88 59 89 55 90 56 91 57 92 58 93
REMARK H PARENT 19 7 23 27 82 46 50 57
REMARK Flexibility Score: inf
ROOT
ATOM      1  C   UNL A   1      32.907  32.563  27.320  1.00  0.00     0.118 C 
ENDROOT
BRANCH   1   2
ATOM      2  C   UNL A   1      31.646  31.865  26.838  1.00  0.00     0.042 C 
BRANCH   2   3
ATOM      3  C   UNL A   1      31.881  30.382  26.622  1.00  0.00     0.118 C 
BRANCH   3   4
ATOM      4  N   UNL A   1      32.485  30.107  25.325  1.00  0.00    -0.352 N 
ATOM      5  C   UNL A   1      32.786  29.017  24.582  1.00  0.00     0.251 C 
ATOM      6  O   UNL A   1      33.285  29.244  23.476  1.00  0.00    -0.270 OA
ATOM      7  H   UNL A   1      32.742  30.938  24.865  1.00  0.00     0.163 HD
BRANCH   5   8
ATOM      8  C   UNL A   1      32.551  27.609  25.011  1.00  0.00     0.067 C 
ATOM      9  C   UNL A   1      31.996  23.703  26.455  1.00  0.00     0.068 A 
ATOM     10  C   UNL A   1      33.071  22.816  26.489  1.00  0.00     0.041 A 
ATOM     11  C   UNL A   1      32.198  25.018  26.015  1.00  0.00     0.143 A 
ATOM     12  C   UNL A   1      34.334  23.253  26.090  1.00  0.00     0.043 A 
ATOM     13  C   UNL A   1      33.465  25.457  25.616  1.00  0.00     0.020 A 
ATOM     14  O   UNL A   1      31.121  25.857  26.043  1.00  0.00    -0.474 OA
ATOM     15  Cl  UNL A   1      35.663  22.159  26.140  1.00  0.00    -0.084 Cl
ATOM     16  C   UNL A   1      34.538  24.567  25.657  1.00  0.00     0.032 A 
ATOM     17  C   UNL A   1      33.644  26.848  25.206  1.00  0.00     0.025 C 
ATOM     18  C   UNL A   1      31.182  27.028  25.200  1.00  0.00     0.314 C 
BRANCH   9  19
ATOM     19  C   UNL A   1      30.690  23.269  26.856  1.00  0.00    -0.067 C 
ATOM     20  C   UNL A   1      29.608  22.843  27.158  1.00  0.00     0.010 C 
ENDBRANCH   9  19
BRANCH  18  21
ATOM     21  C   UNL A   1      30.480  26.730  23.859  1.00  0.00     0.429 C 
ATOM     22  F   UNL A   1      29.303  26.090  24.068  1.00  0.00    -0.167 F 
ATOM     23  F   UNL A   1      30.186  27.853  23.160  1.00  0.00    -0.167 F 
ATOM     24  F   UNL A   1      31.228  25.952  23.044  1.00  0.00    -0.167 F 
ENDBRANCH  18  21
ENDBRANCH   5   8
ENDBRANCH   3   4
ENDBRANCH   2   3
ENDBRANCH   1   2
BRANCH   1  25
ATOM     25  N   UNL A   1      32.675  33.985  27.575  1.00  0.00    -0.352 N 
ATOM     26  C   UNL A   1      33.129  34.782  28.597  1.00  0.00     0.251 C 
ATOM     27  H   UNL A   1      32.106  34.440  26.913  1.00  0.00     0.163 HD
ATOM     28  O   UNL A   1      32.606  35.872  28.801  1.00  0.00    -0.269 OA
BRANCH  26  29
ATOM     29  C   UNL A   1      34.231  34.298  29.446  1.00  0.00     0.039 A 
ATOM     30  C   UNL A   1      33.945  33.582  30.608  1.00  0.00     0.014 A 
ATOM     31  C   UNL A   1      35.553  34.524  29.057  1.00  0.00     0.014 A 
ATOM     32  C   UNL A   1      34.995  33.021  31.333  1.00  0.00     0.010 A 
ATOM     33  C   UNL A   1      36.581  33.859  29.704  1.00  0.00     0.010 A 
ATOM     34  C   UNL A   1      36.315  33.113  30.859  1.00  0.00    -0.014 A 
BRANCH  34  35
ATOM     35  C   UNL A   1      37.434  32.460  31.577  1.00  0.00     0.031 A 
ATOM     36  C   UNL A   1      38.165  31.314  30.932  1.00  0.00     0.074 A 
ATOM     37  C   UNL A   1      37.772  32.886  32.811  1.00  0.00     0.049 A 
ATOM     38  N   UNL A   1      39.163  30.612  31.398  1.00  0.00    -0.248 NA
ATOM     39  C   UNL A   1      37.698  30.882  29.603  1.00  0.00     0.031 C 
ATOM     40  C   UNL A   1      37.103  33.962  33.545  1.00  0.00     0.029 A 
ATOM     41  N   UNL A   1      38.771  32.480  33.658  1.00  0.00    -0.354 N 
ATOM     42  C   UNL A   1      39.448  29.670  30.419  1.00  0.00     0.074 A 
ATOM     43  C   UNL A   1      38.465  29.827  29.373  1.00  0.00     0.031 C 
ATOM     44  C   UNL A   1      37.752  34.175  34.701  1.00  0.00     0.029 A 
ATOM     45  C   UNL A   1      38.847  33.217  34.817  1.00  0.00     0.049 A 
ATOM     46  H   UNL A   1      39.378  31.732  33.455  1.00  0.00     0.167 HD
ATOM     47  C   UNL A   1      40.467  28.781  30.375  1.00  0.00     0.034 A 
ATOM     48  C   UNL A   1      39.705  33.135  35.853  1.00  0.00     0.034 A 
ATOM     49  C   UNL A   1      41.453  28.651  31.413  1.00  0.00     0.049 A 
ATOM     50  C   UNL A   1      40.796  32.097  35.808  1.00  0.00     0.074 A 
ATOM     51  C   UNL A   1      42.547  27.807  31.452  1.00  0.00     0.029 A 
ATOM     52  N   UNL A   1      41.465  29.381  32.592  1.00  0.00    -0.354 N 
ATOM     53  N   UNL A   1      41.070  31.235  34.856  1.00  0.00    -0.248 NA
ATOM     54  C   UNL A   1      41.691  32.016  36.969  1.00  0.00     0.031 C 
ATOM     55  C   UNL A   1      43.178  27.972  32.685  1.00  0.00     0.029 A 
ATOM     56  C   UNL A   1      42.526  28.978  33.383  1.00  0.00     0.049 A 
ATOM     57  H   UNL A   1      40.814  30.081  32.831  1.00  0.00     0.167 HD
ATOM     58  C   UNL A   1      42.184  30.526  35.295  1.00  0.00     0.074 A 
ATOM     59  C   UNL A   1      42.535  31.063  36.593  1.00  0.00     0.031 C 
ATOM     60  C   UNL A   1      42.857  29.524  34.676  1.00  0.00     0.034 A 
BRANCH  47  61
ATOM     61  C   UNL A   1      40.571  27.891  29.166  1.00  0.00     0.023 A 
ATOM     62  C   UNL A   1      41.493  28.160  28.140  1.00  0.00     0.031 A 
ATOM     63  C   UNL A   1      39.768  26.744  29.053  1.00  0.00     0.131 A 
ATOM     64  C   UNL A   1      41.564  27.313  27.025  1.00  0.00     0.055 A 
ATOM     65  C   UNL A   1      39.890  25.869  27.973  1.00  0.00     0.041 A 
ATOM     66  F   UNL A   1      38.857  26.453  29.994  1.00  0.00    -0.206 F 
ATOM     67  C   UNL A   1      40.788  26.154  26.948  1.00  0.00     0.022 A 
BRANCH  64  68
ATOM     68  S   UNL A   1      42.632  27.790  25.641  1.00  0.00     0.124 S 
ATOM     69  O   UNL A   1      42.620  26.576  24.829  1.00  0.00    -0.237 OA
ATOM     70  O   UNL A   1      41.930  28.939  25.080  1.00  0.00    -0.237 OA
ATOM     71  O   UNL A   1      43.909  28.092  26.282  1.00  0.00    -0.744 OA
ENDBRANCH  64  68
ENDBRANCH  47  61
BRANCH  48  72
ATOM     72  C   UNL A   1      39.574  34.067  37.008  1.00  0.00     0.023 A 
ATOM     73  C   UNL A   1      38.998  33.642  38.216  1.00  0.00     0.031 A 
ATOM     74  C   UNL A   1      40.035  35.394  36.926  1.00  0.00     0.131 A 
ATOM     75  C   UNL A   1      38.876  34.543  39.286  1.00  0.00     0.055 A 
ATOM     76  C   UNL A   1      39.951  36.272  38.008  1.00  0.00     0.041 A 
ATOM     77  F   UNL A   1      40.603  35.846  35.797  1.00  0.00    -0.206 F 
ATOM     78  C   UNL A   1      39.361  35.849  39.195  1.00  0.00     0.022 A 
BRANCH  75  79
ATOM     79  S   UNL A   1      38.036  33.991  40.796  1.00  0.00     0.124 S 
ATOM     80  O   UNL A   1      37.670  35.263  41.412  1.00  0.00    -0.237 OA
ATOM     81  O   UNL A   1      36.936  33.196  40.260  1.00  0.00    -0.237 OA
ATOM     82  O   UNL A   1      39.066  33.230  41.499  1.00  0.00    -0.744 OA
ENDBRANCH  75  79
ENDBRANCH  48  72
BRANCH  60  83
ATOM     83  C   UNL A   1      44.057  28.944  35.374  1.00  0.00     0.023 A 
ATOM     84  C   UNL A   1      43.926  27.899  36.302  1.00  0.00     0.031 A 
ATOM     85  C   UNL A   1      45.351  29.372  35.026  1.00  0.00     0.131 A 
ATOM     86  C   UNL A   1      45.074  27.317  36.858  1.00  0.00     0.055 A 
ATOM     87  C   UNL A   1      46.489  28.759  35.547  1.00  0.00     0.041 A 
ATOM     88  F   UNL A   1      45.525  30.364  34.138  1.00  0.00    -0.206 F 
ATOM     89  C   UNL A   1      46.354  27.725  36.470  1.00  0.00     0.022 A 
BRANCH  86  90
ATOM     90  S   UNL A   1      44.873  26.022  38.110  1.00  0.00     0.124 S 
ATOM     91  O   UNL A   1      44.526  24.863  37.291  1.00  0.00    -0.237 OA
ATOM     92  O   UNL A   1      46.189  25.984  38.740  1.00  0.00    -0.237 OA
ATOM     93  O   UNL A   1      43.795  26.527  38.957  1.00  0.00    -0.744 OA
ENDBRANCH  86  90
ENDBRANCH  60  83
ENDBRANCH  34  35
ENDBRANCH  26  29
ENDBRANCH   1  25
TORSDOF 15
ENDMDL
MODEL 2
REMARK VINA RESULT:     -12.5      5.713      8.675
REMARK SMILES C#Cc1cc(Cl)cc2c1O[C@H](C(F)(F)F)C(C(=O)NCCCNC(=O)c1ccc(-c3c4nc(c(-c5cc(S(=O)(=O)[O-])ccc5F)c5ccc([nH]5)c(-c5cc(S(=O)(=O)[O-])ccc5F)c5nc(c(-c6cc(S(=O)(=O)[O-])ccc6F)c6ccc3[nH]6)C=C5)C=C4)cc1)=C2
REMARK SMILES IDX 22 1 21 2 20 3 19 4 17 5 18 6 16 8 3 9 4 10 9 11 5 12 8 13
REMARK SMILES IDX 10 14 6 15 7 16 89 17 11 18 2 19 1 20 12 21 13 22 14 23
REMARK SMILES IDX 15 24 23 25 24 26 25 28 26 29 27 30 88 31 28 32 87 33 29 34
REMARK SMILES IDX 30 35 31 36 81 37 32 38 86 39 80 40 82 41 33 42 85 43 79 44
REMARK SMILES IDX 78 45 34 47 66 48 46 49 65 50 47 51 50 52 64 53 83 54 48 55
REMARK SMILES IDX 49 56 63 58 84 59 51 60 35 61 36 62 44 63 37 64 43 65 45 66
REMARK SMILES IDX 42 67 38 68 39 69 40 70 41 71 67 72 68 73 76 74 69 75 75 76
REMARK SMILES IDX 77 77 74 78 70 79 71 80 72 81 73 82 52 83 53 84 61 85 54 86
REMARK SMILES IDX 60 87 62 88 59 89 55 90 56 91 57 92 58 93
REMARK H PARENT 19 7 23 27 82 46 50 57
REMARK Flexibility Score: inf
ROOT
ATOM      1  C   UNL A   1      36.382  22.351  25.750  1.00  0.00     0.118 C 
ENDROOT
BRANCH   1   2
ATOM      2  C   UNL A   1      35.059  21.911  26.354  1.00  0.00     0.042 C 
BRANCH   2   3
ATOM      3  C   UNL A   1      33.946  21.927  25.321  1.00  0.00     0.118 C 
BRANCH   3   4
ATOM      4  N   UNL A   1      34.429  22.322  24.005  1.00  0.00    -0.352 N 
ATOM      5  C   UNL A   1      34.309  23.393  23.185  1.00  0.00     0.251 C 
ATOM      6  O   UNL A   1      34.937  23.328  22.124  1.00  0.00    -0.270 OA
ATOM      7  H   UNL A   1      34.996  21.625  23.605  1.00  0.00     0.163 HD
BRANCH   5   8
ATOM      8  C   UNL A   1      33.492  24.603  23.487  1.00  0.00     0.067 C 
ATOM      9  C   UNL A   1      31.373  28.156  24.213  1.00  0.00     0.068 A 
ATOM     10  C   UNL A   1      31.775  29.007  25.242  1.00  0.00     0.041 A 
ATOM     11  C   UNL A   1      32.111  26.996  23.947  1.00  0.00     0.143 A 
ATOM     12  C   UNL A   1      32.912  28.693  25.987  1.00  0.00     0.043 A 
ATOM     13  C   UNL A   1      33.252  26.681  24.693  1.00  0.00     0.020 A 
ATOM     14  O   UNL A   1      31.698  26.221  22.901  1.00  0.00    -0.474 OA
ATOM     15  Cl  UNL A   1      33.413  29.748  27.252  1.00  0.00    -0.084 Cl
ATOM     16  C   UNL A   1      33.653  27.538  25.718  1.00  0.00     0.032 A 
ATOM     17  C   UNL A   1      34.020  25.485  24.356  1.00  0.00     0.025 C 
ATOM     18  C   UNL A   1      32.137  24.845  22.894  1.00  0.00     0.314 C 
BRANCH   9  19
ATOM     19  C   UNL A   1      30.205  28.461  23.441  1.00  0.00    -0.067 C 
ATOM     20  C   UNL A   1      29.266  28.757  22.751  1.00  0.00     0.010 C 
ENDBRANCH   9  19
BRANCH  18  21
ATOM     21  C   UNL A   1      31.049  23.957  23.532  1.00  0.00     0.429 C 
ATOM     22  F   UNL A   1      29.813  24.442  23.254  1.00  0.00    -0.167 F 
ATOM     23  F   UNL A   1      31.073  22.683  23.071  1.00  0.00    -0.167 F 
ATOM     24  F   UNL A   1      31.164  23.883  24.878  1.00  0.00    -0.167 F 
ENDBRANCH  18  21
ENDBRANCH   5   8
ENDBRANCH   3   4
ENDBRANCH   2   3
ENDBRANCH   1   2
BRANCH   1  25
ATOM     25  N   UNL A   1      37.384  21.287  25.810  1.00  0.00    -0.352 N 
ATOM     26  C   UNL A   1      38.740  21.364  26.014  1.00  0.00     0.251 C 
ATOM     27  H   UNL A   1      37.033  20.376  25.684  1.00  0.00     0.163 HD
ATOM     28  O   UNL A   1      39.455  20.403  25.752  1.00  0.00    -0.269 OA
BRANCH  26  29
ATOM     29  C   UNL A   1      39.315  22.618  26.531  1.00  0.00     0.039 A 
ATOM     30  C   UNL A   1      40.401  22.573  27.405  1.00  0.00     0.014 A 
ATOM     31  C   UNL A   1      38.793  23.843  26.109  1.00  0.00     0.014 A 
ATOM     32  C   UNL A   1      41.014  23.765  27.784  1.00  0.00     0.010 A 
ATOM     33  C   UNL A   1      39.480  25.012  26.384  1.00  0.00     0.010 A 
ATOM     34  C   UNL A   1      40.589  24.989  27.238  1.00  0.00    -0.014 A 
BRANCH  34  35
ATOM     35  C   UNL A   1      41.277  26.257  27.574  1.00  0.00     0.031 A 
ATOM     36  C   UNL A   1      42.658  26.520  27.039  1.00  0.00     0.074 A 
ATOM     37  C   UNL A   1      40.665  27.154  28.374  1.00  0.00     0.049 A 
ATOM     38  N   UNL A   1      43.423  27.563  27.222  1.00  0.00    -0.248 NA
ATOM     39  C   UNL A   1      43.271  25.465  26.213  1.00  0.00     0.031 C 
ATOM     40  C   UNL A   1      39.343  26.982  28.980  1.00  0.00     0.029 A 
ATOM     41  N   UNL A   1      41.064  28.395  28.800  1.00  0.00    -0.354 N 
ATOM     42  C   UNL A   1      44.596  27.293  26.528  1.00  0.00     0.074 A 
ATOM     43  C   UNL A   1      44.481  25.956  25.995  1.00  0.00     0.031 C 
ATOM     44  C   UNL A   1      39.013  28.101  29.643  1.00  0.00     0.029 A 
ATOM     45  C   UNL A   1      40.120  29.049  29.557  1.00  0.00     0.049 A 
ATOM     46  H   UNL A   1      41.944  28.781  28.585  1.00  0.00     0.167 HD
ATOM     47  C   UNL A   1      45.656  28.106  26.317  1.00  0.00     0.034 A 
ATOM     48  C   UNL A   1      40.140  30.277  30.113  1.00  0.00     0.034 A 
ATOM     49  C   UNL A   1      45.747  29.444  26.835  1.00  0.00     0.049 A 
ATOM     50  C   UNL A   1      41.358  31.142  29.913  1.00  0.00     0.074 A 
ATOM     51  C   UNL A   1      46.761  30.365  26.650  1.00  0.00     0.029 A 
ATOM     52  N   UNL A   1      44.792  30.051  27.638  1.00  0.00    -0.354 N 
ATOM     53  N   UNL A   1      42.445  30.882  29.224  1.00  0.00    -0.248 NA
ATOM     54  C   UNL A   1      41.356  32.459  30.561  1.00  0.00     0.031 C 
ATOM     55  C   UNL A   1      46.456  31.501  27.401  1.00  0.00     0.029 A 
ATOM     56  C   UNL A   1      45.213  31.321  27.989  1.00  0.00     0.049 A 
ATOM     57  H   UNL A   1      43.942  29.639  27.916  1.00  0.00     0.167 HD
ATOM     58  C   UNL A   1      43.246  32.013  29.337  1.00  0.00     0.074 A 
ATOM     59  C   UNL A   1      42.516  32.960  30.155  1.00  0.00     0.031 C 
ATOM     60  C   UNL A   1      44.472  32.249  28.808  1.00  0.00     0.034 A 
BRANCH  47  61
ATOM     61  C   UNL A   1      46.793  27.577  25.485  1.00  0.00     0.023 A 
ATOM     62  C   UNL A   1      46.959  27.964  24.145  1.00  0.00     0.031 A 
ATOM     63  C   UNL A   1      47.740  26.703  26.046  1.00  0.00     0.131 A 
ATOM     64  C   UNL A   1      48.027  27.451  23.396  1.00  0.00     0.055 A 
ATOM     65  C   UNL A   1      48.838  26.248  25.315  1.00  0.00     0.041 A 
ATOM     66  F   UNL A   1      47.615  26.284  27.315  1.00  0.00    -0.206 F 
ATOM     67  C   UNL A   1      48.983  26.617  23.981  1.00  0.00     0.022 A 
BRANCH  64  68
ATOM     68  S   UNL A   1      48.106  27.829  21.626  1.00  0.00     0.124 S 
ATOM     69  O   UNL A   1      49.191  28.806  21.582  1.00  0.00    -0.237 OA
ATOM     70  O   UNL A   1      48.396  26.527  21.036  1.00  0.00    -0.237 OA
ATOM     71  O   UNL A   1      46.779  28.366  21.332  1.00  0.00    -0.744 OA
ENDBRANCH  64  68
ENDBRANCH  47  61
BRANCH  48  72
ATOM     72  C   UNL A   1      38.970  30.762  30.897  1.00  0.00     0.023 A 
ATOM     73  C   UNL A   1      37.894  31.405  30.262  1.00  0.00     0.031 A 
ATOM     74  C   UNL A   1      38.902  30.580  32.290  1.00  0.00     0.131 A 
ATOM     75  C   UNL A   1      36.807  31.862  31.024  1.00  0.00     0.055 A 
ATOM     76  C   UNL A   1      37.799  30.999  33.035  1.00  0.00     0.041 A 
ATOM     77  F   UNL A   1      39.900  29.964  32.942  1.00  0.00    -0.206 F 
ATOM     78  C   UNL A   1      36.746  31.651  32.403  1.00  0.00     0.022 A 
BRANCH  75  79
ATOM     79  S   UNL A   1      35.481  32.777  30.188  1.00  0.00     0.124 S 
ATOM     80  O   UNL A   1      34.403  32.694  31.167  1.00  0.00    -0.237 OA
ATOM     81  O   UNL A   1      36.087  34.092  30.007  1.00  0.00    -0.237 OA
ATOM     82  O   UNL A   1      35.269  32.017  28.958  1.00  0.00    -0.744 OA
ENDBRANCH  75  79
ENDBRANCH  48  72
BRANCH  60  83
ATOM     83  C   UNL A   1      45.110  33.586  29.072  1.00  0.00     0.023 A 
ATOM     84  C   UNL A   1      44.769  34.718  28.316  1.00  0.00     0.031 A 
ATOM     85  C   UNL A   1      45.987  33.747  30.160  1.00  0.00     0.131 A 
ATOM     86  C   UNL A   1      45.310  35.967  28.654  1.00  0.00     0.055 A 
ATOM     87  C   UNL A   1      46.484  34.998  30.520  1.00  0.00     0.041 A 
ATOM     88  F   UNL A   1      46.336  32.693  30.916  1.00  0.00    -0.206 F 
ATOM     89  C   UNL A   1      46.147  36.117  29.764  1.00  0.00     0.022 A 
BRANCH  86  90
ATOM     90  S   UNL A   1      44.913  37.396  27.614  1.00  0.00     0.124 S 
ATOM     91  O   UNL A   1      43.747  36.918  26.876  1.00  0.00    -0.237 OA
ATOM     92  O   UNL A   1      44.658  38.443  28.598  1.00  0.00    -0.237 OA
ATOM     93  O   UNL A   1      46.120  37.583  26.811  1.00  0.00    -0.744 OA
ENDBRANCH  86  90
ENDBRANCH  60  83
ENDBRANCH  34  35
ENDBRANCH  26  29
ENDBRANCH   1  25
TORSDOF 15
ENDMDL
MODEL 3
REMARK VINA RESULT:     -12.5      0.568      7.788
REMARK SMILES C#Cc1cc(Cl)cc2c1O[C@H](C(F)(F)F)C(C(=O)NCCCNC(=O)c1ccc(-c3c4nc(c(-c5cc(S(=O)(=O)[O-])ccc5F)c5ccc([nH]5)c(-c5cc(S(=O)(=O)[O-])ccc5F)c5nc(c(-c6cc(S(=O)(=O)[O-])ccc6F)c6ccc3[nH]6)C=C5)C=C4)cc1)=C2
REMARK SMILES IDX 22 1 21 2 20 3 19 4 17 5 18 6 16 8 3 9 4 10 9 11 5 12 8 13
REMARK SMILES IDX 10 14 6 15 7 16 89 17 11 18 2 19 1 20 12 21 13 22 14 23
REMARK SMILES IDX 15 24 23 25 24 26 25 28 26 29 27 30 88 31 28 32 87 33 29 34
REMARK SMILES IDX 30 35 31 36 81 37 32 38 86 39 80 40 82 41 33 42 85 43 79 44
REMARK SMILES IDX 78 45 34 47 66 48 46 49 65 50 47 51 50 52 64 53 83 54 48 55
REMARK SMILES IDX 49 56 63 58 84 59 51 60 35 61 36 62 44 63 37 64 43 65 45 66
REMARK SMILES IDX 42 67 38 68 39 69 40 70 41 71 67 72 68 73 76 74 69 75 75 76
REMARK SMILES IDX 77 77 74 78 70 79 71 80 72 81 73 82 52 83 53 84 61 85 54 86
REMARK SMILES IDX 60 87 62 88 59 89 55 90 56 91 57 92 58 93
REMARK H PARENT 19 7 23 27 82 46 50 57
REMARK Flexibility Score: inf
ROOT
ATOM      1  C   UNL A   1      32.814  32.464  27.307  1.00  0.00     0.118 C 
ENDROOT
BRANCH   1   2
ATOM      2  C   UNL A   1      31.609  31.848  26.616  1.00  0.00     0.042 C 
BRANCH   2   3
ATOM      3  C   UNL A   1      31.790  30.355  26.411  1.00  0.00     0.118 C 
BRANCH   3   4
ATOM      4  N   UNL A   1      32.414  30.053  25.130  1.00  0.00    -0.352 N 
ATOM      5  C   UNL A   1      32.732  28.946  24.418  1.00  0.00     0.251 C 
ATOM      6  O   UNL A   1      33.246  29.149  23.314  1.00  0.00    -0.270 OA
ATOM      7  H   UNL A   1      32.674  30.874  24.653  1.00  0.00     0.163 HD
BRANCH   5   8
ATOM      8  C   UNL A   1      32.497  27.548  24.878  1.00  0.00     0.067 C 
ATOM      9  C   UNL A   1      31.941  23.676  26.408  1.00  0.00     0.068 A 
ATOM     10  C   UNL A   1      33.019  22.795  26.478  1.00  0.00     0.041 A 
ATOM     11  C   UNL A   1      32.143  24.980  25.939  1.00  0.00     0.143 A 
ATOM     12  C   UNL A   1      34.286  23.229  26.087  1.00  0.00     0.043 A 
ATOM     13  C   UNL A   1      33.413  25.416  25.548  1.00  0.00     0.020 A 
ATOM     14  O   UNL A   1      31.061  25.814  25.932  1.00  0.00    -0.474 OA
ATOM     15  Cl  UNL A   1      35.618  22.143  26.180  1.00  0.00    -0.084 Cl
ATOM     16  C   UNL A   1      34.490  24.532  25.624  1.00  0.00     0.032 A 
ATOM     17  C   UNL A   1      33.591  26.797  25.106  1.00  0.00     0.025 C 
ATOM     18  C   UNL A   1      31.129  26.965  25.062  1.00  0.00     0.314 C 
BRANCH   9  19
ATOM     19  C   UNL A   1      30.632  23.245  26.802  1.00  0.00    -0.067 C 
ATOM     20  C   UNL A   1      29.537  22.932  27.186  1.00  0.00     0.010 C 
ENDBRANCH   9  19
BRANCH  18  21
ATOM     21  C   UNL A   1      30.446  26.631  23.719  1.00  0.00     0.429 C 
ATOM     22  F   UNL A   1      31.371  26.307  22.781  1.00  0.00    -0.167 F 
ATOM     23  F   UNL A   1      29.603  25.574  23.807  1.00  0.00    -0.167 F 
ATOM     24  F   UNL A   1      29.720  27.665  23.236  1.00  0.00    -0.167 F 
ENDBRANCH  18  21
ENDBRANCH   5   8
ENDBRANCH   3   4
ENDBRANCH   2   3
ENDBRANCH   1   2
BRANCH   1  25
ATOM     25  N   UNL A   1      32.599  33.878  27.614  1.00  0.00    -0.352 N 
ATOM     26  C   UNL A   1      33.118  34.649  28.625  1.00  0.00     0.251 C 
ATOM     27  H   UNL A   1      31.986  34.349  27.003  1.00  0.00     0.163 HD
ATOM     28  O   UNL A   1      32.609  35.732  28.892  1.00  0.00    -0.269 OA
BRANCH  26  29
ATOM     29  C   UNL A   1      34.275  34.146  29.385  1.00  0.00     0.039 A 
ATOM     30  C   UNL A   1      34.071  33.295  30.471  1.00  0.00     0.014 A 
ATOM     31  C   UNL A   1      35.568  34.491  28.986  1.00  0.00     0.014 A 
ATOM     32  C   UNL A   1      35.175  32.725  31.101  1.00  0.00     0.010 A 
ATOM     33  C   UNL A   1      36.653  33.826  29.529  1.00  0.00     0.010 A 
ATOM     34  C   UNL A   1      36.471  32.947  30.603  1.00  0.00    -0.014 A 
BRANCH  34  35
ATOM     35  C   UNL A   1      37.650  32.291  31.215  1.00  0.00     0.031 A 
ATOM     36  C   UNL A   1      38.141  32.747  32.562  1.00  0.00     0.074 A 
ATOM     37  C   UNL A   1      38.284  31.306  30.548  1.00  0.00     0.049 A 
ATOM     38  N   UNL A   1      39.153  32.304  33.259  1.00  0.00    -0.248 NA
ATOM     39  C   UNL A   1      37.418  33.863  33.199  1.00  0.00     0.031 C 
ATOM     40  C   UNL A   1      37.917  30.815  29.218  1.00  0.00     0.029 A 
ATOM     41  N   UNL A   1      39.358  30.529  30.901  1.00  0.00    -0.354 N 
ATOM     42  C   UNL A   1      39.179  33.075  34.413  1.00  0.00     0.074 A 
ATOM     43  C   UNL A   1      38.142  34.072  34.287  1.00  0.00     0.031 C 
ATOM     44  C   UNL A   1      38.707  29.778  28.898  1.00  0.00     0.029 A 
ATOM     45  C   UNL A   1      39.672  29.565  29.972  1.00  0.00     0.049 A 
ATOM     46  H   UNL A   1      39.857  30.651  31.741  1.00  0.00     0.167 HD
ATOM     47  C   UNL A   1      39.970  32.936  35.502  1.00  0.00     0.034 A 
ATOM     48  C   UNL A   1      40.625  28.612  29.987  1.00  0.00     0.034 A 
ATOM     49  C   UNL A   1      40.984  31.925  35.624  1.00  0.00     0.049 A 
ATOM     50  C   UNL A   1      41.532  28.515  31.186  1.00  0.00     0.074 A 
ATOM     51  C   UNL A   1      41.816  31.673  36.699  1.00  0.00     0.029 A 
ATOM     52  N   UNL A   1      41.304  30.999  34.641  1.00  0.00    -0.354 N 
ATOM     53  N   UNL A   1      41.520  29.234  32.285  1.00  0.00    -0.248 NA
ATOM     54  C   UNL A   1      42.579  27.486  31.151  1.00  0.00     0.031 C 
ATOM     55  C   UNL A   1      42.690  30.647  36.339  1.00  0.00     0.029 A 
ATOM     56  C   UNL A   1      42.349  30.202  35.071  1.00  0.00     0.049 A 
ATOM     57  H   UNL A   1      40.854  30.923  33.768  1.00  0.00     0.167 HD
ATOM     58  C   UNL A   1      42.542  28.727  33.081  1.00  0.00     0.074 A 
ATOM     59  C   UNL A   1      43.147  27.639  32.341  1.00  0.00     0.031 C 
ATOM     60  C   UNL A   1      42.940  29.123  34.315  1.00  0.00     0.034 A 
BRANCH  47  61
ATOM     61  C   UNL A   1      39.764  33.891  36.647  1.00  0.00     0.023 A 
ATOM     62  C   UNL A   1      39.218  33.459  37.867  1.00  0.00     0.031 A 
ATOM     63  C   UNL A   1      40.147  35.237  36.531  1.00  0.00     0.131 A 
ATOM     64  C   UNL A   1      39.036  34.374  38.914  1.00  0.00     0.055 A 
ATOM     65  C   UNL A   1      40.025  36.128  37.598  1.00  0.00     0.041 A 
ATOM     66  F   UNL A   1      40.653  35.707  35.380  1.00  0.00    -0.206 F 
ATOM     67  C   UNL A   1      39.461  35.699  38.796  1.00  0.00     0.022 A 
BRANCH  64  68
ATOM     68  S   UNL A   1      38.164  33.824  40.405  1.00  0.00     0.124 S 
ATOM     69  O   UNL A   1      39.129  32.892  40.983  1.00  0.00    -0.237 OA
ATOM     70  O   UNL A   1      37.966  35.071  41.134  1.00  0.00    -0.237 OA
ATOM     71  O   UNL A   1      36.947  33.207  39.881  1.00  0.00    -0.744 OA
ENDBRANCH  64  68
ENDBRANCH  47  61
BRANCH  48  72
ATOM     72  C   UNL A   1      40.759  27.671  28.840  1.00  0.00     0.023 A 
ATOM     73  C   UNL A   1      41.736  27.874  27.852  1.00  0.00     0.031 A 
ATOM     74  C   UNL A   1      39.921  26.548  28.719  1.00  0.00     0.131 A 
ATOM     75  C   UNL A   1      41.836  26.979  26.775  1.00  0.00     0.055 A 
ATOM     76  C   UNL A   1      40.054  25.638  27.669  1.00  0.00     0.041 A 
ATOM     77  F   UNL A   1      38.977  26.304  29.642  1.00  0.00    -0.206 F 
ATOM     78  C   UNL A   1      41.011  25.855  26.684  1.00  0.00     0.022 A 
BRANCH  75  79
ATOM     79  S   UNL A   1      43.042  27.325  25.463  1.00  0.00     0.124 S 
ATOM     80  O   UNL A   1      44.126  27.947  26.216  1.00  0.00    -0.237 OA
ATOM     81  O   UNL A   1      43.307  25.992  24.935  1.00  0.00    -0.237 OA
ATOM     82  O   UNL A   1      42.315  28.216  24.562  1.00  0.00    -0.744 OA
ENDBRANCH  75  79
ENDBRANCH  48  72
BRANCH  60  83
ATOM     83  C   UNL A   1      44.071  28.375  34.967  1.00  0.00     0.023 A 
ATOM     84  C   UNL A   1      43.876  27.104  35.529  1.00  0.00     0.031 A 
ATOM     85  C   UNL A   1      45.377  28.897  34.928  1.00  0.00     0.131 A 
ATOM     86  C   UNL A   1      44.974  26.395  36.039  1.00  0.00     0.055 A 
ATOM     87  C   UNL A   1      46.470  28.168  35.393  1.00  0.00     0.041 A 
ATOM     88  F   UNL A   1      45.613  30.106  34.394  1.00  0.00    -0.206 F 
ATOM     89  C   UNL A   1      46.271  26.909  35.954  1.00  0.00     0.022 A 
BRANCH  86  90
ATOM     90  S   UNL A   1      44.681  24.789  36.827  1.00  0.00     0.124 S 
ATOM     91  O   UNL A   1      43.365  24.433  36.305  1.00  0.00    -0.237 OA
ATOM     92  O   UNL A   1      45.798  23.989  36.337  1.00  0.00    -0.237 OA
ATOM     93  O   UNL A   1      44.719  25.096  38.255  1.00  0.00    -0.744 OA
ENDBRANCH  86  90
ENDBRANCH  60  83
ENDBRANCH  34  35
ENDBRANCH  26  29
ENDBRANCH   1  25
TORSDOF 15
ENDMDL
