MODEL 1
REMARK VINA RESULT:     -12.1      0.000      0.000
REMARK SMILES C[C@H]1[C@H](C(=O)NCCCNC(=O)c2ccc(-c3c4nc(c(-c5cc(S(=O)(=O)[O-])ccc5F)c5ccc([nH]5)c(-c5cc(S(=O)(=O)[O-])ccc5F)c5nc(c(-c6cc(S(=O)(=O)[O-])ccc6F)c6ccc3[nH]6)C=C5)C=C4)cc2)CCN1C(=O)COc1ccc(F)cc1Br
REMARK SMILES IDX 7 1 6 2 4 3 5 4 3 6 1 7 2 8 78 9 76 10 77 11 79 12 80 13
REMARK SMILES IDX 81 14 82 15 83 16 84 17 89 18 85 19 88 20 90 21 86 22 87 23
REMARK SMILES IDX 8 24 9 25 10 26 11 27 12 29 13 30 14 31 75 32 15 33 74 34
REMARK SMILES IDX 16 35 17 36 18 37 68 38 19 39 73 40 67 41 69 42 20 43 72 44
REMARK SMILES IDX 66 45 65 46 21 48 53 49 33 50 52 51 34 52 37 53 51 54 70 55
REMARK SMILES IDX 35 56 36 57 50 59 71 60 38 61 22 62 23 63 31 64 24 65 30 66
REMARK SMILES IDX 32 67 29 68 25 69 26 70 27 71 28 72 54 73 55 74 63 75 56 76
REMARK SMILES IDX 62 77 64 78 61 79 57 80 58 81 59 82 60 83 39 84 40 85 48 86
REMARK SMILES IDX 41 87 47 88 49 89 46 90 42 91 43 92 44 93 45 94
REMARK H PARENT 6 5 10 28 69 47 37 58
REMARK Flexibility Score: inf
ROOT
ATOM      1  C   UNL A   1      31.602  30.366  26.205  1.00  0.00     0.117 C 
ENDROOT
BRANCH   1   2
ATOM      2  N   UNL A   1      31.439  30.107  24.783  1.00  0.00    -0.356 N 
ATOM      3  C   UNL A   1      31.625  28.982  24.047  1.00  0.00     0.225 C 
ATOM      4  O   UNL A   1      31.420  29.057  22.832  1.00  0.00    -0.275 OA
ATOM      5  H   UNL A   1      31.141  30.887  24.261  1.00  0.00     0.163 HD
BRANCH   3   6
ATOM      6  C   UNL A   1      32.063  27.663  24.657  1.00  0.00     0.102 C 
ATOM      7  C   UNL A   1      30.645  25.604  24.693  1.00  0.00     0.032 C 
ATOM      8  C   UNL A   1      31.607  26.435  23.841  1.00  0.00     0.094 C 
ATOM      9  N   UNL A   1      32.855  25.744  23.500  1.00  0.00    -0.336 N 
ATOM     10  C   UNL A   1      33.573  27.552  24.864  1.00  0.00     0.037 C 
ATOM     11  C   UNL A   1      33.949  26.180  24.346  1.00  0.00     0.121 C 
BRANCH   9  12
ATOM     12  C   UNL A   1      33.136  25.046  22.339  1.00  0.00     0.260 C 
ATOM     13  O   UNL A   1      33.428  25.643  21.297  1.00  0.00    -0.271 OA
BRANCH  12  14
ATOM     14  C   UNL A   1      33.114  23.511  22.342  1.00  0.00     0.329 C 
BRANCH  14  15
ATOM     15  O   UNL A   1      32.224  22.827  23.190  1.00  0.00    -0.483 OA
BRANCH  15  16
ATOM     16  C   UNL A   1      32.562  21.729  23.925  1.00  0.00     0.134 A 
ATOM     17  C   UNL A   1      32.301  20.549  23.199  1.00  0.00     0.050 A 
ATOM     18  C   UNL A   1      32.982  21.604  25.256  1.00  0.00     0.062 A 
ATOM     19  C   UNL A   1      32.423  19.285  23.778  1.00  0.00     0.043 A 
ATOM     20  C   UNL A   1      33.079  20.330  25.842  1.00  0.00     0.058 A 
ATOM     21  Br  UNL A   1      33.421  23.007  26.447  1.00  0.00    -0.047 Br
ATOM     22  C   UNL A   1      32.793  19.190  25.105  1.00  0.00     0.124 A 
ATOM     23  F   UNL A   1      32.869  17.989  25.692  1.00  0.00    -0.207 F 
ENDBRANCH  15  16
ENDBRANCH  14  15
ENDBRANCH  12  14
ENDBRANCH   9  12
ENDBRANCH   3   6
ENDBRANCH   1   2
BRANCH   1  24
ATOM     24  C   UNL A   1      31.503  31.848  26.536  1.00  0.00     0.042 C 
BRANCH  24  25
ATOM     25  C   UNL A   1      32.714  32.392  27.283  1.00  0.00     0.118 C 
BRANCH  25  26
ATOM     26  N   UNL A   1      32.582  33.806  27.604  1.00  0.00    -0.352 N 
ATOM     27  C   UNL A   1      33.211  34.557  28.566  1.00  0.00     0.251 C 
ATOM     28  H   UNL A   1      31.942  34.301  27.043  1.00  0.00     0.163 HD
ATOM     29  O   UNL A   1      32.798  35.689  28.804  1.00  0.00    -0.269 OA
BRANCH  27  30
ATOM     30  C   UNL A   1      34.360  34.007  29.318  1.00  0.00     0.039 A 
ATOM     31  C   UNL A   1      34.115  33.088  30.343  1.00  0.00     0.014 A 
ATOM     32  C   UNL A   1      35.669  34.410  29.040  1.00  0.00     0.014 A 
ATOM     33  C   UNL A   1      35.187  32.533  31.046  1.00  0.00     0.010 A 
ATOM     34  C   UNL A   1      36.738  33.791  29.682  1.00  0.00     0.010 A 
ATOM     35  C   UNL A   1      36.509  32.853  30.698  1.00  0.00    -0.014 A 
BRANCH  35  36
ATOM     36  C   UNL A   1      37.660  32.225  31.397  1.00  0.00     0.031 A 
ATOM     37  C   UNL A   1      38.430  31.112  30.738  1.00  0.00     0.074 A 
ATOM     38  C   UNL A   1      37.974  32.620  32.645  1.00  0.00     0.049 A 
ATOM     39  N   UNL A   1      39.420  30.397  31.207  1.00  0.00    -0.248 NA
ATOM     40  C   UNL A   1      38.003  30.730  29.383  1.00  0.00     0.031 C 
ATOM     41  C   UNL A   1      37.267  33.652  33.408  1.00  0.00     0.029 A 
ATOM     42  N   UNL A   1      38.961  32.198  33.499  1.00  0.00    -0.354 N 
ATOM     43  C   UNL A   1      39.729  29.476  30.211  1.00  0.00     0.074 A 
ATOM     44  C   UNL A   1      38.772  29.678  29.144  1.00  0.00     0.031 C 
ATOM     45  C   UNL A   1      37.858  33.799  34.604  1.00  0.00     0.029 A 
ATOM     46  C   UNL A   1      38.957  32.846  34.712  1.00  0.00     0.049 A 
ATOM     47  H   UNL A   1      39.611  31.496  33.265  1.00  0.00     0.167 HD
ATOM     48  C   UNL A   1      40.735  28.566  30.178  1.00  0.00     0.034 A 
ATOM     49  C   UNL A   1      39.746  32.686  35.793  1.00  0.00     0.034 A 
ATOM     50  C   UNL A   1      41.686  28.385  31.249  1.00  0.00     0.049 A 
ATOM     51  C   UNL A   1      40.856  31.668  35.736  1.00  0.00     0.074 A 
ATOM     52  C   UNL A   1      42.771  27.528  31.306  1.00  0.00     0.029 A 
ATOM     53  N   UNL A   1      41.662  29.072  32.456  1.00  0.00    -0.354 N 
ATOM     54  N   UNL A   1      41.167  30.839  34.766  1.00  0.00    -0.248 NA
ATOM     55  C   UNL A   1      41.729  31.578  36.912  1.00  0.00     0.031 C 
ATOM     56  C   UNL A   1      43.364  27.652  32.568  1.00  0.00     0.029 A 
ATOM     57  C   UNL A   1      42.698  28.640  33.274  1.00  0.00     0.049 A 
ATOM     58  H   UNL A   1      41.006  29.766  32.698  1.00  0.00     0.167 HD
ATOM     59  C   UNL A   1      42.289  30.143  35.209  1.00  0.00     0.074 A 
ATOM     60  C   UNL A   1      42.611  30.670  36.520  1.00  0.00     0.031 C 
ATOM     61  C   UNL A   1      42.992  29.160  34.589  1.00  0.00     0.034 A 
BRANCH  48  62
ATOM     62  C   UNL A   1      40.835  27.690  28.950  1.00  0.00     0.023 A 
ATOM     63  C   UNL A   1      41.803  27.922  27.955  1.00  0.00     0.031 A 
ATOM     64  C   UNL A   1      39.928  26.635  28.746  1.00  0.00     0.131 A 
ATOM     65  C   UNL A   1      41.787  27.172  26.771  1.00  0.00     0.055 A 
ATOM     66  C   UNL A   1      39.973  25.834  27.603  1.00  0.00     0.041 A 
ATOM     67  F   UNL A   1      38.968  26.375  29.648  1.00  0.00    -0.206 F 
ATOM     68  C   UNL A   1      40.896  26.112  26.598  1.00  0.00     0.022 A 
BRANCH  65  69
ATOM     69  S   UNL A   1      42.846  27.703  25.396  1.00  0.00     0.124 S 
ATOM     70  O   UNL A   1      41.963  28.626  24.686  1.00  0.00    -0.237 OA
ATOM     71  O   UNL A   1      43.980  28.308  26.087  1.00  0.00    -0.237 OA
ATOM     72  O   UNL A   1      43.137  26.460  24.687  1.00  0.00    -0.744 OA
ENDBRANCH  65  69
ENDBRANCH  48  62
BRANCH  49  73
ATOM     73  C   UNL A   1      39.514  33.499  37.020  1.00  0.00     0.023 A 
ATOM     74  C   UNL A   1      38.844  32.963  38.131  1.00  0.00     0.031 A 
ATOM     75  C   UNL A   1      39.936  34.840  37.088  1.00  0.00     0.131 A 
ATOM     76  C   UNL A   1      38.575  33.774  39.244  1.00  0.00     0.055 A 
ATOM     77  C   UNL A   1      39.712  35.627  38.218  1.00  0.00     0.041 A 
ATOM     78  F   UNL A   1      40.590  35.398  36.057  1.00  0.00    -0.206 F 
ATOM     79  C   UNL A   1      39.016  35.098  39.301  1.00  0.00     0.022 A 
BRANCH  76  80
ATOM     80  S   UNL A   1      37.573  33.092  40.594  1.00  0.00     0.124 S 
ATOM     81  O   UNL A   1      36.287  32.889  39.935  1.00  0.00    -0.237 OA
ATOM     82  O   UNL A   1      38.314  31.885  40.941  1.00  0.00    -0.237 OA
ATOM     83  O   UNL A   1      37.598  34.149  41.602  1.00  0.00    -0.744 OA
ENDBRANCH  76  80
ENDBRANCH  49  73
BRANCH  61  84
ATOM     84  C   UNL A   1      44.194  28.619  35.323  1.00  0.00     0.023 A 
ATOM     85  C   UNL A   1      44.077  27.592  36.275  1.00  0.00     0.031 A 
ATOM     86  C   UNL A   1      45.470  29.160  35.086  1.00  0.00     0.131 A 
ATOM     87  C   UNL A   1      45.203  27.184  37.006  1.00  0.00     0.055 A 
ATOM     88  C   UNL A   1      46.599  28.705  35.771  1.00  0.00     0.041 A 
ATOM     89  F   UNL A   1      45.642  30.144  34.189  1.00  0.00    -0.206 F 
ATOM     90  C   UNL A   1      46.466  27.724  36.748  1.00  0.00     0.022 A 
BRANCH  87  91
ATOM     91  S   UNL A   1      44.976  26.017  38.375  1.00  0.00     0.124 S 
ATOM     92  O   UNL A   1      46.354  25.761  38.787  1.00  0.00    -0.237 OA
ATOM     93  O   UNL A   1      44.164  26.788  39.311  1.00  0.00    -0.237 OA
ATOM     94  O   UNL A   1      44.296  24.883  37.751  1.00  0.00    -0.744 OA
ENDBRANCH  87  91
ENDBRANCH  61  84
ENDBRANCH  35  36
ENDBRANCH  27  30
ENDBRANCH  25  26
ENDBRANCH  24  25
ENDBRANCH   1  24
TORSDOF 17
ENDMDL
MODEL 2
REMARK VINA RESULT:     -11.9      1.817      2.227
REMARK SMILES C[C@H]1[C@H](C(=O)NCCCNC(=O)c2ccc(-c3c4nc(c(-c5cc(S(=O)(=O)[O-])ccc5F)c5ccc([nH]5)c(-c5cc(S(=O)(=O)[O-])ccc5F)c5nc(c(-c6cc(S(=O)(=O)[O-])ccc6F)c6ccc3[nH]6)C=C5)C=C4)cc2)CCN1C(=O)COc1ccc(F)cc1Br
REMARK SMILES IDX 7 1 6 2 4 3 5 4 3 6 1 7 2 8 78 9 76 10 77 11 79 12 80 13
REMARK SMILES IDX 81 14 82 15 83 16 84 17 89 18 85 19 88 20 90 21 86 22 87 23
REMARK SMILES IDX 8 24 9 25 10 26 11 27 12 29 13 30 14 31 75 32 15 33 74 34
REMARK SMILES IDX 16 35 17 36 18 37 68 38 19 39 73 40 67 41 69 42 20 43 72 44
REMARK SMILES IDX 66 45 65 46 21 48 53 49 33 50 52 51 34 52 37 53 51 54 70 55
REMARK SMILES IDX 35 56 36 57 50 59 71 60 38 61 22 62 23 63 31 64 24 65 30 66
REMARK SMILES IDX 32 67 29 68 25 69 26 70 27 71 28 72 54 73 55 74 63 75 56 76
REMARK SMILES IDX 62 77 64 78 61 79 57 80 58 81 59 82 60 83 39 84 40 85 48 86
REMARK SMILES IDX 41 87 47 88 49 89 46 90 42 91 43 92 44 93 45 94
REMARK H PARENT 6 5 10 28 69 47 37 58
REMARK Flexibility Score: inf
ROOT
ATOM      1  C   UNL A   1      31.760  30.447  26.067  1.00  0.00     0.117 C 
ENDROOT
BRANCH   1   2
ATOM      2  N   UNL A   1      31.684  29.509  27.176  1.00  0.00    -0.356 N 
ATOM      3  C   UNL A   1      31.683  28.152  27.208  1.00  0.00     0.225 C 
ATOM      4  O   UNL A   1      31.591  27.610  28.313  1.00  0.00    -0.275 OA
ATOM      5  H   UNL A   1      31.621  29.935  28.062  1.00  0.00     0.163 HD
BRANCH   3   6
ATOM      6  C   UNL A   1      31.792  27.300  25.957  1.00  0.00     0.102 C 
ATOM      7  C   UNL A   1      33.898  26.176  25.216  1.00  0.00     0.032 C 
ATOM      8  C   UNL A   1      32.688  26.058  26.145  1.00  0.00     0.094 C 
ATOM      9  N   UNL A   1      31.806  24.927  25.839  1.00  0.00    -0.336 N 
ATOM     10  C   UNL A   1      30.444  26.826  25.415  1.00  0.00     0.037 C 
ATOM     11  C   UNL A   1      30.630  25.355  25.108  1.00  0.00     0.121 C 
BRANCH   9  12
ATOM     12  C   UNL A   1      31.817  23.673  26.425  1.00  0.00     0.260 C 
ATOM     13  O   UNL A   1      30.764  23.053  26.612  1.00  0.00    -0.271 OA
BRANCH  12  14
ATOM     14  C   UNL A   1      33.148  23.025  26.828  1.00  0.00     0.329 C 
BRANCH  14  15
ATOM     15  O   UNL A   1      33.832  22.206  25.911  1.00  0.00    -0.483 OA
BRANCH  15  16
ATOM     16  C   UNL A   1      33.215  21.391  25.008  1.00  0.00     0.134 A 
ATOM     17  C   UNL A   1      33.098  20.083  25.522  1.00  0.00     0.050 A 
ATOM     18  C   UNL A   1      32.822  21.615  23.682  1.00  0.00     0.062 A 
ATOM     19  C   UNL A   1      32.635  19.023  24.742  1.00  0.00     0.043 A 
ATOM     20  C   UNL A   1      32.380  20.538  22.893  1.00  0.00     0.058 A 
ATOM     21  Br  UNL A   1      32.849  23.261  22.750  1.00  0.00    -0.047 Br
ATOM     22  C   UNL A   1      32.298  19.260  23.423  1.00  0.00     0.124 A 
ATOM     23  F   UNL A   1      31.898  18.247  22.645  1.00  0.00    -0.207 F 
ENDBRANCH  15  16
ENDBRANCH  14  15
ENDBRANCH  12  14
ENDBRANCH   9  12
ENDBRANCH   3   6
ENDBRANCH   1   2
BRANCH   1  24
ATOM     24  C   UNL A   1      31.579  31.889  26.518  1.00  0.00     0.042 C 
BRANCH  24  25
ATOM     25  C   UNL A   1      32.775  32.449  27.277  1.00  0.00     0.118 C 
BRANCH  25  26
ATOM     26  N   UNL A   1      32.589  33.840  27.663  1.00  0.00    -0.352 N 
ATOM     27  C   UNL A   1      33.174  34.564  28.672  1.00  0.00     0.251 C 
ATOM     28  H   UNL A   1      31.942  34.340  27.114  1.00  0.00     0.163 HD
ATOM     29  O   UNL A   1      32.719  35.668  28.956  1.00  0.00    -0.269 OA
BRANCH  27  30
ATOM     30  C   UNL A   1      34.328  34.016  29.420  1.00  0.00     0.039 A 
ATOM     31  C   UNL A   1      34.085  33.208  30.534  1.00  0.00     0.014 A 
ATOM     32  C   UNL A   1      35.641  34.316  29.048  1.00  0.00     0.014 A 
ATOM     33  C   UNL A   1      35.158  32.656  31.236  1.00  0.00     0.010 A 
ATOM     34  C   UNL A   1      36.706  33.695  29.695  1.00  0.00     0.010 A 
ATOM     35  C   UNL A   1      36.477  32.866  30.802  1.00  0.00    -0.014 A 
BRANCH  35  36
ATOM     36  C   UNL A   1      37.626  32.236  31.503  1.00  0.00     0.031 A 
ATOM     37  C   UNL A   1      38.402  31.130  30.841  1.00  0.00     0.074 A 
ATOM     38  C   UNL A   1      37.930  32.623  32.757  1.00  0.00     0.049 A 
ATOM     39  N   UNL A   1      39.392  30.415  31.311  1.00  0.00    -0.248 NA
ATOM     40  C   UNL A   1      37.986  30.757  29.481  1.00  0.00     0.031 C 
ATOM     41  C   UNL A   1      37.216  33.648  33.522  1.00  0.00     0.029 A 
ATOM     42  N   UNL A   1      38.914  32.198  33.614  1.00  0.00    -0.354 N 
ATOM     43  C   UNL A   1      39.710  29.502  30.311  1.00  0.00     0.074 A 
ATOM     44  C   UNL A   1      38.759  29.709  29.239  1.00  0.00     0.031 C 
ATOM     45  C   UNL A   1      37.799  33.787  34.723  1.00  0.00     0.029 A 
ATOM     46  C   UNL A   1      38.901  32.837  34.831  1.00  0.00     0.049 A 
ATOM     47  H   UNL A   1      39.567  31.500  33.378  1.00  0.00     0.167 HD
ATOM     48  C   UNL A   1      40.718  28.595  30.277  1.00  0.00     0.034 A 
ATOM     49  C   UNL A   1      39.683  32.671  35.916  1.00  0.00     0.034 A 
ATOM     50  C   UNL A   1      41.663  28.410  31.353  1.00  0.00     0.049 A 
ATOM     51  C   UNL A   1      40.796  31.658  35.858  1.00  0.00     0.074 A 
ATOM     52  C   UNL A   1      42.751  27.555  31.409  1.00  0.00     0.029 A 
ATOM     53  N   UNL A   1      41.631  29.088  32.565  1.00  0.00    -0.354 N 
ATOM     54  N   UNL A   1      41.116  30.836  34.884  1.00  0.00    -0.248 NA
ATOM     55  C   UNL A   1      41.663  31.562  37.038  1.00  0.00     0.031 C 
ATOM     56  C   UNL A   1      43.336  27.671  32.676  1.00  0.00     0.029 A 
ATOM     57  C   UNL A   1      42.662  28.652  33.385  1.00  0.00     0.049 A 
ATOM     58  H   UNL A   1      40.971  29.778  32.808  1.00  0.00     0.167 HD
ATOM     59  C   UNL A   1      42.238  30.141  35.329  1.00  0.00     0.074 A 
ATOM     60  C   UNL A   1      42.550  30.659  36.646  1.00  0.00     0.031 C 
ATOM     61  C   UNL A   1      42.947  29.164  34.706  1.00  0.00     0.034 A 
BRANCH  48  62
ATOM     62  C   UNL A   1      40.828  27.729  29.044  1.00  0.00     0.023 A 
ATOM     63  C   UNL A   1      41.773  27.997  28.035  1.00  0.00     0.031 A 
ATOM     64  C   UNL A   1      39.954  26.645  28.848  1.00  0.00     0.131 A 
ATOM     65  C   UNL A   1      41.764  27.252  26.847  1.00  0.00     0.055 A 
ATOM     66  C   UNL A   1      40.009  25.851  27.701  1.00  0.00     0.041 A 
ATOM     67  F   UNL A   1      39.017  26.349  29.763  1.00  0.00    -0.206 F 
ATOM     68  C   UNL A   1      40.906  26.163  26.683  1.00  0.00     0.022 A 
BRANCH  65  69
ATOM     69  S   UNL A   1      42.783  27.825  25.459  1.00  0.00     0.124 S 
ATOM     70  O   UNL A   1      41.952  28.892  24.907  1.00  0.00    -0.237 OA
ATOM     71  O   UNL A   1      44.010  28.248  26.123  1.00  0.00    -0.237 OA
ATOM     72  O   UNL A   1      42.906  26.640  24.613  1.00  0.00    -0.744 OA
ENDBRANCH  65  69
ENDBRANCH  48  62
BRANCH  49  73
ATOM     73  C   UNL A   1      39.442  33.475  37.147  1.00  0.00     0.023 A 
ATOM     74  C   UNL A   1      40.117  34.686  37.367  1.00  0.00     0.031 A 
ATOM     75  C   UNL A   1      38.550  33.027  38.139  1.00  0.00     0.131 A 
ATOM     76  C   UNL A   1      39.925  35.385  38.569  1.00  0.00     0.055 A 
ATOM     77  C   UNL A   1      38.324  33.752  39.309  1.00  0.00     0.041 A 
ATOM     78  F   UNL A   1      37.872  31.880  37.972  1.00  0.00    -0.206 F 
ATOM     79  C   UNL A   1      39.023  34.933  39.536  1.00  0.00     0.022 A 
BRANCH  76  80
ATOM     80  S   UNL A   1      40.930  36.862  38.886  1.00  0.00     0.124 S 
ATOM     81  O   UNL A   1      41.708  36.960  37.656  1.00  0.00    -0.237 OA
ATOM     82  O   UNL A   1      39.910  37.885  39.083  1.00  0.00    -0.237 OA
ATOM     83  O   UNL A   1      41.692  36.505  40.080  1.00  0.00    -0.744 OA
ENDBRANCH  76  80
ENDBRANCH  49  73
BRANCH  61  84
ATOM     84  C   UNL A   1      44.147  28.621  35.443  1.00  0.00     0.023 A 
ATOM     85  C   UNL A   1      44.020  27.622  36.424  1.00  0.00     0.031 A 
ATOM     86  C   UNL A   1      45.430  29.133  35.181  1.00  0.00     0.131 A 
ATOM     87  C   UNL A   1      45.146  27.213  37.155  1.00  0.00     0.055 A 
ATOM     88  C   UNL A   1      46.556  28.676  35.867  1.00  0.00     0.041 A 
ATOM     89  F   UNL A   1      45.610  30.089  34.256  1.00  0.00    -0.206 F 
ATOM     90  C   UNL A   1      46.415  27.723  36.872  1.00  0.00     0.022 A 
BRANCH  87  91
ATOM     91  S   UNL A   1      44.911  26.087  38.557  1.00  0.00     0.124 S 
ATOM     92  O   UNL A   1      44.945  24.781  37.905  1.00  0.00    -0.237 OA
ATOM     93  O   UNL A   1      46.054  26.405  39.407  1.00  0.00    -0.237 OA
ATOM     94  O   UNL A   1      43.609  26.476  39.096  1.00  0.00    -0.744 OA
ENDBRANCH  87  91
ENDBRANCH  61  84
ENDBRANCH  35  36
ENDBRANCH  27  30
ENDBRANCH  25  26
ENDBRANCH  24  25
ENDBRANCH   1  24
TORSDOF 17
ENDMDL
MODEL 3
REMARK VINA RESULT:     -11.8      1.795      7.757
REMARK SMILES C[C@H]1[C@H](C(=O)NCCCNC(=O)c2ccc(-c3c4nc(c(-c5cc(S(=O)(=O)[O-])ccc5F)c5ccc([nH]5)c(-c5cc(S(=O)(=O)[O-])ccc5F)c5nc(c(-c6cc(S(=O)(=O)[O-])ccc6F)c6ccc3[nH]6)C=C5)C=C4)cc2)CCN1C(=O)COc1ccc(F)cc1Br
REMARK SMILES IDX 7 1 6 2 4 3 5 4 3 6 1 7 2 8 78 9 76 10 77 11 79 12 80 13
REMARK SMILES IDX 81 14 82 15 83 16 84 17 89 18 85 19 88 20 90 21 86 22 87 23
REMARK SMILES IDX 8 24 9 25 10 26 11 27 12 29 13 30 14 31 75 32 15 33 74 34
REMARK SMILES IDX 16 35 17 36 18 37 68 38 19 39 73 40 67 41 69 42 20 43 72 44
REMARK SMILES IDX 66 45 65 46 21 48 53 49 33 50 52 51 34 52 37 53 51 54 70 55
REMARK SMILES IDX 35 56 36 57 50 59 71 60 38 61 22 62 23 63 31 64 24 65 30 66
REMARK SMILES IDX 32 67 29 68 25 69 26 70 27 71 28 72 54 73 55 74 63 75 56 76
REMARK SMILES IDX 62 77 64 78 61 79 57 80 58 81 59 82 60 83 39 84 40 85 48 86
REMARK SMILES IDX 41 87 47 88 49 89 46 90 42 91 43 92 44 93 45 94
REMARK H PARENT 6 5 10 28 69 47 37 58
REMARK Flexibility Score: inf
ROOT
ATOM      1  C   UNL A   1      31.392  30.587  26.148  1.00  0.00     0.117 C 
ENDROOT
BRANCH   1   2
ATOM      2  N   UNL A   1      31.028  30.371  24.756  1.00  0.00    -0.356 N 
ATOM      3  C   UNL A   1      31.012  29.246  23.995  1.00  0.00     0.225 C 
ATOM      4  O   UNL A   1      30.666  29.362  22.817  1.00  0.00    -0.275 OA
ATOM      5  H   UNL A   1      30.743  31.185  24.281  1.00  0.00     0.163 HD
BRANCH   3   6
ATOM      6  C   UNL A   1      31.396  27.881  24.537  1.00  0.00     0.102 C 
ATOM      7  C   UNL A   1      30.114  25.786  24.070  1.00  0.00     0.032 C 
ATOM      8  C   UNL A   1      31.176  26.741  23.521  1.00  0.00     0.094 C 
ATOM      9  N   UNL A   1      32.502  26.136  23.364  1.00  0.00    -0.336 N 
ATOM     10  C   UNL A   1      32.840  27.797  25.029  1.00  0.00     0.037 C 
ATOM     11  C   UNL A   1      33.385  26.507  24.453  1.00  0.00     0.121 C 
BRANCH   9  12
ATOM     12  C   UNL A   1      33.043  25.586  22.216  1.00  0.00     0.260 C 
ATOM     13  O   UNL A   1      33.652  26.290  21.403  1.00  0.00    -0.271 OA
BRANCH  12  14
ATOM     14  C   UNL A   1      32.913  24.080  21.951  1.00  0.00     0.329 C 
BRANCH  14  15
ATOM     15  O   UNL A   1      34.056  23.261  21.999  1.00  0.00    -0.483 OA
BRANCH  15  16
ATOM     16  C   UNL A   1      34.630  22.817  23.153  1.00  0.00     0.134 A 
ATOM     17  C   UNL A   1      35.989  23.191  23.204  1.00  0.00     0.050 A 
ATOM     18  C   UNL A   1      34.137  21.990  24.171  1.00  0.00     0.062 A 
ATOM     19  C   UNL A   1      36.841  22.738  24.213  1.00  0.00     0.043 A 
ATOM     20  C   UNL A   1      35.005  21.516  25.169  1.00  0.00     0.058 A 
ATOM     21  Br  UNL A   1      32.364  21.359  24.363  1.00  0.00    -0.047 Br
ATOM     22  C   UNL A   1      36.341  21.885  25.178  1.00  0.00     0.124 A 
ATOM     23  F   UNL A   1      37.154  21.401  26.125  1.00  0.00    -0.207 F 
ENDBRANCH  15  16
ENDBRANCH  14  15
ENDBRANCH  12  14
ENDBRANCH   9  12
ENDBRANCH   3   6
ENDBRANCH   1   2
BRANCH   1  24
ATOM     24  C   UNL A   1      31.456  32.066  26.503  1.00  0.00     0.042 C 
BRANCH  24  25
ATOM     25  C   UNL A   1      32.728  32.465  27.239  1.00  0.00     0.118 C 
BRANCH  25  26
ATOM     26  N   UNL A   1      32.728  33.866  27.632  1.00  0.00    -0.352 N 
ATOM     27  C   UNL A   1      33.482  34.521  28.575  1.00  0.00     0.251 C 
ATOM     28  H   UNL A   1      32.088  34.435  27.146  1.00  0.00     0.163 HD
ATOM     29  O   UNL A   1      33.175  35.666  28.895  1.00  0.00    -0.269 OA
BRANCH  27  30
ATOM     30  C   UNL A   1      34.639  33.851  29.211  1.00  0.00     0.039 A 
ATOM     31  C   UNL A   1      34.401  32.864  30.171  1.00  0.00     0.014 A 
ATOM     32  C   UNL A   1      35.951  34.209  28.887  1.00  0.00     0.014 A 
ATOM     33  C   UNL A   1      35.477  32.198  30.761  1.00  0.00     0.010 A 
ATOM     34  C   UNL A   1      37.018  33.485  29.412  1.00  0.00     0.010 A 
ATOM     35  C   UNL A   1      36.793  32.478  30.361  1.00  0.00    -0.014 A 
BRANCH  35  36
ATOM     36  C   UNL A   1      37.945  31.736  30.937  1.00  0.00     0.031 A 
ATOM     37  C   UNL A   1      38.454  32.078  32.311  1.00  0.00     0.074 A 
ATOM     38  C   UNL A   1      38.564  30.796  30.198  1.00  0.00     0.049 A 
ATOM     39  N   UNL A   1      39.481  31.590  32.960  1.00  0.00    -0.248 NA
ATOM     40  C   UNL A   1      37.732  33.133  33.037  1.00  0.00     0.031 C 
ATOM     41  C   UNL A   1      38.195  30.415  28.832  1.00  0.00     0.029 A 
ATOM     42  N   UNL A   1      39.639  29.993  30.484  1.00  0.00    -0.354 N 
ATOM     43  C   UNL A   1      39.533  32.285  34.164  1.00  0.00     0.074 A 
ATOM     44  C   UNL A   1      38.478  33.275  34.121  1.00  0.00     0.031 C 
ATOM     45  C   UNL A   1      39.013  29.438  28.411  1.00  0.00     0.029 A 
ATOM     46  C   UNL A   1      39.990  29.150  29.456  1.00  0.00     0.049 A 
ATOM     47  H   UNL A   1      40.115  30.018  31.346  1.00  0.00     0.167 HD
ATOM     48  C   UNL A   1      40.365  32.095  35.219  1.00  0.00     0.034 A 
ATOM     49  C   UNL A   1      40.989  28.251  29.362  1.00  0.00     0.034 A 
ATOM     50  C   UNL A   1      41.406  31.095  35.247  1.00  0.00     0.049 A 
ATOM     51  C   UNL A   1      41.903  28.057  30.544  1.00  0.00     0.074 A 
ATOM     52  C   UNL A   1      42.277  30.783  36.277  1.00  0.00     0.029 A 
ATOM     53  N   UNL A   1      41.720  30.246  34.193  1.00  0.00    -0.354 N 
ATOM     54  N   UNL A   1      41.908  28.687  31.696  1.00  0.00    -0.248 NA
ATOM     55  C   UNL A   1      42.933  27.020  30.418  1.00  0.00     0.031 C 
ATOM     56  C   UNL A   1      43.156  29.791  35.824  1.00  0.00     0.029 A 
ATOM     57  C   UNL A   1      42.788  29.429  34.539  1.00  0.00     0.049 A 
ATOM     58  H   UNL A   1      41.254  30.226  33.326  1.00  0.00     0.167 HD
ATOM     59  C   UNL A   1      42.930  28.105  32.442  1.00  0.00     0.074 A 
ATOM     60  C   UNL A   1      43.499  27.059  31.616  1.00  0.00     0.031 C 
ATOM     61  C   UNL A   1      43.359  28.405  33.694  1.00  0.00     0.034 A 
BRANCH  48  62
ATOM     62  C   UNL A   1      40.187  33.005  36.413  1.00  0.00     0.023 A 
ATOM     63  C   UNL A   1      39.434  32.612  37.535  1.00  0.00     0.031 A 
ATOM     64  C   UNL A   1      40.740  34.298  36.418  1.00  0.00     0.131 A 
ATOM     65  C   UNL A   1      39.182  33.526  38.568  1.00  0.00     0.055 A 
ATOM     66  C   UNL A   1      40.559  35.174  37.491  1.00  0.00     0.041 A 
ATOM     67  F   UNL A   1      41.452  34.741  35.369  1.00  0.00    -0.206 F 
ATOM     68  C   UNL A   1      39.762  34.795  38.568  1.00  0.00     0.022 A 
BRANCH  65  69
ATOM     69  S   UNL A   1      37.961  33.084  39.836  1.00  0.00     0.124 S 
ATOM     70  O   UNL A   1      38.527  31.847  40.369  1.00  0.00    -0.237 OA
ATOM     71  O   UNL A   1      37.998  34.239  40.725  1.00  0.00    -0.237 OA
ATOM     72  O   UNL A   1      36.724  32.919  39.076  1.00  0.00    -0.744 OA
ENDBRANCH  65  69
ENDBRANCH  48  62
BRANCH  49  73
ATOM     73  C   UNL A   1      41.184  27.472  28.106  1.00  0.00     0.023 A 
ATOM     74  C   UNL A   1      40.863  26.107  28.042  1.00  0.00     0.031 A 
ATOM     75  C   UNL A   1      41.724  28.078  26.957  1.00  0.00     0.131 A 
ATOM     76  C   UNL A   1      41.126  25.381  26.870  1.00  0.00     0.055 A 
ATOM     77  C   UNL A   1      41.936  27.364  25.777  1.00  0.00     0.041 A 
ATOM     78  F   UNL A   1      42.039  29.383  26.963  1.00  0.00    -0.206 F 
ATOM     79  C   UNL A   1      41.648  26.003  25.733  1.00  0.00     0.022 A 
BRANCH  76  80
ATOM     80  S   UNL A   1      40.843  23.589  26.875  1.00  0.00     0.124 S 
ATOM     81  O   UNL A   1      41.188  23.238  28.249  1.00  0.00    -0.237 OA
ATOM     82  O   UNL A   1      39.430  23.505  26.527  1.00  0.00    -0.237 OA
ATOM     83  O   UNL A   1      41.766  23.097  25.855  1.00  0.00    -0.744 OA
ENDBRANCH  76  80
ENDBRANCH  49  73
BRANCH  61  84
ATOM     84  C   UNL A   1      44.482  27.562  34.247  1.00  0.00     0.023 A 
ATOM     85  C   UNL A   1      44.232  26.375  34.957  1.00  0.00     0.031 A 
ATOM     86  C   UNL A   1      45.818  27.968  34.087  1.00  0.00     0.131 A 
ATOM     87  C   UNL A   1      45.296  25.670  35.539  1.00  0.00     0.055 A 
ATOM     88  C   UNL A   1      46.878  27.229  34.614  1.00  0.00     0.041 A 
ATOM     89  F   UNL A   1      46.116  29.095  33.420  1.00  0.00    -0.206 F 
ATOM     90  C   UNL A   1      46.619  26.082  35.358  1.00  0.00     0.022 A 
BRANCH  87  91
ATOM     91  S   UNL A   1      44.921  24.269  36.628  1.00  0.00     0.124 S 
ATOM     92  O   UNL A   1      44.185  23.380  35.735  1.00  0.00    -0.237 OA
ATOM     93  O   UNL A   1      46.252  23.817  37.023  1.00  0.00    -0.237 OA
ATOM     94  O   UNL A   1      44.127  24.870  37.698  1.00  0.00    -0.744 OA
ENDBRANCH  87  91
ENDBRANCH  61  84
ENDBRANCH  35  36
ENDBRANCH  27  30
ENDBRANCH  25  26
ENDBRANCH  24  25
ENDBRANCH   1  24
TORSDOF 17
ENDMDL
