MODEL 1
REMARK VINA RESULT:     -11.8      0.000      0.000
REMARK SMILES CC1(C)C[C@@](Cc2ccccc2)(C(=O)NCCCNC(=O)c2ccc(-c3c4nc(c(-c5cc(S(=O)(=O)[O-])ccc5F)c5ccc([nH]5)c(-c5cc(S(=O)(=O)[O-])ccc5F)c5nc(c(-c6cc(S(=O)(=O)[O-])ccc6F)c6ccc3[nH]6)C=C5)C=C4)cc2)CCO1
REMARK SMILES IDX 17 1 16 2 15 3 13 4 14 5 5 7 1 8 2 9 3 10 4 11 87 12 86 13
REMARK SMILES IDX 85 14 6 15 7 16 8 17 12 18 9 19 11 20 10 21 18 22 19 23
REMARK SMILES IDX 20 24 21 26 22 27 23 28 84 29 24 30 83 31 25 32 26 33 27 34
REMARK SMILES IDX 77 35 28 36 82 37 76 38 78 39 29 40 81 41 75 42 74 43 30 45
REMARK SMILES IDX 62 46 42 47 61 48 43 49 46 50 60 51 79 52 44 53 45 54 59 56
REMARK SMILES IDX 80 57 47 58 31 59 32 60 40 61 33 62 39 63 41 64 38 65 34 66
REMARK SMILES IDX 35 67 36 68 37 69 63 70 64 71 72 72 65 73 71 74 73 75 70 76
REMARK SMILES IDX 66 77 67 78 68 79 69 80 48 81 49 82 57 83 50 84 56 85 58 86
REMARK SMILES IDX 55 87 51 88 52 89 53 90 54 91
REMARK H PARENT 15 6 19 25 78 44 46 55
REMARK Flexibility Score: inf
ROOT
ATOM      1  C   UNL A   1      33.025  28.278  27.100  1.00  0.00     0.042 C 
ENDROOT
BRANCH   1   2
ATOM      2  C   UNL A   1      31.656  27.867  26.600  1.00  0.00     0.117 C 
BRANCH   2   3
ATOM      3  N   UNL A   1      31.341  26.490  26.872  1.00  0.00    -0.356 N 
ATOM      4  C   UNL A   1      31.669  25.294  26.351  1.00  0.00     0.226 C 
ATOM      5  O   UNL A   1      31.044  24.384  26.921  1.00  0.00    -0.274 OA
ATOM      6  H   UNL A   1      30.729  26.400  27.637  1.00  0.00     0.163 HD
BRANCH   4   7
ATOM      7  C   UNL A   1      32.598  24.967  25.133  1.00  0.00     0.058 C 
ATOM      8  C   UNL A   1      30.657  27.028  23.003  1.00  0.00     0.042 C 
ATOM      9  C   UNL A   1      31.575  25.794  22.838  1.00  0.00     0.064 C 
ATOM     10  C   UNL A   1      32.135  25.874  21.410  1.00  0.00     0.042 C 
ATOM     11  C   UNL A   1      32.682  25.877  23.891  1.00  0.00     0.052 C 
ATOM     12  O   UNL A   1      30.783  24.616  22.885  1.00  0.00    -0.376 OA
ATOM     13  C   UNL A   1      31.214  23.442  23.555  1.00  0.00     0.162 C 
ATOM     14  C   UNL A   1      32.293  23.550  24.625  1.00  0.00     0.046 C 
BRANCH   7  15
ATOM     15  C   UNL A   1      34.080  24.950  25.745  1.00  0.00     0.052 C 
BRANCH  15  16
ATOM     16  C   UNL A   1      34.988  23.795  25.324  1.00  0.00    -0.047 A 
ATOM     17  C   UNL A   1      35.680  23.869  24.105  1.00  0.00     0.004 A 
ATOM     18  C   UNL A   1      35.179  22.655  26.119  1.00  0.00     0.004 A 
ATOM     19  C   UNL A   1      36.565  22.860  23.719  1.00  0.00     0.000 A 
ATOM     20  C   UNL A   1      36.072  21.650  25.740  1.00  0.00     0.000 A 
ATOM     21  C   UNL A   1      36.769  21.755  24.542  1.00  0.00     0.000 A 
ENDBRANCH  15  16
ENDBRANCH   7  15
ENDBRANCH   4   7
ENDBRANCH   2   3
ENDBRANCH   1   2
BRANCH   1  22
ATOM     22  C   UNL A   1      33.650  29.319  26.193  1.00  0.00     0.118 C 
BRANCH  22  23
ATOM     23  N   UNL A   1      33.669  30.650  26.803  1.00  0.00    -0.352 N 
ATOM     24  C   UNL A   1      34.538  31.167  27.736  1.00  0.00     0.251 C 
ATOM     25  H   UNL A   1      32.960  31.261  26.503  1.00  0.00     0.163 HD
ATOM     26  O   UNL A   1      34.305  32.250  28.263  1.00  0.00    -0.269 OA
BRANCH  24  27
ATOM     27  C   UNL A   1      35.724  30.377  28.116  1.00  0.00     0.039 A 
ATOM     28  C   UNL A   1      36.859  30.407  27.305  1.00  0.00     0.014 A 
ATOM     29  C   UNL A   1      35.730  29.682  29.325  1.00  0.00     0.014 A 
ATOM     30  C   UNL A   1      38.035  29.809  27.758  1.00  0.00     0.010 A 
ATOM     31  C   UNL A   1      36.928  29.202  29.827  1.00  0.00     0.010 A 
ATOM     32  C   UNL A   1      38.092  29.247  29.044  1.00  0.00    -0.014 A 
BRANCH  32  33
ATOM     33  C   UNL A   1      39.338  28.660  29.595  1.00  0.00     0.031 A 
ATOM     34  C   UNL A   1      40.016  29.346  30.753  1.00  0.00     0.074 A 
ATOM     35  C   UNL A   1      39.903  27.591  29.002  1.00  0.00     0.049 A 
ATOM     36  N   UNL A   1      41.189  29.119  31.281  1.00  0.00    -0.248 NA
ATOM     37  C   UNL A   1      39.294  30.479  31.356  1.00  0.00     0.031 C 
ATOM     38  C   UNL A   1      39.366  26.882  27.837  1.00  0.00     0.029 A 
ATOM     39  N   UNL A   1      41.065  26.920  29.286  1.00  0.00    -0.354 N 
ATOM     40  C   UNL A   1      41.357  30.099  32.253  1.00  0.00     0.074 A 
ATOM     41  C   UNL A   1      40.206  30.970  32.179  1.00  0.00     0.031 C 
ATOM     42  C   UNL A   1      40.183  25.863  27.524  1.00  0.00     0.029 A 
ATOM     43  C   UNL A   1      41.327  25.875  28.429  1.00  0.00     0.049 A 
ATOM     44  H   UNL A   1      41.659  27.164  30.033  1.00  0.00     0.167 HD
ATOM     45  C   UNL A   1      42.362  30.237  33.153  1.00  0.00     0.034 A 
ATOM     46  C   UNL A   1      42.379  25.033  28.374  1.00  0.00     0.034 A 
ATOM     47  C   UNL A   1      43.478  29.330  33.233  1.00  0.00     0.049 A 
ATOM     48  C   UNL A   1      43.480  25.196  29.391  1.00  0.00     0.074 A 
ATOM     49  C   UNL A   1      44.526  29.327  34.135  1.00  0.00     0.029 A 
ATOM     50  N   UNL A   1      43.686  28.256  32.376  1.00  0.00    -0.354 N 
ATOM     51  N   UNL A   1      43.604  26.100  30.337  1.00  0.00    -0.248 NA
ATOM     52  C   UNL A   1      44.578  24.222  29.342  1.00  0.00     0.031 C 
ATOM     53  C   UNL A   1      45.395  28.285  33.792  1.00  0.00     0.029 A 
ATOM     54  C   UNL A   1      44.854  27.595  32.716  1.00  0.00     0.049 A 
ATOM     55  H   UNL A   1      43.090  28.001  31.635  1.00  0.00     0.167 HD
ATOM     56  C   UNL A   1      44.780  25.786  31.011  1.00  0.00     0.074 A 
ATOM     57  C   UNL A   1      45.318  24.600  30.374  1.00  0.00     0.031 C 
ATOM     58  C   UNL A   1      45.367  26.417  32.060  1.00  0.00     0.034 A 
BRANCH  45  59
ATOM     59  C   UNL A   1      42.285  31.409  34.103  1.00  0.00     0.023 A 
ATOM     60  C   UNL A   1      41.410  31.406  35.205  1.00  0.00     0.031 A 
ATOM     61  C   UNL A   1      43.053  32.564  33.880  1.00  0.00     0.131 A 
ATOM     62  C   UNL A   1      41.253  32.563  35.980  1.00  0.00     0.055 A 
ATOM     63  C   UNL A   1      42.960  33.682  34.712  1.00  0.00     0.041 A 
ATOM     64  F   UNL A   1      43.891  32.637  32.833  1.00  0.00    -0.206 F 
ATOM     65  C   UNL A   1      42.042  33.694  35.759  1.00  0.00     0.022 A 
BRANCH  62  66
ATOM     66  S   UNL A   1      39.890  32.622  37.176  1.00  0.00     0.124 S 
ATOM     67  O   UNL A   1      39.180  33.827  36.751  1.00  0.00    -0.237 OA
ATOM     68  O   UNL A   1      39.205  31.358  36.937  1.00  0.00    -0.237 OA
ATOM     69  O   UNL A   1      40.571  32.730  38.465  1.00  0.00    -0.744 OA
ENDBRANCH  62  66
ENDBRANCH  45  59
BRANCH  46  70
ATOM     70  C   UNL A   1      42.451  23.974  27.326  1.00  0.00     0.023 A 
ATOM     71  C   UNL A   1      41.863  22.716  27.526  1.00  0.00     0.031 A 
ATOM     72  C   UNL A   1      43.143  24.194  26.121  1.00  0.00     0.131 A 
ATOM     73  C   UNL A   1      42.018  21.708  26.561  1.00  0.00     0.055 A 
ATOM     74  C   UNL A   1      43.249  23.205  25.140  1.00  0.00     0.041 A 
ATOM     75  F   UNL A   1      43.717  25.381  25.872  1.00  0.00    -0.206 F 
ATOM     76  C   UNL A   1      42.696  21.947  25.363  1.00  0.00     0.022 A 
BRANCH  73  77
ATOM     77  S   UNL A   1      41.394  20.045  26.933  1.00  0.00     0.124 S 
ATOM     78  O   UNL A   1      42.610  19.246  26.847  1.00  0.00    -0.237 OA
ATOM     79  O   UNL A   1      40.837  20.224  28.270  1.00  0.00    -0.237 OA
ATOM     80  O   UNL A   1      40.413  19.806  25.878  1.00  0.00    -0.744 OA
ENDBRANCH  73  77
ENDBRANCH  46  70
BRANCH  58  81
ATOM     81  C   UNL A   1      46.632  25.805  32.602  1.00  0.00     0.023 A 
ATOM     82  C   UNL A   1      46.603  24.820  33.603  1.00  0.00     0.031 A 
ATOM     83  C   UNL A   1      47.882  26.208  32.100  1.00  0.00     0.131 A 
ATOM     84  C   UNL A   1      47.806  24.304  34.107  1.00  0.00     0.055 A 
ATOM     85  C   UNL A   1      49.073  25.650  32.564  1.00  0.00     0.041 A 
ATOM     86  F   UNL A   1      47.964  27.145  31.141  1.00  0.00    -0.206 F 
ATOM     87  C   UNL A   1      49.039  24.700  33.581  1.00  0.00     0.022 A 
BRANCH  84  88
ATOM     88  S   UNL A   1      47.741  23.159  35.511  1.00  0.00     0.124 S 
ATOM     89  O   UNL A   1      49.114  23.204  36.003  1.00  0.00    -0.237 OA
ATOM     90  O   UNL A   1      46.736  23.777  36.371  1.00  0.00    -0.237 OA
ATOM     91  O   UNL A   1      47.340  21.893  34.902  1.00  0.00    -0.744 OA
ENDBRANCH  84  88
ENDBRANCH  58  81
ENDBRANCH  32  33
ENDBRANCH  24  27
ENDBRANCH  22  23
ENDBRANCH   1  22
TORSDOF 15
ENDMDL
MODEL 2
REMARK VINA RESULT:     -11.8      3.404      9.028
REMARK SMILES CC1(C)C[C@@](Cc2ccccc2)(C(=O)NCCCNC(=O)c2ccc(-c3c4nc(c(-c5cc(S(=O)(=O)[O-])ccc5F)c5ccc([nH]5)c(-c5cc(S(=O)(=O)[O-])ccc5F)c5nc(c(-c6cc(S(=O)(=O)[O-])ccc6F)c6ccc3[nH]6)C=C5)C=C4)cc2)CCO1
REMARK SMILES IDX 17 1 16 2 15 3 13 4 14 5 5 7 1 8 2 9 3 10 4 11 87 12 86 13
REMARK SMILES IDX 85 14 6 15 7 16 8 17 12 18 9 19 11 20 10 21 18 22 19 23
REMARK SMILES IDX 20 24 21 26 22 27 23 28 84 29 24 30 83 31 25 32 26 33 27 34
REMARK SMILES IDX 77 35 28 36 82 37 76 38 78 39 29 40 81 41 75 42 74 43 30 45
REMARK SMILES IDX 62 46 42 47 61 48 43 49 46 50 60 51 79 52 44 53 45 54 59 56
REMARK SMILES IDX 80 57 47 58 31 59 32 60 40 61 33 62 39 63 41 64 38 65 34 66
REMARK SMILES IDX 35 67 36 68 37 69 63 70 64 71 72 72 65 73 71 74 73 75 70 76
REMARK SMILES IDX 66 77 67 78 68 79 69 80 48 81 49 82 57 83 50 84 56 85 58 86
REMARK SMILES IDX 55 87 51 88 52 89 53 90 54 91
REMARK H PARENT 15 6 19 25 78 44 46 55
REMARK Flexibility Score: inf
ROOT
ATOM      1  C   UNL A   1      31.465  31.740  26.392  1.00  0.00     0.042 C 
ENDROOT
BRANCH   1   2
ATOM      2  C   UNL A   1      31.572  30.273  26.031  1.00  0.00     0.117 C 
BRANCH   2   3
ATOM      3  N   UNL A   1      32.479  30.020  24.943  1.00  0.00    -0.356 N 
ATOM      4  C   UNL A   1      32.577  29.124  23.945  1.00  0.00     0.226 C 
ATOM      5  O   UNL A   1      33.627  29.300  23.303  1.00  0.00    -0.274 OA
ATOM      6  H   UNL A   1      33.217  30.670  24.925  1.00  0.00     0.163 HD
BRANCH   4   7
ATOM      7  C   UNL A   1      31.637  27.919  23.600  1.00  0.00     0.058 C 
ATOM      8  C   UNL A   1      31.382  27.045  27.024  1.00  0.00     0.042 C 
ATOM      9  C   UNL A   1      31.269  26.311  25.667  1.00  0.00     0.064 C 
ATOM     10  C   UNL A   1      30.334  25.116  25.912  1.00  0.00     0.042 C 
ATOM     11  C   UNL A   1      30.692  27.288  24.642  1.00  0.00     0.052 C 
ATOM     12  O   UNL A   1      32.534  25.758  25.331  1.00  0.00    -0.376 OA
ATOM     13  C   UNL A   1      33.036  25.772  24.005  1.00  0.00     0.162 C 
ATOM     14  C   UNL A   1      32.472  26.775  23.007  1.00  0.00     0.046 C 
BRANCH   7  15
ATOM     15  C   UNL A   1      30.679  28.470  22.438  1.00  0.00     0.052 C 
BRANCH  15  16
ATOM     16  C   UNL A   1      29.470  29.296  22.875  1.00  0.00    -0.047 A 
ATOM     17  C   UNL A   1      29.646  30.639  23.241  1.00  0.00     0.004 A 
ATOM     18  C   UNL A   1      28.169  28.772  22.908  1.00  0.00     0.004 A 
ATOM     19  C   UNL A   1      28.554  31.440  23.585  1.00  0.00     0.000 A 
ATOM     20  C   UNL A   1      27.075  29.574  23.241  1.00  0.00     0.000 A 
ATOM     21  C   UNL A   1      27.267  30.909  23.574  1.00  0.00     0.000 A 
ENDBRANCH  15  16
ENDBRANCH   7  15
ENDBRANCH   4   7
ENDBRANCH   2   3
ENDBRANCH   1   2
BRANCH   1  22
ATOM     22  C   UNL A   1      32.735  32.236  27.054  1.00  0.00     0.118 C 
BRANCH  22  23
ATOM     23  N   UNL A   1      32.603  33.605  27.556  1.00  0.00    -0.352 N 
ATOM     24  C   UNL A   1      33.359  34.264  28.497  1.00  0.00     0.251 C 
ATOM     25  H   UNL A   1      31.867  34.128  27.164  1.00  0.00     0.163 HD
ATOM     26  O   UNL A   1      33.002  35.359  28.920  1.00  0.00    -0.269 OA
BRANCH  24  27
ATOM     27  C   UNL A   1      34.577  33.612  29.011  1.00  0.00     0.039 A 
ATOM     28  C   UNL A   1      35.822  34.195  28.776  1.00  0.00     0.014 A 
ATOM     29  C   UNL A   1      34.464  32.469  29.803  1.00  0.00     0.014 A 
ATOM     30  C   UNL A   1      36.949  33.677  29.416  1.00  0.00     0.010 A 
ATOM     31  C   UNL A   1      35.558  32.037  30.534  1.00  0.00     0.010 A 
ATOM     32  C   UNL A   1      36.816  32.626  30.339  1.00  0.00    -0.014 A 
BRANCH  32  33
ATOM     33  C   UNL A   1      37.975  32.087  31.094  1.00  0.00     0.031 A 
ATOM     34  C   UNL A   1      38.780  30.967  30.490  1.00  0.00     0.074 A 
ATOM     35  C   UNL A   1      38.235  32.528  32.340  1.00  0.00     0.049 A 
ATOM     36  N   UNL A   1      39.713  30.230  31.030  1.00  0.00    -0.248 NA
ATOM     37  C   UNL A   1      38.442  30.589  29.107  1.00  0.00     0.031 C 
ATOM     38  C   UNL A   1      37.483  33.568  33.048  1.00  0.00     0.029 A 
ATOM     39  N   UNL A   1      39.194  32.145  33.242  1.00  0.00    -0.354 N 
ATOM     40  C   UNL A   1      40.049  29.285  30.067  1.00  0.00     0.074 A 
ATOM     41  C   UNL A   1      39.159  29.490  28.946  1.00  0.00     0.031 C 
ATOM     42  C   UNL A   1      38.026  33.757  34.262  1.00  0.00     0.029 A 
ATOM     43  C   UNL A   1      39.129  32.819  34.441  1.00  0.00     0.049 A 
ATOM     44  H   UNL A   1      39.867  31.452  33.052  1.00  0.00     0.167 HD
ATOM     45  C   UNL A   1      41.037  28.357  30.098  1.00  0.00     0.034 A 
ATOM     46  C   UNL A   1      39.868  32.682  35.561  1.00  0.00     0.034 A 
ATOM     47  C   UNL A   1      41.938  28.202  31.210  1.00  0.00     0.049 A 
ATOM     48  C   UNL A   1      40.969  31.652  35.571  1.00  0.00     0.074 A 
ATOM     49  C   UNL A   1      43.013  27.341  31.339  1.00  0.00     0.029 A 
ATOM     50  N   UNL A   1      41.869  28.933  32.390  1.00  0.00    -0.354 N 
ATOM     51  N   UNL A   1      41.307  30.795  34.633  1.00  0.00    -0.248 NA
ATOM     52  C   UNL A   1      41.794  31.575  36.782  1.00  0.00     0.031 C 
ATOM     53  C   UNL A   1      43.561  27.514  32.615  1.00  0.00     0.029 A 
ATOM     54  C   UNL A   1      42.870  28.530  33.258  1.00  0.00     0.049 A 
ATOM     55  H   UNL A   1      41.205  29.634  32.582  1.00  0.00     0.167 HD
ATOM     56  C   UNL A   1      42.401  30.096  35.134  1.00  0.00     0.074 A 
ATOM     57  C   UNL A   1      42.676  30.644  36.447  1.00  0.00     0.031 C 
ATOM     58  C   UNL A   1      43.116  29.093  34.564  1.00  0.00     0.034 A 
BRANCH  45  59
ATOM     59  C   UNL A   1      41.175  27.452  28.896  1.00  0.00     0.023 A 
ATOM     60  C   UNL A   1      42.188  27.649  27.940  1.00  0.00     0.031 A 
ATOM     61  C   UNL A   1      40.255  26.414  28.671  1.00  0.00     0.131 A 
ATOM     62  C   UNL A   1      42.200  26.889  26.762  1.00  0.00     0.055 A 
ATOM     63  C   UNL A   1      40.329  25.597  27.539  1.00  0.00     0.041 A 
ATOM     64  F   UNL A   1      39.253  26.187  29.536  1.00  0.00    -0.206 F 
ATOM     65  C   UNL A   1      41.293  25.845  26.567  1.00  0.00     0.022 A 
BRANCH  62  66
ATOM     66  S   UNL A   1      43.315  27.390  25.423  1.00  0.00     0.124 S 
ATOM     67  O   UNL A   1      44.278  28.223  26.140  1.00  0.00    -0.237 OA
ATOM     68  O   UNL A   1      43.815  26.113  24.932  1.00  0.00    -0.237 OA
ATOM     69  O   UNL A   1      42.440  28.115  24.502  1.00  0.00    -0.744 OA
ENDBRANCH  62  66
ENDBRANCH  45  59
BRANCH  46  70
ATOM     70  C   UNL A   1      39.593  33.524  36.760  1.00  0.00     0.023 A 
ATOM     71  C   UNL A   1      38.930  32.996  37.879  1.00  0.00     0.031 A 
ATOM     72  C   UNL A   1      39.958  34.882  36.792  1.00  0.00     0.131 A 
ATOM     73  C   UNL A   1      38.607  33.831  38.961  1.00  0.00     0.055 A 
ATOM     74  C   UNL A   1      39.682  35.696  37.893  1.00  0.00     0.041 A 
ATOM     75  F   UNL A   1      40.603  35.438  35.754  1.00  0.00    -0.206 F 
ATOM     76  C   UNL A   1      38.990  35.174  38.982  1.00  0.00     0.022 A 
BRANCH  73  77
ATOM     77  S   UNL A   1      37.597  33.155  40.309  1.00  0.00     0.124 S 
ATOM     78  O   UNL A   1      38.407  32.025  40.748  1.00  0.00    -0.237 OA
ATOM     79  O   UNL A   1      37.522  34.287  41.226  1.00  0.00    -0.237 OA
ATOM     80  O   UNL A   1      36.341  32.804  39.650  1.00  0.00    -0.744 OA
ENDBRANCH  73  77
ENDBRANCH  46  70
BRANCH  58  81
ATOM     81  C   UNL A   1      44.287  28.560  35.349  1.00  0.00     0.023 A 
ATOM     82  C   UNL A   1      44.134  27.530  36.292  1.00  0.00     0.031 A 
ATOM     83  C   UNL A   1      45.574  29.087  35.141  1.00  0.00     0.131 A 
ATOM     84  C   UNL A   1      45.243  27.090  37.028  1.00  0.00     0.055 A 
ATOM     85  C   UNL A   1      46.684  28.606  35.836  1.00  0.00     0.041 A 
ATOM     86  F   UNL A   1      45.774  30.072  34.250  1.00  0.00    -0.206 F 
ATOM     87  C   UNL A   1      46.519  27.609  36.794  1.00  0.00     0.022 A 
BRANCH  84  88
ATOM     88  S   UNL A   1      44.982  25.878  38.351  1.00  0.00     0.124 S 
ATOM     89  O   UNL A   1      44.119  24.899  37.701  1.00  0.00    -0.237 OA
ATOM     90  O   UNL A   1      46.343  25.434  38.641  1.00  0.00    -0.237 OA
ATOM     91  O   UNL A   1      44.349  26.659  39.411  1.00  0.00    -0.744 OA
ENDBRANCH  84  88
ENDBRANCH  58  81
ENDBRANCH  32  33
ENDBRANCH  24  27
ENDBRANCH  22  23
ENDBRANCH   1  22
TORSDOF 15
ENDMDL
MODEL 3
REMARK VINA RESULT:     -11.7      2.195      7.945
REMARK SMILES CC1(C)C[C@@](Cc2ccccc2)(C(=O)NCCCNC(=O)c2ccc(-c3c4nc(c(-c5cc(S(=O)(=O)[O-])ccc5F)c5ccc([nH]5)c(-c5cc(S(=O)(=O)[O-])ccc5F)c5nc(c(-c6cc(S(=O)(=O)[O-])ccc6F)c6ccc3[nH]6)C=C5)C=C4)cc2)CCO1
REMARK SMILES IDX 17 1 16 2 15 3 13 4 14 5 5 7 1 8 2 9 3 10 4 11 87 12 86 13
REMARK SMILES IDX 85 14 6 15 7 16 8 17 12 18 9 19 11 20 10 21 18 22 19 23
REMARK SMILES IDX 20 24 21 26 22 27 23 28 84 29 24 30 83 31 25 32 26 33 27 34
REMARK SMILES IDX 77 35 28 36 82 37 76 38 78 39 29 40 81 41 75 42 74 43 30 45
REMARK SMILES IDX 62 46 42 47 61 48 43 49 46 50 60 51 79 52 44 53 45 54 59 56
REMARK SMILES IDX 80 57 47 58 31 59 32 60 40 61 33 62 39 63 41 64 38 65 34 66
REMARK SMILES IDX 35 67 36 68 37 69 63 70 64 71 72 72 65 73 71 74 73 75 70 76
REMARK SMILES IDX 66 77 67 78 68 79 69 80 48 81 49 82 57 83 50 84 56 85 58 86
REMARK SMILES IDX 55 87 51 88 52 89 53 90 54 91
REMARK H PARENT 15 6 19 25 78 44 46 55
REMARK Flexibility Score: inf
ROOT
ATOM      1  C   UNL A   1      33.053  29.327  24.623  1.00  0.00     0.042 C 
ENDROOT
BRANCH   1   2
ATOM      2  C   UNL A   1      32.171  28.217  24.089  1.00  0.00     0.117 C 
BRANCH   2   3
ATOM      3  N   UNL A   1      32.748  27.520  22.971  1.00  0.00    -0.356 N 
ATOM      4  C   UNL A   1      33.167  26.268  22.715  1.00  0.00     0.226 C 
ATOM      5  O   UNL A   1      33.675  26.201  21.583  1.00  0.00    -0.274 OA
ATOM      6  H   UNL A   1      32.865  28.111  22.194  1.00  0.00     0.163 HD
BRANCH   4   7
ATOM      7  C   UNL A   1      33.176  25.015  23.655  1.00  0.00     0.058 C 
ATOM      8  C   UNL A   1      29.958  25.829  24.893  1.00  0.00     0.042 C 
ATOM      9  C   UNL A   1      31.198  25.063  25.410  1.00  0.00     0.064 C 
ATOM     10  C   UNL A   1      30.665  24.031  26.417  1.00  0.00     0.042 C 
ATOM     11  C   UNL A   1      31.880  24.395  24.215  1.00  0.00     0.052 C 
ATOM     12  O   UNL A   1      32.017  25.953  26.155  1.00  0.00    -0.376 OA
ATOM     13  C   UNL A   1      33.432  25.926  26.072  1.00  0.00     0.162 C 
ATOM     14  C   UNL A   1      34.093  25.286  24.857  1.00  0.00     0.046 C 
BRANCH   7  15
ATOM     15  C   UNL A   1      33.857  23.856  22.782  1.00  0.00     0.052 C 
BRANCH  15  16
ATOM     16  C   UNL A   1      34.718  22.841  23.533  1.00  0.00    -0.047 A 
ATOM     17  C   UNL A   1      36.116  22.962  23.499  1.00  0.00     0.004 A 
ATOM     18  C   UNL A   1      34.168  21.790  24.282  1.00  0.00     0.004 A 
ATOM     19  C   UNL A   1      36.931  22.090  24.224  1.00  0.00     0.000 A 
ATOM     20  C   UNL A   1      34.981  20.923  25.017  1.00  0.00     0.000 A 
ATOM     21  C   UNL A   1      36.362  21.077  24.992  1.00  0.00     0.000 A 
ENDBRANCH  15  16
ENDBRANCH   7  15
ENDBRANCH   4   7
ENDBRANCH   2   3
ENDBRANCH   1   2
BRANCH   1  22
ATOM     22  C   UNL A   1      32.835  29.534  26.109  1.00  0.00     0.118 C 
BRANCH  22  23
ATOM     23  N   UNL A   1      32.492  30.920  26.432  1.00  0.00    -0.352 N 
ATOM     24  C   UNL A   1      33.162  31.819  27.229  1.00  0.00     0.251 C 
ATOM     25  H   UNL A   1      31.663  31.256  26.022  1.00  0.00     0.163 HD
ATOM     26  O   UNL A   1      32.642  32.890  27.525  1.00  0.00    -0.269 OA
BRANCH  24  27
ATOM     27  C   UNL A   1      34.493  31.453  27.748  1.00  0.00     0.039 A 
ATOM     28  C   UNL A   1      35.452  32.446  27.945  1.00  0.00     0.014 A 
ATOM     29  C   UNL A   1      34.746  30.133  28.120  1.00  0.00     0.014 A 
ATOM     30  C   UNL A   1      36.640  32.125  28.604  1.00  0.00     0.010 A 
ATOM     31  C   UNL A   1      35.865  29.845  28.884  1.00  0.00     0.010 A 
ATOM     32  C   UNL A   1      36.832  30.834  29.123  1.00  0.00    -0.014 A 
BRANCH  32  33
ATOM     33  C   UNL A   1      38.047  30.464  29.890  1.00  0.00     0.031 A 
ATOM     34  C   UNL A   1      39.023  29.490  29.282  1.00  0.00     0.074 A 
ATOM     35  C   UNL A   1      38.218  30.916  31.147  1.00  0.00     0.049 A 
ATOM     36  N   UNL A   1      40.050  28.895  29.827  1.00  0.00    -0.248 NA
ATOM     37  C   UNL A   1      38.767  29.091  27.888  1.00  0.00     0.031 C 
ATOM     38  C   UNL A   1      37.307  31.816  31.858  1.00  0.00     0.029 A 
ATOM     39  N   UNL A   1      39.211  30.667  32.060  1.00  0.00    -0.354 N 
ATOM     40  C   UNL A   1      40.541  28.030  28.854  1.00  0.00     0.074 A 
ATOM     41  C   UNL A   1      39.647  28.117  27.722  1.00  0.00     0.031 C 
ATOM     42  C   UNL A   1      37.796  32.063  33.085  1.00  0.00     0.029 A 
ATOM     43  C   UNL A   1      39.027  31.301  33.268  1.00  0.00     0.049 A 
ATOM     44  H   UNL A   1      39.985  30.088  31.870  1.00  0.00     0.167 HD
ATOM     45  C   UNL A   1      41.658  27.263  28.888  1.00  0.00     0.034 A 
ATOM     46  C   UNL A   1      39.761  31.257  34.398  1.00  0.00     0.034 A 
ATOM     47  C   UNL A   1      42.555  27.226  30.014  1.00  0.00     0.049 A 
ATOM     48  C   UNL A   1      41.007  30.407  34.411  1.00  0.00     0.074 A 
ATOM     49  C   UNL A   1      43.747  26.537  30.147  1.00  0.00     0.029 A 
ATOM     50  N   UNL A   1      42.358  27.917  31.204  1.00  0.00    -0.354 N 
ATOM     51  N   UNL A   1      41.485  29.630  33.466  1.00  0.00    -0.248 NA
ATOM     52  C   UNL A   1      41.816  30.434  35.635  1.00  0.00     0.031 C 
ATOM     53  C   UNL A   1      44.243  26.769  31.435  1.00  0.00     0.029 A 
ATOM     54  C   UNL A   1      43.396  27.655  32.083  1.00  0.00     0.049 A 
ATOM     55  H   UNL A   1      41.592  28.505  31.395  1.00  0.00     0.167 HD
ATOM     56  C   UNL A   1      42.666  29.097  33.974  1.00  0.00     0.074 A 
ATOM     57  C   UNL A   1      42.834  29.655  35.300  1.00  0.00     0.031 C 
ATOM     58  C   UNL A   1      43.534  28.225  33.401  1.00  0.00     0.034 A 
BRANCH  45  59
ATOM     59  C   UNL A   1      41.950  26.412  27.674  1.00  0.00     0.023 A 
ATOM     60  C   UNL A   1      41.573  25.059  27.617  1.00  0.00     0.031 A 
ATOM     61  C   UNL A   1      42.660  26.941  26.583  1.00  0.00     0.131 A 
ATOM     62  C   UNL A   1      41.988  24.258  26.543  1.00  0.00     0.055 A 
ATOM     63  C   UNL A   1      42.990  26.161  25.472  1.00  0.00     0.041 A 
ATOM     64  F   UNL A   1      43.066  28.221  26.586  1.00  0.00    -0.206 F 
ATOM     65  C   UNL A   1      42.671  24.806  25.455  1.00  0.00     0.022 A 
BRANCH  62  66
ATOM     66  S   UNL A   1      41.762  22.463  26.667  1.00  0.00     0.124 S 
ATOM     67  O   UNL A   1      42.619  22.138  27.805  1.00  0.00    -0.237 OA
ATOM     68  O   UNL A   1      40.327  22.340  26.891  1.00  0.00    -0.237 OA
ATOM     69  O   UNL A   1      42.238  21.968  25.376  1.00  0.00    -0.744 OA
ENDBRANCH  62  66
ENDBRANCH  45  59
BRANCH  46  70
ATOM     70  C   UNL A   1      39.343  32.026  35.606  1.00  0.00     0.023 A 
ATOM     71  C   UNL A   1      38.591  31.420  36.625  1.00  0.00     0.031 A 
ATOM     72  C   UNL A   1      39.659  33.389  35.743  1.00  0.00     0.131 A 
ATOM     73  C   UNL A   1      38.137  32.185  37.711  1.00  0.00     0.055 A 
ATOM     74  C   UNL A   1      39.250  34.134  36.852  1.00  0.00     0.041 A 
ATOM     75  F   UNL A   1      40.384  34.018  34.804  1.00  0.00    -0.206 F 
ATOM     76  C   UNL A   1      38.472  33.536  37.838  1.00  0.00     0.022 A 
BRANCH  73  77
ATOM     77  S   UNL A   1      37.023  31.410  38.915  1.00  0.00     0.124 S 
ATOM     78  O   UNL A   1      36.853  30.078  38.348  1.00  0.00    -0.237 OA
ATOM     79  O   UNL A   1      37.806  31.490  40.144  1.00  0.00    -0.237 OA
ATOM     80  O   UNL A   1      35.836  32.261  38.878  1.00  0.00    -0.744 OA
ENDBRANCH  73  77
ENDBRANCH  46  70
BRANCH  58  81
ATOM     81  C   UNL A   1      44.760  27.862  34.198  1.00  0.00     0.023 A 
ATOM     82  C   UNL A   1      44.784  26.741  35.045  1.00  0.00     0.031 A 
ATOM     83  C   UNL A   1      45.923  28.646  34.098  1.00  0.00     0.131 A 
ATOM     84  C   UNL A   1      45.933  26.462  35.798  1.00  0.00     0.055 A 
ATOM     85  C   UNL A   1      47.083  28.331  34.806  1.00  0.00     0.041 A 
ATOM     86  F   UNL A   1      45.953  29.727  33.301  1.00  0.00    -0.206 F 
ATOM     87  C   UNL A   1      47.088  27.239  35.670  1.00  0.00     0.022 A 
BRANCH  84  88
ATOM     88  S   UNL A   1      45.875  25.110  37.004  1.00  0.00     0.124 S 
ATOM     89  O   UNL A   1      46.099  25.814  38.261  1.00  0.00    -0.237 OA
ATOM     90  O   UNL A   1      44.532  24.572  36.806  1.00  0.00    -0.237 OA
ATOM     91  O   UNL A   1      46.961  24.228  36.583  1.00  0.00    -0.744 OA
ENDBRANCH  84  88
ENDBRANCH  58  81
ENDBRANCH  32  33
ENDBRANCH  24  27
ENDBRANCH  22  23
ENDBRANCH   1  22
TORSDOF 15
ENDMDL
