MODEL 1
REMARK VINA RESULT:     -13.3      0.000      0.000
REMARK SMILES O=C(NCCCNC(=O)c1cc2c(Cl)c(C(F)(F)F)cnc2n1S(=O)(=O)c1ccccc1)c1ccc(-c2c3nc(c(-c4cc(S(=O)(=O)[O-])ccc4F)c4ccc([nH]4)c(-c4cc(S(=O)(=O)[O-])ccc4F)c4nc(c(-c5cc(S(=O)(=O)[O-])ccc5F)c5ccc2[nH]5)C=C4)C=C3)cc1
REMARK SMILES IDX 4 1 3 2 1 3 2 4 33 6 34 7 95 8 35 9 94 10 36 11 37 12 38 13
REMARK SMILES IDX 88 14 39 15 93 16 87 17 89 18 40 19 92 20 86 21 85 22 41 24
REMARK SMILES IDX 73 25 53 26 72 27 54 28 57 29 71 30 90 31 55 32 56 33 70 35
REMARK SMILES IDX 91 36 58 37 42 38 43 39 51 40 44 41 50 42 52 43 49 44 45 45
REMARK SMILES IDX 46 46 47 47 48 48 74 49 75 50 83 51 76 52 82 53 84 54 81 55
REMARK SMILES IDX 77 56 78 57 79 58 80 59 59 60 60 61 68 62 61 63 67 64 69 65
REMARK SMILES IDX 66 66 62 67 63 68 64 69 65 70 5 71 6 72 7 73 8 74 9 76 10 77
REMARK SMILES IDX 11 78 23 79 12 80 22 81 13 82 21 83 14 84 15 85 20 86 24 87
REMARK SMILES IDX 25 88 26 89 27 90 28 91 32 92 29 93 31 94 30 95 16 96 17 97
REMARK SMILES IDX 18 98 19 99
REMARK H PARENT 3 5 89 23 57 34 7 75
REMARK Flexibility Score: inf
ROOT
ATOM      1  C   UNL A   1      39.569  21.987  26.389  1.00  0.00     0.118 C 
ENDROOT
BRANCH   1   2
ATOM      2  N   UNL A   1      40.898  22.072  25.806  1.00  0.00    -0.352 N 
ATOM      3  O   UNL A   1      42.990  22.656  25.345  1.00  0.00    -0.269 OA
ATOM      4  C   UNL A   1      41.945  22.947  25.928  1.00  0.00     0.251 C 
ATOM      5  H   UNL A   1      41.088  21.334  25.182  1.00  0.00     0.163 HD
BRANCH   4   6
ATOM      6  C   UNL A   1      41.857  24.239  26.650  1.00  0.00     0.039 A 
ATOM      7  C   UNL A   1      42.305  24.432  27.956  1.00  0.00     0.014 A 
ATOM      8  C   UNL A   1      41.296  25.324  25.953  1.00  0.00     0.014 A 
ATOM      9  C   UNL A   1      42.078  25.643  28.598  1.00  0.00     0.010 A 
ATOM     10  C   UNL A   1      41.111  26.556  26.579  1.00  0.00     0.010 A 
ATOM     11  C   UNL A   1      41.467  26.702  27.917  1.00  0.00    -0.014 A 
BRANCH  11  12
ATOM     12  C   UNL A   1      41.333  27.963  28.644  1.00  0.00     0.031 A 
ATOM     13  C   UNL A   1      42.297  29.040  28.271  1.00  0.00     0.074 A 
ATOM     14  C   UNL A   1      40.347  28.241  29.518  1.00  0.00     0.049 A 
ATOM     15  N   UNL A   1      43.203  29.611  29.000  1.00  0.00    -0.248 NA
ATOM     16  C   UNL A   1      42.287  29.479  26.870  1.00  0.00     0.031 C 
ATOM     17  C   UNL A   1      39.107  27.498  29.745  1.00  0.00     0.029 A 
ATOM     18  N   UNL A   1      40.210  29.340  30.315  1.00  0.00    -0.354 N 
ATOM     19  C   UNL A   1      43.775  30.602  28.198  1.00  0.00     0.074 A 
ATOM     20  C   UNL A   1      43.256  30.393  26.868  1.00  0.00     0.031 C 
ATOM     21  C   UNL A   1      38.251  28.280  30.441  1.00  0.00     0.029 A 
ATOM     22  C   UNL A   1      38.936  29.505  30.826  1.00  0.00     0.049 A 
ATOM     23  H   UNL A   1      40.951  29.960  30.507  1.00  0.00     0.167 HD
ATOM     24  C   UNL A   1      44.512  31.634  28.700  1.00  0.00     0.034 A 
ATOM     25  C   UNL A   1      38.448  30.612  31.433  1.00  0.00     0.034 A 
ATOM     26  C   UNL A   1      44.900  31.412  30.063  1.00  0.00     0.049 A 
ATOM     27  C   UNL A   1      39.583  31.454  31.882  1.00  0.00     0.074 A 
ATOM     28  C   UNL A   1      45.706  30.515  30.730  1.00  0.00     0.029 A 
ATOM     29  N   UNL A   1      44.200  32.085  31.031  1.00  0.00    -0.354 N 
ATOM     30  N   UNL A   1      40.398  31.154  32.854  1.00  0.00    -0.248 NA
ATOM     31  C   UNL A   1      40.024  32.531  31.010  1.00  0.00     0.031 C 
ATOM     32  C   UNL A   1      45.140  30.397  32.031  1.00  0.00     0.029 A 
ATOM     33  C   UNL A   1      44.014  31.224  32.077  1.00  0.00     0.049 A 
ATOM     34  H   UNL A   1      43.887  33.018  30.982  1.00  0.00     0.167 HD
ATOM     35  C   UNL A   1      41.613  31.707  32.480  1.00  0.00     0.074 A 
ATOM     36  C   UNL A   1      41.286  32.656  31.422  1.00  0.00     0.031 C 
ATOM     37  C   UNL A   1      42.799  31.148  32.863  1.00  0.00     0.034 A 
BRANCH  24  38
ATOM     38  C   UNL A   1      44.632  32.997  28.057  1.00  0.00     0.023 A 
ATOM     39  C   UNL A   1      43.633  33.980  28.175  1.00  0.00     0.031 A 
ATOM     40  C   UNL A   1      45.861  33.431  27.512  1.00  0.00     0.131 A 
ATOM     41  C   UNL A   1      43.848  35.299  27.756  1.00  0.00     0.055 A 
ATOM     42  C   UNL A   1      46.100  34.765  27.156  1.00  0.00     0.041 A 
ATOM     43  F   UNL A   1      46.891  32.582  27.367  1.00  0.00    -0.206 F 
ATOM     44  C   UNL A   1      45.088  35.708  27.274  1.00  0.00     0.022 A 
BRANCH  41  45
ATOM     45  S   UNL A   1      42.503  36.511  27.836  1.00  0.00     0.124 S 
ATOM     46  O   UNL A   1      42.941  37.366  28.933  1.00  0.00    -0.237 OA
ATOM     47  O   UNL A   1      42.559  37.109  26.504  1.00  0.00    -0.237 OA
ATOM     48  O   UNL A   1      41.325  35.690  28.093  1.00  0.00    -0.744 OA
ENDBRANCH  41  45
ENDBRANCH  24  38
BRANCH  25  49
ATOM     49  C   UNL A   1      37.076  31.150  31.300  1.00  0.00     0.023 A 
ATOM     50  C   UNL A   1      36.555  31.440  30.024  1.00  0.00     0.031 A 
ATOM     51  C   UNL A   1      36.370  31.634  32.411  1.00  0.00     0.131 A 
ATOM     52  C   UNL A   1      35.393  32.208  29.885  1.00  0.00     0.055 A 
ATOM     53  C   UNL A   1      35.207  32.400  32.271  1.00  0.00     0.041 A 
ATOM     54  F   UNL A   1      36.827  31.421  33.655  1.00  0.00    -0.206 F 
ATOM     55  C   UNL A   1      34.716  32.697  31.002  1.00  0.00     0.022 A 
BRANCH  52  56
ATOM     56  S   UNL A   1      34.765  32.598  28.228  1.00  0.00     0.124 S 
ATOM     57  O   UNL A   1      34.398  31.282  27.711  1.00  0.00    -0.237 OA
ATOM     58  O   UNL A   1      33.652  33.488  28.532  1.00  0.00    -0.237 OA
ATOM     59  O   UNL A   1      35.915  33.215  27.572  1.00  0.00    -0.744 OA
ENDBRANCH  52  56
ENDBRANCH  25  49
BRANCH  37  60
ATOM     60  C   UNL A   1      42.805  30.139  33.981  1.00  0.00     0.023 A 
ATOM     61  C   UNL A   1      43.335  30.545  35.221  1.00  0.00     0.031 A 
ATOM     62  C   UNL A   1      42.531  28.771  33.801  1.00  0.00     0.131 A 
ATOM     63  C   UNL A   1      43.597  29.599  36.217  1.00  0.00     0.055 A 
ATOM     64  C   UNL A   1      42.733  27.840  34.823  1.00  0.00     0.041 A 
ATOM     65  F   UNL A   1      42.150  28.287  32.610  1.00  0.00    -0.206 F 
ATOM     66  C   UNL A   1      43.280  28.250  36.035  1.00  0.00     0.022 A 
BRANCH  63  67
ATOM     67  S   UNL A   1      44.485  30.070  37.725  1.00  0.00     0.124 S 
ATOM     68  O   UNL A   1      43.521  30.939  38.394  1.00  0.00    -0.237 OA
ATOM     69  O   UNL A   1      44.708  28.775  38.365  1.00  0.00    -0.237 OA
ATOM     70  O   UNL A   1      45.689  30.733  37.235  1.00  0.00    -0.744 OA
ENDBRANCH  63  67
ENDBRANCH  37  60
ENDBRANCH  11  12
ENDBRANCH   4   6
ENDBRANCH   1   2
BRANCH   1  71
ATOM     71  C   UNL A   1      38.939  23.304  26.843  1.00  0.00     0.042 C 
BRANCH  71  72
ATOM     72  C   UNL A   1      37.694  23.716  26.069  1.00  0.00     0.118 C 
BRANCH  72  73
ATOM     73  N   UNL A   1      37.681  23.205  24.707  1.00  0.00    -0.351 N 
ATOM     74  C   UNL A   1      36.655  23.096  23.812  1.00  0.00     0.269 C 
ATOM     75  H   UNL A   1      38.553  22.888  24.377  1.00  0.00     0.163 HD
ATOM     76  O   UNL A   1      36.890  22.623  22.703  1.00  0.00    -0.268 OA
BRANCH  74  77
ATOM     77  C   UNL A   1      35.324  23.439  24.229  1.00  0.00     0.124 A 
ATOM     78  C   UNL A   1      34.777  24.714  24.262  1.00  0.00     0.047 A 
ATOM     79  N   UNL A   1      34.391  22.596  24.807  1.00  0.00    -0.211 N 
ATOM     80  C   UNL A   1      33.471  24.635  24.814  1.00  0.00     0.040 A 
ATOM     81  C   UNL A   1      33.264  23.301  25.158  1.00  0.00     0.156 A 
ATOM     82  C   UNL A   1      32.418  25.525  25.099  1.00  0.00     0.065 A 
ATOM     83  N   UNL A   1      32.147  22.808  25.722  1.00  0.00    -0.237 NA
ATOM     84  Cl  UNL A   1      32.736  27.169  24.752  1.00  0.00    -0.083 Cl
ATOM     85  C   UNL A   1      31.222  25.057  25.631  1.00  0.00     0.093 A 
ATOM     86  C   UNL A   1      31.154  23.703  25.910  1.00  0.00     0.128 A 
BRANCH  79  87
ATOM     87  S   UNL A   1      34.783  21.069  25.449  1.00  0.00     0.270 S 
ATOM     88  O   UNL A   1      36.206  20.903  25.261  1.00  0.00    -0.201 OA
ATOM     89  O   UNL A   1      34.192  21.091  26.779  1.00  0.00    -0.201 OA
BRANCH  87  90
ATOM     90  C   UNL A   1      33.996  19.805  24.495  1.00  0.00     0.088 A 
ATOM     91  C   UNL A   1      34.513  18.505  24.543  1.00  0.00     0.022 A 
ATOM     92  C   UNL A   1      32.887  20.101  23.696  1.00  0.00     0.022 A 
ATOM     93  C   UNL A   1      33.887  17.488  23.825  1.00  0.00     0.001 A 
ATOM     94  C   UNL A   1      32.255  19.072  22.995  1.00  0.00     0.001 A 
ATOM     95  C   UNL A   1      32.752  17.768  23.065  1.00  0.00     0.000 A 
ENDBRANCH  87  90
ENDBRANCH  79  87
BRANCH  85  96
ATOM     96  C   UNL A   1      30.057  25.942  25.917  1.00  0.00     0.419 C 
ATOM     97  F   UNL A   1      29.035  25.283  26.529  1.00  0.00    -0.166 F 
ATOM     98  F   UNL A   1      30.363  27.000  26.714  1.00  0.00    -0.166 F 
ATOM     99  F   UNL A   1      29.510  26.484  24.790  1.00  0.00    -0.166 F 
ENDBRANCH  85  96
ENDBRANCH  74  77
ENDBRANCH  72  73
ENDBRANCH  71  72
ENDBRANCH   1  71
TORSDOF 16
ENDMDL
MODEL 2
REMARK VINA RESULT:     -13.2      3.653      9.043
REMARK SMILES O=C(NCCCNC(=O)c1cc2c(Cl)c(C(F)(F)F)cnc2n1S(=O)(=O)c1ccccc1)c1ccc(-c2c3nc(c(-c4cc(S(=O)(=O)[O-])ccc4F)c4ccc([nH]4)c(-c4cc(S(=O)(=O)[O-])ccc4F)c4nc(c(-c5cc(S(=O)(=O)[O-])ccc5F)c5ccc2[nH]5)C=C4)C=C3)cc1
REMARK SMILES IDX 4 1 3 2 1 3 2 4 33 6 34 7 95 8 35 9 94 10 36 11 37 12 38 13
REMARK SMILES IDX 88 14 39 15 93 16 87 17 89 18 40 19 92 20 86 21 85 22 41 24
REMARK SMILES IDX 73 25 53 26 72 27 54 28 57 29 71 30 90 31 55 32 56 33 70 35
REMARK SMILES IDX 91 36 58 37 42 38 43 39 51 40 44 41 50 42 52 43 49 44 45 45
REMARK SMILES IDX 46 46 47 47 48 48 74 49 75 50 83 51 76 52 82 53 84 54 81 55
REMARK SMILES IDX 77 56 78 57 79 58 80 59 59 60 60 61 68 62 61 63 67 64 69 65
REMARK SMILES IDX 66 66 62 67 63 68 64 69 65 70 5 71 6 72 7 73 8 74 9 76 10 77
REMARK SMILES IDX 11 78 23 79 12 80 22 81 13 82 21 83 14 84 15 85 20 86 24 87
REMARK SMILES IDX 25 88 26 89 27 90 28 91 32 92 29 93 31 94 30 95 16 96 17 97
REMARK SMILES IDX 18 98 19 99
REMARK H PARENT 3 5 89 23 57 34 7 75
REMARK Flexibility Score: inf
ROOT
ATOM      1  C   UNL A   1      33.810  30.442  27.288  1.00  0.00     0.118 C 
ENDROOT
BRANCH   1   2
ATOM      2  N   UNL A   1      34.267  31.728  27.788  1.00  0.00    -0.352 N 
ATOM      3  O   UNL A   1      35.529  33.422  28.474  1.00  0.00    -0.269 OA
ATOM      4  C   UNL A   1      35.479  32.224  28.192  1.00  0.00     0.251 C 
ATOM      5  H   UNL A   1      33.543  32.392  27.850  1.00  0.00     0.163 HD
BRANCH   4   6
ATOM      6  C   UNL A   1      36.689  31.389  28.376  1.00  0.00     0.039 A 
ATOM      7  C   UNL A   1      36.856  30.126  27.811  1.00  0.00     0.014 A 
ATOM      8  C   UNL A   1      37.725  31.928  29.161  1.00  0.00     0.014 A 
ATOM      9  C   UNL A   1      37.973  29.362  28.128  1.00  0.00     0.010 A 
ATOM     10  C   UNL A   1      38.868  31.182  29.443  1.00  0.00     0.010 A 
ATOM     11  C   UNL A   1      38.973  29.881  28.958  1.00  0.00    -0.014 A 
BRANCH  11  12
ATOM     12  C   UNL A   1      40.146  29.038  29.182  1.00  0.00     0.031 A 
ATOM     13  C   UNL A   1      40.466  28.728  30.606  1.00  0.00     0.074 A 
ATOM     14  C   UNL A   1      40.862  28.448  28.207  1.00  0.00     0.049 A 
ATOM     15  N   UNL A   1      41.521  29.039  31.291  1.00  0.00    -0.248 NA
ATOM     16  C   UNL A   1      39.427  28.038  31.381  1.00  0.00     0.031 C 
ATOM     17  C   UNL A   1      40.512  28.303  26.793  1.00  0.00     0.029 A 
ATOM     18  N   UNL A   1      42.024  27.743  28.321  1.00  0.00    -0.354 N 
ATOM     19  C   UNL A   1      41.356  28.444  32.545  1.00  0.00     0.074 A 
ATOM     20  C   UNL A   1      40.002  27.946  32.580  1.00  0.00     0.031 C 
ATOM     21  C   UNL A   1      41.317  27.369  26.238  1.00  0.00     0.029 A 
ATOM     22  C   UNL A   1      42.319  26.968  27.214  1.00  0.00     0.049 A 
ATOM     23  H   UNL A   1      42.599  27.780  29.119  1.00  0.00     0.167 HD
ATOM     24  C   UNL A   1      42.385  28.249  33.419  1.00  0.00     0.034 A 
ATOM     25  C   UNL A   1      43.256  25.994  27.139  1.00  0.00     0.034 A 
ATOM     26  C   UNL A   1      43.554  28.998  33.058  1.00  0.00     0.049 A 
ATOM     27  C   UNL A   1      44.225  26.172  28.246  1.00  0.00     0.074 A 
ATOM     28  C   UNL A   1      43.887  30.332  32.966  1.00  0.00     0.029 A 
ATOM     29  N   UNL A   1      44.578  28.309  32.459  1.00  0.00    -0.354 N 
ATOM     30  N   UNL A   1      45.092  27.142  28.334  1.00  0.00    -0.248 NA
ATOM     31  C   UNL A   1      44.014  25.414  29.470  1.00  0.00     0.031 C 
ATOM     32  C   UNL A   1      44.878  30.403  31.947  1.00  0.00     0.029 A 
ATOM     33  C   UNL A   1      45.084  29.106  31.468  1.00  0.00     0.049 A 
ATOM     34  H   UNL A   1      44.892  27.407  32.698  1.00  0.00     0.167 HD
ATOM     35  C   UNL A   1      45.224  27.377  29.694  1.00  0.00     0.074 A 
ATOM     36  C   UNL A   1      44.656  26.198  30.338  1.00  0.00     0.031 C 
ATOM     37  C   UNL A   1      45.524  28.618  30.177  1.00  0.00     0.034 A 
BRANCH  24  38
ATOM     38  C   UNL A   1      42.444  27.139  34.443  1.00  0.00     0.023 A 
ATOM     39  C   UNL A   1      43.267  26.009  34.288  1.00  0.00     0.031 A 
ATOM     40  C   UNL A   1      41.858  27.304  35.718  1.00  0.00     0.131 A 
ATOM     41  C   UNL A   1      43.469  25.099  35.334  1.00  0.00     0.055 A 
ATOM     42  C   UNL A   1      42.114  26.431  36.785  1.00  0.00     0.041 A 
ATOM     43  F   UNL A   1      41.066  28.354  35.985  1.00  0.00    -0.206 F 
ATOM     44  C   UNL A   1      42.922  25.318  36.594  1.00  0.00     0.022 A 
BRANCH  41  45
ATOM     45  S   UNL A   1      44.459  23.605  35.063  1.00  0.00     0.124 S 
ATOM     46  O   UNL A   1      43.445  22.656  34.617  1.00  0.00    -0.237 OA
ATOM     47  O   UNL A   1      45.403  24.052  34.041  1.00  0.00    -0.237 OA
ATOM     48  O   UNL A   1      45.047  23.348  36.374  1.00  0.00    -0.744 OA
ENDBRANCH  41  45
ENDBRANCH  24  38
BRANCH  25  49
ATOM     49  C   UNL A   1      43.133  24.717  26.401  1.00  0.00     0.023 A 
ATOM     50  C   UNL A   1      42.182  23.760  26.805  1.00  0.00     0.031 A 
ATOM     51  C   UNL A   1      44.108  24.310  25.478  1.00  0.00     0.131 A 
ATOM     52  C   UNL A   1      42.238  22.448  26.320  1.00  0.00     0.055 A 
ATOM     53  C   UNL A   1      44.161  22.998  24.991  1.00  0.00     0.041 A 
ATOM     54  F   UNL A   1      45.062  25.162  25.074  1.00  0.00    -0.206 F 
ATOM     55  C   UNL A   1      43.228  22.057  25.418  1.00  0.00     0.022 A 
BRANCH  52  56
ATOM     56  S   UNL A   1      41.024  21.226  26.887  1.00  0.00     0.124 S 
ATOM     57  O   UNL A   1      39.893  21.465  25.992  1.00  0.00    -0.237 OA
ATOM     58  O   UNL A   1      41.740  19.973  26.676  1.00  0.00    -0.237 OA
ATOM     59  O   UNL A   1      40.794  21.605  28.278  1.00  0.00    -0.744 OA
ENDBRANCH  52  56
ENDBRANCH  25  49
BRANCH  37  60
ATOM     60  C   UNL A   1      46.062  29.661  29.233  1.00  0.00     0.023 A 
ATOM     61  C   UNL A   1      45.127  30.442  28.526  1.00  0.00     0.031 A 
ATOM     62  C   UNL A   1      47.412  29.746  28.848  1.00  0.00     0.131 A 
ATOM     63  C   UNL A   1      45.545  31.248  27.462  1.00  0.00     0.055 A 
ATOM     64  C   UNL A   1      47.833  30.603  27.828  1.00  0.00     0.041 A 
ATOM     65  F   UNL A   1      48.341  28.940  29.381  1.00  0.00    -0.206 F 
ATOM     66  C   UNL A   1      46.896  31.350  27.120  1.00  0.00     0.022 A 
BRANCH  63  67
ATOM     67  S   UNL A   1      44.332  32.078  26.402  1.00  0.00     0.124 S 
ATOM     68  O   UNL A   1      43.818  33.125  27.281  1.00  0.00    -0.237 OA
ATOM     69  O   UNL A   1      45.164  32.545  25.294  1.00  0.00    -0.237 OA
ATOM     70  O   UNL A   1      43.380  31.027  26.062  1.00  0.00    -0.744 OA
ENDBRANCH  63  67
ENDBRANCH  37  60
ENDBRANCH  11  12
ENDBRANCH   4   6
ENDBRANCH   1   2
BRANCH   1  71
ATOM     71  C   UNL A   1      32.314  30.316  26.999  1.00  0.00     0.042 C 
BRANCH  71  72
ATOM     72  C   UNL A   1      31.974  29.615  25.690  1.00  0.00     0.118 C 
BRANCH  72  73
ATOM     73  N   UNL A   1      33.035  29.721  24.701  1.00  0.00    -0.351 N 
ATOM     74  C   UNL A   1      33.615  28.763  23.919  1.00  0.00     0.269 C 
ATOM     75  H   UNL A   1      33.392  30.629  24.575  1.00  0.00     0.163 HD
ATOM     76  O   UNL A   1      34.509  29.097  23.147  1.00  0.00    -0.268 OA
BRANCH  74  77
ATOM     77  C   UNL A   1      33.235  27.389  24.099  1.00  0.00     0.124 A 
ATOM     78  C   UNL A   1      33.994  26.399  24.708  1.00  0.00     0.047 A 
ATOM     79  N   UNL A   1      32.114  26.763  23.582  1.00  0.00    -0.211 N 
ATOM     80  C   UNL A   1      33.297  25.166  24.608  1.00  0.00     0.040 A 
ATOM     81  C   UNL A   1      32.134  25.422  23.887  1.00  0.00     0.156 A 
ATOM     82  C   UNL A   1      33.500  23.834  25.014  1.00  0.00     0.065 A 
ATOM     83  N   UNL A   1      31.200  24.508  23.566  1.00  0.00    -0.237 NA
ATOM     84  Cl  UNL A   1      34.981  23.530  25.816  1.00  0.00    -0.083 Cl
ATOM     85  C   UNL A   1      32.540  22.862  24.757  1.00  0.00     0.093 A 
ATOM     86  C   UNL A   1      31.426  23.265  24.041  1.00  0.00     0.128 A 
BRANCH  79  87
ATOM     87  S   UNL A   1      31.161  27.431  22.340  1.00  0.00     0.270 S 
ATOM     88  O   UNL A   1      31.686  28.755  22.093  1.00  0.00    -0.201 OA
ATOM     89  O   UNL A   1      31.173  26.407  21.306  1.00  0.00    -0.201 OA
BRANCH  87  90
ATOM     90  C   UNL A   1      29.502  27.644  22.915  1.00  0.00     0.088 A 
ATOM     91  C   UNL A   1      28.830  28.832  22.607  1.00  0.00     0.022 A 
ATOM     92  C   UNL A   1      28.879  26.650  23.676  1.00  0.00     0.022 A 
ATOM     93  C   UNL A   1      27.511  29.005  23.021  1.00  0.00     0.001 A 
ATOM     94  C   UNL A   1      27.551  26.824  24.072  1.00  0.00     0.001 A 
ATOM     95  C   UNL A   1      26.869  27.996  23.739  1.00  0.00     0.000 A 
ENDBRANCH  87  90
ENDBRANCH  79  87
BRANCH  85  96
ATOM     96  C   UNL A   1      32.678  21.444  25.196  1.00  0.00     0.419 C 
ATOM     97  F   UNL A   1      33.746  20.821  24.628  1.00  0.00    -0.166 F 
ATOM     98  F   UNL A   1      32.823  21.306  26.541  1.00  0.00    -0.166 F 
ATOM     99  F   UNL A   1      31.599  20.678  24.867  1.00  0.00    -0.166 F 
ENDBRANCH  85  96
ENDBRANCH  74  77
ENDBRANCH  72  73
ENDBRANCH  71  72
ENDBRANCH   1  71
TORSDOF 16
ENDMDL
MODEL 3
REMARK VINA RESULT:     -13.2      3.555      9.054
REMARK SMILES O=C(NCCCNC(=O)c1cc2c(Cl)c(C(F)(F)F)cnc2n1S(=O)(=O)c1ccccc1)c1ccc(-c2c3nc(c(-c4cc(S(=O)(=O)[O-])ccc4F)c4ccc([nH]4)c(-c4cc(S(=O)(=O)[O-])ccc4F)c4nc(c(-c5cc(S(=O)(=O)[O-])ccc5F)c5ccc2[nH]5)C=C4)C=C3)cc1
REMARK SMILES IDX 4 1 3 2 1 3 2 4 33 6 34 7 95 8 35 9 94 10 36 11 37 12 38 13
REMARK SMILES IDX 88 14 39 15 93 16 87 17 89 18 40 19 92 20 86 21 85 22 41 24
REMARK SMILES IDX 73 25 53 26 72 27 54 28 57 29 71 30 90 31 55 32 56 33 70 35
REMARK SMILES IDX 91 36 58 37 42 38 43 39 51 40 44 41 50 42 52 43 49 44 45 45
REMARK SMILES IDX 46 46 47 47 48 48 74 49 75 50 83 51 76 52 82 53 84 54 81 55
REMARK SMILES IDX 77 56 78 57 79 58 80 59 59 60 60 61 68 62 61 63 67 64 69 65
REMARK SMILES IDX 66 66 62 67 63 68 64 69 65 70 5 71 6 72 7 73 8 74 9 76 10 77
REMARK SMILES IDX 11 78 23 79 12 80 22 81 13 82 21 83 14 84 15 85 20 86 24 87
REMARK SMILES IDX 25 88 26 89 27 90 28 91 32 92 29 93 31 94 30 95 16 96 17 97
REMARK SMILES IDX 18 98 19 99
REMARK H PARENT 3 5 89 23 57 34 7 75
REMARK Flexibility Score: inf
ROOT
ATOM      1  C   UNL A   1      34.164  31.572  27.835  1.00  0.00     0.118 C 
ENDROOT
BRANCH   1   2
ATOM      2  N   UNL A   1      34.235  31.965  29.233  1.00  0.00    -0.352 N 
ATOM      3  O   UNL A   1      34.950  32.417  31.287  1.00  0.00    -0.269 OA
ATOM      4  C   UNL A   1      35.199  31.886  30.204  1.00  0.00     0.251 C 
ATOM      5  H   UNL A   1      33.402  32.381  29.555  1.00  0.00     0.163 HD
BRANCH   4   6
ATOM      6  C   UNL A   1      36.469  31.139  30.042  1.00  0.00     0.039 A 
ATOM      7  C   UNL A   1      36.594  29.764  30.232  1.00  0.00     0.014 A 
ATOM      8  C   UNL A   1      37.602  31.881  29.661  1.00  0.00     0.014 A 
ATOM      9  C   UNL A   1      37.845  29.162  30.173  1.00  0.00     0.010 A 
ATOM     10  C   UNL A   1      38.851  31.272  29.553  1.00  0.00     0.010 A 
ATOM     11  C   UNL A   1      38.979  29.917  29.849  1.00  0.00    -0.014 A 
BRANCH  11  12
ATOM     12  C   UNL A   1      40.243  29.192  29.738  1.00  0.00     0.031 A 
ATOM     13  C   UNL A   1      40.971  28.947  31.017  1.00  0.00     0.074 A 
ATOM     14  C   UNL A   1      40.715  28.647  28.601  1.00  0.00     0.049 A 
ATOM     15  N   UNL A   1      42.140  29.370  31.384  1.00  0.00    -0.248 NA
ATOM     16  C   UNL A   1      40.257  28.183  32.049  1.00  0.00     0.031 C 
ATOM     17  C   UNL A   1      40.004  28.435  27.340  1.00  0.00     0.029 A 
ATOM     18  N   UNL A   1      41.925  28.055  28.388  1.00  0.00    -0.354 N 
ATOM     19  C   UNL A   1      42.384  28.794  32.633  1.00  0.00     0.074 A 
ATOM     20  C   UNL A   1      41.146  28.174  33.040  1.00  0.00     0.031 C 
ATOM     21  C   UNL A   1      40.710  27.567  26.581  1.00  0.00     0.029 A 
ATOM     22  C   UNL A   1      41.976  27.284  27.241  1.00  0.00     0.049 A 
ATOM     23  H   UNL A   1      42.691  28.164  28.996  1.00  0.00     0.167 HD
ATOM     24  C   UNL A   1      43.628  28.716  33.187  1.00  0.00     0.034 A 
ATOM     25  C   UNL A   1      42.944  26.398  26.907  1.00  0.00     0.034 A 
ATOM     26  C   UNL A   1      44.575  29.560  32.518  1.00  0.00     0.049 A 
ATOM     27  C   UNL A   1      44.159  26.692  27.703  1.00  0.00     0.074 A 
ATOM     28  C   UNL A   1      44.741  30.917  32.341  1.00  0.00     0.029 A 
ATOM     29  N   UNL A   1      45.455  28.955  31.657  1.00  0.00    -0.354 N 
ATOM     30  N   UNL A   1      44.920  27.740  27.549  1.00  0.00    -0.248 NA
ATOM     31  C   UNL A   1      44.367  25.948  28.936  1.00  0.00     0.031 C 
ATOM     32  C   UNL A   1      45.401  31.054  31.087  1.00  0.00     0.029 A 
ATOM     33  C   UNL A   1      45.589  29.771  30.567  1.00  0.00     0.049 A 
ATOM     34  H   UNL A   1      45.907  28.092  31.798  1.00  0.00     0.167 HD
ATOM     35  C   UNL A   1      45.399  28.019  28.820  1.00  0.00     0.074 A 
ATOM     36  C   UNL A   1      45.146  26.808  29.593  1.00  0.00     0.031 C 
ATOM     37  C   UNL A   1      45.701  29.294  29.204  1.00  0.00     0.034 A 
BRANCH  24  38
ATOM     38  C   UNL A   1      44.073  27.641  34.153  1.00  0.00     0.023 A 
ATOM     39  C   UNL A   1      44.294  27.895  35.518  1.00  0.00     0.031 A 
ATOM     40  C   UNL A   1      44.051  26.279  33.775  1.00  0.00     0.131 A 
ATOM     41  C   UNL A   1      44.499  26.855  36.434  1.00  0.00     0.055 A 
ATOM     42  C   UNL A   1      44.188  25.237  34.702  1.00  0.00     0.041 A 
ATOM     43  F   UNL A   1      43.834  25.919  32.501  1.00  0.00    -0.206 F 
ATOM     44  C   UNL A   1      44.417  25.523  36.041  1.00  0.00     0.022 A 
BRANCH  41  45
ATOM     45  S   UNL A   1      44.876  27.228  38.168  1.00  0.00     0.124 S 
ATOM     46  O   UNL A   1      43.868  26.439  38.866  1.00  0.00    -0.237 OA
ATOM     47  O   UNL A   1      46.251  26.749  38.285  1.00  0.00    -0.237 OA
ATOM     48  O   UNL A   1      44.720  28.678  38.241  1.00  0.00    -0.744 OA
ENDBRANCH  41  45
ENDBRANCH  24  38
BRANCH  25  49
ATOM     49  C   UNL A   1      42.744  25.099  26.229  1.00  0.00     0.023 A 
ATOM     50  C   UNL A   1      41.744  24.216  26.681  1.00  0.00     0.031 A 
ATOM     51  C   UNL A   1      43.688  24.595  25.321  1.00  0.00     0.131 A 
ATOM     52  C   UNL A   1      41.723  22.882  26.256  1.00  0.00     0.055 A 
ATOM     53  C   UNL A   1      43.664  23.262  24.895  1.00  0.00     0.041 A 
ATOM     54  F   UNL A   1      44.686  25.372  24.874  1.00  0.00    -0.206 F 
ATOM     55  C   UNL A   1      42.683  22.395  25.369  1.00  0.00     0.022 A 
BRANCH  52  56
ATOM     56  S   UNL A   1      40.446  21.758  26.884  1.00  0.00     0.124 S 
ATOM     57  O   UNL A   1      40.817  21.611  28.290  1.00  0.00    -0.237 OA
ATOM     58  O   UNL A   1      39.228  22.517  26.630  1.00  0.00    -0.237 OA
ATOM     59  O   UNL A   1      40.631  20.557  26.074  1.00  0.00    -0.744 OA
ENDBRANCH  52  56
ENDBRANCH  25  49
BRANCH  37  60
ATOM     60  C   UNL A   1      45.855  30.359  28.150  1.00  0.00     0.023 A 
ATOM     61  C   UNL A   1      47.156  30.826  27.882  1.00  0.00     0.031 A 
ATOM     62  C   UNL A   1      44.776  31.065  27.589  1.00  0.00     0.131 A 
ATOM     63  C   UNL A   1      47.345  31.973  27.104  1.00  0.00     0.055 A 
ATOM     64  C   UNL A   1      44.974  32.171  26.758  1.00  0.00     0.041 A 
ATOM     65  F   UNL A   1      43.508  30.763  27.900  1.00  0.00    -0.206 F 
ATOM     66  C   UNL A   1      46.263  32.638  26.522  1.00  0.00     0.022 A 
BRANCH  63  67
ATOM     67  S   UNL A   1      48.990  32.716  26.941  1.00  0.00     0.124 S 
ATOM     68  O   UNL A   1      49.282  33.126  28.312  1.00  0.00    -0.237 OA
ATOM     69  O   UNL A   1      49.784  31.594  26.442  1.00  0.00    -0.237 OA
ATOM     70  O   UNL A   1      48.795  33.806  25.991  1.00  0.00    -0.744 OA
ENDBRANCH  63  67
ENDBRANCH  37  60
ENDBRANCH  11  12
ENDBRANCH   4   6
ENDBRANCH   1   2
BRANCH   1  71
ATOM     71  C   UNL A   1      35.121  30.467  27.389  1.00  0.00     0.042 C 
BRANCH  71  72
ATOM     72  C   UNL A   1      34.470  29.106  27.181  1.00  0.00     0.118 C 
BRANCH  72  73
ATOM     73  N   UNL A   1      33.119  29.038  27.717  1.00  0.00    -0.351 N 
ATOM     74  C   UNL A   1      32.064  28.246  27.362  1.00  0.00     0.269 C 
ATOM     75  H   UNL A   1      32.936  29.664  28.454  1.00  0.00     0.163 HD
ATOM     76  O   UNL A   1      31.004  28.372  27.969  1.00  0.00    -0.268 OA
BRANCH  74  77
ATOM     77  C   UNL A   1      32.198  27.369  26.232  1.00  0.00     0.124 A 
ATOM     78  C   UNL A   1      32.773  26.105  26.237  1.00  0.00     0.047 A 
ATOM     79  N   UNL A   1      31.914  27.667  24.911  1.00  0.00    -0.211 N 
ATOM     80  C   UNL A   1      32.784  25.606  24.907  1.00  0.00     0.040 A 
ATOM     81  C   UNL A   1      32.256  26.611  24.100  1.00  0.00     0.156 A 
ATOM     82  C   UNL A   1      33.198  24.431  24.252  1.00  0.00     0.065 A 
ATOM     83  N   UNL A   1      32.102  26.536  22.765  1.00  0.00    -0.237 NA
ATOM     84  Cl  UNL A   1      33.929  23.253  25.256  1.00  0.00    -0.083 Cl
ATOM     85  C   UNL A   1      33.011  24.281  22.883  1.00  0.00     0.093 A 
ATOM     86  C   UNL A   1      32.459  25.358  22.210  1.00  0.00     0.128 A 
BRANCH  79  87
ATOM     87  S   UNL A   1      31.683  29.254  24.340  1.00  0.00     0.270 S 
ATOM     88  O   UNL A   1      31.849  30.124  25.483  1.00  0.00    -0.201 OA
ATOM     89  O   UNL A   1      32.569  29.340  23.189  1.00  0.00    -0.201 OA
BRANCH  87  90
ATOM     90  C   UNL A   1      30.013  29.450  23.793  1.00  0.00     0.088 A 
ATOM     91  C   UNL A   1      29.428  30.720  23.857  1.00  0.00     0.022 A 
ATOM     92  C   UNL A   1      29.285  28.354  23.318  1.00  0.00     0.022 A 
ATOM     93  C   UNL A   1      28.125  30.902  23.399  1.00  0.00     0.001 A 
ATOM     94  C   UNL A   1      27.987  28.549  22.845  1.00  0.00     0.001 A 
ATOM     95  C   UNL A   1      27.411  29.821  22.880  1.00  0.00     0.000 A 
ENDBRANCH  87  90
ENDBRANCH  79  87
BRANCH  85  96
ATOM     96  C   UNL A   1      33.389  23.045  22.140  1.00  0.00     0.419 C 
ATOM     97  F   UNL A   1      32.623  21.973  22.481  1.00  0.00    -0.166 F 
ATOM     98  F   UNL A   1      33.292  23.174  20.791  1.00  0.00    -0.166 F 
ATOM     99  F   UNL A   1      34.676  22.656  22.375  1.00  0.00    -0.166 F 
ENDBRANCH  85  96
ENDBRANCH  74  77
ENDBRANCH  72  73
ENDBRANCH  71  72
ENDBRANCH   1  71
TORSDOF 16
ENDMDL
