MODEL 1
REMARK VINA RESULT:     -14.3      0.000      0.000
REMARK SMILES Cc1ccc(S(=O)(=O)n2cc(C(=O)C(=O)N[C@@H](Cc3c[nH]c4ccccc34)C(=O)NCCCNC(=O)c3ccc(-c4c5nc(c(-c6cc(S(=O)(=O)[O-])ccc6F)c6ccc([nH]6)c(-c6cc(S(=O)(=O)[O-])ccc6F)c6nc(c(-c7cc(S(=O)(=O)[O-])ccc7F)c7ccc4[nH]7)C=C6)C=C5)cc3)c3ccccc32)cc1
REMARK SMILES IDX 31 1 30 2 28 3 29 4 17 6 16 7 14 8 15 9 12 11 13 12 11 13
REMARK SMILES IDX 9 14 10 15 105 16 100 17 104 18 101 19 103 20 102 21 6 22
REMARK SMILES IDX 7 23 8 24 5 25 1 26 2 27 3 28 107 29 4 30 106 31 18 32 19 33
REMARK SMILES IDX 20 34 27 35 21 36 22 37 26 38 23 40 25 41 24 42 32 43 33 44
REMARK SMILES IDX 34 45 35 46 36 48 37 49 38 50 99 51 39 52 98 53 40 54 41 55
REMARK SMILES IDX 42 56 92 57 43 58 97 59 91 60 93 61 44 62 96 63 90 64 89 65
REMARK SMILES IDX 45 67 77 68 57 69 76 70 58 71 61 72 75 73 94 74 59 75 60 76
REMARK SMILES IDX 74 78 95 79 62 80 46 81 47 82 55 83 48 84 54 85 56 86 53 87
REMARK SMILES IDX 49 88 50 89 51 90 52 91 78 92 79 93 87 94 80 95 86 96 88 97
REMARK SMILES IDX 85 98 81 99 82 100 83 101 84 102 63 103 64 104 72 105 65 106
REMARK SMILES IDX 71 107 73 108 70 109 66 110 67 111 68 112 69 113
REMARK H PARENT 30 5 16 10 21 39 34 47 93 66 61 77
REMARK Flexibility Score: inf
ROOT
ATOM      1  C   UNL A   1      34.266  29.530  27.087  1.00  0.00     0.117 C 
ENDROOT
BRANCH   1   2
ATOM      2  N   UNL A   1      33.064  29.012  27.707  1.00  0.00    -0.354 N 
ATOM      3  C   UNL A   1      32.061  28.261  27.163  1.00  0.00     0.242 C 
ATOM      4  O   UNL A   1      31.448  27.504  27.927  1.00  0.00    -0.273 OA
ATOM      5  H   UNL A   1      32.954  29.232  28.660  1.00  0.00     0.163 HD
BRANCH   3   6
ATOM      6  C   UNL A   1      31.688  28.268  25.651  1.00  0.00     0.176 C 
BRANCH   6   7
ATOM      7  N   UNL A   1      30.830  27.150  25.207  1.00  0.00    -0.337 N 
ATOM      8  C   UNL A   1      31.103  26.103  24.321  1.00  0.00     0.293 C 
ATOM      9  O   UNL A   1      30.223  25.359  23.938  1.00  0.00    -0.265 OA
ATOM     10  H   UNL A   1      29.926  27.140  25.597  1.00  0.00     0.164 HD
BRANCH   8  11
ATOM     11  C   UNL A   1      32.548  25.852  23.841  1.00  0.00     0.252 C 
ATOM     12  O   UNL A   1      32.882  26.440  22.816  1.00  0.00    -0.283 OA
BRANCH  11  13
ATOM     13  C   UNL A   1      33.475  24.901  24.503  1.00  0.00     0.054 A 
ATOM     14  N   UNL A   1      35.203  23.595  25.181  1.00  0.00    -0.240 N 
ATOM     15  C   UNL A   1      34.787  24.497  24.200  1.00  0.00     0.117 A 
ATOM     16  C   UNL A   1      34.218  23.567  26.181  1.00  0.00     0.065 A 
ATOM     17  C   UNL A   1      33.062  24.060  25.587  1.00  0.00     0.012 A 
ATOM     18  C   UNL A   1      34.180  22.893  27.421  1.00  0.00     0.028 A 
ATOM     19  C   UNL A   1      31.816  23.691  26.140  1.00  0.00     0.011 A 
ATOM     20  C   UNL A   1      32.941  22.485  27.908  1.00  0.00     0.002 A 
ATOM     21  C   UNL A   1      31.773  22.840  27.250  1.00  0.00     0.001 A 
BRANCH  14  22
ATOM     22  S   UNL A   1      35.915  22.015  24.964  1.00  0.00     0.268 S 
ATOM     23  O   UNL A   1      36.786  21.888  26.121  1.00  0.00    -0.201 OA
ATOM     24  O   UNL A   1      36.469  22.116  23.618  1.00  0.00    -0.201 OA
BRANCH  22  25
ATOM     25  C   UNL A   1      35.109  20.459  24.855  1.00  0.00     0.088 A 
ATOM     26  C   UNL A   1      34.125  16.319  24.079  1.00  0.00     0.044 C 
ATOM     27  C   UNL A   1      34.425  17.755  24.405  1.00  0.00    -0.051 A 
ATOM     28  C   UNL A   1      35.754  18.096  24.605  1.00  0.00     0.005 A 
ATOM     29  C   UNL A   1      33.443  18.771  24.460  1.00  0.00     0.005 A 
ATOM     30  C   UNL A   1      36.080  19.421  24.837  1.00  0.00     0.022 A 
ATOM     31  C   UNL A   1      33.777  20.135  24.680  1.00  0.00     0.022 A 
ENDBRANCH  22  25
ENDBRANCH  14  22
ENDBRANCH  11  13
ENDBRANCH   8  11
ENDBRANCH   6   7
BRANCH   6  32
ATOM     32  C   UNL A   1      31.287  29.666  25.069  1.00  0.00     0.072 C 
BRANCH  32  33
ATOM     33  C   UNL A   1      30.704  29.743  23.678  1.00  0.00    -0.020 A 
ATOM     34  C   UNL A   1      31.338  29.300  22.527  1.00  0.00     0.087 A 
ATOM     35  C   UNL A   1      29.499  30.403  23.242  1.00  0.00     0.003 A 
ATOM     36  N   UNL A   1      30.688  29.825  21.434  1.00  0.00    -0.361 N 
ATOM     37  C   UNL A   1      29.579  30.530  21.851  1.00  0.00     0.046 A 
ATOM     38  C   UNL A   1      28.440  31.058  23.905  1.00  0.00     0.010 A 
ATOM     39  H   UNL A   1      30.972  29.715  20.499  1.00  0.00     0.166 HD
ATOM     40  C   UNL A   1      28.714  31.346  21.109  1.00  0.00     0.026 A 
ATOM     41  C   UNL A   1      27.588  31.904  23.185  1.00  0.00     0.001 A 
ATOM     42  C   UNL A   1      27.739  32.060  21.808  1.00  0.00     0.002 A 
ENDBRANCH  32  33
ENDBRANCH   6  32
ENDBRANCH   3   6
ENDBRANCH   1   2
BRANCH   1  43
ATOM     43  C   UNL A   1      35.542  29.359  27.881  1.00  0.00     0.042 C 
BRANCH  43  44
ATOM     44  C   UNL A   1      35.750  30.509  28.854  1.00  0.00     0.118 C 
BRANCH  44  45
ATOM     45  N   UNL A   1      34.668  31.497  28.956  1.00  0.00    -0.352 N 
ATOM     46  C   UNL A   1      34.692  32.720  29.622  1.00  0.00     0.251 C 
ATOM     47  H   UNL A   1      33.827  31.268  28.500  1.00  0.00     0.163 HD
ATOM     48  O   UNL A   1      33.724  33.470  29.658  1.00  0.00    -0.269 OA
BRANCH  46  49
ATOM     49  C   UNL A   1      35.988  33.162  30.200  1.00  0.00     0.039 A 
ATOM     50  C   UNL A   1      36.896  33.749  29.315  1.00  0.00     0.014 A 
ATOM     51  C   UNL A   1      36.421  32.559  31.373  1.00  0.00     0.014 A 
ATOM     52  C   UNL A   1      38.244  33.427  29.430  1.00  0.00     0.010 A 
ATOM     53  C   UNL A   1      37.727  32.114  31.401  1.00  0.00     0.010 A 
ATOM     54  C   UNL A   1      38.619  32.482  30.384  1.00  0.00    -0.014 A 
BRANCH  54  55
ATOM     55  C   UNL A   1      39.868  31.732  30.307  1.00  0.00     0.031 A 
ATOM     56  C   UNL A   1      39.886  30.409  29.656  1.00  0.00     0.074 A 
ATOM     57  C   UNL A   1      41.026  32.229  30.799  1.00  0.00     0.049 A 
ATOM     58  N   UNL A   1      40.697  29.459  29.975  1.00  0.00    -0.248 NA
ATOM     59  C   UNL A   1      38.943  30.038  28.610  1.00  0.00     0.031 C 
ATOM     60  C   UNL A   1      42.373  31.699  30.591  1.00  0.00     0.029 A 
ATOM     61  N   UNL A   1      41.191  33.206  31.779  1.00  0.00    -0.354 N 
ATOM     62  C   UNL A   1      40.585  28.483  29.015  1.00  0.00     0.074 A 
ATOM     63  C   UNL A   1      39.434  28.859  28.228  1.00  0.00     0.031 C 
ATOM     64  C   UNL A   1      43.177  32.153  31.564  1.00  0.00     0.029 A 
ATOM     65  C   UNL A   1      42.355  32.885  32.508  1.00  0.00     0.049 A 
ATOM     66  H   UNL A   1      40.602  33.978  31.935  1.00  0.00     0.167 HD
ATOM     67  C   UNL A   1      41.555  27.534  28.893  1.00  0.00     0.034 A 
ATOM     68  C   UNL A   1      42.295  32.658  33.853  1.00  0.00     0.034 A 
ATOM     69  C   UNL A   1      42.626  27.717  29.873  1.00  0.00     0.049 A 
ATOM     70  C   UNL A   1      42.642  31.236  34.257  1.00  0.00     0.074 A 
ATOM     71  C   UNL A   1      43.904  28.252  29.814  1.00  0.00     0.029 A 
ATOM     72  N   UNL A   1      42.344  27.567  31.220  1.00  0.00    -0.354 N 
ATOM     73  N   UNL A   1      43.030  30.297  33.437  1.00  0.00    -0.248 NA
ATOM     74  C   UNL A   1      42.463  30.743  35.621  1.00  0.00     0.031 C 
ATOM     75  C   UNL A   1      44.378  28.423  31.147  1.00  0.00     0.029 A 
ATOM     76  C   UNL A   1      43.403  27.968  32.014  1.00  0.00     0.049 A 
ATOM     77  H   UNL A   1      41.493  27.217  31.569  1.00  0.00     0.167 HD
ATOM     78  C   UNL A   1      43.035  29.091  34.096  1.00  0.00     0.074 A 
ATOM     79  C   UNL A   1      42.683  29.429  35.465  1.00  0.00     0.031 C 
ATOM     80  C   UNL A   1      43.256  27.897  33.462  1.00  0.00     0.034 A 
BRANCH  67  81
ATOM     81  C   UNL A   1      41.663  26.621  27.697  1.00  0.00     0.023 A 
ATOM     82  C   UNL A   1      41.477  25.237  27.873  1.00  0.00     0.031 A 
ATOM     83  C   UNL A   1      41.975  27.027  26.385  1.00  0.00     0.131 A 
ATOM     84  C   UNL A   1      41.722  24.329  26.830  1.00  0.00     0.055 A 
ATOM     85  C   UNL A   1      42.295  26.121  25.365  1.00  0.00     0.041 A 
ATOM     86  F   UNL A   1      41.931  28.316  26.017  1.00  0.00    -0.206 F 
ATOM     87  C   UNL A   1      42.185  24.758  25.590  1.00  0.00     0.022 A 
BRANCH  84  88
ATOM     88  S   UNL A   1      41.402  22.568  27.115  1.00  0.00     0.124 S 
ATOM     89  O   UNL A   1      42.179  22.304  28.322  1.00  0.00    -0.237 OA
ATOM     90  O   UNL A   1      39.951  22.540  27.259  1.00  0.00    -0.237 OA
ATOM     91  O   UNL A   1      41.913  21.931  25.900  1.00  0.00    -0.744 OA
ENDBRANCH  84  88
ENDBRANCH  67  81
BRANCH  68  92
ATOM     92  C   UNL A   1      41.279  33.524  34.519  1.00  0.00     0.023 A 
ATOM     93  C   UNL A   1      40.005  32.959  34.741  1.00  0.00     0.031 A 
ATOM     94  C   UNL A   1      41.654  34.626  35.299  1.00  0.00     0.131 A 
ATOM     95  C   UNL A   1      39.235  33.365  35.840  1.00  0.00     0.055 A 
ATOM     96  C   UNL A   1      40.851  35.073  36.353  1.00  0.00     0.041 A 
ATOM     97  F   UNL A   1      42.864  35.188  35.154  1.00  0.00    -0.206 F 
ATOM     98  C   UNL A   1      39.664  34.405  36.665  1.00  0.00     0.022 A 
BRANCH  95  99
ATOM     99  S   UNL A   1      37.822  32.337  36.331  1.00  0.00     0.124 S 
ATOM    100  O   UNL A   1      37.545  31.574  35.122  1.00  0.00    -0.237 OA
ATOM    101  O   UNL A   1      38.352  31.575  37.457  1.00  0.00    -0.237 OA
ATOM    102  O   UNL A   1      36.781  33.295  36.705  1.00  0.00    -0.744 OA
ENDBRANCH  95  99
ENDBRANCH  68  92
BRANCH  80 103
ATOM    103  C   UNL A   1      43.278  26.555  34.168  1.00  0.00     0.023 A 
ATOM    104  C   UNL A   1      44.426  25.748  34.203  1.00  0.00     0.031 A 
ATOM    105  C   UNL A   1      42.131  26.007  34.791  1.00  0.00     0.131 A 
ATOM    106  C   UNL A   1      44.454  24.551  34.941  1.00  0.00     0.055 A 
ATOM    107  C   UNL A   1      42.135  24.773  35.450  1.00  0.00     0.041 A 
ATOM    108  F   UNL A   1      40.956  26.650  34.818  1.00  0.00    -0.206 F 
ATOM    109  C   UNL A   1      43.310  24.047  35.553  1.00  0.00     0.022 A 
BRANCH 106 110
ATOM    110  S   UNL A   1      46.042  23.708  35.154  1.00  0.00     0.124 S 
ATOM    111  O   UNL A   1      45.928  22.577  34.240  1.00  0.00    -0.237 OA
ATOM    112  O   UNL A   1      46.985  24.751  34.757  1.00  0.00    -0.237 OA
ATOM    113  O   UNL A   1      46.062  23.362  36.574  1.00  0.00    -0.744 OA
ENDBRANCH 106 110
ENDBRANCH  80 103
ENDBRANCH  54  55
ENDBRANCH  46  49
ENDBRANCH  44  45
ENDBRANCH  43  44
ENDBRANCH   1  43
TORSDOF 20
ENDMDL
MODEL 2
REMARK VINA RESULT:     -13.4      3.643      9.948
REMARK SMILES Cc1ccc(S(=O)(=O)n2cc(C(=O)C(=O)N[C@@H](Cc3c[nH]c4ccccc34)C(=O)NCCCNC(=O)c3ccc(-c4c5nc(c(-c6cc(S(=O)(=O)[O-])ccc6F)c6ccc([nH]6)c(-c6cc(S(=O)(=O)[O-])ccc6F)c6nc(c(-c7cc(S(=O)(=O)[O-])ccc7F)c7ccc4[nH]7)C=C6)C=C5)cc3)c3ccccc32)cc1
REMARK SMILES IDX 31 1 30 2 28 3 29 4 17 6 16 7 14 8 15 9 12 11 13 12 11 13
REMARK SMILES IDX 9 14 10 15 105 16 100 17 104 18 101 19 103 20 102 21 6 22
REMARK SMILES IDX 7 23 8 24 5 25 1 26 2 27 3 28 107 29 4 30 106 31 18 32 19 33
REMARK SMILES IDX 20 34 27 35 21 36 22 37 26 38 23 40 25 41 24 42 32 43 33 44
REMARK SMILES IDX 34 45 35 46 36 48 37 49 38 50 99 51 39 52 98 53 40 54 41 55
REMARK SMILES IDX 42 56 92 57 43 58 97 59 91 60 93 61 44 62 96 63 90 64 89 65
REMARK SMILES IDX 45 67 77 68 57 69 76 70 58 71 61 72 75 73 94 74 59 75 60 76
REMARK SMILES IDX 74 78 95 79 62 80 46 81 47 82 55 83 48 84 54 85 56 86 53 87
REMARK SMILES IDX 49 88 50 89 51 90 52 91 78 92 79 93 87 94 80 95 86 96 88 97
REMARK SMILES IDX 85 98 81 99 82 100 83 101 84 102 63 103 64 104 72 105 65 106
REMARK SMILES IDX 71 107 73 108 70 109 66 110 67 111 68 112 69 113
REMARK H PARENT 30 5 16 10 21 39 34 47 93 66 61 77
REMARK Flexibility Score: inf
ROOT
ATOM      1  C   UNL A   1      39.644  21.381  26.105  1.00  0.00     0.117 C 
ENDROOT
BRANCH   1   2
ATOM      2  N   UNL A   1      39.016  20.194  25.563  1.00  0.00    -0.354 N 
ATOM      3  C   UNL A   1      37.741  20.018  25.106  1.00  0.00     0.242 C 
ATOM      4  O   UNL A   1      37.571  19.157  24.232  1.00  0.00    -0.273 OA
ATOM      5  H   UNL A   1      39.594  19.398  25.515  1.00  0.00     0.163 HD
BRANCH   3   6
ATOM      6  C   UNL A   1      36.521  20.861  25.580  1.00  0.00     0.176 C 
BRANCH   6   7
ATOM      7  N   UNL A   1      36.837  22.237  26.018  1.00  0.00    -0.337 N 
ATOM      8  C   UNL A   1      36.681  23.454  25.346  1.00  0.00     0.293 C 
ATOM      9  O   UNL A   1      37.150  24.482  25.791  1.00  0.00    -0.265 OA
ATOM     10  H   UNL A   1      37.216  22.308  26.924  1.00  0.00     0.164 HD
BRANCH   8  11
ATOM     11  C   UNL A   1      35.869  23.515  24.035  1.00  0.00     0.252 C 
ATOM     12  O   UNL A   1      36.440  23.095  23.032  1.00  0.00    -0.283 OA
BRANCH  11  13
ATOM     13  C   UNL A   1      34.515  24.115  23.939  1.00  0.00     0.054 A 
ATOM     14  N   UNL A   1      32.604  25.202  23.374  1.00  0.00    -0.240 N 
ATOM     15  C   UNL A   1      33.926  24.968  22.990  1.00  0.00     0.117 A 
ATOM     16  C   UNL A   1      32.322  24.364  24.464  1.00  0.00     0.065 A 
ATOM     17  C   UNL A   1      33.556  24.009  24.998  1.00  0.00     0.012 A 
ATOM     18  C   UNL A   1      31.121  24.145  25.173  1.00  0.00     0.028 A 
ATOM     19  C   UNL A   1      33.610  23.617  26.354  1.00  0.00     0.011 A 
ATOM     20  C   UNL A   1      31.207  23.824  26.526  1.00  0.00     0.002 A 
ATOM     21  C   UNL A   1      32.441  23.608  27.122  1.00  0.00     0.001 A 
BRANCH  14  22
ATOM     22  S   UNL A   1      31.781  26.733  23.536  1.00  0.00     0.268 S 
ATOM     23  O   UNL A   1      30.467  26.346  24.024  1.00  0.00    -0.201 OA
ATOM     24  O   UNL A   1      31.945  27.307  22.205  1.00  0.00    -0.201 OA
BRANCH  22  25
ATOM     25  C   UNL A   1      32.224  28.113  24.528  1.00  0.00     0.088 A 
ATOM     26  C   UNL A   1      33.851  30.692  27.596  1.00  0.00     0.044 C 
ATOM     27  C   UNL A   1      33.290  29.850  26.484  1.00  0.00    -0.051 A 
ATOM     28  C   UNL A   1      33.969  28.682  26.168  1.00  0.00     0.005 A 
ATOM     29  C   UNL A   1      32.093  30.152  25.796  1.00  0.00     0.005 A 
ATOM     30  C   UNL A   1      33.446  27.843  25.200  1.00  0.00     0.022 A 
ATOM     31  C   UNL A   1      31.544  29.282  24.814  1.00  0.00     0.022 A 
ENDBRANCH  22  25
ENDBRANCH  14  22
ENDBRANCH  11  13
ENDBRANCH   8  11
ENDBRANCH   6   7
BRANCH   6  32
ATOM     32  C   UNL A   1      35.240  20.741  24.687  1.00  0.00     0.072 C 
BRANCH  32  33
ATOM     33  C   UNL A   1      34.137  19.800  25.108  1.00  0.00    -0.020 A 
ATOM     34  C   UNL A   1      33.292  20.000  26.189  1.00  0.00     0.087 A 
ATOM     35  C   UNL A   1      33.840  18.479  24.609  1.00  0.00     0.003 A 
ATOM     36  N   UNL A   1      32.658  18.815  26.481  1.00  0.00    -0.361 N 
ATOM     37  C   UNL A   1      33.003  17.863  25.546  1.00  0.00     0.046 A 
ATOM     38  C   UNL A   1      34.339  17.692  23.551  1.00  0.00     0.010 A 
ATOM     39  H   UNL A   1      32.050  18.670  27.241  1.00  0.00     0.166 HD
ATOM     40  C   UNL A   1      32.718  16.491  25.528  1.00  0.00     0.026 A 
ATOM     41  C   UNL A   1      34.092  16.314  23.536  1.00  0.00     0.001 A 
ATOM     42  C   UNL A   1      33.309  15.721  24.524  1.00  0.00     0.002 A 
ENDBRANCH  32  33
ENDBRANCH   6  32
ENDBRANCH   3   6
ENDBRANCH   1   2
BRANCH   1  43
ATOM     43  C   UNL A   1      40.676  21.144  27.186  1.00  0.00     0.042 C 
BRANCH  43  44
ATOM     44  C   UNL A   1      41.347  22.442  27.607  1.00  0.00     0.118 C 
BRANCH  44  45
ATOM     45  N   UNL A   1      42.376  22.980  26.710  1.00  0.00    -0.352 N 
ATOM     46  C   UNL A   1      42.343  24.176  25.995  1.00  0.00     0.251 C 
ATOM     47  H   UNL A   1      43.185  22.431  26.599  1.00  0.00     0.163 HD
ATOM     48  O   UNL A   1      43.255  24.529  25.258  1.00  0.00    -0.269 OA
BRANCH  46  49
ATOM     49  C   UNL A   1      41.202  25.094  26.247  1.00  0.00     0.039 A 
ATOM     50  C   UNL A   1      41.334  26.399  25.763  1.00  0.00     0.014 A 
ATOM     51  C   UNL A   1      40.353  24.807  27.308  1.00  0.00     0.014 A 
ATOM     52  C   UNL A   1      40.893  27.453  26.556  1.00  0.00     0.010 A 
ATOM     53  C   UNL A   1      40.053  25.847  28.165  1.00  0.00     0.010 A 
ATOM     54  C   UNL A   1      40.396  27.163  27.826  1.00  0.00    -0.014 A 
BRANCH  54  55
ATOM     55  C   UNL A   1      40.340  28.151  28.898  1.00  0.00     0.031 A 
ATOM     56  C   UNL A   1      39.408  29.289  28.793  1.00  0.00     0.074 A 
ATOM     57  C   UNL A   1      41.108  28.040  30.005  1.00  0.00     0.049 A 
ATOM     58  N   UNL A   1      39.618  30.444  29.326  1.00  0.00    -0.248 NA
ATOM     59  C   UNL A   1      38.171  29.221  28.028  1.00  0.00     0.031 C 
ATOM     60  C   UNL A   1      40.994  28.815  31.240  1.00  0.00     0.029 A 
ATOM     61  N   UNL A   1      42.303  27.339  30.153  1.00  0.00    -0.354 N 
ATOM     62  C   UNL A   1      38.450  31.161  29.227  1.00  0.00     0.074 A 
ATOM     63  C   UNL A   1      37.604  30.383  28.352  1.00  0.00     0.031 C 
ATOM     64  C   UNL A   1      42.159  28.758  31.902  1.00  0.00     0.029 A 
ATOM     65  C   UNL A   1      43.108  28.056  31.062  1.00  0.00     0.049 A 
ATOM     66  H   UNL A   1      42.542  26.497  29.703  1.00  0.00     0.167 HD
ATOM     67  C   UNL A   1      38.262  32.265  30.001  1.00  0.00     0.034 A 
ATOM     68  C   UNL A   1      44.337  28.520  30.689  1.00  0.00     0.034 A 
ATOM     69  C   UNL A   1      39.412  32.530  30.868  1.00  0.00     0.049 A 
ATOM     70  C   UNL A   1      44.445  30.035  30.669  1.00  0.00     0.074 A 
ATOM     71  C   UNL A   1      39.678  32.302  32.209  1.00  0.00     0.029 A 
ATOM     72  N   UNL A   1      40.625  32.870  30.295  1.00  0.00    -0.354 N 
ATOM     73  N   UNL A   1      43.499  30.859  31.028  1.00  0.00    -0.248 NA
ATOM     74  C   UNL A   1      45.611  30.730  30.127  1.00  0.00     0.031 C 
ATOM     75  C   UNL A   1      41.072  32.510  32.428  1.00  0.00     0.029 A 
ATOM     76  C   UNL A   1      41.646  32.888  31.229  1.00  0.00     0.049 A 
ATOM     77  H   UNL A   1      40.747  33.076  29.341  1.00  0.00     0.167 HD
ATOM     78  C   UNL A   1      43.849  32.139  30.669  1.00  0.00     0.074 A 
ATOM     79  C   UNL A   1      45.188  32.003  30.119  1.00  0.00     0.031 C 
ATOM     80  C   UNL A   1      42.996  33.204  30.782  1.00  0.00     0.034 A 
BRANCH  67  81
ATOM     81  C   UNL A   1      36.917  32.927  30.173  1.00  0.00     0.023 A 
ATOM     82  C   UNL A   1      36.373  33.047  31.465  1.00  0.00     0.031 A 
ATOM     83  C   UNL A   1      36.112  33.425  29.129  1.00  0.00     0.131 A 
ATOM     84  C   UNL A   1      35.061  33.509  31.665  1.00  0.00     0.055 A 
ATOM     85  C   UNL A   1      34.779  33.813  29.316  1.00  0.00     0.041 A 
ATOM     86  F   UNL A   1      36.597  33.609  27.893  1.00  0.00    -0.206 F 
ATOM     87  C   UNL A   1      34.239  33.840  30.592  1.00  0.00     0.022 A 
BRANCH  84  88
ATOM     88  S   UNL A   1      34.451  33.692  33.361  1.00  0.00     0.124 S 
ATOM     89  O   UNL A   1      34.477  35.139  33.546  1.00  0.00    -0.237 OA
ATOM     90  O   UNL A   1      33.133  33.072  33.282  1.00  0.00    -0.237 OA
ATOM     91  O   UNL A   1      35.432  32.950  34.154  1.00  0.00    -0.744 OA
ENDBRANCH  84  88
ENDBRANCH  67  81
BRANCH  68  92
ATOM     92  C   UNL A   1      45.021  27.590  29.744  1.00  0.00     0.023 A 
ATOM     93  C   UNL A   1      44.910  27.883  28.368  1.00  0.00     0.031 A 
ATOM     94  C   UNL A   1      46.081  26.774  30.159  1.00  0.00     0.131 A 
ATOM     95  C   UNL A   1      45.942  27.531  27.486  1.00  0.00     0.055 A 
ATOM     96  C   UNL A   1      47.075  26.367  29.262  1.00  0.00     0.041 A 
ATOM     97  F   UNL A   1      46.257  26.486  31.458  1.00  0.00    -0.206 F 
ATOM     98  C   UNL A   1      47.040  26.795  27.932  1.00  0.00     0.022 A 
BRANCH  95  99
ATOM     99  S   UNL A   1      45.962  28.286  25.835  1.00  0.00     0.124 S 
ATOM    100  O   UNL A   1      45.689  29.688  26.121  1.00  0.00    -0.237 OA
ATOM    101  O   UNL A   1      47.307  27.983  25.357  1.00  0.00    -0.237 OA
ATOM    102  O   UNL A   1      44.904  27.591  25.100  1.00  0.00    -0.744 OA
ENDBRANCH  95  99
ENDBRANCH  68  92
BRANCH  80 103
ATOM    103  C   UNL A   1      43.363  34.626  30.404  1.00  0.00     0.023 A 
ATOM    104  C   UNL A   1      43.596  35.010  29.074  1.00  0.00     0.031 A 
ATOM    105  C   UNL A   1      43.544  35.644  31.371  1.00  0.00     0.131 A 
ATOM    106  C   UNL A   1      43.843  36.353  28.735  1.00  0.00     0.055 A 
ATOM    107  C   UNL A   1      43.879  36.962  31.040  1.00  0.00     0.041 A 
ATOM    108  F   UNL A   1      43.382  35.422  32.682  1.00  0.00    -0.206 F 
ATOM    109  C   UNL A   1      44.003  37.332  29.712  1.00  0.00     0.022 A 
BRANCH 106 110
ATOM    110  S   UNL A   1      43.867  36.807  26.983  1.00  0.00     0.124 S 
ATOM    111  O   UNL A   1      45.081  36.155  26.501  1.00  0.00    -0.237 OA
ATOM    112  O   UNL A   1      42.610  36.233  26.512  1.00  0.00    -0.237 OA
ATOM    113  O   UNL A   1      43.912  38.268  27.006  1.00  0.00    -0.744 OA
ENDBRANCH 106 110
ENDBRANCH  80 103
ENDBRANCH  54  55
ENDBRANCH  46  49
ENDBRANCH  44  45
ENDBRANCH  43  44
ENDBRANCH   1  43
TORSDOF 20
ENDMDL
MODEL 3
REMARK VINA RESULT:     -13.2      4.514     10.566
REMARK SMILES Cc1ccc(S(=O)(=O)n2cc(C(=O)C(=O)N[C@@H](Cc3c[nH]c4ccccc34)C(=O)NCCCNC(=O)c3ccc(-c4c5nc(c(-c6cc(S(=O)(=O)[O-])ccc6F)c6ccc([nH]6)c(-c6cc(S(=O)(=O)[O-])ccc6F)c6nc(c(-c7cc(S(=O)(=O)[O-])ccc7F)c7ccc4[nH]7)C=C6)C=C5)cc3)c3ccccc32)cc1
REMARK SMILES IDX 31 1 30 2 28 3 29 4 17 6 16 7 14 8 15 9 12 11 13 12 11 13
REMARK SMILES IDX 9 14 10 15 105 16 100 17 104 18 101 19 103 20 102 21 6 22
REMARK SMILES IDX 7 23 8 24 5 25 1 26 2 27 3 28 107 29 4 30 106 31 18 32 19 33
REMARK SMILES IDX 20 34 27 35 21 36 22 37 26 38 23 40 25 41 24 42 32 43 33 44
REMARK SMILES IDX 34 45 35 46 36 48 37 49 38 50 99 51 39 52 98 53 40 54 41 55
REMARK SMILES IDX 42 56 92 57 43 58 97 59 91 60 93 61 44 62 96 63 90 64 89 65
REMARK SMILES IDX 45 67 77 68 57 69 76 70 58 71 61 72 75 73 94 74 59 75 60 76
REMARK SMILES IDX 74 78 95 79 62 80 46 81 47 82 55 83 48 84 54 85 56 86 53 87
REMARK SMILES IDX 49 88 50 89 51 90 52 91 78 92 79 93 87 94 80 95 86 96 88 97
REMARK SMILES IDX 85 98 81 99 82 100 83 101 84 102 63 103 64 104 72 105 65 106
REMARK SMILES IDX 71 107 73 108 70 109 66 110 67 111 68 112 69 113
REMARK H PARENT 30 5 16 10 21 39 34 47 93 66 61 77
REMARK Flexibility Score: inf
ROOT
ATOM      1  C   UNL A   1      39.722  21.804  26.154  1.00  0.00     0.117 C 
ENDROOT
BRANCH   1   2
ATOM      2  N   UNL A   1      39.231  20.516  25.710  1.00  0.00    -0.354 N 
ATOM      3  C   UNL A   1      37.996  20.173  25.238  1.00  0.00     0.242 C 
ATOM      4  O   UNL A   1      37.941  19.224  24.445  1.00  0.00    -0.273 OA
ATOM      5  H   UNL A   1      39.884  19.780  25.752  1.00  0.00     0.163 HD
BRANCH   3   6
ATOM      6  C   UNL A   1      36.684  20.932  25.597  1.00  0.00     0.176 C 
BRANCH   6   7
ATOM      7  N   UNL A   1      36.866  22.322  26.063  1.00  0.00    -0.337 N 
ATOM      8  C   UNL A   1      36.694  23.530  25.379  1.00  0.00     0.293 C 
ATOM      9  O   UNL A   1      37.051  24.584  25.867  1.00  0.00    -0.265 OA
ATOM     10  H   UNL A   1      37.154  22.413  27.000  1.00  0.00     0.164 HD
BRANCH   8  11
ATOM     11  C   UNL A   1      36.006  23.546  23.998  1.00  0.00     0.252 C 
ATOM     12  O   UNL A   1      36.741  23.369  23.031  1.00  0.00    -0.283 OA
BRANCH  11  13
ATOM     13  C   UNL A   1      34.563  23.839  23.807  1.00  0.00     0.054 A 
ATOM     14  N   UNL A   1      32.486  24.371  23.061  1.00  0.00    -0.240 N 
ATOM     15  C   UNL A   1      33.832  24.298  22.698  1.00  0.00     0.117 A 
ATOM     16  C   UNL A   1      32.357  23.799  24.338  1.00  0.00     0.065 A 
ATOM     17  C   UNL A   1      33.631  23.828  24.895  1.00  0.00     0.012 A 
ATOM     18  C   UNL A   1      31.213  23.547  25.124  1.00  0.00     0.028 A 
ATOM     19  C   UNL A   1      33.744  23.810  26.303  1.00  0.00     0.011 A 
ATOM     20  C   UNL A   1      31.344  23.602  26.510  1.00  0.00     0.002 A 
ATOM     21  C   UNL A   1      32.590  23.778  27.094  1.00  0.00     0.001 A 
BRANCH  14  22
ATOM     22  S   UNL A   1      31.385  25.712  22.866  1.00  0.00     0.268 S 
ATOM     23  O   UNL A   1      30.106  25.144  23.262  1.00  0.00    -0.201 OA
ATOM     24  O   UNL A   1      31.632  26.106  21.483  1.00  0.00    -0.201 OA
BRANCH  22  25
ATOM     25  C   UNL A   1      31.424  27.282  23.651  1.00  0.00     0.088 A 
ATOM     26  C   UNL A   1      31.900  30.518  26.483  1.00  0.00     0.044 C 
ATOM     27  C   UNL A   1      31.749  29.439  25.447  1.00  0.00    -0.051 A 
ATOM     28  C   UNL A   1      32.565  28.323  25.568  1.00  0.00     0.005 A 
ATOM     29  C   UNL A   1      30.792  29.475  24.407  1.00  0.00     0.005 A 
ATOM     30  C   UNL A   1      32.408  27.277  24.677  1.00  0.00     0.022 A 
ATOM     31  C   UNL A   1      30.617  28.394  23.502  1.00  0.00     0.022 A 
ENDBRANCH  22  25
ENDBRANCH  14  22
ENDBRANCH  11  13
ENDBRANCH   8  11
ENDBRANCH   6   7
BRANCH   6  32
ATOM     32  C   UNL A   1      35.502  20.732  24.590  1.00  0.00     0.072 C 
BRANCH  32  33
ATOM     33  C   UNL A   1      34.311  19.906  25.010  1.00  0.00    -0.020 A 
ATOM     34  C   UNL A   1      33.416  20.256  26.010  1.00  0.00     0.087 A 
ATOM     35  C   UNL A   1      33.951  18.570  24.602  1.00  0.00     0.003 A 
ATOM     36  N   UNL A   1      32.681  19.145  26.354  1.00  0.00    -0.361 N 
ATOM     37  C   UNL A   1      33.015  18.094  25.526  1.00  0.00     0.046 A 
ATOM     38  C   UNL A   1      34.458  17.663  23.649  1.00  0.00     0.010 A 
ATOM     39  H   UNL A   1      32.017  19.106  27.080  1.00  0.00     0.166 HD
ATOM     40  C   UNL A   1      32.634  16.748  25.601  1.00  0.00     0.026 A 
ATOM     41  C   UNL A   1      34.115  16.308  23.730  1.00  0.00     0.001 A 
ATOM     42  C   UNL A   1      33.230  15.856  24.707  1.00  0.00     0.002 A 
ENDBRANCH  32  33
ENDBRANCH   6  32
ENDBRANCH   3   6
ENDBRANCH   1   2
BRANCH   1  43
ATOM     43  C   UNL A   1      40.449  21.809  27.480  1.00  0.00     0.042 C 
BRANCH  43  44
ATOM     44  C   UNL A   1      41.956  21.735  27.289  1.00  0.00     0.118 C 
BRANCH  44  45
ATOM     45  N   UNL A   1      42.458  20.728  26.347  1.00  0.00    -0.352 N 
ATOM     46  C   UNL A   1      43.421  20.895  25.354  1.00  0.00     0.251 C 
ATOM     47  H   UNL A   1      42.067  19.828  26.425  1.00  0.00     0.163 HD
ATOM     48  O   UNL A   1      43.762  19.987  24.607  1.00  0.00    -0.269 OA
BRANCH  46  49
ATOM     49  C   UNL A   1      44.132  22.199  25.301  1.00  0.00     0.039 A 
ATOM     50  C   UNL A   1      45.217  22.352  26.169  1.00  0.00     0.014 A 
ATOM     51  C   UNL A   1      43.441  23.302  24.818  1.00  0.00     0.014 A 
ATOM     52  C   UNL A   1      45.383  23.570  26.820  1.00  0.00     0.010 A 
ATOM     53  C   UNL A   1      43.506  24.457  25.570  1.00  0.00     0.010 A 
ATOM     54  C   UNL A   1      44.423  24.561  26.625  1.00  0.00    -0.014 A 
BRANCH  54  55
ATOM     55  C   UNL A   1      44.222  25.663  27.561  1.00  0.00     0.031 A 
ATOM     56  C   UNL A   1      42.949  26.406  27.551  1.00  0.00     0.074 A 
ATOM     57  C   UNL A   1      45.170  26.010  28.462  1.00  0.00     0.049 A 
ATOM     58  N   UNL A   1      42.834  27.646  27.884  1.00  0.00    -0.248 NA
ATOM     59  C   UNL A   1      41.696  25.807  27.111  1.00  0.00     0.031 C 
ATOM     60  C   UNL A   1      45.019  26.925  29.592  1.00  0.00     0.029 A 
ATOM     61  N   UNL A   1      46.540  25.764  28.402  1.00  0.00    -0.354 N 
ATOM     62  C   UNL A   1      41.493  27.924  27.982  1.00  0.00     0.074 A 
ATOM     63  C   UNL A   1      40.828  26.769  27.425  1.00  0.00     0.031 C 
ATOM     64  C   UNL A   1      46.231  27.365  29.963  1.00  0.00     0.029 A 
ATOM     65  C   UNL A   1      47.195  26.856  29.008  1.00  0.00     0.049 A 
ATOM     66  H   UNL A   1      46.972  24.973  28.007  1.00  0.00     0.167 HD
ATOM     67  C   UNL A   1      41.075  29.036  28.649  1.00  0.00     0.034 A 
ATOM     68  C   UNL A   1      48.092  27.608  28.306  1.00  0.00     0.034 A 
ATOM     69  C   UNL A   1      42.197  29.808  29.184  1.00  0.00     0.049 A 
ATOM     70  C   UNL A   1      47.659  29.047  28.090  1.00  0.00     0.074 A 
ATOM     71  C   UNL A   1      42.768  29.931  30.442  1.00  0.00     0.029 A 
ATOM     72  N   UNL A   1      43.088  30.402  28.307  1.00  0.00    -0.354 N 
ATOM     73  N   UNL A   1      46.566  29.580  28.565  1.00  0.00    -0.248 NA
ATOM     74  C   UNL A   1      48.387  29.962  27.213  1.00  0.00     0.031 C 
ATOM     75  C   UNL A   1      44.015  30.607  30.301  1.00  0.00     0.029 A 
ATOM     76  C   UNL A   1      44.190  30.916  28.966  1.00  0.00     0.049 A 
ATOM     77  H   UNL A   1      42.953  30.454  27.334  1.00  0.00     0.167 HD
ATOM     78  C   UNL A   1      46.375  30.814  27.991  1.00  0.00     0.074 A 
ATOM     79  C   UNL A   1      47.551  31.010  27.161  1.00  0.00     0.031 C 
ATOM     80  C   UNL A   1      45.238  31.555  28.180  1.00  0.00     0.034 A 
BRANCH  67  81
ATOM     81  C   UNL A   1      39.640  29.257  29.056  1.00  0.00     0.023 A 
ATOM     82  C   UNL A   1      39.317  29.317  30.424  1.00  0.00     0.031 A 
ATOM     83  C   UNL A   1      38.549  29.382  28.172  1.00  0.00     0.131 A 
ATOM     84  C   UNL A   1      37.982  29.361  30.859  1.00  0.00     0.055 A 
ATOM     85  C   UNL A   1      37.216  29.349  28.601  1.00  0.00     0.041 A 
ATOM     86  F   UNL A   1      38.727  29.596  26.861  1.00  0.00    -0.206 F 
ATOM     87  C   UNL A   1      36.925  29.321  29.955  1.00  0.00     0.022 A 
BRANCH  84  88
ATOM     88  S   UNL A   1      37.648  29.497  32.635  1.00  0.00     0.124 S 
ATOM     89  O   UNL A   1      37.508  28.099  33.031  1.00  0.00    -0.237 OA
ATOM     90  O   UNL A   1      38.837  30.190  33.118  1.00  0.00    -0.237 OA
ATOM     91  O   UNL A   1      36.414  30.281  32.688  1.00  0.00    -0.744 OA
ENDBRANCH  84  88
ENDBRANCH  67  81
BRANCH  68  92
ATOM     92  C   UNL A   1      48.874  26.784  27.338  1.00  0.00     0.023 A 
ATOM     93  C   UNL A   1      48.429  26.780  25.999  1.00  0.00     0.031 A 
ATOM     94  C   UNL A   1      50.203  26.422  27.591  1.00  0.00     0.131 A 
ATOM     95  C   UNL A   1      49.347  26.615  24.951  1.00  0.00     0.055 A 
ATOM     96  C   UNL A   1      51.101  26.191  26.543  1.00  0.00     0.041 A 
ATOM     97  F   UNL A   1      50.692  26.435  28.841  1.00  0.00    -0.206 F 
ATOM     98  C   UNL A   1      50.690  26.345  25.217  1.00  0.00     0.022 A 
BRANCH  95  99
ATOM     99  S   UNL A   1      48.819  27.035  23.266  1.00  0.00     0.124 S 
ATOM    100  O   UNL A   1      48.295  25.770  22.770  1.00  0.00    -0.237 OA
ATOM    101  O   UNL A   1      47.834  28.088  23.490  1.00  0.00    -0.237 OA
ATOM    102  O   UNL A   1      50.038  27.498  22.603  1.00  0.00    -0.744 OA
ENDBRANCH  95  99
ENDBRANCH  68  92
BRANCH  80 103
ATOM    103  C   UNL A   1      45.008  32.923  27.568  1.00  0.00     0.023 A 
ATOM    104  C   UNL A   1      45.225  34.109  28.286  1.00  0.00     0.031 A 
ATOM    105  C   UNL A   1      44.511  33.092  26.253  1.00  0.00     0.131 A 
ATOM    106  C   UNL A   1      45.096  35.368  27.672  1.00  0.00     0.055 A 
ATOM    107  C   UNL A   1      44.297  34.346  25.672  1.00  0.00     0.041 A 
ATOM    108  F   UNL A   1      44.233  32.052  25.456  1.00  0.00    -0.206 F 
ATOM    109  C   UNL A   1      44.616  35.497  26.372  1.00  0.00     0.022 A 
BRANCH 106 110
ATOM    110  S   UNL A   1      45.649  36.831  28.583  1.00  0.00     0.124 S 
ATOM    111  O   UNL A   1      45.171  36.565  29.936  1.00  0.00    -0.237 OA
ATOM    112  O   UNL A   1      47.097  36.764  28.399  1.00  0.00    -0.237 OA
ATOM    113  O   UNL A   1      44.987  37.938  27.895  1.00  0.00    -0.744 OA
ENDBRANCH 106 110
ENDBRANCH  80 103
ENDBRANCH  54  55
ENDBRANCH  46  49
ENDBRANCH  44  45
ENDBRANCH  43  44
ENDBRANCH   1  43
TORSDOF 20
ENDMDL
