MODEL 1
REMARK VINA RESULT:     -12.2      0.000      0.000
REMARK SMILES C[C@@H](O)[C@@H](NC(=O)Nc1ccc(F)cc1F)C(=O)NCCCNC(=O)c1ccc(-c2c3nc(c(-c4cc(S(=O)(=O)[O-])ccc4F)c4ccc([nH]4)c(-c4cc(S(=O)(=O)[O-])ccc4F)c4nc(c(-c5cc(S(=O)(=O)[O-])ccc5F)c5ccc2[nH]5)C=C4)C=C3)cc1
REMARK SMILES IDX 21 1 20 2 19 3 17 4 18 5 4 7 2 8 1 9 3 10 5 12 6 13 7 15
REMARK SMILES IDX 8 16 9 18 10 19 15 20 11 21 14 22 16 23 12 24 13 25 22 26
REMARK SMILES IDX 23 27 24 28 25 30 26 31 27 32 88 33 28 34 87 35 29 36 30 37
REMARK SMILES IDX 31 38 81 39 32 40 86 41 80 42 82 43 33 44 85 45 79 46 78 47
REMARK SMILES IDX 34 49 66 50 46 51 65 52 47 53 50 54 64 55 83 56 48 57 49 58
REMARK SMILES IDX 63 60 84 61 51 62 35 63 36 64 44 65 37 66 43 67 45 68 42 69
REMARK SMILES IDX 38 70 39 71 40 72 41 73 67 74 68 75 76 76 69 77 75 78 77 79
REMARK SMILES IDX 74 80 70 81 71 82 72 83 73 84 52 85 53 86 61 87 54 88 60 89
REMARK SMILES IDX 62 90 59 91 55 92 56 93 57 94 58 95
REMARK H PARENT 19 6 3 11 5 14 8 17 23 29 82 48 50 59
REMARK Flexibility Score: inf
ROOT
ATOM      1  C   UNL A   1      31.190  30.607  25.524  1.00  0.00     0.042 C 
ENDROOT
BRANCH   1   2
ATOM      2  C   UNL A   1      31.550  29.286  24.850  1.00  0.00     0.117 C 
BRANCH   2   3
ATOM      3  N   UNL A   1      30.372  28.737  24.216  1.00  0.00    -0.354 N 
ATOM      4  C   UNL A   1      30.407  28.029  23.048  1.00  0.00     0.245 C 
ATOM      5  O   UNL A   1      29.915  28.517  22.030  1.00  0.00    -0.273 OA
ATOM      6  H   UNL A   1      29.500  28.881  24.649  1.00  0.00     0.163 HD
BRANCH   4   7
ATOM      7  C   UNL A   1      31.122  26.670  23.030  1.00  0.00     0.201 C 
BRANCH   7   8
ATOM      8  C   UNL A   1      30.116  25.666  23.653  1.00  0.00     0.143 C 
ATOM      9  C   UNL A   1      30.361  25.358  25.123  1.00  0.00     0.041 C 
BRANCH   8  10
ATOM     10  O   UNL A   1      28.788  26.214  23.583  1.00  0.00    -0.391 OA
ATOM     11  H   UNL A   1      28.144  25.493  23.508  1.00  0.00     0.211 HD
ENDBRANCH   8  10
ENDBRANCH   7   8
BRANCH   7  12
ATOM     12  N   UNL A   1      31.654  26.329  21.699  1.00  0.00    -0.323 N 
ATOM     13  C   UNL A   1      32.760  25.659  21.296  1.00  0.00     0.320 C 
ATOM     14  H   UNL A   1      31.094  26.651  20.956  1.00  0.00     0.166 HD
ATOM     15  O   UNL A   1      32.968  25.601  20.082  1.00  0.00    -0.248 OA
ATOM     16  N   UNL A   1      33.724  25.243  22.150  1.00  0.00    -0.305 N 
ATOM     17  H   UNL A   1      34.628  25.228  21.760  1.00  0.00     0.171 HD
BRANCH  16  18
ATOM     18  C   UNL A   1      33.671  24.829  23.489  1.00  0.00     0.079 A 
ATOM     19  C   UNL A   1      34.052  25.667  24.535  1.00  0.00     0.032 A 
ATOM     20  C   UNL A   1      33.276  23.512  23.769  1.00  0.00     0.149 A 
ATOM     21  C   UNL A   1      34.159  25.150  25.827  1.00  0.00     0.041 A 
ATOM     22  C   UNL A   1      33.406  22.983  25.046  1.00  0.00     0.080 A 
ATOM     23  F   UNL A   1      32.915  22.698  22.763  1.00  0.00    -0.205 F 
ATOM     24  C   UNL A   1      33.866  23.807  26.063  1.00  0.00     0.126 A 
ATOM     25  F   UNL A   1      34.042  23.305  27.292  1.00  0.00    -0.207 F 
ENDBRANCH  16  18
ENDBRANCH   7  12
ENDBRANCH   4   7
ENDBRANCH   2   3
ENDBRANCH   1   2
BRANCH   1  26
ATOM     26  C   UNL A   1      32.193  31.032  26.596  1.00  0.00     0.118 C 
BRANCH  26  27
ATOM     27  N   UNL A   1      32.146  32.464  26.865  1.00  0.00    -0.352 N 
ATOM     28  C   UNL A   1      33.018  33.213  27.620  1.00  0.00     0.251 C 
ATOM     29  H   UNL A   1      31.396  32.955  26.456  1.00  0.00     0.163 HD
ATOM     30  O   UNL A   1      32.752  34.361  27.933  1.00  0.00    -0.269 OA
BRANCH  28  31
ATOM     31  C   UNL A   1      34.269  32.565  28.057  1.00  0.00     0.039 A 
ATOM     32  C   UNL A   1      35.410  33.344  28.238  1.00  0.00     0.014 A 
ATOM     33  C   UNL A   1      34.256  31.208  28.392  1.00  0.00     0.014 A 
ATOM     34  C   UNL A   1      36.537  32.767  28.822  1.00  0.00     0.010 A 
ATOM     35  C   UNL A   1      35.350  30.660  29.046  1.00  0.00     0.010 A 
ATOM     36  C   UNL A   1      36.502  31.434  29.266  1.00  0.00    -0.014 A 
BRANCH  36  37
ATOM     37  C   UNL A   1      37.665  30.824  29.958  1.00  0.00     0.031 A 
ATOM     38  C   UNL A   1      37.979  31.225  31.373  1.00  0.00     0.074 A 
ATOM     39  C   UNL A   1      38.468  29.973  29.291  1.00  0.00     0.049 A 
ATOM     40  N   UNL A   1      38.985  30.869  32.128  1.00  0.00    -0.248 NA
ATOM     41  C   UNL A   1      37.059  32.181  32.010  1.00  0.00     0.031 C 
ATOM     42  C   UNL A   1      38.290  29.559  27.896  1.00  0.00     0.029 A 
ATOM     43  N   UNL A   1      39.602  29.311  29.687  1.00  0.00    -0.354 N 
ATOM     44  C   UNL A   1      38.831  31.571  33.318  1.00  0.00     0.074 A 
ATOM     45  C   UNL A   1      37.669  32.418  33.160  1.00  0.00     0.031 C 
ATOM     46  C   UNL A   1      39.266  28.698  27.563  1.00  0.00     0.029 A 
ATOM     47  C   UNL A   1      40.165  28.533  28.701  1.00  0.00     0.049 A 
ATOM     48  H   UNL A   1      39.980  29.386  30.593  1.00  0.00     0.167 HD
ATOM     49  C   UNL A   1      39.578  31.498  34.447  1.00  0.00     0.034 A 
ATOM     50  C   UNL A   1      41.286  27.784  28.710  1.00  0.00     0.034 A 
ATOM     51  C   UNL A   1      40.719  30.628  34.590  1.00  0.00     0.049 A 
ATOM     52  C   UNL A   1      42.099  27.717  29.979  1.00  0.00     0.074 A 
ATOM     53  C   UNL A   1      41.499  30.411  35.711  1.00  0.00     0.029 A 
ATOM     54  N   UNL A   1      41.248  29.837  33.577  1.00  0.00    -0.354 N 
ATOM     55  N   UNL A   1      41.895  28.329  31.124  1.00  0.00    -0.248 NA
ATOM     56  C   UNL A   1      43.282  26.848  29.963  1.00  0.00     0.031 C 
ATOM     57  C   UNL A   1      42.543  29.550  35.357  1.00  0.00     0.029 A 
ATOM     58  C   UNL A   1      42.367  29.160  34.038  1.00  0.00     0.049 A 
ATOM     59  H   UNL A   1      40.882  29.768  32.666  1.00  0.00     0.167 HD
ATOM     60  C   UNL A   1      42.909  27.892  31.972  1.00  0.00     0.074 A 
ATOM     61  C   UNL A   1      43.710  26.954  31.213  1.00  0.00     0.031 C 
ATOM     62  C   UNL A   1      43.157  28.234  33.263  1.00  0.00     0.034 A 
BRANCH  49  63
ATOM     63  C   UNL A   1      39.198  32.399  35.596  1.00  0.00     0.023 A 
ATOM     64  C   UNL A   1      39.648  33.729  35.678  1.00  0.00     0.031 A 
ATOM     65  C   UNL A   1      38.384  31.916  36.636  1.00  0.00     0.131 A 
ATOM     66  C   UNL A   1      39.341  34.505  36.805  1.00  0.00     0.055 A 
ATOM     67  C   UNL A   1      38.015  32.719  37.716  1.00  0.00     0.041 A 
ATOM     68  F   UNL A   1      37.944  30.649  36.626  1.00  0.00    -0.206 F 
ATOM     69  C   UNL A   1      38.505  34.018  37.813  1.00  0.00     0.022 A 
BRANCH  66  70
ATOM     70  S   UNL A   1      40.160  36.112  37.002  1.00  0.00     0.124 S 
ATOM     71  O   UNL A   1      39.435  36.674  38.138  1.00  0.00    -0.237 OA
ATOM     72  O   UNL A   1      41.545  35.731  37.252  1.00  0.00    -0.237 OA
ATOM     73  O   UNL A   1      39.916  36.779  35.724  1.00  0.00    -0.744 OA
ENDBRANCH  66  70
ENDBRANCH  49  63
BRANCH  50  74
ATOM     74  C   UNL A   1      41.720  27.051  27.485  1.00  0.00     0.023 A 
ATOM     75  C   UNL A   1      41.593  25.655  27.390  1.00  0.00     0.031 A 
ATOM     76  C   UNL A   1      42.318  27.731  26.408  1.00  0.00     0.131 A 
ATOM     77  C   UNL A   1      42.106  24.979  26.272  1.00  0.00     0.055 A 
ATOM     78  C   UNL A   1      42.775  27.059  25.272  1.00  0.00     0.041 A 
ATOM     79  F   UNL A   1      42.460  29.064  26.443  1.00  0.00    -0.206 F 
ATOM     80  C   UNL A   1      42.685  25.673  25.206  1.00  0.00     0.022 A 
BRANCH  77  81
ATOM     81  S   UNL A   1      42.097  23.165  26.274  1.00  0.00     0.124 S 
ATOM     82  O   UNL A   1      42.725  22.863  24.993  1.00  0.00    -0.237 OA
ATOM     83  O   UNL A   1      42.884  22.859  27.463  1.00  0.00    -0.237 OA
ATOM     84  O   UNL A   1      40.677  22.833  26.366  1.00  0.00    -0.744 OA
ENDBRANCH  77  81
ENDBRANCH  50  74
BRANCH  62  85
ATOM     85  C   UNL A   1      44.316  27.547  33.943  1.00  0.00     0.023 A 
ATOM     86  C   UNL A   1      44.178  26.288  34.551  1.00  0.00     0.031 A 
ATOM     87  C   UNL A   1      45.578  28.168  33.985  1.00  0.00     0.131 A 
ATOM     88  C   UNL A   1      45.267  25.715  35.225  1.00  0.00     0.055 A 
ATOM     89  C   UNL A   1      46.674  27.563  34.600  1.00  0.00     0.041 A 
ATOM     90  F   UNL A   1      45.766  29.372  33.421  1.00  0.00    -0.206 F 
ATOM     91  C   UNL A   1      46.519  26.336  35.237  1.00  0.00     0.022 A 
BRANCH  88  92
ATOM     92  S   UNL A   1      45.002  24.189  36.169  1.00  0.00     0.124 S 
ATOM     93  O   UNL A   1      43.647  23.820  35.772  1.00  0.00    -0.237 OA
ATOM     94  O   UNL A   1      46.069  23.327  35.676  1.00  0.00    -0.237 OA
ATOM     95  O   UNL A   1      45.144  24.618  37.560  1.00  0.00    -0.744 OA
ENDBRANCH  88  92
ENDBRANCH  62  85
ENDBRANCH  36  37
ENDBRANCH  28  31
ENDBRANCH  26  27
ENDBRANCH   1  26
TORSDOF 17
ENDMDL
MODEL 2
REMARK VINA RESULT:     -12.1      5.271      8.236
REMARK SMILES C[C@@H](O)[C@@H](NC(=O)Nc1ccc(F)cc1F)C(=O)NCCCNC(=O)c1ccc(-c2c3nc(c(-c4cc(S(=O)(=O)[O-])ccc4F)c4ccc([nH]4)c(-c4cc(S(=O)(=O)[O-])ccc4F)c4nc(c(-c5cc(S(=O)(=O)[O-])ccc5F)c5ccc2[nH]5)C=C4)C=C3)cc1
REMARK SMILES IDX 21 1 20 2 19 3 17 4 18 5 4 7 2 8 1 9 3 10 5 12 6 13 7 15
REMARK SMILES IDX 8 16 9 18 10 19 15 20 11 21 14 22 16 23 12 24 13 25 22 26
REMARK SMILES IDX 23 27 24 28 25 30 26 31 27 32 88 33 28 34 87 35 29 36 30 37
REMARK SMILES IDX 31 38 81 39 32 40 86 41 80 42 82 43 33 44 85 45 79 46 78 47
REMARK SMILES IDX 34 49 66 50 46 51 65 52 47 53 50 54 64 55 83 56 48 57 49 58
REMARK SMILES IDX 63 60 84 61 51 62 35 63 36 64 44 65 37 66 43 67 45 68 42 69
REMARK SMILES IDX 38 70 39 71 40 72 41 73 67 74 68 75 76 76 69 77 75 78 77 79
REMARK SMILES IDX 74 80 70 81 71 82 72 83 73 84 52 85 53 86 61 87 54 88 60 89
REMARK SMILES IDX 62 90 59 91 55 92 56 93 57 94 58 95
REMARK H PARENT 19 6 3 11 5 14 8 17 23 29 82 48 50 59
REMARK Flexibility Score: inf
ROOT
ATOM      1  C   UNL A   1      36.016  20.998  25.187  1.00  0.00     0.042 C 
ENDROOT
BRANCH   1   2
ATOM      2  C   UNL A   1      35.075  22.087  24.682  1.00  0.00     0.117 C 
BRANCH   2   3
ATOM      3  N   UNL A   1      33.938  21.473  24.034  1.00  0.00    -0.354 N 
ATOM      4  C   UNL A   1      32.687  21.439  24.582  1.00  0.00     0.245 C 
ATOM      5  O   UNL A   1      32.217  20.362  24.951  1.00  0.00    -0.273 OA
ATOM      6  H   UNL A   1      34.072  21.058  23.151  1.00  0.00     0.163 HD
BRANCH   4   7
ATOM      7  C   UNL A   1      31.933  22.762  24.781  1.00  0.00     0.201 C 
BRANCH   7   8
ATOM      8  C   UNL A   1      31.463  23.187  23.365  1.00  0.00     0.143 C 
ATOM      9  C   UNL A   1      32.319  24.263  22.713  1.00  0.00     0.041 C 
BRANCH   8  10
ATOM     10  O   UNL A   1      31.518  22.053  22.482  1.00  0.00    -0.391 OA
ATOM     11  H   UNL A   1      30.641  21.643  22.427  1.00  0.00     0.211 HD
ENDBRANCH   8  10
ENDBRANCH   7   8
BRANCH   7  12
ATOM     12  N   UNL A   1      30.892  22.669  25.820  1.00  0.00    -0.323 N 
ATOM     13  C   UNL A   1      30.440  23.545  26.750  1.00  0.00     0.320 C 
ATOM     14  H   UNL A   1      30.434  21.798  25.842  1.00  0.00     0.166 HD
ATOM     15  O   UNL A   1      29.588  23.133  27.540  1.00  0.00    -0.248 OA
ATOM     16  N   UNL A   1      31.016  24.750  26.971  1.00  0.00    -0.305 N 
ATOM     17  H   UNL A   1      30.952  25.061  27.902  1.00  0.00     0.171 HD
BRANCH  16  18
ATOM     18  C   UNL A   1      31.686  25.636  26.115  1.00  0.00     0.079 A 
ATOM     19  C   UNL A   1      33.073  25.768  26.130  1.00  0.00     0.032 A 
ATOM     20  C   UNL A   1      30.925  26.451  25.262  1.00  0.00     0.149 A 
ATOM     21  C   UNL A   1      33.675  26.792  25.397  1.00  0.00     0.041 A 
ATOM     22  C   UNL A   1      31.513  27.489  24.552  1.00  0.00     0.080 A 
ATOM     23  F   UNL A   1      29.587  26.333  25.250  1.00  0.00    -0.205 F 
ATOM     24  C   UNL A   1      32.887  27.660  24.642  1.00  0.00     0.126 A 
ATOM     25  F   UNL A   1      33.469  28.682  24.001  1.00  0.00    -0.207 F 
ENDBRANCH  16  18
ENDBRANCH   7  12
ENDBRANCH   4   7
ENDBRANCH   2   3
ENDBRANCH   1   2
BRANCH   1  26
ATOM     26  C   UNL A   1      37.490  21.402  25.140  1.00  0.00     0.118 C 
BRANCH  26  27
ATOM     27  N   UNL A   1      38.376  20.319  25.549  1.00  0.00    -0.352 N 
ATOM     28  C   UNL A   1      39.611  20.416  26.146  1.00  0.00     0.251 C 
ATOM     29  H   UNL A   1      38.050  19.405  25.376  1.00  0.00     0.163 HD
ATOM     30  O   UNL A   1      40.337  19.441  26.251  1.00  0.00    -0.269 OA
BRANCH  28  31
ATOM     31  C   UNL A   1      40.032  21.744  26.627  1.00  0.00     0.039 A 
ATOM     32  C   UNL A   1      40.973  21.830  27.652  1.00  0.00     0.014 A 
ATOM     33  C   UNL A   1      39.569  22.888  25.970  1.00  0.00     0.014 A 
ATOM     34  C   UNL A   1      41.503  23.076  27.981  1.00  0.00     0.010 A 
ATOM     35  C   UNL A   1      40.158  24.114  26.246  1.00  0.00     0.010 A 
ATOM     36  C   UNL A   1      41.130  24.220  27.254  1.00  0.00    -0.014 A 
BRANCH  36  37
ATOM     37  C   UNL A   1      41.739  25.543  27.539  1.00  0.00     0.031 A 
ATOM     38  C   UNL A   1      40.948  26.577  28.291  1.00  0.00     0.074 A 
ATOM     39  C   UNL A   1      42.965  25.832  27.060  1.00  0.00     0.049 A 
ATOM     40  N   UNL A   1      41.264  27.813  28.579  1.00  0.00    -0.248 NA
ATOM     41  C   UNL A   1      39.608  26.178  28.752  1.00  0.00     0.031 C 
ATOM     42  C   UNL A   1      43.799  24.924  26.266  1.00  0.00     0.029 A 
ATOM     43  N   UNL A   1      43.722  26.972  27.156  1.00  0.00    -0.354 N 
ATOM     44  C   UNL A   1      40.159  28.344  29.232  1.00  0.00     0.074 A 
ATOM     45  C   UNL A   1      39.142  27.315  29.246  1.00  0.00     0.031 C 
ATOM     46  C   UNL A   1      44.958  25.535  25.970  1.00  0.00     0.029 A 
ATOM     47  C   UNL A   1      44.934  26.891  26.509  1.00  0.00     0.049 A 
ATOM     48  H   UNL A   1      43.425  27.775  27.643  1.00  0.00     0.167 HD
ATOM     49  C   UNL A   1      40.014  29.570  29.791  1.00  0.00     0.034 A 
ATOM     50  C   UNL A   1      45.907  27.811  26.356  1.00  0.00     0.034 A 
ATOM     51  C   UNL A   1      41.051  30.573  29.787  1.00  0.00     0.049 A 
ATOM     52  C   UNL A   1      45.724  29.168  26.988  1.00  0.00     0.074 A 
ATOM     53  C   UNL A   1      41.046  31.817  30.391  1.00  0.00     0.029 A 
ATOM     54  N   UNL A   1      42.275  30.449  29.140  1.00  0.00    -0.354 N 
ATOM     55  N   UNL A   1      44.701  29.629  27.672  1.00  0.00    -0.248 NA
ATOM     56  C   UNL A   1      46.830  30.122  26.844  1.00  0.00     0.031 C 
ATOM     57  C   UNL A   1      42.232  32.474  30.047  1.00  0.00     0.029 A 
ATOM     58  C   UNL A   1      43.017  31.609  29.300  1.00  0.00     0.049 A 
ATOM     59  H   UNL A   1      42.571  29.654  28.641  1.00  0.00     0.167 HD
ATOM     60  C   UNL A   1      45.057  30.917  28.063  1.00  0.00     0.074 A 
ATOM     61  C   UNL A   1      46.393  31.150  27.556  1.00  0.00     0.031 C 
ATOM     62  C   UNL A   1      44.345  31.826  28.780  1.00  0.00     0.034 A 
BRANCH  49  63
ATOM     63  C   UNL A   1      38.684  29.899  30.423  1.00  0.00     0.023 A 
ATOM     64  C   UNL A   1      37.686  30.605  29.730  1.00  0.00     0.031 A 
ATOM     65  C   UNL A   1      38.414  29.510  31.747  1.00  0.00     0.131 A 
ATOM     66  C   UNL A   1      36.497  30.963  30.384  1.00  0.00     0.055 A 
ATOM     67  C   UNL A   1      37.197  29.798  32.366  1.00  0.00     0.041 A 
ATOM     68  F   UNL A   1      39.337  28.853  32.468  1.00  0.00    -0.206 F 
ATOM     69  C   UNL A   1      36.234  30.541  31.689  1.00  0.00     0.022 A 
BRANCH  66  70
ATOM     70  S   UNL A   1      35.358  32.103  29.551  1.00  0.00     0.124 S 
ATOM     71  O   UNL A   1      34.448  32.455  30.638  1.00  0.00    -0.237 OA
ATOM     72  O   UNL A   1      36.249  33.162  29.095  1.00  0.00    -0.237 OA
ATOM     73  O   UNL A   1      34.767  31.284  28.494  1.00  0.00    -0.744 OA
ENDBRANCH  66  70
ENDBRANCH  49  63
BRANCH  50  74
ATOM     74  C   UNL A   1      47.132  27.497  25.563  1.00  0.00     0.023 A 
ATOM     75  C   UNL A   1      47.233  27.855  24.209  1.00  0.00     0.031 A 
ATOM     76  C   UNL A   1      48.203  26.787  26.136  1.00  0.00     0.131 A 
ATOM     77  C   UNL A   1      48.350  27.455  23.459  1.00  0.00     0.055 A 
ATOM     78  C   UNL A   1      49.338  26.441  25.401  1.00  0.00     0.041 A 
ATOM     79  F   UNL A   1      48.163  26.424  27.427  1.00  0.00    -0.206 F 
ATOM     80  C   UNL A   1      49.410  26.762  24.049  1.00  0.00     0.022 A 
BRANCH  77  81
ATOM     81  S   UNL A   1      48.355  27.769  21.672  1.00  0.00     0.124 S 
ATOM     82  O   UNL A   1      49.400  28.779  21.551  1.00  0.00    -0.237 OA
ATOM     83  O   UNL A   1      48.672  26.450  21.135  1.00  0.00    -0.237 OA
ATOM     84  O   UNL A   1      46.998  28.239  21.406  1.00  0.00    -0.744 OA
ENDBRANCH  77  81
ENDBRANCH  50  74
BRANCH  62  85
ATOM     85  C   UNL A   1      45.026  33.136  29.093  1.00  0.00     0.023 A 
ATOM     86  C   UNL A   1      44.849  34.274  28.288  1.00  0.00     0.031 A 
ATOM     87  C   UNL A   1      45.868  33.242  30.214  1.00  0.00     0.131 A 
ATOM     88  C   UNL A   1      45.551  35.453  28.583  1.00  0.00     0.055 A 
ATOM     89  C   UNL A   1      46.512  34.436  30.539  1.00  0.00     0.041 A 
ATOM     90  F   UNL A   1      46.075  32.185  31.016  1.00  0.00    -0.206 F 
ATOM     91  C   UNL A   1      46.366  35.547  29.714  1.00  0.00     0.022 A 
BRANCH  88  92
ATOM     92  S   UNL A   1      45.458  36.836  27.414  1.00  0.00     0.124 S 
ATOM     93  O   UNL A   1      45.792  37.975  28.264  1.00  0.00    -0.237 OA
ATOM     94  O   UNL A   1      46.456  36.471  26.416  1.00  0.00    -0.237 OA
ATOM     95  O   UNL A   1      44.072  36.798  26.947  1.00  0.00    -0.744 OA
ENDBRANCH  88  92
ENDBRANCH  62  85
ENDBRANCH  36  37
ENDBRANCH  28  31
ENDBRANCH  26  27
ENDBRANCH   1  26
TORSDOF 17
ENDMDL
MODEL 3
REMARK VINA RESULT:     -12.1      5.068     10.245
REMARK SMILES C[C@@H](O)[C@@H](NC(=O)Nc1ccc(F)cc1F)C(=O)NCCCNC(=O)c1ccc(-c2c3nc(c(-c4cc(S(=O)(=O)[O-])ccc4F)c4ccc([nH]4)c(-c4cc(S(=O)(=O)[O-])ccc4F)c4nc(c(-c5cc(S(=O)(=O)[O-])ccc5F)c5ccc2[nH]5)C=C4)C=C3)cc1
REMARK SMILES IDX 21 1 20 2 19 3 17 4 18 5 4 7 2 8 1 9 3 10 5 12 6 13 7 15
REMARK SMILES IDX 8 16 9 18 10 19 15 20 11 21 14 22 16 23 12 24 13 25 22 26
REMARK SMILES IDX 23 27 24 28 25 30 26 31 27 32 88 33 28 34 87 35 29 36 30 37
REMARK SMILES IDX 31 38 81 39 32 40 86 41 80 42 82 43 33 44 85 45 79 46 78 47
REMARK SMILES IDX 34 49 66 50 46 51 65 52 47 53 50 54 64 55 83 56 48 57 49 58
REMARK SMILES IDX 63 60 84 61 51 62 35 63 36 64 44 65 37 66 43 67 45 68 42 69
REMARK SMILES IDX 38 70 39 71 40 72 41 73 67 74 68 75 76 76 69 77 75 78 77 79
REMARK SMILES IDX 74 80 70 81 71 82 72 83 73 84 52 85 53 86 61 87 54 88 60 89
REMARK SMILES IDX 62 90 59 91 55 92 56 93 57 94 58 95
REMARK H PARENT 19 6 3 11 5 14 8 17 23 29 82 48 50 59
REMARK Flexibility Score: inf
ROOT
ATOM      1  C   UNL A   1      35.998  21.836  24.281  1.00  0.00     0.042 C 
ENDROOT
BRANCH   1   2
ATOM      2  C   UNL A   1      35.010  21.207  25.258  1.00  0.00     0.117 C 
BRANCH   2   3
ATOM      3  N   UNL A   1      33.903  20.640  24.519  1.00  0.00    -0.354 N 
ATOM      4  C   UNL A   1      32.602  20.730  24.926  1.00  0.00     0.245 C 
ATOM      5  O   UNL A   1      32.011  19.715  25.294  1.00  0.00    -0.273 OA
ATOM      6  H   UNL A   1      34.099  20.165  23.679  1.00  0.00     0.163 HD
BRANCH   4   7
ATOM      7  C   UNL A   1      31.938  22.115  24.973  1.00  0.00     0.201 C 
BRANCH   7   8
ATOM      8  C   UNL A   1      31.546  22.435  23.506  1.00  0.00     0.143 C 
ATOM      9  C   UNL A   1      30.668  23.666  23.343  1.00  0.00     0.041 C 
BRANCH   8  10
ATOM     10  O   UNL A   1      32.734  22.695  22.739  1.00  0.00    -0.391 OA
ATOM     11  H   UNL A   1      33.454  22.126  23.054  1.00  0.00     0.211 HD
ENDBRANCH   8  10
ENDBRANCH   7   8
BRANCH   7  12
ATOM     12  N   UNL A   1      30.861  22.191  25.974  1.00  0.00    -0.323 N 
ATOM     13  C   UNL A   1      30.501  23.145  26.867  1.00  0.00     0.320 C 
ATOM     14  H   UNL A   1      30.289  21.390  26.000  1.00  0.00     0.166 HD
ATOM     15  O   UNL A   1      29.575  22.873  27.634  1.00  0.00    -0.248 OA
ATOM     16  N   UNL A   1      31.227  24.267  27.082  1.00  0.00    -0.305 N 
ATOM     17  H   UNL A   1      31.175  24.610  28.003  1.00  0.00     0.171 HD
BRANCH  16  18
ATOM     18  C   UNL A   1      32.040  25.031  26.231  1.00  0.00     0.079 A 
ATOM     19  C   UNL A   1      33.405  24.785  26.099  1.00  0.00     0.032 A 
ATOM     20  C   UNL A   1      31.463  26.109  25.541  1.00  0.00     0.149 A 
ATOM     21  C   UNL A   1      34.201  25.686  25.389  1.00  0.00     0.041 A 
ATOM     22  C   UNL A   1      32.252  27.024  24.856  1.00  0.00     0.080 A 
ATOM     23  F   UNL A   1      30.148  26.355  25.672  1.00  0.00    -0.205 F 
ATOM     24  C   UNL A   1      33.622  26.811  24.803  1.00  0.00     0.126 A 
ATOM     25  F   UNL A   1      34.406  27.704  24.187  1.00  0.00    -0.207 F 
ENDBRANCH  16  18
ENDBRANCH   7  12
ENDBRANCH   4   7
ENDBRANCH   2   3
ENDBRANCH   1   2
BRANCH   1  26
ATOM     26  C   UNL A   1      37.295  22.299  24.945  1.00  0.00     0.118 C 
BRANCH  26  27
ATOM     27  N   UNL A   1      38.090  21.184  25.448  1.00  0.00    -0.352 N 
ATOM     28  C   UNL A   1      39.253  21.237  26.180  1.00  0.00     0.251 C 
ATOM     29  H   UNL A   1      37.752  20.284  25.236  1.00  0.00     0.163 HD
ATOM     30  O   UNL A   1      39.925  20.236  26.363  1.00  0.00    -0.269 OA
BRANCH  28  31
ATOM     31  C   UNL A   1      39.665  22.549  26.710  1.00  0.00     0.039 A 
ATOM     32  C   UNL A   1      40.726  22.616  27.611  1.00  0.00     0.014 A 
ATOM     33  C   UNL A   1      39.063  23.708  26.210  1.00  0.00     0.014 A 
ATOM     34  C   UNL A   1      41.230  23.865  27.970  1.00  0.00     0.010 A 
ATOM     35  C   UNL A   1      39.621  24.944  26.507  1.00  0.00     0.010 A 
ATOM     36  C   UNL A   1      40.709  25.035  27.390  1.00  0.00    -0.014 A 
BRANCH  36  37
ATOM     37  C   UNL A   1      41.282  26.368  27.701  1.00  0.00     0.031 A 
ATOM     38  C   UNL A   1      42.674  26.702  27.238  1.00  0.00     0.074 A 
ATOM     39  C   UNL A   1      40.581  27.238  28.454  1.00  0.00     0.049 A 
ATOM     40  N   UNL A   1      43.385  27.776  27.466  1.00  0.00    -0.248 NA
ATOM     41  C   UNL A   1      43.371  25.678  26.444  1.00  0.00     0.031 C 
ATOM     42  C   UNL A   1      39.245  26.994  29.005  1.00  0.00     0.029 A 
ATOM     43  N   UNL A   1      40.895  28.497  28.899  1.00  0.00    -0.354 N 
ATOM     44  C   UNL A   1      44.616  27.548  26.864  1.00  0.00     0.074 A 
ATOM     45  C   UNL A   1      44.575  26.211  26.312  1.00  0.00     0.031 C 
ATOM     46  C   UNL A   1      38.848  28.077  29.693  1.00  0.00     0.029 A 
ATOM     47  C   UNL A   1      39.914  29.073  29.673  1.00  0.00     0.049 A 
ATOM     48  H   UNL A   1      41.744  28.947  28.684  1.00  0.00     0.167 HD
ATOM     49  C   UNL A   1      45.676  28.387  26.759  1.00  0.00     0.034 A 
ATOM     50  C   UNL A   1      39.886  30.263  30.306  1.00  0.00     0.034 A 
ATOM     51  C   UNL A   1      45.685  29.726  27.295  1.00  0.00     0.049 A 
ATOM     52  C   UNL A   1      41.075  31.180  30.173  1.00  0.00     0.074 A 
ATOM     53  C   UNL A   1      46.668  30.692  27.180  1.00  0.00     0.029 A 
ATOM     54  N   UNL A   1      44.665  30.285  28.057  1.00  0.00    -0.354 N 
ATOM     55  N   UNL A   1      42.206  30.980  29.532  1.00  0.00    -0.248 NA
ATOM     56  C   UNL A   1      40.982  32.488  30.834  1.00  0.00     0.031 C 
ATOM     57  C   UNL A   1      46.278  31.805  27.932  1.00  0.00     0.029 A 
ATOM     58  C   UNL A   1      45.013  31.569  28.447  1.00  0.00     0.049 A 
ATOM     59  H   UNL A   1      43.820  29.835  28.285  1.00  0.00     0.167 HD
ATOM     60  C   UNL A   1      42.942  32.151  29.690  1.00  0.00     0.074 A 
ATOM     61  C   UNL A   1      42.122  33.056  30.468  1.00  0.00     0.031 C 
ATOM     62  C   UNL A   1      44.185  32.454  29.231  1.00  0.00     0.034 A 
BRANCH  49  63
ATOM     63  C   UNL A   1      46.912  27.870  26.065  1.00  0.00     0.023 A 
ATOM     64  C   UNL A   1      47.146  28.096  24.698  1.00  0.00     0.031 A 
ATOM     65  C   UNL A   1      47.867  27.127  26.781  1.00  0.00     0.131 A 
ATOM     66  C   UNL A   1      48.265  27.525  24.074  1.00  0.00     0.055 A 
ATOM     67  C   UNL A   1      49.021  26.629  26.173  1.00  0.00     0.041 A 
ATOM     68  F   UNL A   1      47.688  26.859  28.084  1.00  0.00    -0.206 F 
ATOM     69  C   UNL A   1      49.219  26.816  24.808  1.00  0.00     0.022 A 
BRANCH  66  70
ATOM     70  S   UNL A   1      48.388  27.608  22.266  1.00  0.00     0.124 S 
ATOM     71  O   UNL A   1      47.089  28.172  21.909  1.00  0.00    -0.237 OA
ATOM     72  O   UNL A   1      49.539  28.481  22.069  1.00  0.00    -0.237 OA
ATOM     73  O   UNL A   1      48.585  26.214  21.872  1.00  0.00    -0.744 OA
ENDBRANCH  66  70
ENDBRANCH  49  63
BRANCH  50  74
ATOM     74  C   UNL A   1      38.708  30.655  31.134  1.00  0.00     0.023 A 
ATOM     75  C   UNL A   1      37.589  31.277  30.557  1.00  0.00     0.031 A 
ATOM     76  C   UNL A   1      38.705  30.460  32.527  1.00  0.00     0.131 A 
ATOM     77  C   UNL A   1      36.540  31.732  31.373  1.00  0.00     0.055 A 
ATOM     78  C   UNL A   1      37.634  30.862  33.328  1.00  0.00     0.041 A 
ATOM     79  F   UNL A   1      39.745  29.865  33.131  1.00  0.00    -0.206 F 
ATOM     80  C   UNL A   1      36.549  31.517  32.753  1.00  0.00     0.022 A 
BRANCH  77  81
ATOM     81  S   UNL A   1      35.206  32.700  30.615  1.00  0.00     0.124 S 
ATOM     82  O   UNL A   1      34.834  31.857  29.484  1.00  0.00    -0.237 OA
ATOM     83  O   UNL A   1      34.236  32.781  31.702  1.00  0.00    -0.237 OA
ATOM     84  O   UNL A   1      35.857  33.961  30.267  1.00  0.00    -0.744 OA
ENDBRANCH  77  81
ENDBRANCH  50  74
BRANCH  62  85
ATOM     85  C   UNL A   1      44.704  33.840  29.524  1.00  0.00     0.023 A 
ATOM     86  C   UNL A   1      44.432  34.927  28.676  1.00  0.00     0.031 A 
ATOM     87  C   UNL A   1      45.487  34.072  30.669  1.00  0.00     0.131 A 
ATOM     88  C   UNL A   1      44.988  36.185  28.955  1.00  0.00     0.055 A 
ATOM     89  C   UNL A   1      45.982  35.340  30.976  1.00  0.00     0.041 A 
ATOM     90  F   UNL A   1      45.779  33.069  31.512  1.00  0.00    -0.206 F 
ATOM     91  C   UNL A   1      45.745  36.403  30.109  1.00  0.00     0.022 A 
BRANCH  88  92
ATOM     92  S   UNL A   1      44.786  37.515  27.738  1.00  0.00     0.124 S 
ATOM     93  O   UNL A   1      46.031  37.424  26.982  1.00  0.00    -0.237 OA
ATOM     94  O   UNL A   1      43.578  37.109  27.029  1.00  0.00    -0.237 OA
ATOM     95  O   UNL A   1      44.648  38.715  28.562  1.00  0.00    -0.744 OA
ENDBRANCH  88  92
ENDBRANCH  62  85
ENDBRANCH  36  37
ENDBRANCH  28  31
ENDBRANCH  26  27
ENDBRANCH   1  26
TORSDOF 17
ENDMDL
