MODEL 1
REMARK VINA RESULT:     -11.6      0.000      0.000
REMARK SMILES O=C(NCCCNC(=O)c1ccc(-n2cc(CSc3nc4ccccc4c(=O)n3-c3ccc(Br)cc3)nn2)cc1)c1ccc(-c2c3nc(c(-c4cc(S(=O)(=O)[O-])ccc4F)c4ccc([nH]4)c(-c4cc(S(=O)(=O)[O-])ccc4F)c4nc(c(-c5cc(S(=O)(=O)[O-])ccc5F)c5ccc2[nH]5)C=C4)C=C3)cc1
REMARK SMILES IDX 6 1 5 2 4 3 3 4 1 5 2 6 41 8 42 9 103 10 43 11 102 12 44 13
REMARK SMILES IDX 45 14 46 15 96 16 47 17 101 18 95 19 97 20 48 21 100 22
REMARK SMILES IDX 94 23 93 24 49 26 81 27 61 28 80 29 62 30 65 31 79 32 98 33
REMARK SMILES IDX 63 34 64 35 78 37 99 38 66 39 50 40 51 41 59 42 52 43 58 44
REMARK SMILES IDX 60 45 57 46 53 47 54 48 55 49 56 50 82 51 83 52 91 53 84 54
REMARK SMILES IDX 90 55 92 56 89 57 85 58 86 59 87 60 88 61 67 62 68 63 76 64
REMARK SMILES IDX 69 65 75 66 77 67 74 68 70 69 71 70 72 71 73 72 7 73 8 74
REMARK SMILES IDX 9 76 10 77 11 78 40 79 12 80 39 81 13 82 14 83 15 84 38 85
REMARK SMILES IDX 16 86 37 87 17 88 18 89 19 90 20 91 29 92 21 93 27 94 22 95
REMARK SMILES IDX 26 96 28 97 23 98 25 99 24 100 30 101 31 102 36 103 32 104
REMARK SMILES IDX 35 105 33 106 34 107
REMARK H PARENT 3 7 97 25 65 36 7 75
REMARK Flexibility Score: inf
ROOT
ATOM      1  C   UNL A   1      33.145  35.074  29.161  1.00  0.00     0.118 C 
ENDROOT
BRANCH   1   2
ATOM      2  C   UNL A   1      34.623  35.330  28.863  1.00  0.00     0.042 C 
BRANCH   2   3
ATOM      3  C   UNL A   1      35.515  34.090  28.854  1.00  0.00     0.118 C 
BRANCH   3   4
ATOM      4  N   UNL A   1      34.879  32.869  28.395  1.00  0.00    -0.352 N 
ATOM      5  O   UNL A   1      34.291  30.784  28.034  1.00  0.00    -0.269 OA
ATOM      6  C   UNL A   1      35.216  31.544  28.341  1.00  0.00     0.251 C 
ATOM      7  H   UNL A   1      33.980  33.036  28.029  1.00  0.00     0.163 HD
BRANCH   6   8
ATOM      8  C   UNL A   1      36.571  30.962  28.573  1.00  0.00     0.039 A 
ATOM      9  C   UNL A   1      37.556  31.471  29.417  1.00  0.00     0.014 A 
ATOM     10  C   UNL A   1      36.861  29.779  27.856  1.00  0.00     0.014 A 
ATOM     11  C   UNL A   1      38.803  30.836  29.513  1.00  0.00     0.010 A 
ATOM     12  C   UNL A   1      38.101  29.143  27.951  1.00  0.00     0.010 A 
ATOM     13  C   UNL A   1      39.086  29.675  28.774  1.00  0.00    -0.014 A 
BRANCH  13  14
ATOM     14  C   UNL A   1      40.329  28.944  29.057  1.00  0.00     0.031 A 
ATOM     15  C   UNL A   1      40.602  28.728  30.506  1.00  0.00     0.074 A 
ATOM     16  C   UNL A   1      41.136  28.330  28.165  1.00  0.00     0.049 A 
ATOM     17  N   UNL A   1      41.561  29.222  31.216  1.00  0.00    -0.248 NA
ATOM     18  C   UNL A   1      39.631  27.945  31.281  1.00  0.00     0.031 C 
ATOM     19  C   UNL A   1      40.909  28.133  26.734  1.00  0.00     0.029 A 
ATOM     20  N   UNL A   1      42.318  27.668  28.385  1.00  0.00    -0.354 N 
ATOM     21  C   UNL A   1      41.450  28.645  32.480  1.00  0.00     0.074 A 
ATOM     22  C   UNL A   1      40.161  28.004  32.503  1.00  0.00     0.031 C 
ATOM     23  C   UNL A   1      41.811  27.245  26.255  1.00  0.00     0.029 A 
ATOM     24  C   UNL A   1      42.759  26.904  27.307  1.00  0.00     0.049 A 
ATOM     25  H   UNL A   1      42.812  27.728  29.233  1.00  0.00     0.167 HD
ATOM     26  C   UNL A   1      42.514  28.578  33.330  1.00  0.00     0.034 A 
ATOM     27  C   UNL A   1      43.800  26.026  27.277  1.00  0.00     0.034 A 
ATOM     28  C   UNL A   1      43.556  29.503  32.933  1.00  0.00     0.049 A 
ATOM     29  C   UNL A   1      44.730  26.393  28.371  1.00  0.00     0.074 A 
ATOM     30  C   UNL A   1      43.605  30.864  32.698  1.00  0.00     0.029 A 
ATOM     31  N   UNL A   1      44.714  29.001  32.381  1.00  0.00    -0.354 N 
ATOM     32  N   UNL A   1      45.436  27.487  28.382  1.00  0.00    -0.248 NA
ATOM     33  C   UNL A   1      44.579  25.739  29.661  1.00  0.00     0.031 C 
ATOM     34  C   UNL A   1      44.488  31.015  31.587  1.00  0.00     0.029 A 
ATOM     35  C   UNL A   1      44.980  29.750  31.263  1.00  0.00     0.049 A 
ATOM     36  H   UNL A   1      45.249  28.249  32.723  1.00  0.00     0.167 HD
ATOM     37  C   UNL A   1      45.450  27.890  29.706  1.00  0.00     0.074 A 
ATOM     38  C   UNL A   1      45.007  26.720  30.460  1.00  0.00     0.031 C 
ATOM     39  C   UNL A   1      45.551  29.209  30.045  1.00  0.00     0.034 A 
BRANCH  26  40
ATOM     40  C   UNL A   1      42.782  27.448  34.310  1.00  0.00     0.023 A 
ATOM     41  C   UNL A   1      43.687  26.448  33.899  1.00  0.00     0.031 A 
ATOM     42  C   UNL A   1      42.007  27.132  35.447  1.00  0.00     0.131 A 
ATOM     43  C   UNL A   1      43.680  25.173  34.489  1.00  0.00     0.055 A 
ATOM     44  C   UNL A   1      42.064  25.887  36.085  1.00  0.00     0.041 A 
ATOM     45  F   UNL A   1      41.094  27.963  35.959  1.00  0.00    -0.206 F 
ATOM     46  C   UNL A   1      42.870  24.882  35.580  1.00  0.00     0.022 A 
BRANCH  43  47
ATOM     47  S   UNL A   1      44.583  23.845  33.651  1.00  0.00     0.124 S 
ATOM     48  O   UNL A   1      45.048  23.056  34.786  1.00  0.00    -0.237 OA
ATOM     49  O   UNL A   1      43.537  23.242  32.831  1.00  0.00    -0.237 OA
ATOM     50  O   UNL A   1      45.624  24.557  32.912  1.00  0.00    -0.744 OA
ENDBRANCH  43  47
ENDBRANCH  26  40
BRANCH  27  51
ATOM     51  C   UNL A   1      43.929  24.755  26.507  1.00  0.00     0.023 A 
ATOM     52  C   UNL A   1      43.178  23.594  26.805  1.00  0.00     0.031 A 
ATOM     53  C   UNL A   1      44.630  24.754  25.281  1.00  0.00     0.131 A 
ATOM     54  C   UNL A   1      43.153  22.506  25.898  1.00  0.00     0.055 A 
ATOM     55  C   UNL A   1      44.607  23.676  24.393  1.00  0.00     0.041 A 
ATOM     56  F   UNL A   1      45.291  25.843  24.859  1.00  0.00    -0.206 F 
ATOM     57  C   UNL A   1      43.859  22.550  24.694  1.00  0.00     0.022 A 
BRANCH  54  58
ATOM     58  S   UNL A   1      42.102  21.049  26.217  1.00  0.00     0.124 S 
ATOM     59  O   UNL A   1      40.776  21.537  25.859  1.00  0.00    -0.237 OA
ATOM     60  O   UNL A   1      42.685  20.040  25.340  1.00  0.00    -0.237 OA
ATOM     61  O   UNL A   1      42.296  20.796  27.646  1.00  0.00    -0.744 OA
ENDBRANCH  54  58
ENDBRANCH  27  51
BRANCH  39  62
ATOM     62  C   UNL A   1      46.053  30.201  29.016  1.00  0.00     0.023 A 
ATOM     63  C   UNL A   1      45.234  30.991  28.178  1.00  0.00     0.031 A 
ATOM     64  C   UNL A   1      47.442  30.422  28.961  1.00  0.00     0.131 A 
ATOM     65  C   UNL A   1      45.816  31.943  27.318  1.00  0.00     0.055 A 
ATOM     66  C   UNL A   1      48.013  31.380  28.126  1.00  0.00     0.041 A 
ATOM     67  F   UNL A   1      48.276  29.721  29.748  1.00  0.00    -0.206 F 
ATOM     68  C   UNL A   1      47.200  32.139  27.294  1.00  0.00     0.022 A 
BRANCH  65  69
ATOM     69  S   UNL A   1      44.782  32.934  26.193  1.00  0.00     0.124 S 
ATOM     70  O   UNL A   1      45.741  33.512  25.260  1.00  0.00    -0.237 OA
ATOM     71  O   UNL A   1      43.873  31.934  25.638  1.00  0.00    -0.237 OA
ATOM     72  O   UNL A   1      44.142  33.902  27.086  1.00  0.00    -0.744 OA
ENDBRANCH  65  69
ENDBRANCH  39  62
ENDBRANCH  13  14
ENDBRANCH   6   8
ENDBRANCH   3   4
ENDBRANCH   2   3
ENDBRANCH   1   2
BRANCH   1  73
ATOM     73  N   UNL A   1      32.541  36.072  30.030  1.00  0.00    -0.352 N 
ATOM     74  C   UNL A   1      32.706  36.311  31.376  1.00  0.00     0.251 C 
ATOM     75  H   UNL A   1      31.908  36.679  29.582  1.00  0.00     0.163 HD
ATOM     76  O   UNL A   1      32.039  37.171  31.929  1.00  0.00    -0.269 OA
BRANCH  74  77
ATOM     77  C   UNL A   1      33.672  35.521  32.173  1.00  0.00     0.039 A 
ATOM     78  C   UNL A   1      33.285  34.252  32.620  1.00  0.00     0.016 A 
ATOM     79  C   UNL A   1      34.909  36.046  32.550  1.00  0.00     0.016 A 
ATOM     80  C   UNL A   1      34.159  33.480  33.394  1.00  0.00     0.029 A 
ATOM     81  C   UNL A   1      35.782  35.283  33.331  1.00  0.00     0.029 A 
ATOM     82  C   UNL A   1      35.407  33.999  33.764  1.00  0.00     0.066 A 
BRANCH  82  83
ATOM     83  N   UNL A   1      36.258  33.247  34.612  1.00  0.00    -0.220 N 
ATOM     84  C   UNL A   1      37.161  32.281  34.246  1.00  0.00     0.141 A 
ATOM     85  N   UNL A   1      36.320  33.419  35.956  1.00  0.00    -0.062 NA
ATOM     86  C   UNL A   1      37.801  31.909  35.408  1.00  0.00     0.093 A 
ATOM     87  N   UNL A   1      37.238  32.592  36.449  1.00  0.00    -0.134 NA
BRANCH  86  88
ATOM     88  C   UNL A   1      38.791  30.827  35.602  1.00  0.00     0.138 C 
BRANCH  88  89
ATOM     89  S   UNL A   1      40.556  31.161  35.692  1.00  0.00    -0.081 SA
BRANCH  89  90
ATOM     90  C   UNL A   1      40.990  32.510  34.672  1.00  0.00     0.176 A 
ATOM     91  N   UNL A   1      40.874  32.207  33.412  1.00  0.00    -0.223 NA
ATOM     92  N   UNL A   1      41.367  33.781  35.103  1.00  0.00    -0.255 N 
ATOM     93  C   UNL A   1      41.238  33.152  32.453  1.00  0.00     0.079 A 
ATOM     94  C   UNL A   1      42.253  34.444  34.236  1.00  0.00     0.266 A 
ATOM     95  C   UNL A   1      40.871  32.989  31.117  1.00  0.00     0.029 A 
ATOM     96  C   UNL A   1      42.051  34.218  32.797  1.00  0.00     0.066 A 
ATOM     97  O   UNL A   1      43.183  35.181  34.560  1.00  0.00    -0.268 OA
ATOM     98  C   UNL A   1      41.366  33.856  30.135  1.00  0.00     0.002 A 
ATOM     99  C   UNL A   1      42.592  35.066  31.824  1.00  0.00     0.016 A 
ATOM    100  C   UNL A   1      42.252  34.876  30.485  1.00  0.00     0.001 A 
BRANCH  92 101
ATOM    101  C   UNL A   1      40.990  34.444  36.348  1.00  0.00     0.051 A 
ATOM    102  C   UNL A   1      41.497  33.989  37.584  1.00  0.00     0.028 A 
ATOM    103  C   UNL A   1      40.157  35.569  36.431  1.00  0.00     0.028 A 
ATOM    104  C   UNL A   1      41.027  34.461  38.817  1.00  0.00     0.018 A 
ATOM    105  C   UNL A   1      39.641  36.024  37.657  1.00  0.00     0.018 A 
ATOM    106  C   UNL A   1      40.047  35.436  38.844  1.00  0.00     0.018 A 
ATOM    107  Br  UNL A   1      39.270  35.950  40.482  1.00  0.00    -0.051 Br
ENDBRANCH  92 101
ENDBRANCH  89  90
ENDBRANCH  88  89
ENDBRANCH  86  88
ENDBRANCH  82  83
ENDBRANCH  74  77
ENDBRANCH   1  73
TORSDOF 18
ENDMDL
MODEL 2
REMARK VINA RESULT:     -11.4      4.426     11.594
REMARK SMILES O=C(NCCCNC(=O)c1ccc(-n2cc(CSc3nc4ccccc4c(=O)n3-c3ccc(Br)cc3)nn2)cc1)c1ccc(-c2c3nc(c(-c4cc(S(=O)(=O)[O-])ccc4F)c4ccc([nH]4)c(-c4cc(S(=O)(=O)[O-])ccc4F)c4nc(c(-c5cc(S(=O)(=O)[O-])ccc5F)c5ccc2[nH]5)C=C4)C=C3)cc1
REMARK SMILES IDX 6 1 5 2 4 3 3 4 1 5 2 6 41 8 42 9 103 10 43 11 102 12 44 13
REMARK SMILES IDX 45 14 46 15 96 16 47 17 101 18 95 19 97 20 48 21 100 22
REMARK SMILES IDX 94 23 93 24 49 26 81 27 61 28 80 29 62 30 65 31 79 32 98 33
REMARK SMILES IDX 63 34 64 35 78 37 99 38 66 39 50 40 51 41 59 42 52 43 58 44
REMARK SMILES IDX 60 45 57 46 53 47 54 48 55 49 56 50 82 51 83 52 91 53 84 54
REMARK SMILES IDX 90 55 92 56 89 57 85 58 86 59 87 60 88 61 67 62 68 63 76 64
REMARK SMILES IDX 69 65 75 66 77 67 74 68 70 69 71 70 72 71 73 72 7 73 8 74
REMARK SMILES IDX 9 76 10 77 11 78 40 79 12 80 39 81 13 82 14 83 15 84 38 85
REMARK SMILES IDX 16 86 37 87 17 88 18 89 19 90 20 91 29 92 21 93 27 94 22 95
REMARK SMILES IDX 26 96 28 97 23 98 25 99 24 100 30 101 31 102 36 103 32 104
REMARK SMILES IDX 35 105 33 106 34 107
REMARK H PARENT 3 7 97 25 65 36 7 75
REMARK Flexibility Score: inf
ROOT
ATOM      1  C   UNL A   1      32.912  28.829  24.735  1.00  0.00     0.118 C 
ENDROOT
BRANCH   1   2
ATOM      2  C   UNL A   1      33.830  28.663  25.946  1.00  0.00     0.042 C 
BRANCH   2   3
ATOM      3  C   UNL A   1      33.276  29.192  27.267  1.00  0.00     0.118 C 
BRANCH   3   4
ATOM      4  N   UNL A   1      32.916  30.598  27.273  1.00  0.00    -0.352 N 
ATOM      5  O   UNL A   1      32.921  32.794  27.345  1.00  0.00    -0.269 OA
ATOM      6  C   UNL A   1      33.496  31.760  27.704  1.00  0.00     0.251 C 
ATOM      7  H   UNL A   1      32.034  30.755  26.866  1.00  0.00     0.163 HD
BRANCH   6   8
ATOM      8  C   UNL A   1      34.701  31.881  28.577  1.00  0.00     0.039 A 
ATOM      9  C   UNL A   1      35.935  31.267  28.373  1.00  0.00     0.014 A 
ATOM     10  C   UNL A   1      34.553  32.703  29.717  1.00  0.00     0.014 A 
ATOM     11  C   UNL A   1      36.975  31.443  29.298  1.00  0.00     0.010 A 
ATOM     12  C   UNL A   1      35.587  32.882  30.639  1.00  0.00     0.010 A 
ATOM     13  C   UNL A   1      36.804  32.243  30.440  1.00  0.00    -0.014 A 
BRANCH  13  14
ATOM     14  C   UNL A   1      37.978  32.549  31.269  1.00  0.00     0.031 A 
ATOM     15  C   UNL A   1      39.076  33.253  30.548  1.00  0.00     0.074 A 
ATOM     16  C   UNL A   1      38.091  32.407  32.608  1.00  0.00     0.049 A 
ATOM     17  N   UNL A   1      40.260  32.813  30.280  1.00  0.00    -0.248 NA
ATOM     18  C   UNL A   1      38.787  34.572  29.970  1.00  0.00     0.031 C 
ATOM     19  C   UNL A   1      37.048  32.041  33.564  1.00  0.00     0.029 A 
ATOM     20  N   UNL A   1      39.178  32.650  33.411  1.00  0.00    -0.354 N 
ATOM     21  C   UNL A   1      40.947  33.872  29.689  1.00  0.00     0.074 A 
ATOM     22  C   UNL A   1      39.947  34.860  29.380  1.00  0.00     0.031 C 
ATOM     23  C   UNL A   1      37.493  32.272  34.822  1.00  0.00     0.029 A 
ATOM     24  C   UNL A   1      38.890  32.680  34.774  1.00  0.00     0.049 A 
ATOM     25  H   UNL A   1      40.083  32.791  33.054  1.00  0.00     0.167 HD
ATOM     26  C   UNL A   1      42.310  33.925  29.685  1.00  0.00     0.034 A 
ATOM     27  C   UNL A   1      39.717  33.046  35.793  1.00  0.00     0.034 A 
ATOM     28  C   UNL A   1      42.882  32.625  29.966  1.00  0.00     0.049 A 
ATOM     29  C   UNL A   1      41.112  32.885  35.320  1.00  0.00     0.074 A 
ATOM     30  C   UNL A   1      42.753  31.367  29.406  1.00  0.00     0.029 A 
ATOM     31  N   UNL A   1      43.478  32.413  31.190  1.00  0.00    -0.354 N 
ATOM     32  N   UNL A   1      41.661  31.731  35.068  1.00  0.00    -0.248 NA
ATOM     33  C   UNL A   1      41.785  34.033  34.734  1.00  0.00     0.031 C 
ATOM     34  C   UNL A   1      42.781  30.466  30.512  1.00  0.00     0.029 A 
ATOM     35  C   UNL A   1      43.000  31.218  31.666  1.00  0.00     0.049 A 
ATOM     36  H   UNL A   1      44.125  33.004  31.638  1.00  0.00     0.167 HD
ATOM     37  C   UNL A   1      42.466  31.953  33.964  1.00  0.00     0.074 A 
ATOM     38  C   UNL A   1      42.591  33.405  33.874  1.00  0.00     0.031 C 
ATOM     39  C   UNL A   1      42.727  30.957  33.066  1.00  0.00     0.034 A 
BRANCH  26  40
ATOM     40  C   UNL A   1      43.137  35.197  29.776  1.00  0.00     0.023 A 
ATOM     41  C   UNL A   1      43.490  35.637  31.068  1.00  0.00     0.031 A 
ATOM     42  C   UNL A   1      43.332  36.138  28.742  1.00  0.00     0.131 A 
ATOM     43  C   UNL A   1      43.845  36.974  31.309  1.00  0.00     0.055 A 
ATOM     44  C   UNL A   1      43.768  37.448  28.977  1.00  0.00     0.041 A 
ATOM     45  F   UNL A   1      43.036  35.886  27.463  1.00  0.00    -0.206 F 
ATOM     46  C   UNL A   1      43.984  37.888  30.271  1.00  0.00     0.022 A 
BRANCH  43  47
ATOM     47  S   UNL A   1      43.896  37.542  33.029  1.00  0.00     0.124 S 
ATOM     48  O   UNL A   1      45.158  36.968  33.482  1.00  0.00    -0.237 OA
ATOM     49  O   UNL A   1      43.868  38.992  32.866  1.00  0.00    -0.237 OA
ATOM     50  O   UNL A   1      42.693  36.955  33.616  1.00  0.00    -0.744 OA
ENDBRANCH  43  47
ENDBRANCH  26  40
BRANCH  27  51
ATOM     51  C   UNL A   1      39.377  33.738  37.069  1.00  0.00     0.023 A 
ATOM     52  C   UNL A   1      39.275  33.065  38.308  1.00  0.00     0.031 A 
ATOM     53  C   UNL A   1      39.395  35.150  37.119  1.00  0.00     0.131 A 
ATOM     54  C   UNL A   1      39.199  33.799  39.517  1.00  0.00     0.055 A 
ATOM     55  C   UNL A   1      39.313  35.869  38.314  1.00  0.00     0.041 A 
ATOM     56  F   UNL A   1      39.587  35.882  36.010  1.00  0.00    -0.206 F 
ATOM     57  C   UNL A   1      39.224  35.195  39.520  1.00  0.00     0.022 A 
BRANCH  54  58
ATOM     58  S   UNL A   1      39.179  32.944  41.129  1.00  0.00     0.124 S 
ATOM     59  O   UNL A   1      38.274  33.776  41.912  1.00  0.00    -0.237 OA
ATOM     60  O   UNL A   1      38.700  31.612  40.776  1.00  0.00    -0.237 OA
ATOM     61  O   UNL A   1      40.579  32.992  41.556  1.00  0.00    -0.744 OA
ENDBRANCH  54  58
ENDBRANCH  27  51
BRANCH  39  62
ATOM     62  C   UNL A   1      42.486  29.517  33.467  1.00  0.00     0.023 A 
ATOM     63  C   UNL A   1      43.420  28.686  34.125  1.00  0.00     0.031 A 
ATOM     64  C   UNL A   1      41.195  28.998  33.252  1.00  0.00     0.131 A 
ATOM     65  C   UNL A   1      43.051  27.387  34.525  1.00  0.00     0.055 A 
ATOM     66  C   UNL A   1      40.826  27.720  33.668  1.00  0.00     0.041 A 
ATOM     67  F   UNL A   1      40.251  29.743  32.651  1.00  0.00    -0.206 F 
ATOM     68  C   UNL A   1      41.757  26.906  34.301  1.00  0.00     0.022 A 
BRANCH  65  69
ATOM     69  S   UNL A   1      44.256  26.284  35.329  1.00  0.00     0.124 S 
ATOM     70  O   UNL A   1      43.430  25.414  36.157  1.00  0.00    -0.237 OA
ATOM     71  O   UNL A   1      44.911  25.649  34.188  1.00  0.00    -0.237 OA
ATOM     72  O   UNL A   1      45.110  27.206  36.080  1.00  0.00    -0.744 OA
ENDBRANCH  65  69
ENDBRANCH  39  62
ENDBRANCH  13  14
ENDBRANCH   6   8
ENDBRANCH   3   4
ENDBRANCH   2   3
ENDBRANCH   1   2
BRANCH   1  73
ATOM     73  N   UNL A   1      31.750  27.953  24.756  1.00  0.00    -0.352 N 
ATOM     74  C   UNL A   1      31.659  26.580  24.812  1.00  0.00     0.251 C 
ATOM     75  H   UNL A   1      30.883  28.420  24.725  1.00  0.00     0.163 HD
ATOM     76  O   UNL A   1      30.567  26.039  24.751  1.00  0.00    -0.269 OA
BRANCH  74  77
ATOM     77  C   UNL A   1      32.876  25.745  24.926  1.00  0.00     0.039 A 
ATOM     78  C   UNL A   1      33.638  25.519  23.773  1.00  0.00     0.016 A 
ATOM     79  C   UNL A   1      33.224  25.120  26.125  1.00  0.00     0.016 A 
ATOM     80  C   UNL A   1      34.783  24.718  23.831  1.00  0.00     0.029 A 
ATOM     81  C   UNL A   1      34.361  24.311  26.186  1.00  0.00     0.029 A 
ATOM     82  C   UNL A   1      35.143  24.100  25.036  1.00  0.00     0.066 A 
BRANCH  82  83
ATOM     83  N   UNL A   1      36.259  23.227  25.074  1.00  0.00    -0.220 N 
ATOM     84  C   UNL A   1      37.447  23.417  25.733  1.00  0.00     0.141 A 
ATOM     85  N   UNL A   1      36.284  22.015  24.464  1.00  0.00    -0.062 NA
ATOM     86  C   UNL A   1      38.172  22.262  25.537  1.00  0.00     0.093 A 
ATOM     87  N   UNL A   1      37.453  21.434  24.721  1.00  0.00    -0.134 NA
BRANCH  86  88
ATOM     88  C   UNL A   1      39.566  21.976  25.941  1.00  0.00     0.138 C 
BRANCH  88  89
ATOM     89  S   UNL A   1      40.246  22.576  27.495  1.00  0.00    -0.081 SA
BRANCH  89  90
ATOM     90  C   UNL A   1      40.563  24.291  27.416  1.00  0.00     0.176 A 
ATOM     91  N   UNL A   1      39.806  24.952  28.244  1.00  0.00    -0.223 NA
ATOM     92  N   UNL A   1      41.526  24.915  26.625  1.00  0.00    -0.255 N 
ATOM     93  C   UNL A   1      39.886  26.343  28.269  1.00  0.00     0.079 A 
ATOM     94  C   UNL A   1      41.188  26.220  26.228  1.00  0.00     0.266 A 
ATOM     95  C   UNL A   1      39.319  27.071  29.317  1.00  0.00     0.029 A 
ATOM     96  C   UNL A   1      40.447  27.030  27.207  1.00  0.00     0.066 A 
ATOM     97  O   UNL A   1      41.439  26.746  25.144  1.00  0.00    -0.268 OA
ATOM     98  C   UNL A   1      39.266  28.469  29.263  1.00  0.00     0.002 A 
ATOM     99  C   UNL A   1      40.363  28.424  27.113  1.00  0.00     0.016 A 
ATOM    100  C   UNL A   1      39.761  29.144  28.145  1.00  0.00     0.001 A 
BRANCH  92 101
ATOM    101  C   UNL A   1      42.780  24.346  26.139  1.00  0.00     0.051 A 
ATOM    102  C   UNL A   1      44.004  24.679  26.759  1.00  0.00     0.028 A 
ATOM    103  C   UNL A   1      42.884  23.429  25.084  1.00  0.00     0.028 A 
ATOM    104  C   UNL A   1      45.248  24.317  26.225  1.00  0.00     0.018 A 
ATOM    105  C   UNL A   1      44.121  23.095  24.507  1.00  0.00     0.018 A 
ATOM    106  C   UNL A   1      45.298  23.578  25.056  1.00  0.00     0.018 A 
ATOM    107  Br  UNL A   1      46.954  23.243  24.221  1.00  0.00    -0.051 Br
ENDBRANCH  92 101
ENDBRANCH  89  90
ENDBRANCH  88  89
ENDBRANCH  86  88
ENDBRANCH  82  83
ENDBRANCH  74  77
ENDBRANCH   1  73
TORSDOF 18
ENDMDL
MODEL 3
REMARK VINA RESULT:     -11.3      3.927      5.890
REMARK SMILES O=C(NCCCNC(=O)c1ccc(-n2cc(CSc3nc4ccccc4c(=O)n3-c3ccc(Br)cc3)nn2)cc1)c1ccc(-c2c3nc(c(-c4cc(S(=O)(=O)[O-])ccc4F)c4ccc([nH]4)c(-c4cc(S(=O)(=O)[O-])ccc4F)c4nc(c(-c5cc(S(=O)(=O)[O-])ccc5F)c5ccc2[nH]5)C=C4)C=C3)cc1
REMARK SMILES IDX 6 1 5 2 4 3 3 4 1 5 2 6 41 8 42 9 103 10 43 11 102 12 44 13
REMARK SMILES IDX 45 14 46 15 96 16 47 17 101 18 95 19 97 20 48 21 100 22
REMARK SMILES IDX 94 23 93 24 49 26 81 27 61 28 80 29 62 30 65 31 79 32 98 33
REMARK SMILES IDX 63 34 64 35 78 37 99 38 66 39 50 40 51 41 59 42 52 43 58 44
REMARK SMILES IDX 60 45 57 46 53 47 54 48 55 49 56 50 82 51 83 52 91 53 84 54
REMARK SMILES IDX 90 55 92 56 89 57 85 58 86 59 87 60 88 61 67 62 68 63 76 64
REMARK SMILES IDX 69 65 75 66 77 67 74 68 70 69 71 70 72 71 73 72 7 73 8 74
REMARK SMILES IDX 9 76 10 77 11 78 40 79 12 80 39 81 13 82 14 83 15 84 38 85
REMARK SMILES IDX 16 86 37 87 17 88 18 89 19 90 20 91 29 92 21 93 27 94 22 95
REMARK SMILES IDX 26 96 28 97 23 98 25 99 24 100 30 101 31 102 36 103 32 104
REMARK SMILES IDX 35 105 33 106 34 107
REMARK H PARENT 3 7 97 25 65 36 7 75
REMARK Flexibility Score: inf
ROOT
ATOM      1  C   UNL A   1      36.195  31.483  32.251  1.00  0.00     0.118 C 
ENDROOT
BRANCH   1   2
ATOM      2  C   UNL A   1      35.094  32.504  31.962  1.00  0.00     0.042 C 
BRANCH   2   3
ATOM      3  C   UNL A   1      35.394  33.491  30.836  1.00  0.00     0.118 C 
BRANCH   3   4
ATOM      4  N   UNL A   1      35.075  33.025  29.499  1.00  0.00    -0.352 N 
ATOM      5  O   UNL A   1      34.856  31.859  27.650  1.00  0.00    -0.269 OA
ATOM      6  C   UNL A   1      35.542  32.049  28.660  1.00  0.00     0.251 C 
ATOM      7  H   UNL A   1      34.341  33.539  29.094  1.00  0.00     0.163 HD
BRANCH   6   8
ATOM      8  C   UNL A   1      36.791  31.249  28.835  1.00  0.00     0.039 A 
ATOM      9  C   UNL A   1      38.041  31.740  29.205  1.00  0.00     0.014 A 
ATOM     10  C   UNL A   1      36.669  29.862  28.596  1.00  0.00     0.014 A 
ATOM     11  C   UNL A   1      39.141  30.875  29.299  1.00  0.00     0.010 A 
ATOM     12  C   UNL A   1      37.762  28.997  28.690  1.00  0.00     0.010 A 
ATOM     13  C   UNL A   1      39.010  29.502  29.033  1.00  0.00    -0.014 A 
BRANCH  13  14
ATOM     14  C   UNL A   1      40.142  28.614  29.334  1.00  0.00     0.031 A 
ATOM     15  C   UNL A   1      40.486  28.520  30.781  1.00  0.00     0.074 A 
ATOM     16  C   UNL A   1      40.774  27.779  28.480  1.00  0.00     0.049 A 
ATOM     17  N   UNL A   1      41.561  28.927  31.370  1.00  0.00    -0.248 NA
ATOM     18  C   UNL A   1      39.466  27.999  31.700  1.00  0.00     0.031 C 
ATOM     19  C   UNL A   1      40.412  27.462  27.100  1.00  0.00     0.029 A 
ATOM     20  N   UNL A   1      41.851  26.961  28.714  1.00  0.00    -0.354 N 
ATOM     21  C   UNL A   1      41.457  28.522  32.699  1.00  0.00     0.074 A 
ATOM     22  C   UNL A   1      40.089  28.108  32.874  1.00  0.00     0.031 C 
ATOM     23  C   UNL A   1      41.126  26.390  26.684  1.00  0.00     0.029 A 
ATOM     24  C   UNL A   1      42.086  26.019  27.715  1.00  0.00     0.049 A 
ATOM     25  H   UNL A   1      42.412  27.035  29.519  1.00  0.00     0.167 HD
ATOM     26  C   UNL A   1      42.558  28.378  33.490  1.00  0.00     0.034 A 
ATOM     27  C   UNL A   1      42.972  24.985  27.736  1.00  0.00     0.034 A 
ATOM     28  C   UNL A   1      43.698  29.069  32.925  1.00  0.00     0.049 A 
ATOM     29  C   UNL A   1      44.027  25.316  28.722  1.00  0.00     0.074 A 
ATOM     30  C   UNL A   1      43.941  30.369  32.521  1.00  0.00     0.029 A 
ATOM     31  N   UNL A   1      44.719  28.326  32.374  1.00  0.00    -0.354 N 
ATOM     32  N   UNL A   1      44.895  26.274  28.558  1.00  0.00    -0.248 NA
ATOM     33  C   UNL A   1      43.874  24.845  30.089  1.00  0.00     0.031 C 
ATOM     34  C   UNL A   1      44.751  30.247  31.352  1.00  0.00     0.029 A 
ATOM     35  C   UNL A   1      45.014  28.891  31.160  1.00  0.00     0.049 A 
ATOM     36  H   UNL A   1      45.155  27.540  32.776  1.00  0.00     0.167 HD
ATOM     37  C   UNL A   1      45.070  26.815  29.820  1.00  0.00     0.074 A 
ATOM     38  C   UNL A   1      44.508  25.826  30.736  1.00  0.00     0.031 C 
ATOM     39  C   UNL A   1      45.401  28.130  29.987  1.00  0.00     0.034 A 
BRANCH  26  40
ATOM     40  C   UNL A   1      42.719  27.337  34.586  1.00  0.00     0.023 A 
ATOM     41  C   UNL A   1      43.542  26.229  34.296  1.00  0.00     0.031 A 
ATOM     42  C   UNL A   1      41.909  27.205  35.733  1.00  0.00     0.131 A 
ATOM     43  C   UNL A   1      43.421  25.027  35.013  1.00  0.00     0.055 A 
ATOM     44  C   UNL A   1      41.854  26.032  36.497  1.00  0.00     0.041 A 
ATOM     45  F   UNL A   1      41.063  28.157  36.141  1.00  0.00    -0.206 F 
ATOM     46  C   UNL A   1      42.577  24.918  36.112  1.00  0.00     0.022 A 
BRANCH  43  47
ATOM     47  S   UNL A   1      44.219  23.549  34.332  1.00  0.00     0.124 S 
ATOM     48  O   UNL A   1      43.183  23.053  33.434  1.00  0.00    -0.237 OA
ATOM     49  O   UNL A   1      45.405  24.115  33.698  1.00  0.00    -0.237 OA
ATOM     50  O   UNL A   1      44.473  22.727  35.513  1.00  0.00    -0.744 OA
ENDBRANCH  43  47
ENDBRANCH  26  40
BRANCH  27  51
ATOM     51  C   UNL A   1      42.843  23.632  27.122  1.00  0.00     0.023 A 
ATOM     52  C   UNL A   1      43.698  23.165  26.096  1.00  0.00     0.031 A 
ATOM     53  C   UNL A   1      42.010  22.669  27.734  1.00  0.00     0.131 A 
ATOM     54  C   UNL A   1      43.693  21.798  25.728  1.00  0.00     0.055 A 
ATOM     55  C   UNL A   1      42.005  21.323  27.362  1.00  0.00     0.041 A 
ATOM     56  F   UNL A   1      41.234  22.987  28.782  1.00  0.00    -0.206 F 
ATOM     57  C   UNL A   1      42.855  20.879  26.363  1.00  0.00     0.022 A 
BRANCH  54  58
ATOM     58  S   UNL A   1      44.867  21.162  24.485  1.00  0.00     0.124 S 
ATOM     59  O   UNL A   1      44.666  22.077  23.368  1.00  0.00    -0.237 OA
ATOM     60  O   UNL A   1      46.146  21.253  25.181  1.00  0.00    -0.237 OA
ATOM     61  O   UNL A   1      44.402  19.793  24.246  1.00  0.00    -0.744 OA
ENDBRANCH  54  58
ENDBRANCH  27  51
BRANCH  39  62
ATOM     62  C   UNL A   1      45.972  28.904  28.818  1.00  0.00     0.023 A 
ATOM     63  C   UNL A   1      47.346  29.016  28.507  1.00  0.00     0.031 A 
ATOM     64  C   UNL A   1      45.055  29.475  27.916  1.00  0.00     0.131 A 
ATOM     65  C   UNL A   1      47.754  29.693  27.341  1.00  0.00     0.055 A 
ATOM     66  C   UNL A   1      45.460  30.125  26.752  1.00  0.00     0.041 A 
ATOM     67  F   UNL A   1      43.733  29.385  28.139  1.00  0.00    -0.206 F 
ATOM     68  C   UNL A   1      46.814  30.243  26.464  1.00  0.00     0.022 A 
BRANCH  65  69
ATOM     69  S   UNL A   1      49.521  29.892  26.951  1.00  0.00     0.124 S 
ATOM     70  O   UNL A   1      49.639  31.298  26.586  1.00  0.00    -0.237 OA
ATOM     71  O   UNL A   1      50.166  29.498  28.202  1.00  0.00    -0.237 OA
ATOM     72  O   UNL A   1      49.730  28.957  25.843  1.00  0.00    -0.744 OA
ENDBRANCH  65  69
ENDBRANCH  39  62
ENDBRANCH  13  14
ENDBRANCH   6   8
ENDBRANCH   3   4
ENDBRANCH   2   3
ENDBRANCH   1   2
BRANCH   1  73
ATOM     73  N   UNL A   1      36.819  31.647  33.556  1.00  0.00    -0.352 N 
ATOM     74  C   UNL A   1      38.042  32.173  33.908  1.00  0.00     0.251 C 
ATOM     75  H   UNL A   1      36.277  31.329  34.314  1.00  0.00     0.163 HD
ATOM     76  O   UNL A   1      38.401  32.152  35.075  1.00  0.00    -0.269 OA
BRANCH  74  77
ATOM     77  C   UNL A   1      38.942  32.749  32.884  1.00  0.00     0.039 A 
ATOM     78  C   UNL A   1      40.169  32.118  32.646  1.00  0.00     0.016 A 
ATOM     79  C   UNL A   1      38.630  33.938  32.223  1.00  0.00     0.016 A 
ATOM     80  C   UNL A   1      41.060  32.641  31.703  1.00  0.00     0.029 A 
ATOM     81  C   UNL A   1      39.520  34.470  31.287  1.00  0.00     0.029 A 
ATOM     82  C   UNL A   1      40.744  33.828  31.028  1.00  0.00     0.066 A 
BRANCH  82  83
ATOM     83  N   UNL A   1      41.681  34.397  30.129  1.00  0.00    -0.220 N 
ATOM     84  C   UNL A   1      41.423  35.214  29.058  1.00  0.00     0.141 A 
ATOM     85  N   UNL A   1      43.023  34.230  30.240  1.00  0.00    -0.062 NA
ATOM     86  C   UNL A   1      42.654  35.570  28.554  1.00  0.00     0.093 A 
ATOM     87  N   UNL A   1      43.619  34.920  29.271  1.00  0.00    -0.134 NA
BRANCH  86  88
ATOM     88  C   UNL A   1      42.954  36.351  27.334  1.00  0.00     0.138 C 
BRANCH  88  89
ATOM     89  S   UNL A   1      42.210  37.961  27.032  1.00  0.00    -0.081 SA
BRANCH  89  90
ATOM     90  C   UNL A   1      42.970  39.193  28.009  1.00  0.00     0.176 A 
ATOM     91  N   UNL A   1      42.132  39.705  28.863  1.00  0.00    -0.223 NA
ATOM     92  N   UNL A   1      44.308  39.578  27.954  1.00  0.00    -0.255 N 
ATOM     93  C   UNL A   1      42.557  40.747  29.685  1.00  0.00     0.079 A 
ATOM     94  C   UNL A   1      44.536  40.922  28.296  1.00  0.00     0.266 A 
ATOM     95  C   UNL A   1      41.804  41.132  30.795  1.00  0.00     0.029 A 
ATOM     96  C   UNL A   1      43.685  41.479  29.358  1.00  0.00     0.066 A 
ATOM     97  O   UNL A   1      45.365  41.678  27.791  1.00  0.00    -0.268 OA
ATOM     98  C   UNL A   1      42.151  42.274  31.527  1.00  0.00     0.002 A 
ATOM     99  C   UNL A   1      44.022  42.648  30.049  1.00  0.00     0.016 A 
ATOM    100  C   UNL A   1      43.243  43.050  31.134  1.00  0.00     0.001 A 
BRANCH  92 101
ATOM    101  C   UNL A   1      45.449  38.766  27.538  1.00  0.00     0.051 A 
ATOM    102  C   UNL A   1      46.077  37.892  28.451  1.00  0.00     0.028 A 
ATOM    103  C   UNL A   1      45.985  38.748  26.242  1.00  0.00     0.028 A 
ATOM    104  C   UNL A   1      47.281  37.235  28.167  1.00  0.00     0.018 A 
ATOM    105  C   UNL A   1      47.216  38.135  25.954  1.00  0.00     0.018 A 
ATOM    106  C   UNL A   1      47.881  37.415  26.934  1.00  0.00     0.018 A 
ATOM    107  Br  UNL A   1      49.590  36.694  26.599  1.00  0.00    -0.051 Br
ENDBRANCH  92 101
ENDBRANCH  89  90
ENDBRANCH  88  89
ENDBRANCH  86  88
ENDBRANCH  82  83
ENDBRANCH  74  77
ENDBRANCH   1  73
TORSDOF 18
ENDMDL
