MODEL 1
REMARK VINA RESULT:     -11.9      0.000      0.000
REMARK SMILES CN(C)C(=O)CCNC(=O)NC[C@H]1CC[C@@H](C(=O)NCCCNC(=O)c2ccc(-c3c4nc(c(-c5cc(S(=O)(=O)[O-])ccc5F)c5ccc([nH]5)c(-c5cc(S(=O)(=O)[O-])ccc5F)c5nc(c(-c6cc(S(=O)(=O)[O-])ccc6F)c6ccc3[nH]6)C=C5)C=C4)cc2)CC1
REMARK SMILES IDX 20 1 19 2 17 3 18 4 16 6 13 7 14 8 90 9 15 10 89 11 12 12
REMARK SMILES IDX 11 13 8 14 9 15 10 17 7 19 6 20 4 21 1 22 2 23 3 24 5 25
REMARK SMILES IDX 21 26 22 27 23 28 24 29 25 31 26 32 27 33 88 34 28 35 87 36
REMARK SMILES IDX 29 37 30 38 31 39 81 40 32 41 86 42 80 43 82 44 33 45 85 46
REMARK SMILES IDX 79 47 78 48 34 50 66 51 46 52 65 53 47 54 50 55 64 56 83 57
REMARK SMILES IDX 48 58 49 59 63 61 84 62 51 63 35 64 36 65 44 66 37 67 43 68
REMARK SMILES IDX 45 69 42 70 38 71 39 72 40 73 41 74 67 75 68 76 76 77 69 78
REMARK SMILES IDX 75 79 77 80 74 81 70 82 71 83 72 84 73 85 52 86 53 87 61 88
REMARK SMILES IDX 54 89 60 90 62 91 59 92 55 93 56 94 57 95 58 96
REMARK H PARENT 19 5 8 16 11 18 23 30 82 49 50 60
REMARK Flexibility Score: inf
ROOT
ATOM      1  C   UNL A   1      31.376  26.291  25.915  1.00  0.00     0.117 C 
ENDROOT
BRANCH   1   2
ATOM      2  N   UNL A   1      31.423  25.171  26.821  1.00  0.00    -0.356 N 
ATOM      3  C   UNL A   1      31.724  23.868  26.609  1.00  0.00     0.223 C 
ATOM      4  O   UNL A   1      31.681  23.131  27.602  1.00  0.00    -0.275 OA
ATOM      5  H   UNL A   1      31.196  25.391  27.753  1.00  0.00     0.163 HD
BRANCH   3   6
ATOM      6  C   UNL A   1      32.138  23.278  25.250  1.00  0.00     0.078 C 
ATOM      7  C   UNL A   1      32.560  24.731  22.636  1.00  0.00     0.008 C 
ATOM      8  C   UNL A   1      33.602  24.815  23.761  1.00  0.00     0.006 C 
ATOM      9  C   UNL A   1      31.141  24.350  23.094  1.00  0.00     0.006 C 
ATOM     10  C   UNL A   1      33.533  23.670  24.764  1.00  0.00     0.014 C 
ATOM     11  C   UNL A   1      31.074  23.251  24.153  1.00  0.00     0.014 C 
BRANCH   7  12
ATOM     12  C   UNL A   1      32.589  25.994  21.733  1.00  0.00     0.121 C 
BRANCH  12  13
ATOM     13  N   UNL A   1      33.398  27.110  22.199  1.00  0.00    -0.338 N 
ATOM     14  N   UNL A   1      32.038  29.009  22.573  1.00  0.00    -0.338 N 
ATOM     15  C   UNL A   1      33.221  28.390  22.529  1.00  0.00     0.314 C 
ATOM     16  H   UNL A   1      32.065  29.955  22.299  1.00  0.00     0.165 HD
ATOM     17  O   UNL A   1      34.229  29.059  22.764  1.00  0.00    -0.249 OA
ATOM     18  H   UNL A   1      34.342  26.847  22.298  1.00  0.00     0.165 HD
BRANCH  14  19
ATOM     19  C   UNL A   1      30.721  28.536  22.952  1.00  0.00     0.127 C 
BRANCH  19  20
ATOM     20  C   UNL A   1      29.822  29.687  23.395  1.00  0.00     0.121 C 
BRANCH  20  21
ATOM     21  C   UNL A   1      29.288  30.414  22.172  1.00  0.00     0.223 C 
ATOM     22  C   UNL A   1      27.978  32.260  21.238  1.00  0.00     0.146 C 
ATOM     23  N   UNL A   1      28.322  31.388  22.348  1.00  0.00    -0.349 N 
ATOM     24  C   UNL A   1      27.592  31.606  23.585  1.00  0.00     0.146 C 
ATOM     25  O   UNL A   1      29.777  30.158  21.069  1.00  0.00    -0.275 OA
ENDBRANCH  20  21
ENDBRANCH  19  20
ENDBRANCH  14  19
ENDBRANCH  12  13
ENDBRANCH   7  12
ENDBRANCH   3   6
ENDBRANCH   1   2
BRANCH   1  26
ATOM     26  C   UNL A   1      31.492  27.626  26.628  1.00  0.00     0.042 C 
BRANCH  26  27
ATOM     27  C   UNL A   1      32.598  28.519  26.088  1.00  0.00     0.118 C 
BRANCH  27  28
ATOM     28  N   UNL A   1      32.286  29.945  26.140  1.00  0.00    -0.352 N 
ATOM     29  C   UNL A   1      32.832  30.990  26.849  1.00  0.00     0.251 C 
ATOM     30  H   UNL A   1      31.540  30.210  25.554  1.00  0.00     0.163 HD
ATOM     31  O   UNL A   1      32.226  32.059  26.856  1.00  0.00    -0.269 OA
BRANCH  29  32
ATOM     32  C   UNL A   1      34.100  30.848  27.604  1.00  0.00     0.039 A 
ATOM     33  C   UNL A   1      34.925  31.968  27.772  1.00  0.00     0.014 A 
ATOM     34  C   UNL A   1      34.524  29.617  28.094  1.00  0.00     0.014 A 
ATOM     35  C   UNL A   1      36.120  31.870  28.489  1.00  0.00     0.010 A 
ATOM     36  C   UNL A   1      35.648  29.538  28.904  1.00  0.00     0.010 A 
ATOM     37  C   UNL A   1      36.474  30.657  29.084  1.00  0.00    -0.014 A 
BRANCH  37  38
ATOM     38  C   UNL A   1      37.766  30.473  29.785  1.00  0.00     0.031 A 
ATOM     39  C   UNL A   1      38.805  29.593  29.143  1.00  0.00     0.074 A 
ATOM     40  C   UNL A   1      37.976  31.016  30.998  1.00  0.00     0.049 A 
ATOM     41  N   UNL A   1      39.903  29.097  29.644  1.00  0.00    -0.248 NA
ATOM     42  C   UNL A   1      38.532  29.175  27.758  1.00  0.00     0.031 C 
ATOM     43  C   UNL A   1      37.044  31.893  31.709  1.00  0.00     0.029 A 
ATOM     44  N   UNL A   1      39.039  30.893  31.856  1.00  0.00    -0.354 N 
ATOM     45  C   UNL A   1      40.427  28.273  28.652  1.00  0.00     0.074 A 
ATOM     46  C   UNL A   1      39.487  28.284  27.554  1.00  0.00     0.031 C 
ATOM     47  C   UNL A   1      37.584  32.242  32.888  1.00  0.00     0.029 A 
ATOM     48  C   UNL A   1      38.867  31.564  33.045  1.00  0.00     0.049 A 
ATOM     49  H   UNL A   1      39.848  30.375  31.642  1.00  0.00     0.167 HD
ATOM     50  C   UNL A   1      41.597  27.590  28.652  1.00  0.00     0.034 A 
ATOM     51  C   UNL A   1      39.648  31.599  34.144  1.00  0.00     0.034 A 
ATOM     52  C   UNL A   1      42.528  27.626  29.751  1.00  0.00     0.049 A 
ATOM     53  C   UNL A   1      40.930  30.801  34.140  1.00  0.00     0.074 A 
ATOM     54  C   UNL A   1      43.762  27.012  29.859  1.00  0.00     0.029 A 
ATOM     55  N   UNL A   1      42.324  28.322  30.939  1.00  0.00    -0.354 N 
ATOM     56  N   UNL A   1      41.420  30.026  33.198  1.00  0.00    -0.248 NA
ATOM     57  C   UNL A   1      41.764  30.889  35.343  1.00  0.00     0.031 C 
ATOM     58  C   UNL A   1      44.270  27.276  31.135  1.00  0.00     0.029 A 
ATOM     59  C   UNL A   1      43.396  28.129  31.795  1.00  0.00     0.049 A 
ATOM     60  H   UNL A   1      41.532  28.871  31.142  1.00  0.00     0.167 HD
ATOM     61  C   UNL A   1      42.641  29.563  33.684  1.00  0.00     0.074 A 
ATOM     62  C   UNL A   1      42.813  30.156  34.995  1.00  0.00     0.031 C 
ATOM     63  C   UNL A   1      43.542  28.730  33.100  1.00  0.00     0.034 A 
BRANCH  50  64
ATOM     64  C   UNL A   1      41.897  26.731  27.445  1.00  0.00     0.023 A 
ATOM     65  C   UNL A   1      41.521  25.376  27.386  1.00  0.00     0.031 A 
ATOM     66  C   UNL A   1      42.630  27.253  26.365  1.00  0.00     0.131 A 
ATOM     67  C   UNL A   1      41.967  24.570  26.328  1.00  0.00     0.055 A 
ATOM     68  C   UNL A   1      42.984  26.468  25.265  1.00  0.00     0.041 A 
ATOM     69  F   UNL A   1      43.041  28.531  26.371  1.00  0.00    -0.206 F 
ATOM     70  C   UNL A   1      42.671  25.112  25.252  1.00  0.00     0.022 A 
BRANCH  67  71
ATOM     71  S   UNL A   1      41.773  22.771  26.474  1.00  0.00     0.124 S 
ATOM     72  O   UNL A   1      40.318  22.634  26.496  1.00  0.00    -0.237 OA
ATOM     73  O   UNL A   1      42.442  22.283  25.275  1.00  0.00    -0.237 OA
ATOM     74  O   UNL A   1      42.439  22.455  27.735  1.00  0.00    -0.744 OA
ENDBRANCH  67  71
ENDBRANCH  50  64
BRANCH  51  75
ATOM     75  C   UNL A   1      39.243  32.396  35.337  1.00  0.00     0.023 A 
ATOM     76  C   UNL A   1      39.693  33.715  35.509  1.00  0.00     0.031 A 
ATOM     77  C   UNL A   1      38.428  31.844  36.342  1.00  0.00     0.131 A 
ATOM     78  C   UNL A   1      39.363  34.422  36.675  1.00  0.00     0.055 A 
ATOM     79  C   UNL A   1      38.057  32.571  37.474  1.00  0.00     0.041 A 
ATOM     80  F   UNL A   1      37.968  30.587  36.229  1.00  0.00    -0.206 F 
ATOM     81  C   UNL A   1      38.535  33.864  37.653  1.00  0.00     0.022 A 
BRANCH  78  82
ATOM     82  S   UNL A   1      40.100  36.058  36.937  1.00  0.00     0.124 S 
ATOM     83  O   UNL A   1      41.508  35.723  37.119  1.00  0.00    -0.237 OA
ATOM     84  O   UNL A   1      39.759  36.747  35.698  1.00  0.00    -0.237 OA
ATOM     85  O   UNL A   1      39.417  36.552  38.131  1.00  0.00    -0.744 OA
ENDBRANCH  78  82
ENDBRANCH  51  75
BRANCH  63  86
ATOM     86  C   UNL A   1      44.821  28.464  33.858  1.00  0.00     0.023 A 
ATOM     87  C   UNL A   1      44.955  27.370  34.728  1.00  0.00     0.031 A 
ATOM     88  C   UNL A   1      45.922  29.325  33.701  1.00  0.00     0.131 A 
ATOM     89  C   UNL A   1      46.142  27.200  35.457  1.00  0.00     0.055 A 
ATOM     90  C   UNL A   1      47.125  29.110  34.374  1.00  0.00     0.041 A 
ATOM     91  F   UNL A   1      45.848  30.388  32.884  1.00  0.00    -0.206 F 
ATOM     92  C   UNL A   1      47.235  28.050  35.269  1.00  0.00     0.022 A 
BRANCH  89  93
ATOM     93  S   UNL A   1      46.202  25.913  36.733  1.00  0.00     0.124 S 
ATOM     94  O   UNL A   1      47.326  25.097  36.287  1.00  0.00    -0.237 OA
ATOM     95  O   UNL A   1      46.420  26.688  37.948  1.00  0.00    -0.237 OA
ATOM     96  O   UNL A   1      44.892  25.270  36.634  1.00  0.00    -0.744 OA
ENDBRANCH  89  93
ENDBRANCH  63  86
ENDBRANCH  37  38
ENDBRANCH  29  32
ENDBRANCH  27  28
ENDBRANCH  26  27
ENDBRANCH   1  26
TORSDOF 18
ENDMDL
MODEL 2
REMARK VINA RESULT:     -11.7      2.001      2.308
REMARK SMILES CN(C)C(=O)CCNC(=O)NC[C@H]1CC[C@@H](C(=O)NCCCNC(=O)c2ccc(-c3c4nc(c(-c5cc(S(=O)(=O)[O-])ccc5F)c5ccc([nH]5)c(-c5cc(S(=O)(=O)[O-])ccc5F)c5nc(c(-c6cc(S(=O)(=O)[O-])ccc6F)c6ccc3[nH]6)C=C5)C=C4)cc2)CC1
REMARK SMILES IDX 20 1 19 2 17 3 18 4 16 6 13 7 14 8 90 9 15 10 89 11 12 12
REMARK SMILES IDX 11 13 8 14 9 15 10 17 7 19 6 20 4 21 1 22 2 23 3 24 5 25
REMARK SMILES IDX 21 26 22 27 23 28 24 29 25 31 26 32 27 33 88 34 28 35 87 36
REMARK SMILES IDX 29 37 30 38 31 39 81 40 32 41 86 42 80 43 82 44 33 45 85 46
REMARK SMILES IDX 79 47 78 48 34 50 66 51 46 52 65 53 47 54 50 55 64 56 83 57
REMARK SMILES IDX 48 58 49 59 63 61 84 62 51 63 35 64 36 65 44 66 37 67 43 68
REMARK SMILES IDX 45 69 42 70 38 71 39 72 40 73 41 74 67 75 68 76 76 77 69 78
REMARK SMILES IDX 75 79 77 80 74 81 70 82 71 83 72 84 73 85 52 86 53 87 61 88
REMARK SMILES IDX 54 89 60 90 62 91 59 92 55 93 56 94 57 95 58 96
REMARK H PARENT 19 5 8 16 11 18 23 30 82 49 50 60
REMARK Flexibility Score: inf
ROOT
ATOM      1  C   UNL A   1      31.958  26.611  25.862  1.00  0.00     0.117 C 
ENDROOT
BRANCH   1   2
ATOM      2  N   UNL A   1      31.604  25.538  26.756  1.00  0.00    -0.356 N 
ATOM      3  C   UNL A   1      31.629  24.195  26.587  1.00  0.00     0.223 C 
ATOM      4  O   UNL A   1      31.262  23.518  27.555  1.00  0.00    -0.275 OA
ATOM      5  H   UNL A   1      31.289  25.832  27.641  1.00  0.00     0.163 HD
BRANCH   3   6
ATOM      6  C   UNL A   1      32.107  23.486  25.308  1.00  0.00     0.078 C 
ATOM      7  C   UNL A   1      32.904  24.727  22.673  1.00  0.00     0.008 C 
ATOM      8  C   UNL A   1      33.841  24.787  23.887  1.00  0.00     0.006 C 
ATOM      9  C   UNL A   1      31.419  24.505  23.011  1.00  0.00     0.006 C 
ATOM     10  C   UNL A   1      33.572  23.719  24.939  1.00  0.00     0.014 C 
ATOM     11  C   UNL A   1      31.150  23.485  24.116  1.00  0.00     0.014 C 
BRANCH   7  12
ATOM     12  C   UNL A   1      33.136  25.923  21.710  1.00  0.00     0.121 C 
BRANCH  12  13
ATOM     13  N   UNL A   1      33.507  27.189  22.321  1.00  0.00    -0.338 N 
ATOM     14  N   UNL A   1      31.682  28.693  22.267  1.00  0.00    -0.338 N 
ATOM     15  C   UNL A   1      32.950  28.380  22.546  1.00  0.00     0.314 C 
ATOM     16  H   UNL A   1      31.550  29.623  21.972  1.00  0.00     0.165 HD
ATOM     17  O   UNL A   1      33.674  29.267  23.002  1.00  0.00    -0.249 OA
ATOM     18  H   UNL A   1      34.430  27.161  22.665  1.00  0.00     0.165 HD
BRANCH  14  19
ATOM     19  C   UNL A   1      30.466  27.906  22.320  1.00  0.00     0.127 C 
BRANCH  19  20
ATOM     20  C   UNL A   1      29.528  28.403  23.417  1.00  0.00     0.121 C 
BRANCH  20  21
ATOM     21  C   UNL A   1      29.665  29.909  23.559  1.00  0.00     0.223 C 
ATOM     22  C   UNL A   1      28.766  32.146  23.123  1.00  0.00     0.146 C 
ATOM     23  N   UNL A   1      28.823  30.724  22.825  1.00  0.00    -0.349 N 
ATOM     24  C   UNL A   1      27.977  30.264  21.737  1.00  0.00     0.146 C 
ATOM     25  O   UNL A   1      30.480  30.358  24.370  1.00  0.00    -0.275 OA
ENDBRANCH  20  21
ENDBRANCH  19  20
ENDBRANCH  14  19
ENDBRANCH  12  13
ENDBRANCH   7  12
ENDBRANCH   3   6
ENDBRANCH   1   2
BRANCH   1  26
ATOM     26  C   UNL A   1      31.915  27.972  26.534  1.00  0.00     0.042 C 
BRANCH  26  27
ATOM     27  C   UNL A   1      33.091  28.870  26.184  1.00  0.00     0.118 C 
BRANCH  27  28
ATOM     28  N   UNL A   1      32.847  30.288  26.429  1.00  0.00    -0.352 N 
ATOM     29  C   UNL A   1      33.489  31.221  27.211  1.00  0.00     0.251 C 
ATOM     30  H   UNL A   1      32.071  30.648  25.940  1.00  0.00     0.163 HD
ATOM     31  O   UNL A   1      32.933  32.301  27.392  1.00  0.00    -0.269 OA
BRANCH  29  32
ATOM     32  C   UNL A   1      34.802  30.945  27.841  1.00  0.00     0.039 A 
ATOM     33  C   UNL A   1      35.048  29.677  28.385  1.00  0.00     0.014 A 
ATOM     34  C   UNL A   1      35.774  31.933  27.965  1.00  0.00     0.014 A 
ATOM     35  C   UNL A   1      36.279  29.382  28.975  1.00  0.00     0.010 A 
ATOM     36  C   UNL A   1      37.037  31.613  28.443  1.00  0.00     0.010 A 
ATOM     37  C   UNL A   1      37.293  30.344  28.982  1.00  0.00    -0.014 A 
BRANCH  37  38
ATOM     38  C   UNL A   1      38.588  30.116  29.664  1.00  0.00     0.031 A 
ATOM     39  C   UNL A   1      39.572  29.174  29.025  1.00  0.00     0.074 A 
ATOM     40  C   UNL A   1      38.845  30.677  30.860  1.00  0.00     0.049 A 
ATOM     41  N   UNL A   1      40.656  28.639  29.519  1.00  0.00    -0.248 NA
ATOM     42  C   UNL A   1      39.254  28.736  27.656  1.00  0.00     0.031 C 
ATOM     43  C   UNL A   1      37.968  31.613  31.565  1.00  0.00     0.029 A 
ATOM     44  N   UNL A   1      39.917  30.525  31.702  1.00  0.00    -0.354 N 
ATOM     45  C   UNL A   1      41.122  27.768  28.538  1.00  0.00     0.074 A 
ATOM     46  C   UNL A   1      40.163  27.797  27.457  1.00  0.00     0.031 C 
ATOM     47  C   UNL A   1      38.546  31.964  32.725  1.00  0.00     0.029 A 
ATOM     48  C   UNL A   1      39.799  31.231  32.876  1.00  0.00     0.049 A 
ATOM     49  H   UNL A   1      40.697  29.965  31.486  1.00  0.00     0.167 HD
ATOM     50  C   UNL A   1      42.259  27.031  28.534  1.00  0.00     0.034 A 
ATOM     51  C   UNL A   1      40.601  31.255  33.960  1.00  0.00     0.034 A 
ATOM     52  C   UNL A   1      43.211  27.050  29.616  1.00  0.00     0.049 A 
ATOM     53  C   UNL A   1      41.844  30.398  33.953  1.00  0.00     0.074 A 
ATOM     54  C   UNL A   1      44.417  26.381  29.717  1.00  0.00     0.029 A 
ATOM     55  N   UNL A   1      43.062  27.782  30.789  1.00  0.00    -0.354 N 
ATOM     56  N   UNL A   1      42.280  29.579  33.022  1.00  0.00    -0.248 NA
ATOM     57  C   UNL A   1      42.704  30.475  35.139  1.00  0.00     0.031 C 
ATOM     58  C   UNL A   1      44.960  26.651  30.977  1.00  0.00     0.029 A 
ATOM     59  C   UNL A   1      44.139  27.559  31.631  1.00  0.00     0.049 A 
ATOM     60  H   UNL A   1      42.300  28.372  30.993  1.00  0.00     0.167 HD
ATOM     61  C   UNL A   1      43.487  29.071  33.497  1.00  0.00     0.074 A 
ATOM     62  C   UNL A   1      43.711  29.686  34.790  1.00  0.00     0.031 C 
ATOM     63  C   UNL A   1      44.337  28.183  32.919  1.00  0.00     0.034 A 
BRANCH  50  64
ATOM     64  C   UNL A   1      42.496  26.131  27.344  1.00  0.00     0.023 A 
ATOM     65  C   UNL A   1      41.997  24.816  27.295  1.00  0.00     0.031 A 
ATOM     66  C   UNL A   1      43.291  26.567  26.269  1.00  0.00     0.131 A 
ATOM     67  C   UNL A   1      42.382  23.957  26.255  1.00  0.00     0.055 A 
ATOM     68  C   UNL A   1      43.588  25.737  25.185  1.00  0.00     0.041 A 
ATOM     69  F   UNL A   1      43.819  27.802  26.266  1.00  0.00    -0.206 F 
ATOM     70  C   UNL A   1      43.150  24.417  25.184  1.00  0.00     0.022 A 
BRANCH  67  71
ATOM     71  S   UNL A   1      42.019  22.186  26.420  1.00  0.00     0.124 S 
ATOM     72  O   UNL A   1      40.570  22.164  26.227  1.00  0.00    -0.237 OA
ATOM     73  O   UNL A   1      42.815  21.599  25.350  1.00  0.00    -0.237 OA
ATOM     74  O   UNL A   1      42.462  21.870  27.776  1.00  0.00    -0.744 OA
ENDBRANCH  67  71
ENDBRANCH  50  64
BRANCH  51  75
ATOM     75  C   UNL A   1      40.256  32.097  35.141  1.00  0.00     0.023 A 
ATOM     76  C   UNL A   1      39.318  31.659  36.089  1.00  0.00     0.031 A 
ATOM     77  C   UNL A   1      40.831  33.368  35.325  1.00  0.00     0.131 A 
ATOM     78  C   UNL A   1      38.950  32.499  37.152  1.00  0.00     0.055 A 
ATOM     79  C   UNL A   1      40.503  34.176  36.414  1.00  0.00     0.041 A 
ATOM     80  F   UNL A   1      41.736  33.837  34.450  1.00  0.00    -0.206 F 
ATOM     81  C   UNL A   1      39.547  33.749  37.330  1.00  0.00     0.022 A 
BRANCH  78  82
ATOM     82  S   UNL A   1      37.614  31.966  38.257  1.00  0.00     0.124 S 
ATOM     83  O   UNL A   1      36.569  32.934  37.947  1.00  0.00    -0.237 OA
ATOM     84  O   UNL A   1      37.377  30.598  37.810  1.00  0.00    -0.237 OA
ATOM     85  O   UNL A   1      38.205  32.090  39.588  1.00  0.00    -0.744 OA
ENDBRANCH  78  82
ENDBRANCH  51  75
BRANCH  63  86
ATOM     86  C   UNL A   1      45.617  27.876  33.659  1.00  0.00     0.023 A 
ATOM     87  C   UNL A   1      46.787  28.628  33.463  1.00  0.00     0.031 A 
ATOM     88  C   UNL A   1      45.660  26.811  34.576  1.00  0.00     0.131 A 
ATOM     89  C   UNL A   1      47.969  28.266  34.128  1.00  0.00     0.055 A 
ATOM     90  C   UNL A   1      46.819  26.500  35.288  1.00  0.00     0.041 A 
ATOM     91  F   UNL A   1      44.571  26.057  34.801  1.00  0.00    -0.206 F 
ATOM     92  C   UNL A   1      47.986  27.220  35.055  1.00  0.00     0.022 A 
BRANCH  89  93
ATOM     93  S   UNL A   1      49.510  29.113  33.686  1.00  0.00     0.124 S 
ATOM     94  O   UNL A   1      49.078  29.975  32.591  1.00  0.00    -0.237 OA
ATOM     95  O   UNL A   1      49.862  29.789  34.929  1.00  0.00    -0.237 OA
ATOM     96  O   UNL A   1      50.402  28.021  33.300  1.00  0.00    -0.744 OA
ENDBRANCH  89  93
ENDBRANCH  63  86
ENDBRANCH  37  38
ENDBRANCH  29  32
ENDBRANCH  27  28
ENDBRANCH  26  27
ENDBRANCH   1  26
TORSDOF 18
ENDMDL
MODEL 3
REMARK VINA RESULT:     -11.6      4.885      9.349
REMARK SMILES CN(C)C(=O)CCNC(=O)NC[C@H]1CC[C@@H](C(=O)NCCCNC(=O)c2ccc(-c3c4nc(c(-c5cc(S(=O)(=O)[O-])ccc5F)c5ccc([nH]5)c(-c5cc(S(=O)(=O)[O-])ccc5F)c5nc(c(-c6cc(S(=O)(=O)[O-])ccc6F)c6ccc3[nH]6)C=C5)C=C4)cc2)CC1
REMARK SMILES IDX 20 1 19 2 17 3 18 4 16 6 13 7 14 8 90 9 15 10 89 11 12 12
REMARK SMILES IDX 11 13 8 14 9 15 10 17 7 19 6 20 4 21 1 22 2 23 3 24 5 25
REMARK SMILES IDX 21 26 22 27 23 28 24 29 25 31 26 32 27 33 88 34 28 35 87 36
REMARK SMILES IDX 29 37 30 38 31 39 81 40 32 41 86 42 80 43 82 44 33 45 85 46
REMARK SMILES IDX 79 47 78 48 34 50 66 51 46 52 65 53 47 54 50 55 64 56 83 57
REMARK SMILES IDX 48 58 49 59 63 61 84 62 51 63 35 64 36 65 44 66 37 67 43 68
REMARK SMILES IDX 45 69 42 70 38 71 39 72 40 73 41 74 67 75 68 76 76 77 69 78
REMARK SMILES IDX 75 79 77 80 74 81 70 82 71 83 72 84 73 85 52 86 53 87 61 88
REMARK SMILES IDX 54 89 60 90 62 91 59 92 55 93 56 94 57 95 58 96
REMARK H PARENT 19 5 8 16 11 18 23 30 82 49 50 60
REMARK Flexibility Score: inf
ROOT
ATOM      1  C   UNL A   1      33.503  22.910  27.096  1.00  0.00     0.117 C 
ENDROOT
BRANCH   1   2
ATOM      2  N   UNL A   1      32.955  21.727  26.482  1.00  0.00    -0.356 N 
ATOM      3  C   UNL A   1      32.062  21.580  25.475  1.00  0.00     0.223 C 
ATOM      4  O   UNL A   1      31.783  20.415  25.161  1.00  0.00    -0.275 OA
ATOM      5  H   UNL A   1      33.286  20.880  26.860  1.00  0.00     0.163 HD
BRANCH   3   6
ATOM      6  C   UNL A   1      31.419  22.744  24.702  1.00  0.00     0.078 C 
ATOM      7  C   UNL A   1      32.103  25.682  24.847  1.00  0.00     0.008 C 
ATOM      8  C   UNL A   1      33.010  24.699  24.096  1.00  0.00     0.006 C 
ATOM      9  C   UNL A   1      31.193  25.041  25.910  1.00  0.00     0.006 C 
ATOM     10  C   UNL A   1      32.318  23.413  23.662  1.00  0.00     0.014 C 
ATOM     11  C   UNL A   1      30.553  23.715  25.503  1.00  0.00     0.014 C 
BRANCH   7  12
ATOM     12  C   UNL A   1      32.899  26.902  25.383  1.00  0.00     0.121 C 
BRANCH  12  13
ATOM     13  N   UNL A   1      33.615  27.697  24.398  1.00  0.00    -0.338 N 
ATOM     14  N   UNL A   1      32.112  29.093  23.219  1.00  0.00    -0.338 N 
ATOM     15  C   UNL A   1      33.329  28.595  23.454  1.00  0.00     0.314 C 
ATOM     16  H   UNL A   1      31.926  29.278  22.270  1.00  0.00     0.165 HD
ATOM     17  O   UNL A   1      34.250  28.955  22.717  1.00  0.00    -0.249 OA
ATOM     18  H   UNL A   1      34.584  27.523  24.437  1.00  0.00     0.165 HD
BRANCH  14  19
ATOM     19  C   UNL A   1      31.016  29.408  24.113  1.00  0.00     0.127 C 
BRANCH  19  20
ATOM     20  C   UNL A   1      29.671  29.017  23.506  1.00  0.00     0.121 C 
BRANCH  20  21
ATOM     21  C   UNL A   1      29.371  29.914  22.317  1.00  0.00     0.223 C 
ATOM     22  C   UNL A   1      28.395  31.985  21.448  1.00  0.00     0.146 C 
ATOM     23  N   UNL A   1      28.506  30.979  22.491  1.00  0.00    -0.349 N 
ATOM     24  C   UNL A   1      27.664  31.171  23.659  1.00  0.00     0.146 C 
ATOM     25  O   UNL A   1      29.955  29.702  21.251  1.00  0.00    -0.275 OA
ENDBRANCH  20  21
ENDBRANCH  19  20
ENDBRANCH  14  19
ENDBRANCH  12  13
ENDBRANCH   7  12
ENDBRANCH   3   6
ENDBRANCH   1   2
BRANCH   1  26
ATOM     26  C   UNL A   1      35.020  22.897  27.141  1.00  0.00     0.042 C 
BRANCH  26  27
ATOM     27  C   UNL A   1      35.676  22.724  25.781  1.00  0.00     0.118 C 
BRANCH  27  28
ATOM     28  N   UNL A   1      36.578  21.578  25.699  1.00  0.00    -0.352 N 
ATOM     29  C   UNL A   1      37.949  21.470  25.748  1.00  0.00     0.251 C 
ATOM     30  H   UNL A   1      36.116  20.716  25.588  1.00  0.00     0.163 HD
ATOM     31  O   UNL A   1      38.452  20.392  25.438  1.00  0.00    -0.269 OA
BRANCH  29  32
ATOM     32  C   UNL A   1      38.813  22.609  26.139  1.00  0.00     0.039 A 
ATOM     33  C   UNL A   1      39.990  22.361  26.856  1.00  0.00     0.014 A 
ATOM     34  C   UNL A   1      38.451  23.926  25.869  1.00  0.00     0.014 A 
ATOM     35  C   UNL A   1      40.832  23.412  27.228  1.00  0.00     0.010 A 
ATOM     36  C   UNL A   1      39.337  24.961  26.133  1.00  0.00     0.010 A 
ATOM     37  C   UNL A   1      40.522  24.718  26.843  1.00  0.00    -0.014 A 
BRANCH  37  38
ATOM     38  C   UNL A   1      41.332  25.880  27.278  1.00  0.00     0.031 A 
ATOM     39  C   UNL A   1      40.682  26.909  28.163  1.00  0.00     0.074 A 
ATOM     40  C   UNL A   1      42.591  26.048  26.833  1.00  0.00     0.049 A 
ATOM     41  N   UNL A   1      41.090  28.104  28.491  1.00  0.00    -0.248 NA
ATOM     42  C   UNL A   1      39.361  26.552  28.708  1.00  0.00     0.031 C 
ATOM     43  C   UNL A   1      43.323  25.110  25.981  1.00  0.00     0.029 A 
ATOM     44  N   UNL A   1      43.471  27.082  27.024  1.00  0.00    -0.354 N 
ATOM     45  C   UNL A   1      40.057  28.658  29.241  1.00  0.00     0.074 A 
ATOM     46  C   UNL A   1      38.980  27.694  29.255  1.00  0.00     0.031 C 
ATOM     47  C   UNL A   1      44.547  25.605  25.737  1.00  0.00     0.029 A 
ATOM     48  C   UNL A   1      44.664  26.920  26.358  1.00  0.00     0.049 A 
ATOM     49  H   UNL A   1      43.269  27.866  27.585  1.00  0.00     0.167 HD
ATOM     50  C   UNL A   1      40.022  29.854  29.878  1.00  0.00     0.034 A 
ATOM     51  C   UNL A   1      45.715  27.756  26.242  1.00  0.00     0.034 A 
ATOM     52  C   UNL A   1      41.126  30.780  29.870  1.00  0.00     0.049 A 
ATOM     53  C   UNL A   1      45.644  29.100  26.927  1.00  0.00     0.074 A 
ATOM     54  C   UNL A   1      41.232  32.004  30.506  1.00  0.00     0.029 A 
ATOM     55  N   UNL A   1      42.323  30.581  29.190  1.00  0.00    -0.354 N 
ATOM     56  N   UNL A   1      44.665  29.617  27.637  1.00  0.00    -0.248 NA
ATOM     57  C   UNL A   1      46.819  29.968  26.801  1.00  0.00     0.031 C 
ATOM     58  C   UNL A   1      42.459  32.574  30.152  1.00  0.00     0.029 A 
ATOM     59  C   UNL A   1      43.160  31.669  29.367  1.00  0.00     0.049 A 
ATOM     60  H   UNL A   1      42.542  29.781  28.657  1.00  0.00     0.167 HD
ATOM     61  C   UNL A   1      45.125  30.857  28.072  1.00  0.00     0.074 A 
ATOM     62  C   UNL A   1      46.470  31.002  27.553  1.00  0.00     0.031 C 
ATOM     63  C   UNL A   1      44.498  31.791  28.835  1.00  0.00     0.034 A 
BRANCH  50  64
ATOM     64  C   UNL A   1      38.741  30.222  30.590  1.00  0.00     0.023 A 
ATOM     65  C   UNL A   1      37.677  30.857  29.925  1.00  0.00     0.031 A 
ATOM     66  C   UNL A   1      38.606  29.998  31.972  1.00  0.00     0.131 A 
ATOM     67  C   UNL A   1      36.579  31.337  30.655  1.00  0.00     0.055 A 
ATOM     68  C   UNL A   1      37.464  30.388  32.676  1.00  0.00     0.041 A 
ATOM     69  F   UNL A   1      39.596  29.418  32.671  1.00  0.00    -0.206 F 
ATOM     70  C   UNL A   1      36.451  31.081  32.021  1.00  0.00     0.022 A 
BRANCH  67  71
ATOM     71  S   UNL A   1      35.416  32.458  29.828  1.00  0.00     0.124 S 
ATOM     72  O   UNL A   1      34.989  31.650  28.687  1.00  0.00    -0.237 OA
ATOM     73  O   UNL A   1      34.412  32.689  30.858  1.00  0.00    -0.237 OA
ATOM     74  O   UNL A   1      36.240  33.615  29.486  1.00  0.00    -0.744 OA
ENDBRANCH  67  71
ENDBRANCH  50  64
BRANCH  51  75
ATOM     75  C   UNL A   1      46.912  27.365  25.443  1.00  0.00     0.023 A 
ATOM     76  C   UNL A   1      47.066  27.800  24.117  1.00  0.00     0.031 A 
ATOM     77  C   UNL A   1      47.903  26.523  25.978  1.00  0.00     0.131 A 
ATOM     78  C   UNL A   1      48.161  27.359  23.358  1.00  0.00     0.055 A 
ATOM     79  C   UNL A   1      49.019  26.132  25.236  1.00  0.00     0.041 A 
ATOM     80  F   UNL A   1      47.808  26.077  27.242  1.00  0.00    -0.206 F 
ATOM     81  C   UNL A   1      49.147  26.539  23.912  1.00  0.00     0.022 A 
BRANCH  78  82
ATOM     82  S   UNL A   1      48.236  27.806  21.602  1.00  0.00     0.124 S 
ATOM     83  O   UNL A   1      46.868  28.242  21.348  1.00  0.00    -0.237 OA
ATOM     84  O   UNL A   1      49.254  28.851  21.598  1.00  0.00    -0.237 OA
ATOM     85  O   UNL A   1      48.625  26.558  20.949  1.00  0.00    -0.744 OA
ENDBRANCH  78  82
ENDBRANCH  51  75
BRANCH  63  86
ATOM     86  C   UNL A   1      45.291  33.022  29.202  1.00  0.00     0.023 A 
ATOM     87  C   UNL A   1      45.253  34.190  28.421  1.00  0.00     0.031 A 
ATOM     88  C   UNL A   1      46.097  33.022  30.353  1.00  0.00     0.131 A 
ATOM     89  C   UNL A   1      46.056  35.287  28.768  1.00  0.00     0.055 A 
ATOM     90  C   UNL A   1      46.838  34.141  30.733  1.00  0.00     0.041 A 
ATOM     91  F   UNL A   1      46.173  31.932  31.134  1.00  0.00    -0.206 F 
ATOM     92  C   UNL A   1      46.831  35.278  29.931  1.00  0.00     0.022 A 
BRANCH  89  93
ATOM     93  S   UNL A   1      46.154  36.689  27.623  1.00  0.00     0.124 S 
ATOM     94  O   UNL A   1      46.604  36.045  26.393  1.00  0.00    -0.237 OA
ATOM     95  O   UNL A   1      44.783  37.186  27.617  1.00  0.00    -0.237 OA
ATOM     96  O   UNL A   1      47.132  37.577  28.251  1.00  0.00    -0.744 OA
ENDBRANCH  89  93
ENDBRANCH  63  86
ENDBRANCH  37  38
ENDBRANCH  29  32
ENDBRANCH  27  28
ENDBRANCH  26  27
ENDBRANCH   1  26
TORSDOF 18
ENDMDL
