MODEL 1
REMARK VINA RESULT:     -15.0      0.000      0.000
REMARK SMILES Cc1ccc([C@@]23C[C@@H]4C[C@@H](C[C@@](C(=O)N5CCC(C(=O)NCCCNC(=O)c6ccc(-c7c8nc(c(-c9cc(S(=O)(=O)[O-])ccc9F)c9ccc([nH]9)c(-c9cc(S(=O)(=O)[O-])ccc9F)c9nc(c(-c%10cc(S(=O)(=O)[O-])ccc%10F)c%10ccc7[nH]%10)C=C9)C=C8)cc6)CC5)(C4)C2)C3)cc1
REMARK SMILES IDX 23 1 22 2 21 3 19 4 20 5 18 7 13 8 14 9 15 10 16 11 92 12
REMARK SMILES IDX 17 13 91 14 12 15 6 16 7 17 94 18 95 19 8 20 10 21 9 22
REMARK SMILES IDX 93 23 11 24 5 25 1 26 2 27 3 28 97 29 4 30 96 31 24 32 25 33
REMARK SMILES IDX 26 34 27 36 28 37 29 38 90 39 30 40 89 41 31 42 32 43 33 44
REMARK SMILES IDX 83 45 34 46 88 47 82 48 84 49 35 50 87 51 81 52 80 53 36 55
REMARK SMILES IDX 68 56 48 57 67 58 49 59 52 60 66 61 85 62 50 63 51 64 65 66
REMARK SMILES IDX 86 67 53 68 37 69 38 70 46 71 39 72 45 73 47 74 44 75 40 76
REMARK SMILES IDX 41 77 42 78 43 79 69 80 70 81 78 82 71 83 77 84 79 85 76 86
REMARK SMILES IDX 72 87 73 88 74 89 75 90 54 91 55 92 63 93 56 94 62 95 64 96
REMARK SMILES IDX 61 97 57 98 58 99 59 100 60 101
REMARK H PARENT 21 6 25 35 84 54 52 65
REMARK Flexibility Score: inf
ROOT
ATOM      1  C   UNL A   1      32.855  30.632  27.023  1.00  0.00     0.042 C 
ENDROOT
BRANCH   1   2
ATOM      2  C   UNL A   1      32.770  30.131  25.589  1.00  0.00     0.117 C 
BRANCH   2   3
ATOM      3  N   UNL A   1      31.455  29.587  25.255  1.00  0.00    -0.356 N 
ATOM      4  C   UNL A   1      31.069  28.694  24.300  1.00  0.00     0.223 C 
ATOM      5  O   UNL A   1      29.875  28.406  24.180  1.00  0.00    -0.275 OA
ATOM      6  H   UNL A   1      30.721  29.924  25.817  1.00  0.00     0.163 HD
BRANCH   4   7
ATOM      7  C   UNL A   1      32.084  28.080  23.343  1.00  0.00     0.082 C 
ATOM      8  C   UNL A   1      32.849  24.141  23.343  1.00  0.00     0.228 C 
ATOM      9  O   UNL A   1      31.835  23.517  23.016  1.00  0.00    -0.274 OA
ATOM     10  N   UNL A   1      33.069  25.434  22.869  1.00  0.00    -0.342 N 
ATOM     11  C   UNL A   1      32.193  25.969  21.832  1.00  0.00     0.120 C 
ATOM     12  C   UNL A   1      34.011  26.434  23.360  1.00  0.00     0.120 C 
ATOM     13  C   UNL A   1      31.390  27.178  22.300  1.00  0.00     0.035 C 
ATOM     14  C   UNL A   1      33.252  27.485  24.139  1.00  0.00     0.035 C 
BRANCH   8  15
ATOM     15  C   UNL A   1      33.930  23.422  24.189  1.00  0.00     0.051 C 
ATOM     16  C   UNL A   1      34.526  21.078  25.081  1.00  0.00    -0.003 C 
ATOM     17  C   UNL A   1      35.938  21.305  24.460  1.00  0.00     0.015 C 
ATOM     18  C   UNL A   1      33.533  21.938  24.271  1.00  0.00     0.028 C 
ATOM     19  C   UNL A   1      34.525  21.631  26.528  1.00  0.00     0.015 C 
ATOM     20  C   UNL A   1      36.351  22.789  24.514  1.00  0.00    -0.009 C 
ATOM     21  C   UNL A   1      34.906  23.126  26.536  1.00  0.00    -0.009 C 
ATOM     22  C   UNL A   1      36.324  23.278  25.969  1.00  0.00     0.007 C 
ATOM     23  C   UNL A   1      35.371  23.633  23.685  1.00  0.00     0.020 C 
ATOM     24  C   UNL A   1      33.918  23.935  25.665  1.00  0.00     0.020 C 
BRANCH  16  25
ATOM     25  C   UNL A   1      34.128  19.590  25.041  1.00  0.00    -0.042 A 
ATOM     26  C   UNL A   1      33.104  15.372  25.160  1.00  0.00     0.044 C 
ATOM     27  C   UNL A   1      33.427  16.832  25.098  1.00  0.00    -0.051 A 
ATOM     28  C   UNL A   1      34.670  17.236  24.615  1.00  0.00     0.004 A 
ATOM     29  C   UNL A   1      32.526  17.809  25.528  1.00  0.00     0.004 A 
ATOM     30  C   UNL A   1      35.007  18.590  24.580  1.00  0.00     0.004 A 
ATOM     31  C   UNL A   1      32.868  19.167  25.496  1.00  0.00     0.004 A 
ENDBRANCH  16  25
ENDBRANCH   8  15
ENDBRANCH   4   7
ENDBRANCH   2   3
ENDBRANCH   1   2
BRANCH   1  32
ATOM     32  C   UNL A   1      34.072  30.105  27.772  1.00  0.00     0.118 C 
BRANCH  32  33
ATOM     33  N   UNL A   1      34.755  31.123  28.550  1.00  0.00    -0.352 N 
ATOM     34  C   UNL A   1      36.023  31.047  29.144  1.00  0.00     0.251 C 
ATOM     35  H   UNL A   1      34.269  31.970  28.675  1.00  0.00     0.163 HD
ATOM     36  O   UNL A   1      36.501  31.972  29.767  1.00  0.00    -0.269 OA
BRANCH  34  37
ATOM     37  C   UNL A   1      36.809  29.825  28.884  1.00  0.00     0.039 A 
ATOM     38  C   UNL A   1      37.137  29.033  29.987  1.00  0.00     0.014 A 
ATOM     39  C   UNL A   1      37.442  29.646  27.659  1.00  0.00     0.014 A 
ATOM     40  C   UNL A   1      38.268  28.223  29.927  1.00  0.00     0.010 A 
ATOM     41  C   UNL A   1      38.621  28.922  27.629  1.00  0.00     0.010 A 
ATOM     42  C   UNL A   1      39.069  28.265  28.782  1.00  0.00    -0.014 A 
BRANCH  42  43
ATOM     43  C   UNL A   1      40.452  27.795  28.781  1.00  0.00     0.031 A 
ATOM     44  C   UNL A   1      40.798  26.428  28.351  1.00  0.00     0.074 A 
ATOM     45  C   UNL A   1      41.454  28.607  29.186  1.00  0.00     0.049 A 
ATOM     46  N   UNL A   1      41.799  25.760  28.825  1.00  0.00    -0.248 NA
ATOM     47  C   UNL A   1      40.018  25.688  27.365  1.00  0.00     0.031 C 
ATOM     48  C   UNL A   1      42.891  28.367  29.068  1.00  0.00     0.029 A 
ATOM     49  N   UNL A   1      41.354  29.705  30.038  1.00  0.00    -0.354 N 
ATOM     50  C   UNL A   1      41.966  24.660  28.026  1.00  0.00     0.074 A 
ATOM     51  C   UNL A   1      40.794  24.617  27.177  1.00  0.00     0.031 C 
ATOM     52  C   UNL A   1      43.523  29.077  30.014  1.00  0.00     0.029 A 
ATOM     53  C   UNL A   1      42.510  29.701  30.844  1.00  0.00     0.049 A 
ATOM     54  H   UNL A   1      40.617  30.357  30.072  1.00  0.00     0.167 HD
ATOM     55  C   UNL A   1      43.131  23.958  28.040  1.00  0.00     0.034 A 
ATOM     56  C   UNL A   1      42.418  29.620  32.203  1.00  0.00     0.034 A 
ATOM     57  C   UNL A   1      44.120  24.492  28.967  1.00  0.00     0.049 A 
ATOM     58  C   UNL A   1      43.097  28.405  32.801  1.00  0.00     0.074 A 
ATOM     59  C   UNL A   1      45.278  25.241  28.826  1.00  0.00     0.029 A 
ATOM     60  N   UNL A   1      43.839  24.487  30.323  1.00  0.00    -0.354 N 
ATOM     61  N   UNL A   1      43.725  27.489  32.116  1.00  0.00    -0.248 NA
ATOM     62  C   UNL A   1      43.026  28.077  34.224  1.00  0.00     0.031 C 
ATOM     63  C   UNL A   1      45.685  25.684  30.119  1.00  0.00     0.029 A 
ATOM     64  C   UNL A   1      44.786  25.188  31.045  1.00  0.00     0.049 A 
ATOM     65  H   UNL A   1      43.060  24.037  30.723  1.00  0.00     0.167 HD
ATOM     66  C   UNL A   1      44.056  26.446  32.944  1.00  0.00     0.074 A 
ATOM     67  C   UNL A   1      43.598  26.864  34.256  1.00  0.00     0.031 C 
ATOM     68  C   UNL A   1      44.630  25.292  32.487  1.00  0.00     0.034 A 
BRANCH  55  69
ATOM     69  C   UNL A   1      43.415  22.938  26.975  1.00  0.00     0.023 A 
ATOM     70  C   UNL A   1      42.830  21.662  27.044  1.00  0.00     0.031 A 
ATOM     71  C   UNL A   1      44.303  23.164  25.906  1.00  0.00     0.131 A 
ATOM     72  C   UNL A   1      43.203  20.650  26.143  1.00  0.00     0.055 A 
ATOM     73  C   UNL A   1      44.721  22.142  25.049  1.00  0.00     0.041 A 
ATOM     74  F   UNL A   1      44.803  24.389  25.670  1.00  0.00    -0.206 F 
ATOM     75  C   UNL A   1      44.181  20.869  25.174  1.00  0.00     0.022 A 
BRANCH  72  76
ATOM     76  S   UNL A   1      42.392  19.032  26.259  1.00  0.00     0.124 S 
ATOM     77  O   UNL A   1      42.477  18.740  27.686  1.00  0.00    -0.237 OA
ATOM     78  O   UNL A   1      41.061  19.319  25.736  1.00  0.00    -0.237 OA
ATOM     79  O   UNL A   1      43.219  18.177  25.406  1.00  0.00    -0.744 OA
ENDBRANCH  72  76
ENDBRANCH  55  69
BRANCH  56  80
ATOM     80  C   UNL A   1      41.200  30.296  32.739  1.00  0.00     0.023 A 
ATOM     81  C   UNL A   1      41.203  31.708  32.735  1.00  0.00     0.031 A 
ATOM     82  C   UNL A   1      39.967  29.647  32.867  1.00  0.00     0.131 A 
ATOM     83  C   UNL A   1      39.996  32.416  32.663  1.00  0.00     0.055 A 
ATOM     84  C   UNL A   1      38.765  30.366  32.896  1.00  0.00     0.041 A 
ATOM     85  F   UNL A   1      39.889  28.309  32.835  1.00  0.00    -0.206 F 
ATOM     86  C   UNL A   1      38.773  31.753  32.742  1.00  0.00     0.022 A 
BRANCH  83  87
ATOM     87  S   UNL A   1      40.054  34.152  32.129  1.00  0.00     0.124 S 
ATOM     88  O   UNL A   1      40.487  34.035  30.743  1.00  0.00    -0.237 OA
ATOM     89  O   UNL A   1      38.675  34.594  32.339  1.00  0.00    -0.237 OA
ATOM     90  O   UNL A   1      41.014  34.763  33.047  1.00  0.00    -0.744 OA
ENDBRANCH  83  87
ENDBRANCH  56  80
BRANCH  68  91
ATOM     91  C   UNL A   1      45.041  24.141  33.378  1.00  0.00     0.023 A 
ATOM     92  C   UNL A   1      46.333  24.035  33.919  1.00  0.00     0.031 A 
ATOM     93  C   UNL A   1      44.166  23.067  33.660  1.00  0.00     0.131 A 
ATOM     94  C   UNL A   1      46.674  22.975  34.779  1.00  0.00     0.055 A 
ATOM     95  C   UNL A   1      44.532  21.974  34.450  1.00  0.00     0.041 A 
ATOM     96  F   UNL A   1      42.905  23.041  33.202  1.00  0.00    -0.206 F 
ATOM     97  C   UNL A   1      45.788  21.932  35.034  1.00  0.00     0.022 A 
BRANCH  94  98
ATOM     98  S   UNL A   1      48.280  23.025  35.617  1.00  0.00     0.124 S 
ATOM     99  O   UNL A   1      49.215  22.767  34.528  1.00  0.00    -0.237 OA
ATOM    100  O   UNL A   1      48.291  24.384  36.154  1.00  0.00    -0.237 OA
ATOM    101  O   UNL A   1      48.180  21.965  36.617  1.00  0.00    -0.744 OA
ENDBRANCH  94  98
ENDBRANCH  68  91
ENDBRANCH  42  43
ENDBRANCH  34  37
ENDBRANCH  32  33
ENDBRANCH   1  32
TORSDOF 15
ENDMDL
MODEL 2
REMARK VINA RESULT:     -14.8      3.957     10.752
REMARK SMILES Cc1ccc([C@@]23C[C@@H]4C[C@@H](C[C@@](C(=O)N5CCC(C(=O)NCCCNC(=O)c6ccc(-c7c8nc(c(-c9cc(S(=O)(=O)[O-])ccc9F)c9ccc([nH]9)c(-c9cc(S(=O)(=O)[O-])ccc9F)c9nc(c(-c%10cc(S(=O)(=O)[O-])ccc%10F)c%10ccc7[nH]%10)C=C9)C=C8)cc6)CC5)(C4)C2)C3)cc1
REMARK SMILES IDX 23 1 22 2 21 3 19 4 20 5 18 7 13 8 14 9 15 10 16 11 92 12
REMARK SMILES IDX 17 13 91 14 12 15 6 16 7 17 94 18 95 19 8 20 10 21 9 22
REMARK SMILES IDX 93 23 11 24 5 25 1 26 2 27 3 28 97 29 4 30 96 31 24 32 25 33
REMARK SMILES IDX 26 34 27 36 28 37 29 38 90 39 30 40 89 41 31 42 32 43 33 44
REMARK SMILES IDX 83 45 34 46 88 47 82 48 84 49 35 50 87 51 81 52 80 53 36 55
REMARK SMILES IDX 68 56 48 57 67 58 49 59 52 60 66 61 85 62 50 63 51 64 65 66
REMARK SMILES IDX 86 67 53 68 37 69 38 70 46 71 39 72 45 73 47 74 44 75 40 76
REMARK SMILES IDX 41 77 42 78 43 79 69 80 70 81 78 82 71 83 77 84 79 85 76 86
REMARK SMILES IDX 72 87 73 88 74 89 75 90 54 91 55 92 63 93 56 94 62 95 64 96
REMARK SMILES IDX 61 97 57 98 58 99 59 100 60 101
REMARK H PARENT 21 6 25 35 84 54 52 65
REMARK Flexibility Score: inf
ROOT
ATOM      1  C   UNL A   1      38.775  21.534  25.874  1.00  0.00     0.042 C 
ENDROOT
BRANCH   1   2
ATOM      2  C   UNL A   1      37.805  21.756  24.723  1.00  0.00     0.117 C 
BRANCH   2   3
ATOM      3  N   UNL A   1      36.782  20.716  24.634  1.00  0.00    -0.356 N 
ATOM      4  C   UNL A   1      35.546  20.623  25.202  1.00  0.00     0.223 C 
ATOM      5  O   UNL A   1      34.860  19.616  25.008  1.00  0.00    -0.275 OA
ATOM      6  H   UNL A   1      37.028  19.952  24.066  1.00  0.00     0.163 HD
BRANCH   4   7
ATOM      7  C   UNL A   1      35.015  21.723  26.113  1.00  0.00     0.082 C 
ATOM      8  C   UNL A   1      31.716  23.808  25.179  1.00  0.00     0.228 C 
ATOM      9  O   UNL A   1      30.738  23.055  25.153  1.00  0.00    -0.274 OA
ATOM     10  N   UNL A   1      32.800  23.533  26.015  1.00  0.00    -0.342 N 
ATOM     11  C   UNL A   1      32.685  22.460  26.996  1.00  0.00     0.120 C 
ATOM     12  C   UNL A   1      34.144  24.099  25.975  1.00  0.00     0.120 C 
ATOM     13  C   UNL A   1      33.665  21.319  26.744  1.00  0.00     0.035 C 
ATOM     14  C   UNL A   1      35.092  23.074  25.393  1.00  0.00     0.035 C 
BRANCH   8  15
ATOM     15  C   UNL A   1      31.671  25.125  24.364  1.00  0.00     0.051 C 
ATOM     16  C   UNL A   1      32.071  27.656  24.648  1.00  0.00    -0.003 C 
ATOM     17  C   UNL A   1      32.999  27.553  23.401  1.00  0.00     0.015 C 
ATOM     18  C   UNL A   1      32.059  26.267  25.319  1.00  0.00     0.028 C 
ATOM     19  C   UNL A   1      30.624  27.935  24.168  1.00  0.00     0.015 C 
ATOM     20  C   UNL A   1      32.501  26.485  22.408  1.00  0.00    -0.009 C 
ATOM     21  C   UNL A   1      30.149  26.826  23.207  1.00  0.00    -0.009 C 
ATOM     22  C   UNL A   1      31.065  26.813  21.976  1.00  0.00     0.007 C 
ATOM     23  C   UNL A   1      32.517  25.103  23.077  1.00  0.00     0.020 C 
ATOM     24  C   UNL A   1      30.212  25.449  23.906  1.00  0.00     0.020 C 
BRANCH  16  25
ATOM     25  C   UNL A   1      32.564  28.739  25.627  1.00  0.00    -0.042 A 
ATOM     26  C   UNL A   1      34.055  31.911  28.190  1.00  0.00     0.044 C 
ATOM     27  C   UNL A   1      33.512  30.813  27.329  1.00  0.00    -0.051 A 
ATOM     28  C   UNL A   1      34.305  29.700  27.061  1.00  0.00     0.004 A 
ATOM     29  C   UNL A   1      32.235  30.877  26.766  1.00  0.00     0.004 A 
ATOM     30  C   UNL A   1      33.834  28.680  26.234  1.00  0.00     0.004 A 
ATOM     31  C   UNL A   1      31.765  29.853  25.932  1.00  0.00     0.004 A 
ENDBRANCH  16  25
ENDBRANCH   8  15
ENDBRANCH   4   7
ENDBRANCH   2   3
ENDBRANCH   1   2
BRANCH   1  32
ATOM     32  C   UNL A   1      39.219  22.827  26.544  1.00  0.00     0.118 C 
BRANCH  32  33
ATOM     33  N   UNL A   1      40.647  23.068  26.444  1.00  0.00    -0.352 N 
ATOM     34  C   UNL A   1      41.332  24.278  26.621  1.00  0.00     0.251 C 
ATOM     35  H   UNL A   1      41.203  22.285  26.225  1.00  0.00     0.163 HD
ATOM     36  O   UNL A   1      42.538  24.360  26.522  1.00  0.00    -0.269 OA
BRANCH  34  37
ATOM     37  C   UNL A   1      40.529  25.441  27.048  1.00  0.00     0.039 A 
ATOM     38  C   UNL A   1      40.738  26.643  26.367  1.00  0.00     0.014 A 
ATOM     39  C   UNL A   1      39.839  25.413  28.255  1.00  0.00     0.014 A 
ATOM     40  C   UNL A   1      40.464  27.845  27.014  1.00  0.00     0.010 A 
ATOM     41  C   UNL A   1      39.661  26.603  28.938  1.00  0.00     0.010 A 
ATOM     42  C   UNL A   1      40.034  27.814  28.344  1.00  0.00    -0.014 A 
BRANCH  42  43
ATOM     43  C   UNL A   1      40.120  28.981  29.217  1.00  0.00     0.031 A 
ATOM     44  C   UNL A   1      39.053  29.999  29.248  1.00  0.00     0.074 A 
ATOM     45  C   UNL A   1      41.193  29.162  30.020  1.00  0.00     0.049 A 
ATOM     46  N   UNL A   1      39.264  31.250  29.498  1.00  0.00    -0.248 NA
ATOM     47  C   UNL A   1      37.657  29.687  28.965  1.00  0.00     0.031 C 
ATOM     48  C   UNL A   1      41.350  30.156  31.080  1.00  0.00     0.029 A 
ATOM     49  N   UNL A   1      42.473  28.639  29.843  1.00  0.00    -0.354 N 
ATOM     50  C   UNL A   1      38.041  31.834  29.694  1.00  0.00     0.074 A 
ATOM     51  C   UNL A   1      37.069  30.844  29.282  1.00  0.00     0.031 C 
ATOM     52  C   UNL A   1      42.658  30.384  31.264  1.00  0.00     0.029 A 
ATOM     53  C   UNL A   1      43.381  29.637  30.252  1.00  0.00     0.049 A 
ATOM     54  H   UNL A   1      42.700  27.745  29.497  1.00  0.00     0.167 HD
ATOM     55  C   UNL A   1      37.935  33.039  30.317  1.00  0.00     0.034 A 
ATOM     56  C   UNL A   1      44.308  30.138  29.387  1.00  0.00     0.034 A 
ATOM     57  C   UNL A   1      39.219  33.600  30.718  1.00  0.00     0.049 A 
ATOM     58  C   UNL A   1      44.185  31.627  29.137  1.00  0.00     0.074 A 
ATOM     59  C   UNL A   1      39.892  33.718  31.924  1.00  0.00     0.029 A 
ATOM     60  N   UNL A   1      40.140  33.933  29.739  1.00  0.00    -0.354 N 
ATOM     61  N   UNL A   1      43.285  32.402  29.679  1.00  0.00    -0.248 NA
ATOM     62  C   UNL A   1      45.014  32.340  28.166  1.00  0.00     0.031 C 
ATOM     63  C   UNL A   1      41.231  34.127  31.651  1.00  0.00     0.029 A 
ATOM     64  C   UNL A   1      41.364  34.275  30.283  1.00  0.00     0.049 A 
ATOM     65  H   UNL A   1      39.946  33.928  28.774  1.00  0.00     0.167 HD
ATOM     66  C   UNL A   1      43.343  33.644  29.098  1.00  0.00     0.074 A 
ATOM     67  C   UNL A   1      44.445  33.556  28.157  1.00  0.00     0.031 C 
ATOM     68  C   UNL A   1      42.450  34.638  29.386  1.00  0.00     0.034 A 
BRANCH  55  69
ATOM     69  C   UNL A   1      36.597  33.540  30.779  1.00  0.00     0.023 A 
ATOM     70  C   UNL A   1      35.764  34.249  29.897  1.00  0.00     0.031 A 
ATOM     71  C   UNL A   1      36.130  33.389  32.099  1.00  0.00     0.131 A 
ATOM     72  C   UNL A   1      34.581  34.854  30.354  1.00  0.00     0.055 A 
ATOM     73  C   UNL A   1      34.986  34.042  32.569  1.00  0.00     0.041 A 
ATOM     74  F   UNL A   1      36.781  32.610  32.978  1.00  0.00    -0.206 F 
ATOM     75  C   UNL A   1      34.210  34.794  31.696  1.00  0.00     0.022 A 
BRANCH  72  76
ATOM     76  S   UNL A   1      33.529  35.730  29.165  1.00  0.00     0.124 S 
ATOM     77  O   UNL A   1      33.030  36.851  29.953  1.00  0.00    -0.237 OA
ATOM     78  O   UNL A   1      34.475  36.057  28.104  1.00  0.00    -0.237 OA
ATOM     79  O   UNL A   1      32.520  34.733  28.805  1.00  0.00    -0.744 OA
ENDBRANCH  72  76
ENDBRANCH  55  69
BRANCH  56  80
ATOM     80  C   UNL A   1      44.790  29.122  28.405  1.00  0.00     0.023 A 
ATOM     81  C   UNL A   1      45.687  28.145  28.890  1.00  0.00     0.031 A 
ATOM     82  C   UNL A   1      44.129  28.860  27.199  1.00  0.00     0.131 A 
ATOM     83  C   UNL A   1      45.753  26.885  28.282  1.00  0.00     0.055 A 
ATOM     84  C   UNL A   1      44.276  27.633  26.540  1.00  0.00     0.041 A 
ATOM     85  F   UNL A   1      43.232  29.726  26.706  1.00  0.00    -0.206 F 
ATOM     86  C   UNL A   1      45.051  26.620  27.107  1.00  0.00     0.022 A 
BRANCH  83  87
ATOM     87  S   UNL A   1      46.490  25.518  29.225  1.00  0.00     0.124 S 
ATOM     88  O   UNL A   1      46.537  26.064  30.575  1.00  0.00    -0.237 OA
ATOM     89  O   UNL A   1      45.539  24.429  29.002  1.00  0.00    -0.237 OA
ATOM     90  O   UNL A   1      47.784  25.311  28.577  1.00  0.00    -0.744 OA
ENDBRANCH  83  87
ENDBRANCH  56  80
BRANCH  68  91
ATOM     91  C   UNL A   1      42.509  36.028  28.793  1.00  0.00     0.023 A 
ATOM     92  C   UNL A   1      43.007  37.129  29.509  1.00  0.00     0.031 A 
ATOM     93  C   UNL A   1      42.000  36.311  27.504  1.00  0.00     0.131 A 
ATOM     94  C   UNL A   1      43.089  38.402  28.916  1.00  0.00     0.055 A 
ATOM     95  C   UNL A   1      42.010  37.593  26.947  1.00  0.00     0.041 A 
ATOM     96  F   UNL A   1      41.493  35.352  26.716  1.00  0.00    -0.206 F 
ATOM     97  C   UNL A   1      42.576  38.647  27.645  1.00  0.00     0.022 A 
BRANCH  94  98
ATOM     98  S   UNL A   1      43.948  39.721  29.816  1.00  0.00     0.124 S 
ATOM     99  O   UNL A   1      43.146  40.896  29.498  1.00  0.00    -0.237 OA
ATOM    100  O   UNL A   1      43.859  39.245  31.193  1.00  0.00    -0.237 OA
ATOM    101  O   UNL A   1      45.292  39.710  29.242  1.00  0.00    -0.744 OA
ENDBRANCH  94  98
ENDBRANCH  68  91
ENDBRANCH  42  43
ENDBRANCH  34  37
ENDBRANCH  32  33
ENDBRANCH   1  32
TORSDOF 15
ENDMDL
MODEL 3
REMARK VINA RESULT:     -14.7      4.025     10.828
REMARK SMILES Cc1ccc([C@@]23C[C@@H]4C[C@@H](C[C@@](C(=O)N5CCC(C(=O)NCCCNC(=O)c6ccc(-c7c8nc(c(-c9cc(S(=O)(=O)[O-])ccc9F)c9ccc([nH]9)c(-c9cc(S(=O)(=O)[O-])ccc9F)c9nc(c(-c%10cc(S(=O)(=O)[O-])ccc%10F)c%10ccc7[nH]%10)C=C9)C=C8)cc6)CC5)(C4)C2)C3)cc1
REMARK SMILES IDX 23 1 22 2 21 3 19 4 20 5 18 7 13 8 14 9 15 10 16 11 92 12
REMARK SMILES IDX 17 13 91 14 12 15 6 16 7 17 94 18 95 19 8 20 10 21 9 22
REMARK SMILES IDX 93 23 11 24 5 25 1 26 2 27 3 28 97 29 4 30 96 31 24 32 25 33
REMARK SMILES IDX 26 34 27 36 28 37 29 38 90 39 30 40 89 41 31 42 32 43 33 44
REMARK SMILES IDX 83 45 34 46 88 47 82 48 84 49 35 50 87 51 81 52 80 53 36 55
REMARK SMILES IDX 68 56 48 57 67 58 49 59 52 60 66 61 85 62 50 63 51 64 65 66
REMARK SMILES IDX 86 67 53 68 37 69 38 70 46 71 39 72 45 73 47 74 44 75 40 76
REMARK SMILES IDX 41 77 42 78 43 79 69 80 70 81 78 82 71 83 77 84 79 85 76 86
REMARK SMILES IDX 72 87 73 88 74 89 75 90 54 91 55 92 63 93 56 94 62 95 64 96
REMARK SMILES IDX 61 97 57 98 58 99 59 100 60 101
REMARK H PARENT 21 6 25 35 84 54 52 65
REMARK Flexibility Score: inf
ROOT
ATOM      1  C   UNL A   1      39.190  21.382  26.356  1.00  0.00     0.042 C 
ENDROOT
BRANCH   1   2
ATOM      2  C   UNL A   1      38.089  20.830  25.464  1.00  0.00     0.117 C 
BRANCH   2   3
ATOM      3  N   UNL A   1      37.823  21.674  24.301  1.00  0.00    -0.356 N 
ATOM      4  C   UNL A   1      36.720  22.392  23.945  1.00  0.00     0.223 C 
ATOM      5  O   UNL A   1      36.714  23.013  22.879  1.00  0.00    -0.275 OA
ATOM      6  H   UNL A   1      38.571  21.736  23.664  1.00  0.00     0.163 HD
BRANCH   4   7
ATOM      7  C   UNL A   1      35.473  22.401  24.821  1.00  0.00     0.082 C 
ATOM      8  C   UNL A   1      32.610  25.175  24.365  1.00  0.00     0.228 C 
ATOM      9  O   UNL A   1      32.093  25.063  23.250  1.00  0.00    -0.274 OA
ATOM     10  N   UNL A   1      33.149  24.061  25.010  1.00  0.00    -0.342 N 
ATOM     11  C   UNL A   1      32.924  22.736  24.446  1.00  0.00     0.120 C 
ATOM     12  C   UNL A   1      34.055  24.024  26.154  1.00  0.00     0.120 C 
ATOM     13  C   UNL A   1      34.213  22.055  23.999  1.00  0.00     0.035 C 
ATOM     14  C   UNL A   1      35.445  23.678  25.669  1.00  0.00     0.035 C 
BRANCH   8  15
ATOM     15  C   UNL A   1      32.544  26.544  25.089  1.00  0.00     0.051 C 
ATOM     16  C   UNL A   1      31.546  28.903  24.796  1.00  0.00    -0.003 C 
ATOM     17  C   UNL A   1      30.959  28.729  26.229  1.00  0.00     0.015 C 
ATOM     18  C   UNL A   1      31.715  27.489  24.203  1.00  0.00     0.028 C 
ATOM     19  C   UNL A   1      32.966  29.514  24.912  1.00  0.00     0.015 C 
ATOM     20  C   UNL A   1      31.885  27.882  27.124  1.00  0.00    -0.009 C 
ATOM     21  C   UNL A   1      33.871  28.618  25.783  1.00  0.00    -0.009 C 
ATOM     22  C   UNL A   1      33.272  28.533  27.193  1.00  0.00     0.007 C 
ATOM     23  C   UNL A   1      32.025  26.469  26.538  1.00  0.00     0.020 C 
ATOM     24  C   UNL A   1      33.960  27.199  25.179  1.00  0.00     0.020 C 
BRANCH  16  25
ATOM     25  C   UNL A   1      30.626  29.767  23.913  1.00  0.00    -0.042 A 
ATOM     26  C   UNL A   1      27.842  32.053  21.488  1.00  0.00     0.044 C 
ATOM     27  C   UNL A   1      28.821  31.296  22.330  1.00  0.00    -0.051 A 
ATOM     28  C   UNL A   1      29.502  30.213  21.779  1.00  0.00     0.004 A 
ATOM     29  C   UNL A   1      29.061  31.629  23.666  1.00  0.00     0.004 A 
ATOM     30  C   UNL A   1      30.394  29.471  22.556  1.00  0.00     0.004 A 
ATOM     31  C   UNL A   1      29.954  30.880  24.444  1.00  0.00     0.004 A 
ENDBRANCH  16  25
ENDBRANCH   8  15
ENDBRANCH   4   7
ENDBRANCH   2   3
ENDBRANCH   1   2
BRANCH   1  32
ATOM     32  C   UNL A   1      39.514  22.843  26.076  1.00  0.00     0.118 C 
BRANCH  32  33
ATOM     33  N   UNL A   1      40.939  23.126  26.064  1.00  0.00    -0.352 N 
ATOM     34  C   UNL A   1      41.579  24.337  26.362  1.00  0.00     0.251 C 
ATOM     35  H   UNL A   1      41.526  22.376  25.816  1.00  0.00     0.163 HD
ATOM     36  O   UNL A   1      42.786  24.456  26.329  1.00  0.00    -0.269 OA
BRANCH  34  37
ATOM     37  C   UNL A   1      40.725  25.445  26.833  1.00  0.00     0.039 A 
ATOM     38  C   UNL A   1      40.848  26.669  26.171  1.00  0.00     0.014 A 
ATOM     39  C   UNL A   1      40.069  25.354  28.056  1.00  0.00     0.014 A 
ATOM     40  C   UNL A   1      40.525  27.842  26.850  1.00  0.00     0.010 A 
ATOM     41  C   UNL A   1      39.843  26.519  28.768  1.00  0.00     0.010 A 
ATOM     42  C   UNL A   1      40.133  27.761  28.189  1.00  0.00    -0.014 A 
BRANCH  42  43
ATOM     43  C   UNL A   1      40.177  28.914  29.084  1.00  0.00     0.031 A 
ATOM     44  C   UNL A   1      39.094  29.916  29.100  1.00  0.00     0.074 A 
ATOM     45  C   UNL A   1      41.224  29.096  29.920  1.00  0.00     0.049 A 
ATOM     46  N   UNL A   1      39.279  31.165  29.378  1.00  0.00    -0.248 NA
ATOM     47  C   UNL A   1      37.711  29.589  28.773  1.00  0.00     0.031 C 
ATOM     48  C   UNL A   1      41.336  30.075  31.000  1.00  0.00     0.029 A 
ATOM     49  N   UNL A   1      42.516  28.595  29.771  1.00  0.00    -0.354 N 
ATOM     50  C   UNL A   1      38.042  31.728  29.548  1.00  0.00     0.074 A 
ATOM     51  C   UNL A   1      37.097  30.732  29.092  1.00  0.00     0.031 C 
ATOM     52  C   UNL A   1      42.635  30.318  31.225  1.00  0.00     0.029 A 
ATOM     53  C   UNL A   1      43.396  29.598  30.222  1.00  0.00     0.049 A 
ATOM     54  H   UNL A   1      42.765  27.710  29.417  1.00  0.00     0.167 HD
ATOM     55  C   UNL A   1      37.902  32.922  30.188  1.00  0.00     0.034 A 
ATOM     56  C   UNL A   1      44.340  30.128  29.392  1.00  0.00     0.034 A 
ATOM     57  C   UNL A   1      39.165  33.494  30.635  1.00  0.00     0.049 A 
ATOM     58  C   UNL A   1      44.203  31.619  29.164  1.00  0.00     0.074 A 
ATOM     59  C   UNL A   1      39.802  33.601  31.860  1.00  0.00     0.029 A 
ATOM     60  N   UNL A   1      40.109  33.857  29.688  1.00  0.00    -0.354 N 
ATOM     61  N   UNL A   1      43.276  32.372  29.692  1.00  0.00    -0.248 NA
ATOM     62  C   UNL A   1      45.048  32.360  28.229  1.00  0.00     0.031 C 
ATOM     63  C   UNL A   1      41.142  34.034  31.633  1.00  0.00     0.029 A 
ATOM     64  C   UNL A   1      41.311  34.207  30.272  1.00  0.00     0.049 A 
ATOM     65  H   UNL A   1      39.942  33.865  28.718  1.00  0.00     0.167 HD
ATOM     66  C   UNL A   1      43.332  33.624  29.134  1.00  0.00     0.074 A 
ATOM     67  C   UNL A   1      44.462  33.567  28.224  1.00  0.00     0.031 C 
ATOM     68  C   UNL A   1      42.417  34.600  29.413  1.00  0.00     0.034 A 
BRANCH  55  69
ATOM     69  C   UNL A   1      36.543  33.395  30.619  1.00  0.00     0.023 A 
ATOM     70  C   UNL A   1      35.704  34.060  29.709  1.00  0.00     0.031 A 
ATOM     71  C   UNL A   1      36.061  33.262  31.936  1.00  0.00     0.131 A 
ATOM     72  C   UNL A   1      34.498  34.642  30.136  1.00  0.00     0.055 A 
ATOM     73  C   UNL A   1      34.893  33.893  32.374  1.00  0.00     0.041 A 
ATOM     74  F   UNL A   1      36.721  32.521  32.841  1.00  0.00    -0.206 F 
ATOM     75  C   UNL A   1      34.110  34.603  31.474  1.00  0.00     0.022 A 
BRANCH  72  76
ATOM     76  S   UNL A   1      33.440  35.462  28.912  1.00  0.00     0.124 S 
ATOM     77  O   UNL A   1      34.412  36.128  28.052  1.00  0.00    -0.237 OA
ATOM     78  O   UNL A   1      32.724  34.335  28.324  1.00  0.00    -0.237 OA
ATOM     79  O   UNL A   1      32.618  36.360  29.723  1.00  0.00    -0.744 OA
ENDBRANCH  72  76
ENDBRANCH  55  69
BRANCH  56  80
ATOM     80  C   UNL A   1      44.865  29.135  28.409  1.00  0.00     0.023 A 
ATOM     81  C   UNL A   1      45.785  28.182  28.896  1.00  0.00     0.031 A 
ATOM     82  C   UNL A   1      44.227  28.865  27.192  1.00  0.00     0.131 A 
ATOM     83  C   UNL A   1      45.896  26.929  28.278  1.00  0.00     0.055 A 
ATOM     84  C   UNL A   1      44.420  27.649  26.524  1.00  0.00     0.041 A 
ATOM     85  F   UNL A   1      43.311  29.708  26.694  1.00  0.00    -0.206 F 
ATOM     86  C   UNL A   1      45.217  26.654  27.092  1.00  0.00     0.022 A 
BRANCH  83  87
ATOM     87  S   UNL A   1      46.662  25.576  29.219  1.00  0.00     0.124 S 
ATOM     88  O   UNL A   1      45.944  25.636  30.486  1.00  0.00    -0.237 OA
ATOM     89  O   UNL A   1      46.390  24.411  28.378  1.00  0.00    -0.237 OA
ATOM     90  O   UNL A   1      48.074  25.949  29.270  1.00  0.00    -0.744 OA
ENDBRANCH  83  87
ENDBRANCH  56  80
BRANCH  68  91
ATOM     91  C   UNL A   1      42.472  36.001  28.845  1.00  0.00     0.023 A 
ATOM     92  C   UNL A   1      42.986  37.086  29.573  1.00  0.00     0.031 A 
ATOM     93  C   UNL A   1      41.945  36.309  27.570  1.00  0.00     0.131 A 
ATOM     94  C   UNL A   1      43.064  38.370  29.003  1.00  0.00     0.055 A 
ATOM     95  C   UNL A   1      41.951  37.601  27.036  1.00  0.00     0.041 A 
ATOM     96  F   UNL A   1      41.421  35.367  26.772  1.00  0.00    -0.206 F 
ATOM     97  C   UNL A   1      42.532  38.640  27.745  1.00  0.00     0.022 A 
BRANCH  94  98
ATOM     98  S   UNL A   1      43.942  39.668  29.913  1.00  0.00     0.124 S 
ATOM     99  O   UNL A   1      45.264  39.647  29.298  1.00  0.00    -0.237 OA
ATOM    100  O   UNL A   1      43.124  40.841  29.618  1.00  0.00    -0.237 OA
ATOM    101  O   UNL A   1      43.893  39.211  31.299  1.00  0.00    -0.744 OA
ENDBRANCH  94  98
ENDBRANCH  68  91
ENDBRANCH  42  43
ENDBRANCH  34  37
ENDBRANCH  32  33
ENDBRANCH   1  32
TORSDOF 15
ENDMDL
