MODEL 1
REMARK VINA RESULT:     -11.3      0.000      0.000
REMARK SMILES O=C(NCCCNC(=O)[C@@H](CCO)NC(=O)c1nc(C2CC2)n[nH]1)c1ccc(-c2c3nc(c(-c4cc(S(=O)(=O)[O-])ccc4F)c4ccc([nH]4)c(-c4cc(S(=O)(=O)[O-])ccc4F)c4nc(c(-c5cc(S(=O)(=O)[O-])ccc5F)c5ccc2[nH]5)C=C4)C=C3)cc1
REMARK SMILES IDX 5 1 4 2 3 3 1 4 2 5 25 7 26 8 87 9 27 10 86 11 28 12 29 13
REMARK SMILES IDX 30 14 80 15 31 16 85 17 79 18 81 19 32 20 84 21 78 22 77 23
REMARK SMILES IDX 33 25 65 26 45 27 64 28 46 29 49 30 63 31 82 32 47 33 48 34
REMARK SMILES IDX 62 36 83 37 50 38 34 39 35 40 43 41 36 42 42 43 44 44 41 45
REMARK SMILES IDX 37 46 38 47 39 48 40 49 66 50 67 51 75 52 68 53 74 54 76 55
REMARK SMILES IDX 73 56 69 57 70 58 71 59 72 60 51 61 52 62 60 63 53 64 59 65
REMARK SMILES IDX 61 66 58 67 54 68 55 69 56 70 57 71 6 72 7 73 8 74 9 76
REMARK SMILES IDX 10 77 11 78 12 79 13 80 14 82 15 83 16 85 17 86 18 87 24 88
REMARK SMILES IDX 19 89 23 90 20 92 21 93 22 94
REMARK H PARENT 3 6 81 24 49 35 7 75 13 81 14 84 24 91
REMARK Flexibility Score: inf
ROOT
ATOM      1  C   UNL A   1      38.105  19.878  24.981  1.00  0.00     0.042 C 
ENDROOT
BRANCH   1   2
ATOM      2  C   UNL A   1      39.269  20.302  25.865  1.00  0.00     0.118 C 
BRANCH   2   3
ATOM      3  N   UNL A   1      40.281  19.264  25.970  1.00  0.00    -0.352 N 
ATOM      4  O   UNL A   1      42.346  18.385  25.925  1.00  0.00    -0.269 OA
ATOM      5  C   UNL A   1      41.645  19.381  26.092  1.00  0.00     0.251 C 
ATOM      6  H   UNL A   1      39.938  18.341  25.950  1.00  0.00     0.163 HD
BRANCH   5   7
ATOM      7  C   UNL A   1      42.271  20.685  26.417  1.00  0.00     0.039 A 
ATOM      8  C   UNL A   1      42.788  21.508  25.414  1.00  0.00     0.014 A 
ATOM      9  C   UNL A   1      42.273  21.131  27.744  1.00  0.00     0.014 A 
ATOM     10  C   UNL A   1      43.410  22.707  25.742  1.00  0.00     0.010 A 
ATOM     11  C   UNL A   1      42.803  22.387  28.061  1.00  0.00     0.010 A 
ATOM     12  C   UNL A   1      43.377  23.186  27.061  1.00  0.00    -0.014 A 
BRANCH  12  13
ATOM     13  C   UNL A   1      43.810  24.581  27.329  1.00  0.00     0.031 A 
ATOM     14  C   UNL A   1      42.854  25.621  27.838  1.00  0.00     0.074 A 
ATOM     15  C   UNL A   1      45.105  24.892  27.106  1.00  0.00     0.049 A 
ATOM     16  N   UNL A   1      43.080  26.881  28.105  1.00  0.00    -0.248 NA
ATOM     17  C   UNL A   1      41.464  25.198  28.069  1.00  0.00     0.031 C 
ATOM     18  C   UNL A   1      46.116  23.959  26.594  1.00  0.00     0.029 A 
ATOM     19  N   UNL A   1      45.802  26.059  27.288  1.00  0.00    -0.354 N 
ATOM     20  C   UNL A   1      41.862  27.412  28.515  1.00  0.00     0.074 A 
ATOM     21  C   UNL A   1      40.894  26.336  28.447  1.00  0.00     0.031 C 
ATOM     22  C   UNL A   1      47.305  24.575  26.545  1.00  0.00     0.029 A 
ATOM     23  C   UNL A   1      47.131  25.966  26.939  1.00  0.00     0.049 A 
ATOM     24  H   UNL A   1      45.392  26.884  27.633  1.00  0.00     0.167 HD
ATOM     25  C   UNL A   1      41.585  28.681  28.906  1.00  0.00     0.034 A 
ATOM     26  C   UNL A   1      48.098  26.903  26.903  1.00  0.00     0.034 A 
ATOM     27  C   UNL A   1      42.570  29.734  28.978  1.00  0.00     0.049 A 
ATOM     28  C   UNL A   1      47.748  28.306  27.315  1.00  0.00     0.074 A 
ATOM     29  C   UNL A   1      42.409  31.034  29.426  1.00  0.00     0.029 A 
ATOM     30  N   UNL A   1      43.895  29.616  28.579  1.00  0.00    -0.354 N 
ATOM     31  N   UNL A   1      46.598  28.775  27.740  1.00  0.00    -0.248 NA
ATOM     32  C   UNL A   1      48.821  29.303  27.241  1.00  0.00     0.031 C 
ATOM     33  C   UNL A   1      43.614  31.718  29.233  1.00  0.00     0.029 A 
ATOM     34  C   UNL A   1      44.550  30.830  28.729  1.00  0.00     0.049 A 
ATOM     35  H   UNL A   1      44.311  28.791  28.239  1.00  0.00     0.167 HD
ATOM     36  C   UNL A   1      46.814  30.126  27.988  1.00  0.00     0.074 A 
ATOM     37  C   UNL A   1      48.210  30.383  27.701  1.00  0.00     0.031 C 
ATOM     38  C   UNL A   1      45.937  31.072  28.410  1.00  0.00     0.034 A 
BRANCH  25  39
ATOM     39  C   UNL A   1      40.154  29.021  29.243  1.00  0.00     0.023 A 
ATOM     40  C   UNL A   1      39.689  29.071  30.567  1.00  0.00     0.031 A 
ATOM     41  C   UNL A   1      39.249  29.335  28.212  1.00  0.00     0.131 A 
ATOM     42  C   UNL A   1      38.346  29.392  30.825  1.00  0.00     0.055 A 
ATOM     43  C   UNL A   1      37.931  29.709  28.478  1.00  0.00     0.041 A 
ATOM     44  F   UNL A   1      39.634  29.286  26.927  1.00  0.00    -0.206 F 
ATOM     45  C   UNL A   1      37.470  29.732  29.791  1.00  0.00     0.022 A 
BRANCH  42  46
ATOM     46  S   UNL A   1      37.733  29.278  32.528  1.00  0.00     0.124 S 
ATOM     47  O   UNL A   1      36.383  29.820  32.395  1.00  0.00    -0.237 OA
ATOM     48  O   UNL A   1      37.824  27.849  32.803  1.00  0.00    -0.237 OA
ATOM     49  O   UNL A   1      38.661  30.118  33.284  1.00  0.00    -0.744 OA
ENDBRANCH  42  46
ENDBRANCH  25  39
BRANCH  26  50
ATOM     50  C   UNL A   1      49.461  26.564  26.402  1.00  0.00     0.023 A 
ATOM     51  C   UNL A   1      49.923  27.048  25.169  1.00  0.00     0.031 A 
ATOM     52  C   UNL A   1      50.306  25.708  27.133  1.00  0.00     0.131 A 
ATOM     53  C   UNL A   1      51.174  26.637  24.682  1.00  0.00     0.055 A 
ATOM     54  C   UNL A   1      51.574  25.351  26.673  1.00  0.00     0.041 A 
ATOM     55  F   UNL A   1      49.914  25.216  28.319  1.00  0.00    -0.206 F 
ATOM     56  C   UNL A   1      52.007  25.803  25.432  1.00  0.00     0.022 A 
BRANCH  53  57
ATOM     57  S   UNL A   1      51.652  27.120  23.001  1.00  0.00     0.124 S 
ATOM     58  O   UNL A   1      50.395  26.964  22.277  1.00  0.00    -0.237 OA
ATOM     59  O   UNL A   1      52.111  28.491  23.201  1.00  0.00    -0.237 OA
ATOM     60  O   UNL A   1      52.696  26.158  22.654  1.00  0.00    -0.744 OA
ENDBRANCH  53  57
ENDBRANCH  26  50
BRANCH  38  61
ATOM     61  C   UNL A   1      46.487  32.462  28.593  1.00  0.00     0.023 A 
ATOM     62  C   UNL A   1      46.512  33.383  27.531  1.00  0.00     0.031 A 
ATOM     63  C   UNL A   1      47.031  32.855  29.827  1.00  0.00     0.131 A 
ATOM     64  C   UNL A   1      47.123  34.632  27.707  1.00  0.00     0.055 A 
ATOM     65  C   UNL A   1      47.584  34.122  30.013  1.00  0.00     0.041 A 
ATOM     66  F   UNL A   1      47.036  32.011  30.872  1.00  0.00    -0.206 F 
ATOM     67  C   UNL A   1      47.645  35.014  28.945  1.00  0.00     0.022 A 
BRANCH  64  68
ATOM     68  S   UNL A   1      47.310  35.718  26.266  1.00  0.00     0.124 S 
ATOM     69  O   UNL A   1      46.297  36.735  26.521  1.00  0.00    -0.237 OA
ATOM     70  O   UNL A   1      48.697  36.157  26.383  1.00  0.00    -0.237 OA
ATOM     71  O   UNL A   1      47.034  34.836  25.134  1.00  0.00    -0.744 OA
ENDBRANCH  64  68
ENDBRANCH  38  61
ENDBRANCH  12  13
ENDBRANCH   5   7
ENDBRANCH   2   3
ENDBRANCH   1   2
BRANCH   1  72
ATOM     72  C   UNL A   1      36.863  20.744  25.160  1.00  0.00     0.117 C 
BRANCH  72  73
ATOM     73  N   UNL A   1      36.834  21.817  24.183  1.00  0.00    -0.354 N 
ATOM     74  C   UNL A   1      35.857  22.659  23.764  1.00  0.00     0.242 C 
ATOM     75  H   UNL A   1      37.698  21.963  23.733  1.00  0.00     0.163 HD
ATOM     76  O   UNL A   1      36.071  23.228  22.686  1.00  0.00    -0.273 OA
BRANCH  74  77
ATOM     77  C   UNL A   1      34.510  22.883  24.488  1.00  0.00     0.174 C 
BRANCH  77  78
ATOM     78  C   UNL A   1      34.457  24.086  25.436  1.00  0.00     0.063 C 
BRANCH  78  79
ATOM     79  C   UNL A   1      33.187  24.283  26.245  1.00  0.00     0.158 C 
BRANCH  79  80
ATOM     80  O   UNL A   1      32.612  23.046  26.635  1.00  0.00    -0.396 OA
ATOM     81  H   UNL A   1      31.736  22.954  26.228  1.00  0.00     0.210 HD
ENDBRANCH  79  80
ENDBRANCH  78  79
ENDBRANCH  77  78
BRANCH  77  82
ATOM     82  N   UNL A   1      33.320  22.745  23.645  1.00  0.00    -0.337 N 
ATOM     83  C   UNL A   1      32.636  21.591  23.341  1.00  0.00     0.289 C 
ATOM     84  H   UNL A   1      32.968  23.576  23.251  1.00  0.00     0.164 HD
ATOM     85  O   UNL A   1      31.884  21.586  22.369  1.00  0.00    -0.266 OA
BRANCH  83  86
ATOM     86  C   UNL A   1      32.842  20.425  24.163  1.00  0.00     0.214 A 
ATOM     87  N   UNL A   1      33.626  19.399  23.897  1.00  0.00    -0.207 NA
ATOM     88  N   UNL A   1      32.250  20.221  25.373  1.00  0.00    -0.255 N 
ATOM     89  C   UNL A   1      33.374  18.533  24.928  1.00  0.00     0.154 A 
ATOM     90  N   UNL A   1      32.525  18.995  25.853  1.00  0.00    -0.158 NA
ATOM     91  H   UNL A   1      31.691  20.886  25.836  1.00  0.00     0.192 HD
BRANCH  89  92
ATOM     92  C   UNL A   1      33.982  17.143  24.996  1.00  0.00     0.060 C 
ATOM     93  C   UNL A   1      33.084  15.950  24.720  1.00  0.00     0.012 C 
ATOM     94  C   UNL A   1      34.116  16.341  23.719  1.00  0.00     0.012 C 
ENDBRANCH  89  92
ENDBRANCH  83  86
ENDBRANCH  77  82
ENDBRANCH  74  77
ENDBRANCH  72  73
ENDBRANCH   1  72
TORSDOF 19
ENDMDL
MODEL 2
REMARK VINA RESULT:     -11.3      6.822     12.233
REMARK SMILES O=C(NCCCNC(=O)[C@@H](CCO)NC(=O)c1nc(C2CC2)n[nH]1)c1ccc(-c2c3nc(c(-c4cc(S(=O)(=O)[O-])ccc4F)c4ccc([nH]4)c(-c4cc(S(=O)(=O)[O-])ccc4F)c4nc(c(-c5cc(S(=O)(=O)[O-])ccc5F)c5ccc2[nH]5)C=C4)C=C3)cc1
REMARK SMILES IDX 5 1 4 2 3 3 1 4 2 5 25 7 26 8 87 9 27 10 86 11 28 12 29 13
REMARK SMILES IDX 30 14 80 15 31 16 85 17 79 18 81 19 32 20 84 21 78 22 77 23
REMARK SMILES IDX 33 25 65 26 45 27 64 28 46 29 49 30 63 31 82 32 47 33 48 34
REMARK SMILES IDX 62 36 83 37 50 38 34 39 35 40 43 41 36 42 42 43 44 44 41 45
REMARK SMILES IDX 37 46 38 47 39 48 40 49 66 50 67 51 75 52 68 53 74 54 76 55
REMARK SMILES IDX 73 56 69 57 70 58 71 59 72 60 51 61 52 62 60 63 53 64 59 65
REMARK SMILES IDX 61 66 58 67 54 68 55 69 56 70 57 71 6 72 7 73 8 74 9 76
REMARK SMILES IDX 10 77 11 78 12 79 13 80 14 82 15 83 16 85 17 86 18 87 24 88
REMARK SMILES IDX 19 89 23 90 20 92 21 93 22 94
REMARK H PARENT 3 6 81 24 49 35 7 75 13 81 14 84 24 91
REMARK Flexibility Score: inf
ROOT
ATOM      1  C   UNL A   1      31.426  31.933  26.884  1.00  0.00     0.042 C 
ENDROOT
BRANCH   1   2
ATOM      2  C   UNL A   1      32.726  32.620  27.275  1.00  0.00     0.118 C 
BRANCH   2   3
ATOM      3  N   UNL A   1      32.524  34.016  27.621  1.00  0.00    -0.352 N 
ATOM      4  O   UNL A   1      32.615  35.856  28.904  1.00  0.00    -0.269 OA
ATOM      5  C   UNL A   1      33.095  34.760  28.627  1.00  0.00     0.251 C 
ATOM      6  H   UNL A   1      31.884  34.501  27.052  1.00  0.00     0.163 HD
BRANCH   5   7
ATOM      7  C   UNL A   1      34.271  34.253  29.375  1.00  0.00     0.039 A 
ATOM      8  C   UNL A   1      34.118  33.563  30.580  1.00  0.00     0.014 A 
ATOM      9  C   UNL A   1      35.549  34.402  28.823  1.00  0.00     0.014 A 
ATOM     10  C   UNL A   1      35.234  33.133  31.288  1.00  0.00     0.010 A 
ATOM     11  C   UNL A   1      36.664  33.875  29.484  1.00  0.00     0.010 A 
ATOM     12  C   UNL A   1      36.515  33.236  30.724  1.00  0.00    -0.014 A 
BRANCH  12  13
ATOM     13  C   UNL A   1      37.648  32.533  31.381  1.00  0.00     0.031 A 
ATOM     14  C   UNL A   1      38.369  31.400  30.710  1.00  0.00     0.074 A 
ATOM     15  C   UNL A   1      38.019  32.949  32.610  1.00  0.00     0.049 A 
ATOM     16  N   UNL A   1      39.364  30.681  31.161  1.00  0.00    -0.248 NA
ATOM     17  C   UNL A   1      37.913  31.016  29.366  1.00  0.00     0.031 C 
ATOM     18  C   UNL A   1      37.371  34.032  33.360  1.00  0.00     0.029 A 
ATOM     19  N   UNL A   1      39.026  32.534  33.443  1.00  0.00    -0.354 N 
ATOM     20  C   UNL A   1      39.643  29.745  30.172  1.00  0.00     0.074 A 
ATOM     21  C   UNL A   1      38.699  29.980  29.098  1.00  0.00     0.031 C 
ATOM     22  C   UNL A   1      38.023  34.223  34.515  1.00  0.00     0.029 A 
ATOM     23  C   UNL A   1      39.078  33.227  34.631  1.00  0.00     0.049 A 
ATOM     24  H   UNL A   1      39.652  31.811  33.213  1.00  0.00     0.167 HD
ATOM     25  C   UNL A   1      40.597  28.781  30.168  1.00  0.00     0.034 A 
ATOM     26  C   UNL A   1      39.861  33.058  35.714  1.00  0.00     0.034 A 
ATOM     27  C   UNL A   1      41.535  28.575  31.245  1.00  0.00     0.049 A 
ATOM     28  C   UNL A   1      40.889  31.961  35.687  1.00  0.00     0.074 A 
ATOM     29  C   UNL A   1      42.583  27.672  31.312  1.00  0.00     0.029 A 
ATOM     30  N   UNL A   1      41.532  29.266  32.450  1.00  0.00    -0.354 N 
ATOM     31  N   UNL A   1      41.162  31.114  34.721  1.00  0.00    -0.248 NA
ATOM     32  C   UNL A   1      41.707  31.793  36.892  1.00  0.00     0.031 C 
ATOM     33  C   UNL A   1      43.168  27.770  32.580  1.00  0.00     0.029 A 
ATOM     34  C   UNL A   1      42.532  28.780  33.281  1.00  0.00     0.049 A 
ATOM     35  H   UNL A   1      40.912  29.995  32.681  1.00  0.00     0.167 HD
ATOM     36  C   UNL A   1      42.192  30.316  35.204  1.00  0.00     0.074 A 
ATOM     37  C   UNL A   1      42.512  30.806  36.530  1.00  0.00     0.031 C 
ATOM     38  C   UNL A   1      42.815  29.266  34.611  1.00  0.00     0.034 A 
BRANCH  25  39
ATOM     39  C   UNL A   1      40.650  27.842  28.988  1.00  0.00     0.023 A 
ATOM     40  C   UNL A   1      41.569  28.010  27.940  1.00  0.00     0.031 A 
ATOM     41  C   UNL A   1      39.781  26.737  28.934  1.00  0.00     0.131 A 
ATOM     42  C   UNL A   1      41.575  27.107  26.863  1.00  0.00     0.055 A 
ATOM     43  C   UNL A   1      39.830  25.811  27.891  1.00  0.00     0.041 A 
ATOM     44  F   UNL A   1      38.869  26.538  29.900  1.00  0.00    -0.206 F 
ATOM     45  C   UNL A   1      40.727  25.997  26.843  1.00  0.00     0.022 A 
BRANCH  42  46
ATOM     46  S   UNL A   1      42.652  27.448  25.444  1.00  0.00     0.124 S 
ATOM     47  O   UNL A   1      43.934  27.703  26.098  1.00  0.00    -0.237 OA
ATOM     48  O   UNL A   1      42.562  26.214  24.674  1.00  0.00    -0.237 OA
ATOM     49  O   UNL A   1      42.037  28.619  24.820  1.00  0.00    -0.744 OA
ENDBRANCH  42  46
ENDBRANCH  25  39
BRANCH  26  50
ATOM     50  C   UNL A   1      39.664  33.900  36.929  1.00  0.00     0.023 A 
ATOM     51  C   UNL A   1      39.039  33.386  38.075  1.00  0.00     0.031 A 
ATOM     52  C   UNL A   1      40.060  35.250  36.943  1.00  0.00     0.131 A 
ATOM     53  C   UNL A   1      38.784  34.228  39.169  1.00  0.00     0.055 A 
ATOM     54  C   UNL A   1      39.859  36.068  38.056  1.00  0.00     0.041 A 
ATOM     55  F   UNL A   1      40.663  35.793  35.874  1.00  0.00    -0.206 F 
ATOM     56  C   UNL A   1      39.203  35.561  39.172  1.00  0.00     0.022 A 
BRANCH  53  57
ATOM     57  S   UNL A   1      37.798  33.586  40.548  1.00  0.00     0.124 S 
ATOM     58  O   UNL A   1      37.547  34.794  41.324  1.00  0.00    -0.237 OA
ATOM     59  O   UNL A   1      36.646  33.018  39.854  1.00  0.00    -0.237 OA
ATOM     60  O   UNL A   1      38.687  32.612  41.178  1.00  0.00    -0.744 OA
ENDBRANCH  53  57
ENDBRANCH  26  50
BRANCH  38  61
ATOM     61  C   UNL A   1      43.911  28.603  35.403  1.00  0.00     0.023 A 
ATOM     62  C   UNL A   1      45.253  28.998  35.266  1.00  0.00     0.031 A 
ATOM     63  C   UNL A   1      43.617  27.538  36.271  1.00  0.00     0.131 A 
ATOM     64  C   UNL A   1      46.260  28.294  35.941  1.00  0.00     0.055 A 
ATOM     65  C   UNL A   1      44.617  26.879  36.987  1.00  0.00     0.041 A 
ATOM     66  F   UNL A   1      42.351  27.119  36.434  1.00  0.00    -0.206 F 
ATOM     67  C   UNL A   1      45.949  27.247  36.813  1.00  0.00     0.022 A 
BRANCH  64  68
ATOM     68  S   UNL A   1      47.992  28.704  35.592  1.00  0.00     0.124 S 
ATOM     69  O   UNL A   1      48.467  29.146  36.898  1.00  0.00    -0.237 OA
ATOM     70  O   UNL A   1      48.525  27.431  35.117  1.00  0.00    -0.237 OA
ATOM     71  O   UNL A   1      47.898  29.752  34.578  1.00  0.00    -0.744 OA
ENDBRANCH  64  68
ENDBRANCH  38  61
ENDBRANCH  12  13
ENDBRANCH   5   7
ENDBRANCH   2   3
ENDBRANCH   1   2
BRANCH   1  72
ATOM     72  C   UNL A   1      31.615  30.806  25.876  1.00  0.00     0.117 C 
BRANCH  72  73
ATOM     73  N   UNL A   1      32.486  29.774  26.409  1.00  0.00    -0.354 N 
ATOM     74  C   UNL A   1      32.906  28.578  25.925  1.00  0.00     0.242 C 
ATOM     75  H   UNL A   1      32.843  29.984  27.302  1.00  0.00     0.163 HD
ATOM     76  O   UNL A   1      33.370  27.797  26.766  1.00  0.00    -0.273 OA
BRANCH  74  77
ATOM     77  C   UNL A   1      32.775  28.123  24.455  1.00  0.00     0.174 C 
BRANCH  77  78
ATOM     78  C   UNL A   1      34.091  27.979  23.683  1.00  0.00     0.063 C 
BRANCH  78  79
ATOM     79  C   UNL A   1      34.068  28.286  22.196  1.00  0.00     0.158 C 
BRANCH  79  80
ATOM     80  O   UNL A   1      33.390  27.281  21.460  1.00  0.00    -0.396 OA
ATOM     81  H   UNL A   1      32.941  26.677  22.073  1.00  0.00     0.210 HD
ENDBRANCH  79  80
ENDBRANCH  78  79
ENDBRANCH  77  78
BRANCH  77  82
ATOM     82  N   UNL A   1      31.835  27.022  24.225  1.00  0.00    -0.337 N 
ATOM     83  C   UNL A   1      30.539  27.106  23.772  1.00  0.00     0.289 C 
ATOM     84  H   UNL A   1      32.171  26.117  24.417  1.00  0.00     0.164 HD
ATOM     85  O   UNL A   1      29.784  26.154  23.956  1.00  0.00    -0.266 OA
BRANCH  83  86
ATOM     86  C   UNL A   1      30.110  28.315  23.116  1.00  0.00     0.214 A 
ATOM     87  N   UNL A   1      29.180  29.153  23.530  1.00  0.00    -0.207 NA
ATOM     88  N   UNL A   1      30.632  28.786  21.948  1.00  0.00    -0.255 N 
ATOM     89  C   UNL A   1      29.087  30.056  22.505  1.00  0.00     0.154 A 
ATOM     90  N   UNL A   1      29.955  29.861  21.506  1.00  0.00    -0.158 NA
ATOM     91  H   UNL A   1      31.406  28.388  21.487  1.00  0.00     0.192 HD
BRANCH  89  92
ATOM     92  C   UNL A   1      28.053  31.169  22.485  1.00  0.00     0.060 C 
ATOM     93  C   UNL A   1      28.440  32.522  23.055  1.00  0.00     0.012 C 
ATOM     94  C   UNL A   1      28.283  32.362  21.582  1.00  0.00     0.012 C 
ENDBRANCH  89  92
ENDBRANCH  83  86
ENDBRANCH  77  82
ENDBRANCH  74  77
ENDBRANCH  72  73
ENDBRANCH   1  72
TORSDOF 19
ENDMDL
MODEL 3
REMARK VINA RESULT:     -11.1      2.492      4.172
REMARK SMILES O=C(NCCCNC(=O)[C@@H](CCO)NC(=O)c1nc(C2CC2)n[nH]1)c1ccc(-c2c3nc(c(-c4cc(S(=O)(=O)[O-])ccc4F)c4ccc([nH]4)c(-c4cc(S(=O)(=O)[O-])ccc4F)c4nc(c(-c5cc(S(=O)(=O)[O-])ccc5F)c5ccc2[nH]5)C=C4)C=C3)cc1
REMARK SMILES IDX 5 1 4 2 3 3 1 4 2 5 25 7 26 8 87 9 27 10 86 11 28 12 29 13
REMARK SMILES IDX 30 14 80 15 31 16 85 17 79 18 81 19 32 20 84 21 78 22 77 23
REMARK SMILES IDX 33 25 65 26 45 27 64 28 46 29 49 30 63 31 82 32 47 33 48 34
REMARK SMILES IDX 62 36 83 37 50 38 34 39 35 40 43 41 36 42 42 43 44 44 41 45
REMARK SMILES IDX 37 46 38 47 39 48 40 49 66 50 67 51 75 52 68 53 74 54 76 55
REMARK SMILES IDX 73 56 69 57 70 58 71 59 72 60 51 61 52 62 60 63 53 64 59 65
REMARK SMILES IDX 61 66 58 67 54 68 55 69 56 70 57 71 6 72 7 73 8 74 9 76
REMARK SMILES IDX 10 77 11 78 12 79 13 80 14 82 15 83 16 85 17 86 18 87 24 88
REMARK SMILES IDX 19 89 23 90 20 92 21 93 22 94
REMARK H PARENT 3 6 81 24 49 35 7 75 13 81 14 84 24 91
REMARK Flexibility Score: inf
ROOT
ATOM      1  C   UNL A   1      36.045  21.993  24.904  1.00  0.00     0.042 C 
ENDROOT
BRANCH   1   2
ATOM      2  C   UNL A   1      37.542  22.009  24.635  1.00  0.00     0.118 C 
BRANCH   2   3
ATOM      3  N   UNL A   1      38.233  20.933  25.325  1.00  0.00    -0.352 N 
ATOM      4  O   UNL A   1      39.911  19.936  26.433  1.00  0.00    -0.269 OA
ATOM      5  C   UNL A   1      39.338  20.983  26.140  1.00  0.00     0.251 C 
ATOM      6  H   UNL A   1      37.853  20.035  25.187  1.00  0.00     0.163 HD
BRANCH   5   7
ATOM      7  C   UNL A   1      39.841  22.277  26.663  1.00  0.00     0.039 A 
ATOM      8  C   UNL A   1      40.908  22.327  27.562  1.00  0.00     0.014 A 
ATOM      9  C   UNL A   1      39.285  23.470  26.185  1.00  0.00     0.014 A 
ATOM     10  C   UNL A   1      41.337  23.546  28.074  1.00  0.00     0.010 A 
ATOM     11  C   UNL A   1      39.789  24.701  26.618  1.00  0.00     0.010 A 
ATOM     12  C   UNL A   1      40.820  24.749  27.568  1.00  0.00    -0.014 A 
BRANCH  12  13
ATOM     13  C   UNL A   1      41.482  26.027  27.939  1.00  0.00     0.031 A 
ATOM     14  C   UNL A   1      40.772  27.081  28.738  1.00  0.00     0.074 A 
ATOM     15  C   UNL A   1      42.757  26.215  27.536  1.00  0.00     0.049 A 
ATOM     16  N   UNL A   1      41.211  28.250  29.125  1.00  0.00    -0.248 NA
ATOM     17  C   UNL A   1      39.390  26.793  29.150  1.00  0.00     0.031 C 
ATOM     18  C   UNL A   1      43.534  25.259  26.738  1.00  0.00     0.029 A 
ATOM     19  N   UNL A   1      43.631  27.251  27.745  1.00  0.00    -0.354 N 
ATOM     20  C   UNL A   1      40.159  28.851  29.806  1.00  0.00     0.074 A 
ATOM     21  C   UNL A   1      39.051  27.918  29.767  1.00  0.00     0.031 C 
ATOM     22  C   UNL A   1      44.776  25.732  26.564  1.00  0.00     0.029 A 
ATOM     23  C   UNL A   1      44.862  27.057  27.161  1.00  0.00     0.049 A 
ATOM     24  H   UNL A   1      43.399  28.055  28.262  1.00  0.00     0.167 HD
ATOM     25  C   UNL A   1      40.128  30.069  30.403  1.00  0.00     0.034 A 
ATOM     26  C   UNL A   1      45.934  27.869  27.080  1.00  0.00     0.034 A 
ATOM     27  C   UNL A   1      41.250  30.976  30.439  1.00  0.00     0.049 A 
ATOM     28  C   UNL A   1      45.853  29.224  27.728  1.00  0.00     0.074 A 
ATOM     29  C   UNL A   1      41.345  32.203  31.075  1.00  0.00     0.029 A 
ATOM     30  N   UNL A   1      42.467  30.766  29.804  1.00  0.00    -0.354 N 
ATOM     31  N   UNL A   1      44.861  29.754  28.404  1.00  0.00    -0.248 NA
ATOM     32  C   UNL A   1      47.031  30.088  27.599  1.00  0.00     0.031 C 
ATOM     33  C   UNL A   1      42.590  32.762  30.767  1.00  0.00     0.029 A 
ATOM     34  C   UNL A   1      43.301  31.858  29.996  1.00  0.00     0.049 A 
ATOM     35  H   UNL A   1      42.705  29.960  29.291  1.00  0.00     0.167 HD
ATOM     36  C   UNL A   1      45.300  31.016  28.786  1.00  0.00     0.074 A 
ATOM     37  C   UNL A   1      46.657  31.149  28.296  1.00  0.00     0.031 C 
ATOM     38  C   UNL A   1      44.641  31.982  29.475  1.00  0.00     0.034 A 
BRANCH  25  39
ATOM     39  C   UNL A   1      38.828  30.519  31.025  1.00  0.00     0.023 A 
ATOM     40  C   UNL A   1      37.858  31.229  30.299  1.00  0.00     0.031 A 
ATOM     41  C   UNL A   1      38.547  30.197  32.365  1.00  0.00     0.131 A 
ATOM     42  C   UNL A   1      36.666  31.626  30.927  1.00  0.00     0.055 A 
ATOM     43  C   UNL A   1      37.336  30.544  32.967  1.00  0.00     0.041 A 
ATOM     44  F   UNL A   1      39.445  29.535  33.112  1.00  0.00    -0.206 F 
ATOM     45  C   UNL A   1      36.390  31.268  32.250  1.00  0.00     0.022 A 
BRANCH  42  46
ATOM     46  S   UNL A   1      35.512  32.689  30.017  1.00  0.00     0.124 S 
ATOM     47  O   UNL A   1      35.441  32.012  28.724  1.00  0.00    -0.237 OA
ATOM     48  O   UNL A   1      34.309  32.626  30.838  1.00  0.00    -0.237 OA
ATOM     49  O   UNL A   1      36.185  33.986  29.995  1.00  0.00    -0.744 OA
ENDBRANCH  42  46
ENDBRANCH  25  39
BRANCH  26  50
ATOM     50  C   UNL A   1      47.141  27.454  26.310  1.00  0.00     0.023 A 
ATOM     51  C   UNL A   1      47.299  27.805  24.961  1.00  0.00     0.031 A 
ATOM     52  C   UNL A   1      48.137  26.656  26.904  1.00  0.00     0.131 A 
ATOM     53  C   UNL A   1      48.400  27.322  24.237  1.00  0.00     0.055 A 
ATOM     54  C   UNL A   1      49.261  26.229  26.197  1.00  0.00     0.041 A 
ATOM     55  F   UNL A   1      48.037  26.291  28.192  1.00  0.00    -0.206 F 
ATOM     56  C   UNL A   1      49.389  26.548  24.850  1.00  0.00     0.022 A 
BRANCH  53  57
ATOM     57  S   UNL A   1      48.467  27.627  22.451  1.00  0.00     0.124 S 
ATOM     58  O   UNL A   1      49.670  28.443  22.332  1.00  0.00    -0.237 OA
ATOM     59  O   UNL A   1      48.555  26.272  21.917  1.00  0.00    -0.237 OA
ATOM     60  O   UNL A   1      47.211  28.323  22.178  1.00  0.00    -0.744 OA
ENDBRANCH  53  57
ENDBRANCH  26  50
BRANCH  38  61
ATOM     61  C   UNL A   1      45.404  33.254  29.740  1.00  0.00     0.023 A 
ATOM     62  C   UNL A   1      45.336  34.344  28.855  1.00  0.00     0.031 A 
ATOM     63  C   UNL A   1      46.238  33.362  30.865  1.00  0.00     0.131 A 
ATOM     64  C   UNL A   1      46.136  35.473  29.077  1.00  0.00     0.055 A 
ATOM     65  C   UNL A   1      46.987  34.512  31.113  1.00  0.00     0.041 A 
ATOM     66  F   UNL A   1      46.343  32.347  31.739  1.00  0.00    -0.206 F 
ATOM     67  C   UNL A   1      46.949  35.572  30.209  1.00  0.00     0.022 A 
BRANCH  64  68
ATOM     68  S   UNL A   1      46.170  36.776  27.816  1.00  0.00     0.124 S 
ATOM     69  O   UNL A   1      47.366  36.430  27.055  1.00  0.00    -0.237 OA
ATOM     70  O   UNL A   1      44.898  36.579  27.128  1.00  0.00    -0.237 OA
ATOM     71  O   UNL A   1      46.266  38.007  28.597  1.00  0.00    -0.744 OA
ENDBRANCH  64  68
ENDBRANCH  38  61
ENDBRANCH  12  13
ENDBRANCH   5   7
ENDBRANCH   2   3
ENDBRANCH   1   2
BRANCH   1  72
ATOM     72  C   UNL A   1      35.584  23.111  25.831  1.00  0.00     0.117 C 
BRANCH  72  73
ATOM     73  N   UNL A   1      34.868  22.575  26.975  1.00  0.00    -0.354 N 
ATOM     74  C   UNL A   1      33.561  22.290  27.198  1.00  0.00     0.242 C 
ATOM     75  H   UNL A   1      35.450  22.380  27.746  1.00  0.00     0.163 HD
ATOM     76  O   UNL A   1      33.239  22.163  28.386  1.00  0.00    -0.273 OA
BRANCH  74  77
ATOM     77  C   UNL A   1      32.478  22.192  26.101  1.00  0.00     0.174 C 
BRANCH  77  78
ATOM     78  C   UNL A   1      32.790  21.240  24.941  1.00  0.00     0.063 C 
BRANCH  78  79
ATOM     79  C   UNL A   1      33.180  19.815  25.291  1.00  0.00     0.158 C 
BRANCH  79  80
ATOM     80  O   UNL A   1      32.074  19.067  25.770  1.00  0.00    -0.396 OA
ATOM     81  H   UNL A   1      31.313  19.656  25.892  1.00  0.00     0.210 HD
ENDBRANCH  79  80
ENDBRANCH  78  79
ENDBRANCH  77  78
BRANCH  77  82
ATOM     82  N   UNL A   1      31.102  22.088  26.593  1.00  0.00    -0.337 N 
ATOM     83  C   UNL A   1      30.222  23.114  26.848  1.00  0.00     0.289 C 
ATOM     84  H   UNL A   1      30.767  21.177  26.760  1.00  0.00     0.164 HD
ATOM     85  O   UNL A   1      29.249  22.897  27.566  1.00  0.00    -0.266 OA
BRANCH  83  86
ATOM     86  C   UNL A   1      30.485  24.411  26.277  1.00  0.00     0.214 A 
ATOM     87  N   UNL A   1      31.167  25.395  26.830  1.00  0.00    -0.207 NA
ATOM     88  N   UNL A   1      30.067  24.810  25.043  1.00  0.00    -0.255 N 
ATOM     89  C   UNL A   1      31.024  26.422  25.935  1.00  0.00     0.154 A 
ATOM     90  N   UNL A   1      30.345  26.108  24.827  1.00  0.00    -0.158 NA
ATOM     91  H   UNL A   1      29.618  24.222  24.393  1.00  0.00     0.192 HD
BRANCH  89  92
ATOM     92  C   UNL A   1      31.561  27.818  26.199  1.00  0.00     0.060 C 
ATOM     93  C   UNL A   1      31.629  28.305  27.635  1.00  0.00     0.012 C 
ATOM     94  C   UNL A   1      32.888  27.967  26.913  1.00  0.00     0.012 C 
ENDBRANCH  89  92
ENDBRANCH  83  86
ENDBRANCH  77  82
ENDBRANCH  74  77
ENDBRANCH  72  73
ENDBRANCH   1  72
TORSDOF 19
ENDMDL
