MODEL 1
REMARK VINA RESULT:     -12.5      0.000      0.000
REMARK SMILES O=C(NCCCNC(=O)c1cccc([C@@H]2CCC[N@@H+](Cc3cccc(OCCO)c3)C2)c1)c1ccc(-c2c3nc(c(-c4cc(S(=O)(=O)[O-])ccc4F)c4ccc([nH]4)c(-c4cc(S(=O)(=O)[O-])ccc4F)c4nc(c(-c5cc(S(=O)(=O)[O-])ccc5F)c5ccc2[nH]5)C=C4)C=C3)cc1
REMARK SMILES IDX 7 1 8 2 9 3 6 5 5 6 4 7 3 8 1 9 2 10 33 12 34 13 95 14 35 15
REMARK SMILES IDX 94 16 36 17 37 18 38 19 88 20 39 21 93 22 87 23 89 24 40 25
REMARK SMILES IDX 92 26 86 27 85 28 41 30 73 31 53 32 72 33 54 34 57 35 71 36
REMARK SMILES IDX 90 37 55 38 56 39 70 41 91 42 58 43 42 44 43 45 51 46 44 47
REMARK SMILES IDX 50 48 52 49 49 50 45 51 46 52 47 53 48 54 74 55 75 56 83 57
REMARK SMILES IDX 76 58 82 59 84 60 81 61 77 62 78 63 79 64 80 65 59 66 60 67
REMARK SMILES IDX 68 68 61 69 67 70 69 71 66 72 62 73 63 74 64 75 65 76 10 77
REMARK SMILES IDX 11 78 32 79 12 80 14 81 13 82 15 83 16 84 31 85 17 86 19 87
REMARK SMILES IDX 18 88 20 90 21 91 22 92 30 93 23 94 25 95 24 96 26 97 27 98
REMARK SMILES IDX 28 99 29 100
REMARK H PARENT 7 4 3 11 89 29 57 40 19 89 29 101
REMARK Flexibility Score: inf
ROOT
ATOM      1  N   UNL A   1      33.032  30.096  26.919  1.00  0.00    -0.352 N 
ATOM      2  C   UNL A   1      33.685  29.069  26.277  1.00  0.00     0.251 C 
ATOM      3  O   UNL A   1      34.757  28.654  26.708  1.00  0.00    -0.269 OA
ATOM      4  H   UNL A   1      33.532  30.516  27.656  1.00  0.00     0.163 HD
ENDROOT
BRANCH   1   5
ATOM      5  C   UNL A   1      31.706  30.657  26.668  1.00  0.00     0.118 C 
BRANCH   5   6
ATOM      6  C   UNL A   1      31.678  32.174  26.691  1.00  0.00     0.042 C 
BRANCH   6   7
ATOM      7  C   UNL A   1      32.802  32.815  27.482  1.00  0.00     0.118 C 
BRANCH   7   8
ATOM      8  N   UNL A   1      32.570  34.219  27.794  1.00  0.00    -0.352 N 
ATOM      9  O   UNL A   1      32.744  36.159  28.927  1.00  0.00    -0.269 OA
ATOM     10  C   UNL A   1      33.167  35.026  28.740  1.00  0.00     0.251 C 
ATOM     11  H   UNL A   1      31.881  34.660  27.246  1.00  0.00     0.163 HD
BRANCH  10  12
ATOM     12  C   UNL A   1      34.291  34.506  29.555  1.00  0.00     0.039 A 
ATOM     13  C   UNL A   1      35.609  34.602  29.108  1.00  0.00     0.014 A 
ATOM     14  C   UNL A   1      34.018  33.889  30.780  1.00  0.00     0.014 A 
ATOM     15  C   UNL A   1      36.615  33.908  29.769  1.00  0.00     0.010 A 
ATOM     16  C   UNL A   1      35.054  33.291  31.506  1.00  0.00     0.010 A 
ATOM     17  C   UNL A   1      36.355  33.248  30.979  1.00  0.00    -0.014 A 
BRANCH  17  18
ATOM     18  C   UNL A   1      37.466  32.542  31.676  1.00  0.00     0.031 A 
ATOM     19  C   UNL A   1      38.228  31.432  31.000  1.00  0.00     0.074 A 
ATOM     20  C   UNL A   1      37.817  32.943  32.914  1.00  0.00     0.049 A 
ATOM     21  N   UNL A   1      39.234  30.726  31.452  1.00  0.00    -0.248 NA
ATOM     22  C   UNL A   1      37.793  31.056  29.648  1.00  0.00     0.031 C 
ATOM     23  C   UNL A   1      37.154  34.007  33.673  1.00  0.00     0.029 A 
ATOM     24  N   UNL A   1      38.828  32.528  33.741  1.00  0.00    -0.354 N 
ATOM     25  C   UNL A   1      39.537  29.804  30.452  1.00  0.00     0.074 A 
ATOM     26  C   UNL A   1      38.579  30.021  29.388  1.00  0.00     0.031 C 
ATOM     27  C   UNL A   1      37.814  34.205  34.822  1.00  0.00     0.029 A 
ATOM     28  C   UNL A   1      38.897  33.234  34.920  1.00  0.00     0.049 A 
ATOM     29  H   UNL A   1      39.445  31.795  33.515  1.00  0.00     0.167 HD
ATOM     30  C   UNL A   1      40.524  28.872  30.425  1.00  0.00     0.034 A 
ATOM     31  C   UNL A   1      39.728  33.110  35.971  1.00  0.00     0.034 A 
ATOM     32  C   UNL A   1      41.479  28.679  31.493  1.00  0.00     0.049 A 
ATOM     33  C   UNL A   1      40.794  32.052  35.931  1.00  0.00     0.074 A 
ATOM     34  C   UNL A   1      42.539  27.792  31.555  1.00  0.00     0.029 A 
ATOM     35  N   UNL A   1      41.486  29.382  32.693  1.00  0.00    -0.354 N 
ATOM     36  N   UNL A   1      41.070  31.194  34.976  1.00  0.00    -0.248 NA
ATOM     37  C   UNL A   1      41.661  31.947  37.109  1.00  0.00     0.031 C 
ATOM     38  C   UNL A   1      43.143  27.909  32.812  1.00  0.00     0.029 A 
ATOM     39  C   UNL A   1      42.511  28.925  33.511  1.00  0.00     0.049 A 
ATOM     40  H   UNL A   1      40.856  30.100  32.929  1.00  0.00     0.167 HD
ATOM     41  C   UNL A   1      42.162  30.460  35.431  1.00  0.00     0.074 A 
ATOM     42  C   UNL A   1      42.499  30.990  36.738  1.00  0.00     0.031 C 
ATOM     43  C   UNL A   1      42.826  29.446  34.821  1.00  0.00     0.034 A 
BRANCH  30  44
ATOM     44  C   UNL A   1      40.581  27.957  29.221  1.00  0.00     0.023 A 
ATOM     45  C   UNL A   1      41.514  28.142  28.185  1.00  0.00     0.031 A 
ATOM     46  C   UNL A   1      39.654  26.906  29.086  1.00  0.00     0.131 A 
ATOM     47  C   UNL A   1      41.445  27.350  27.028  1.00  0.00     0.055 A 
ATOM     48  C   UNL A   1      39.647  26.066  27.970  1.00  0.00     0.041 A 
ATOM     49  F   UNL A   1      38.726  26.688  30.032  1.00  0.00    -0.206 F 
ATOM     50  C   UNL A   1      40.533  26.298  26.924  1.00  0.00     0.022 A 
BRANCH  47  51
ATOM     51  S   UNL A   1      42.451  27.823  25.593  1.00  0.00     0.124 S 
ATOM     52  O   UNL A   1      43.759  28.045  26.208  1.00  0.00    -0.237 OA
ATOM     53  O   UNL A   1      42.342  26.652  24.731  1.00  0.00    -0.237 OA
ATOM     54  O   UNL A   1      41.794  29.030  25.095  1.00  0.00    -0.744 OA
ENDBRANCH  47  51
ENDBRANCH  30  44
BRANCH  31  55
ATOM     55  C   UNL A   1      39.570  33.999  37.154  1.00  0.00     0.023 A 
ATOM     56  C   UNL A   1      38.932  33.546  38.319  1.00  0.00     0.031 A 
ATOM     57  C   UNL A   1      40.052  35.320  37.134  1.00  0.00     0.131 A 
ATOM     58  C   UNL A   1      38.767  34.417  39.407  1.00  0.00     0.055 A 
ATOM     59  C   UNL A   1      39.930  36.166  38.236  1.00  0.00     0.041 A 
ATOM     60  F   UNL A   1      40.677  35.798  36.046  1.00  0.00    -0.206 F 
ATOM     61  C   UNL A   1      39.275  35.718  39.379  1.00  0.00     0.022 A 
BRANCH  58  62
ATOM     62  S   UNL A   1      37.827  33.840  40.846  1.00  0.00     0.124 S 
ATOM     63  O   UNL A   1      36.727  33.121  40.214  1.00  0.00    -0.237 OA
ATOM     64  O   UNL A   1      38.812  33.020  41.543  1.00  0.00    -0.237 OA
ATOM     65  O   UNL A   1      37.455  35.078  41.527  1.00  0.00    -0.744 OA
ENDBRANCH  58  62
ENDBRANCH  31  55
BRANCH  43  66
ATOM     66  C   UNL A   1      44.017  28.879  35.556  1.00  0.00     0.023 A 
ATOM     67  C   UNL A   1      43.900  27.771  36.412  1.00  0.00     0.031 A 
ATOM     68  C   UNL A   1      45.279  29.484  35.423  1.00  0.00     0.131 A 
ATOM     69  C   UNL A   1      45.013  27.339  37.151  1.00  0.00     0.055 A 
ATOM     70  C   UNL A   1      46.396  29.013  36.114  1.00  0.00     0.041 A 
ATOM     71  F   UNL A   1      45.446  30.549  34.622  1.00  0.00    -0.206 F 
ATOM     72  C   UNL A   1      46.263  27.944  36.997  1.00  0.00     0.022 A 
BRANCH  69  73
ATOM     73  S   UNL A   1      44.781  26.042  38.397  1.00  0.00     0.124 S 
ATOM     74  O   UNL A   1      43.748  26.620  39.250  1.00  0.00    -0.237 OA
ATOM     75  O   UNL A   1      44.373  24.900  37.586  1.00  0.00    -0.237 OA
ATOM     76  O   UNL A   1      46.099  25.922  39.017  1.00  0.00    -0.744 OA
ENDBRANCH  69  73
ENDBRANCH  43  66
ENDBRANCH  17  18
ENDBRANCH  10  12
ENDBRANCH   7   8
ENDBRANCH   6   7
ENDBRANCH   5   6
ENDBRANCH   1   5
BRANCH   2  77
ATOM     77  C   UNL A   1      33.095  28.457  25.066  1.00  0.00     0.040 A 
ATOM     78  C   UNL A   1      33.748  28.577  23.841  1.00  0.00     0.014 A 
ATOM     79  C   UNL A   1      31.903  27.739  25.157  1.00  0.00     0.018 A 
ATOM     80  C   UNL A   1      33.239  27.909  22.728  1.00  0.00     0.001 A 
ATOM     81  C   UNL A   1      31.420  27.003  24.076  1.00  0.00    -0.039 A 
ATOM     82  C   UNL A   1      32.097  27.109  22.851  1.00  0.00     0.004 A 
BRANCH  81  83
ATOM     83  C   UNL A   1      30.292  26.000  24.251  1.00  0.00     0.074 C 
ATOM     84  C   UNL A   1      29.941  25.629  25.702  1.00  0.00     0.020 C 
ATOM     85  C   UNL A   1      30.531  24.733  23.394  1.00  0.00     0.270 C 
ATOM     86  C   UNL A   1      30.760  24.475  26.283  1.00  0.00     0.062 C 
ATOM     87  N   UNL A   1      31.407  23.717  24.006  1.00  0.00    -0.331 N 
ATOM     88  C   UNL A   1      30.901  23.299  25.317  1.00  0.00     0.262 C 
ATOM     89  H   UNL A   1      32.314  24.158  24.156  1.00  0.00     0.348 HD
BRANCH  87  90
ATOM     90  C   UNL A   1      31.663  22.564  23.102  1.00  0.00     0.299 C 
BRANCH  90  91
ATOM     91  C   UNL A   1      32.689  21.554  23.591  1.00  0.00     0.010 A 
ATOM     92  C   UNL A   1      33.898  21.973  24.160  1.00  0.00     0.010 A 
ATOM     93  C   UNL A   1      32.399  20.181  23.556  1.00  0.00     0.056 A 
ATOM     94  C   UNL A   1      34.761  21.039  24.735  1.00  0.00     0.004 A 
ATOM     95  C   UNL A   1      33.197  19.259  24.228  1.00  0.00     0.119 A 
ATOM     96  C   UNL A   1      34.398  19.692  24.790  1.00  0.00     0.046 A 
BRANCH  95  97
ATOM     97  O   UNL A   1      32.888  17.945  24.442  1.00  0.00    -0.491 OA
BRANCH  97  98
ATOM     98  C   UNL A   1      33.734  16.935  23.874  1.00  0.00     0.257 C 
BRANCH  98  99
ATOM     99  C   UNL A   1      34.549  16.196  24.941  1.00  0.00     0.197 C 
BRANCH  99 100
ATOM    100  O   UNL A   1      34.011  16.324  26.253  1.00  0.00    -0.393 OA
ATOM    101  H   UNL A   1      33.352  15.627  26.401  1.00  0.00     0.210 HD
ENDBRANCH  99 100
ENDBRANCH  98  99
ENDBRANCH  97  98
ENDBRANCH  95  97
ENDBRANCH  90  91
ENDBRANCH  87  90
ENDBRANCH  81  83
ENDBRANCH   2  77
TORSDOF 20
ENDMDL
MODEL 2
REMARK VINA RESULT:     -12.1      2.556      3.563
REMARK SMILES O=C(NCCCNC(=O)c1cccc([C@@H]2CCC[N@@H+](Cc3cccc(OCCO)c3)C2)c1)c1ccc(-c2c3nc(c(-c4cc(S(=O)(=O)[O-])ccc4F)c4ccc([nH]4)c(-c4cc(S(=O)(=O)[O-])ccc4F)c4nc(c(-c5cc(S(=O)(=O)[O-])ccc5F)c5ccc2[nH]5)C=C4)C=C3)cc1
REMARK SMILES IDX 7 1 8 2 9 3 6 5 5 6 4 7 3 8 1 9 2 10 33 12 34 13 95 14 35 15
REMARK SMILES IDX 94 16 36 17 37 18 38 19 88 20 39 21 93 22 87 23 89 24 40 25
REMARK SMILES IDX 92 26 86 27 85 28 41 30 73 31 53 32 72 33 54 34 57 35 71 36
REMARK SMILES IDX 90 37 55 38 56 39 70 41 91 42 58 43 42 44 43 45 51 46 44 47
REMARK SMILES IDX 50 48 52 49 49 50 45 51 46 52 47 53 48 54 74 55 75 56 83 57
REMARK SMILES IDX 76 58 82 59 84 60 81 61 77 62 78 63 79 64 80 65 59 66 60 67
REMARK SMILES IDX 68 68 61 69 67 70 69 71 66 72 62 73 63 74 64 75 65 76 10 77
REMARK SMILES IDX 11 78 32 79 12 80 14 81 13 82 15 83 16 84 31 85 17 86 19 87
REMARK SMILES IDX 18 88 20 90 21 91 22 92 30 93 23 94 25 95 24 96 26 97 27 98
REMARK SMILES IDX 28 99 29 100
REMARK H PARENT 7 4 3 11 89 29 57 40 19 89 29 101
REMARK Flexibility Score: inf
ROOT
ATOM      1  N   UNL A   1      30.559  28.510  23.992  1.00  0.00    -0.352 N 
ATOM      2  C   UNL A   1      30.750  27.810  22.822  1.00  0.00     0.251 C 
ATOM      3  O   UNL A   1      30.047  28.041  21.842  1.00  0.00    -0.269 OA
ATOM      4  H   UNL A   1      29.775  29.106  24.000  1.00  0.00     0.163 HD
ENDROOT
BRANCH   1   5
ATOM      5  C   UNL A   1      31.345  28.497  25.223  1.00  0.00     0.118 C 
BRANCH   5   6
ATOM      6  C   UNL A   1      32.138  29.771  25.446  1.00  0.00     0.042 C 
BRANCH   6   7
ATOM      7  C   UNL A   1      32.103  30.295  26.870  1.00  0.00     0.118 C 
BRANCH   7   8
ATOM      8  N   UNL A   1      32.033  31.748  26.956  1.00  0.00    -0.352 N 
ATOM      9  O   UNL A   1      32.629  33.830  27.577  1.00  0.00    -0.269 OA
ATOM     10  C   UNL A   1      32.929  32.646  27.495  1.00  0.00     0.251 C 
ATOM     11  H   UNL A   1      31.221  32.150  26.571  1.00  0.00     0.163 HD
BRANCH  10  12
ATOM     12  C   UNL A   1      34.236  32.171  28.012  1.00  0.00     0.039 A 
ATOM     13  C   UNL A   1      34.431  30.833  28.353  1.00  0.00     0.014 A 
ATOM     14  C   UNL A   1      35.278  33.089  28.179  1.00  0.00     0.014 A 
ATOM     15  C   UNL A   1      35.574  30.457  29.048  1.00  0.00     0.010 A 
ATOM     16  C   UNL A   1      36.477  32.680  28.773  1.00  0.00     0.010 A 
ATOM     17  C   UNL A   1      36.616  31.372  29.262  1.00  0.00    -0.014 A 
BRANCH  17  18
ATOM     18  C   UNL A   1      37.841  30.925  29.982  1.00  0.00     0.031 A 
ATOM     19  C   UNL A   1      38.890  30.092  29.290  1.00  0.00     0.074 A 
ATOM     20  C   UNL A   1      38.025  31.315  31.258  1.00  0.00     0.049 A 
ATOM     21  N   UNL A   1      40.024  29.635  29.759  1.00  0.00    -0.248 NA
ATOM     22  C   UNL A   1      38.623  29.713  27.896  1.00  0.00     0.031 C 
ATOM     23  C   UNL A   1      37.080  32.121  32.035  1.00  0.00     0.029 A 
ATOM     24  N   UNL A   1      39.073  31.113  32.119  1.00  0.00    -0.354 N 
ATOM     25  C   UNL A   1      40.594  28.891  28.729  1.00  0.00     0.074 A 
ATOM     26  C   UNL A   1      39.659  28.932  27.625  1.00  0.00     0.031 C 
ATOM     27  C   UNL A   1      37.619  32.400  33.230  1.00  0.00     0.029 A 
ATOM     28  C   UNL A   1      38.909  31.731  33.337  1.00  0.00     0.049 A 
ATOM     29  H   UNL A   1      39.867  30.578  31.888  1.00  0.00     0.167 HD
ATOM     30  C   UNL A   1      41.788  28.244  28.708  1.00  0.00     0.034 A 
ATOM     31  C   UNL A   1      39.700  31.749  34.426  1.00  0.00     0.034 A 
ATOM     32  C   UNL A   1      42.715  28.227  29.817  1.00  0.00     0.049 A 
ATOM     33  C   UNL A   1      41.002  31.001  34.389  1.00  0.00     0.074 A 
ATOM     34  C   UNL A   1      43.964  27.634  29.891  1.00  0.00     0.029 A 
ATOM     35  N   UNL A   1      42.491  28.823  31.053  1.00  0.00    -0.354 N 
ATOM     36  N   UNL A   1      41.529  30.309  33.405  1.00  0.00    -0.248 NA
ATOM     37  C   UNL A   1      41.816  31.039  35.608  1.00  0.00     0.031 C 
ATOM     38  C   UNL A   1      44.464  27.814  31.185  1.00  0.00     0.029 A 
ATOM     39  C   UNL A   1      43.564  28.586  31.902  1.00  0.00     0.049 A 
ATOM     40  H   UNL A   1      41.688  29.341  31.291  1.00  0.00     0.167 HD
ATOM     41  C   UNL A   1      42.752  29.847  33.881  1.00  0.00     0.074 A 
ATOM     42  C   UNL A   1      42.887  30.353  35.233  1.00  0.00     0.031 C 
ATOM     43  C   UNL A   1      43.679  29.078  33.256  1.00  0.00     0.034 A 
BRANCH  30  44
ATOM     44  C   UNL A   1      42.128  27.458  27.460  1.00  0.00     0.023 A 
ATOM     45  C   UNL A   1      42.175  26.052  27.453  1.00  0.00     0.031 A 
ATOM     46  C   UNL A   1      42.455  28.129  26.267  1.00  0.00     0.131 A 
ATOM     47  C   UNL A   1      42.623  25.370  26.309  1.00  0.00     0.055 A 
ATOM     48  C   UNL A   1      42.816  27.440  25.106  1.00  0.00     0.041 A 
ATOM     49  F   UNL A   1      42.447  29.471  26.213  1.00  0.00    -0.206 F 
ATOM     50  C   UNL A   1      42.920  26.053  25.129  1.00  0.00     0.022 A 
BRANCH  47  51
ATOM     51  S   UNL A   1      42.970  23.594  26.441  1.00  0.00     0.124 S 
ATOM     52  O   UNL A   1      44.429  23.581  26.519  1.00  0.00    -0.237 OA
ATOM     53  O   UNL A   1      42.262  23.223  27.661  1.00  0.00    -0.237 OA
ATOM     54  O   UNL A   1      42.416  23.043  25.205  1.00  0.00    -0.744 OA
ENDBRANCH  47  51
ENDBRANCH  30  44
BRANCH  31  55
ATOM     55  C   UNL A   1      39.269  32.485  35.646  1.00  0.00     0.023 A 
ATOM     56  C   UNL A   1      38.539  31.844  36.658  1.00  0.00     0.031 A 
ATOM     57  C   UNL A   1      39.578  33.847  35.814  1.00  0.00     0.131 A 
ATOM     58  C   UNL A   1      38.118  32.572  37.782  1.00  0.00     0.055 A 
ATOM     59  C   UNL A   1      39.200  34.554  36.956  1.00  0.00     0.041 A 
ATOM     60  F   UNL A   1      40.281  34.504  34.877  1.00  0.00    -0.206 F 
ATOM     61  C   UNL A   1      38.456  33.917  37.944  1.00  0.00     0.022 A 
BRANCH  58  62
ATOM     62  S   UNL A   1      37.070  31.744  39.008  1.00  0.00     0.124 S 
ATOM     63  O   UNL A   1      37.902  31.811  40.204  1.00  0.00    -0.237 OA
ATOM     64  O   UNL A   1      35.878  32.585  39.007  1.00  0.00    -0.237 OA
ATOM     65  O   UNL A   1      36.886  30.406  38.450  1.00  0.00    -0.744 OA
ENDBRANCH  58  62
ENDBRANCH  31  55
BRANCH  43  66
ATOM     66  C   UNL A   1      44.944  28.783  34.025  1.00  0.00     0.023 A 
ATOM     67  C   UNL A   1      45.064  27.645  34.842  1.00  0.00     0.031 A 
ATOM     68  C   UNL A   1      46.028  29.675  33.967  1.00  0.00     0.131 A 
ATOM     69  C   UNL A   1      46.220  27.462  35.617  1.00  0.00     0.055 A 
ATOM     70  C   UNL A   1      47.199  29.456  34.693  1.00  0.00     0.041 A 
ATOM     71  F   UNL A   1      45.964  30.779  33.206  1.00  0.00    -0.206 F 
ATOM     72  C   UNL A   1      47.294  28.352  35.537  1.00  0.00     0.022 A 
BRANCH  69  73
ATOM     73  S   UNL A   1      46.261  26.098  36.813  1.00  0.00     0.124 S 
ATOM     74  O   UNL A   1      46.907  26.722  37.963  1.00  0.00    -0.237 OA
ATOM     75  O   UNL A   1      44.846  25.781  36.971  1.00  0.00    -0.237 OA
ATOM     76  O   UNL A   1      47.054  25.073  36.138  1.00  0.00    -0.744 OA
ENDBRANCH  69  73
ENDBRANCH  43  66
ENDBRANCH  17  18
ENDBRANCH  10  12
ENDBRANCH   7   8
ENDBRANCH   6   7
ENDBRANCH   5   6
ENDBRANCH   1   5
BRANCH   2  77
ATOM     77  C   UNL A   1      31.806  26.777  22.740  1.00  0.00     0.040 A 
ATOM     78  C   UNL A   1      33.132  27.156  22.537  1.00  0.00     0.014 A 
ATOM     79  C   UNL A   1      31.478  25.430  22.894  1.00  0.00     0.018 A 
ATOM     80  C   UNL A   1      34.131  26.184  22.567  1.00  0.00     0.001 A 
ATOM     81  C   UNL A   1      32.468  24.454  23.002  1.00  0.00    -0.039 A 
ATOM     82  C   UNL A   1      33.803  24.848  22.821  1.00  0.00     0.004 A 
BRANCH  81  83
ATOM     83  C   UNL A   1      32.132  23.042  23.452  1.00  0.00     0.074 C 
ATOM     84  C   UNL A   1      31.287  22.928  24.731  1.00  0.00     0.020 C 
ATOM     85  C   UNL A   1      33.404  22.167  23.544  1.00  0.00     0.270 C 
ATOM     86  C   UNL A   1      32.093  22.912  26.032  1.00  0.00     0.062 C 
ATOM     87  N   UNL A   1      34.162  22.289  24.802  1.00  0.00    -0.331 N 
ATOM     88  C   UNL A   1      33.316  21.998  25.963  1.00  0.00     0.262 C 
ATOM     89  H   UNL A   1      34.457  23.263  24.879  1.00  0.00     0.348 HD
BRANCH  87  90
ATOM     90  C   UNL A   1      35.415  21.488  24.798  1.00  0.00     0.299 C 
BRANCH  90  91
ATOM     91  C   UNL A   1      36.666  22.210  25.271  1.00  0.00     0.010 A 
ATOM     92  C   UNL A   1      36.645  23.582  25.549  1.00  0.00     0.010 A 
ATOM     93  C   UNL A   1      37.844  21.489  25.521  1.00  0.00     0.056 A 
ATOM     94  C   UNL A   1      37.759  24.198  26.121  1.00  0.00     0.004 A 
ATOM     95  C   UNL A   1      38.914  22.069  26.196  1.00  0.00     0.119 A 
ATOM     96  C   UNL A   1      38.878  23.437  26.465  1.00  0.00     0.046 A 
BRANCH  95  97
ATOM     97  O   UNL A   1      40.006  21.404  26.681  1.00  0.00    -0.491 OA
BRANCH  97  98
ATOM     98  C   UNL A   1      40.304  20.099  26.164  1.00  0.00     0.257 C 
BRANCH  98  99
ATOM     99  C   UNL A   1      41.728  19.650  26.515  1.00  0.00     0.197 C 
BRANCH  99 100
ATOM    100  O   UNL A   1      42.169  20.112  27.788  1.00  0.00    -0.393 OA
ATOM    101  H   UNL A   1      42.388  19.352  28.348  1.00  0.00     0.210 HD
ENDBRANCH  99 100
ENDBRANCH  98  99
ENDBRANCH  97  98
ENDBRANCH  95  97
ENDBRANCH  90  91
ENDBRANCH  87  90
ENDBRANCH  81  83
ENDBRANCH   2  77
TORSDOF 20
ENDMDL
MODEL 3
REMARK VINA RESULT:     -12.1      0.958      7.579
REMARK SMILES O=C(NCCCNC(=O)c1cccc([C@@H]2CCC[N@@H+](Cc3cccc(OCCO)c3)C2)c1)c1ccc(-c2c3nc(c(-c4cc(S(=O)(=O)[O-])ccc4F)c4ccc([nH]4)c(-c4cc(S(=O)(=O)[O-])ccc4F)c4nc(c(-c5cc(S(=O)(=O)[O-])ccc5F)c5ccc2[nH]5)C=C4)C=C3)cc1
REMARK SMILES IDX 7 1 8 2 9 3 6 5 5 6 4 7 3 8 1 9 2 10 33 12 34 13 95 14 35 15
REMARK SMILES IDX 94 16 36 17 37 18 38 19 88 20 39 21 93 22 87 23 89 24 40 25
REMARK SMILES IDX 92 26 86 27 85 28 41 30 73 31 53 32 72 33 54 34 57 35 71 36
REMARK SMILES IDX 90 37 55 38 56 39 70 41 91 42 58 43 42 44 43 45 51 46 44 47
REMARK SMILES IDX 50 48 52 49 49 50 45 51 46 52 47 53 48 54 74 55 75 56 83 57
REMARK SMILES IDX 76 58 82 59 84 60 81 61 77 62 78 63 79 64 80 65 59 66 60 67
REMARK SMILES IDX 68 68 61 69 67 70 69 71 66 72 62 73 63 74 64 75 65 76 10 77
REMARK SMILES IDX 11 78 32 79 12 80 14 81 13 82 15 83 16 84 31 85 17 86 19 87
REMARK SMILES IDX 18 88 20 90 21 91 22 92 30 93 23 94 25 95 24 96 26 97 27 98
REMARK SMILES IDX 28 99 29 100
REMARK H PARENT 7 4 3 11 89 29 57 40 19 89 29 101
REMARK Flexibility Score: inf
ROOT
ATOM      1  N   UNL A   1      32.585  30.593  26.915  1.00  0.00    -0.352 N 
ATOM      2  C   UNL A   1      33.089  29.371  26.532  1.00  0.00     0.251 C 
ATOM      3  O   UNL A   1      33.937  28.810  27.221  1.00  0.00    -0.269 OA
ATOM      4  H   UNL A   1      33.024  31.003  27.695  1.00  0.00     0.163 HD
ENDROOT
BRANCH   1   5
ATOM      5  C   UNL A   1      31.496  31.374  26.333  1.00  0.00     0.118 C 
BRANCH   5   6
ATOM      6  C   UNL A   1      31.422  32.795  26.860  1.00  0.00     0.042 C 
BRANCH   6   7
ATOM      7  C   UNL A   1      32.757  33.384  27.274  1.00  0.00     0.118 C 
BRANCH   7   8
ATOM      8  N   UNL A   1      32.637  34.575  28.105  1.00  0.00    -0.352 N 
ATOM      9  O   UNL A   1      33.041  35.957  29.839  1.00  0.00    -0.269 OA
ATOM     10  C   UNL A   1      33.379  34.969  29.200  1.00  0.00     0.251 C 
ATOM     11  H   UNL A   1      31.916  35.194  27.847  1.00  0.00     0.163 HD
BRANCH  10  12
ATOM     12  C   UNL A   1      34.558  34.174  29.622  1.00  0.00     0.039 A 
ATOM     13  C   UNL A   1      34.443  33.176  30.589  1.00  0.00     0.014 A 
ATOM     14  C   UNL A   1      35.805  34.451  29.054  1.00  0.00     0.014 A 
ATOM     15  C   UNL A   1      35.588  32.609  31.135  1.00  0.00     0.010 A 
ATOM     16  C   UNL A   1      36.946  33.791  29.525  1.00  0.00     0.010 A 
ATOM     17  C   UNL A   1      36.855  32.902  30.608  1.00  0.00    -0.014 A 
BRANCH  17  18
ATOM     18  C   UNL A   1      38.056  32.250  31.198  1.00  0.00     0.031 A 
ATOM     19  C   UNL A   1      38.620  32.705  32.519  1.00  0.00     0.074 A 
ATOM     20  C   UNL A   1      38.614  31.206  30.553  1.00  0.00     0.049 A 
ATOM     21  N   UNL A   1      39.645  32.237  33.187  1.00  0.00    -0.248 NA
ATOM     22  C   UNL A   1      37.954  33.844  33.168  1.00  0.00     0.031 C 
ATOM     23  C   UNL A   1      38.158  30.674  29.265  1.00  0.00     0.029 A 
ATOM     24  N   UNL A   1      39.660  30.390  30.896  1.00  0.00    -0.354 N 
ATOM     25  C   UNL A   1      39.766  33.038  34.319  1.00  0.00     0.074 A 
ATOM     26  C   UNL A   1      38.729  34.045  34.224  1.00  0.00     0.031 C 
ATOM     27  C   UNL A   1      38.876  29.584  28.962  1.00  0.00     0.029 A 
ATOM     28  C   UNL A   1      39.892  29.383  29.988  1.00  0.00     0.049 A 
ATOM     29  H   UNL A   1      40.194  30.512  31.714  1.00  0.00     0.167 HD
ATOM     30  C   UNL A   1      40.653  32.937  35.342  1.00  0.00     0.034 A 
ATOM     31  C   UNL A   1      40.824  28.413  29.970  1.00  0.00     0.034 A 
ATOM     32  C   UNL A   1      41.673  31.916  35.425  1.00  0.00     0.049 A 
ATOM     33  C   UNL A   1      41.814  28.339  31.099  1.00  0.00     0.074 A 
ATOM     34  C   UNL A   1      42.599  31.699  36.431  1.00  0.00     0.029 A 
ATOM     35  N   UNL A   1      41.908  30.943  34.460  1.00  0.00    -0.354 N 
ATOM     36  N   UNL A   1      41.910  29.100  32.164  1.00  0.00    -0.248 NA
ATOM     37  C   UNL A   1      42.819  27.274  31.022  1.00  0.00     0.031 C 
ATOM     38  C   UNL A   1      43.433  30.644  36.045  1.00  0.00     0.029 A 
ATOM     39  C   UNL A   1      42.983  30.147  34.833  1.00  0.00     0.049 A 
ATOM     40  H   UNL A   1      41.388  30.834  33.632  1.00  0.00     0.167 HD
ATOM     41  C   UNL A   1      42.975  28.590  32.899  1.00  0.00     0.074 A 
ATOM     42  C   UNL A   1      43.477  27.448  32.159  1.00  0.00     0.031 C 
ATOM     43  C   UNL A   1      43.488  29.023  34.078  1.00  0.00     0.034 A 
BRANCH  30  44
ATOM     44  C   UNL A   1      40.588  33.994  36.423  1.00  0.00     0.023 A 
ATOM     45  C   UNL A   1      40.050  33.728  37.696  1.00  0.00     0.031 A 
ATOM     46  C   UNL A   1      41.032  35.303  36.162  1.00  0.00     0.131 A 
ATOM     47  C   UNL A   1      39.890  34.772  38.622  1.00  0.00     0.055 A 
ATOM     48  C   UNL A   1      40.950  36.317  37.119  1.00  0.00     0.041 A 
ATOM     49  F   UNL A   1      41.540  35.626  34.961  1.00  0.00    -0.206 F 
ATOM     50  C   UNL A   1      40.358  36.059  38.352  1.00  0.00     0.022 A 
BRANCH  47  51
ATOM     51  S   UNL A   1      38.910  34.459  40.118  1.00  0.00     0.124 S 
ATOM     52  O   UNL A   1      37.819  33.641  39.593  1.00  0.00    -0.237 OA
ATOM     53  O   UNL A   1      39.864  33.773  40.982  1.00  0.00    -0.237 OA
ATOM     54  O   UNL A   1      38.518  35.797  40.557  1.00  0.00    -0.744 OA
ENDBRANCH  47  51
ENDBRANCH  30  44
BRANCH  31  55
ATOM     55  C   UNL A   1      40.874  27.449  28.837  1.00  0.00     0.023 A 
ATOM     56  C   UNL A   1      41.813  27.595  27.805  1.00  0.00     0.031 A 
ATOM     57  C   UNL A   1      39.977  26.368  28.770  1.00  0.00     0.131 A 
ATOM     58  C   UNL A   1      41.815  26.690  26.732  1.00  0.00     0.055 A 
ATOM     59  C   UNL A   1      40.016  25.442  27.727  1.00  0.00     0.041 A 
ATOM     60  F   UNL A   1      39.065  26.180  29.737  1.00  0.00    -0.206 F 
ATOM     61  C   UNL A   1      40.934  25.607  26.694  1.00  0.00     0.022 A 
BRANCH  58  62
ATOM     62  S   UNL A   1      42.956  26.981  25.354  1.00  0.00     0.124 S 
ATOM     63  O   UNL A   1      44.193  27.307  26.055  1.00  0.00    -0.237 OA
ATOM     64  O   UNL A   1      42.930  25.698  24.661  1.00  0.00    -0.237 OA
ATOM     65  O   UNL A   1      42.338  28.090  24.630  1.00  0.00    -0.744 OA
ENDBRANCH  58  62
ENDBRANCH  31  55
BRANCH  43  66
ATOM     66  C   UNL A   1      44.627  28.218  34.657  1.00  0.00     0.023 A 
ATOM     67  C   UNL A   1      44.400  27.077  35.446  1.00  0.00     0.031 A 
ATOM     68  C   UNL A   1      45.956  28.625  34.445  1.00  0.00     0.131 A 
ATOM     69  C   UNL A   1      45.484  26.418  36.046  1.00  0.00     0.055 A 
ATOM     70  C   UNL A   1      47.033  27.929  34.995  1.00  0.00     0.041 A 
ATOM     71  F   UNL A   1      46.228  29.710  33.703  1.00  0.00    -0.206 F 
ATOM     72  C   UNL A   1      46.800  26.827  35.814  1.00  0.00     0.022 A 
BRANCH  69  73
ATOM     73  S   UNL A   1      45.147  25.077  37.221  1.00  0.00     0.124 S 
ATOM     74  O   UNL A   1      46.478  24.795  37.750  1.00  0.00    -0.237 OA
ATOM     75  O   UNL A   1      44.212  25.705  38.149  1.00  0.00    -0.237 OA
ATOM     76  O   UNL A   1      44.577  24.023  36.385  1.00  0.00    -0.744 OA
ENDBRANCH  69  73
ENDBRANCH  43  66
ENDBRANCH  17  18
ENDBRANCH  10  12
ENDBRANCH   7   8
ENDBRANCH   6   7
ENDBRANCH   5   6
ENDBRANCH   1   5
BRANCH   2  77
ATOM     77  C   UNL A   1      32.608  28.726  25.291  1.00  0.00     0.040 A 
ATOM     78  C   UNL A   1      33.292  28.930  24.094  1.00  0.00     0.014 A 
ATOM     79  C   UNL A   1      31.489  27.893  25.325  1.00  0.00     0.018 A 
ATOM     80  C   UNL A   1      32.893  28.235  22.953  1.00  0.00     0.001 A 
ATOM     81  C   UNL A   1      31.122  27.132  24.217  1.00  0.00    -0.039 A 
ATOM     82  C   UNL A   1      31.831  27.325  23.021  1.00  0.00     0.004 A 
BRANCH  81  83
ATOM     83  C   UNL A   1      30.092  26.021  24.334  1.00  0.00     0.074 C 
ATOM     84  C   UNL A   1      29.752  25.568  25.764  1.00  0.00     0.020 C 
ATOM     85  C   UNL A   1      30.466  24.814  23.441  1.00  0.00     0.270 C 
ATOM     86  C   UNL A   1      30.667  24.477  26.324  1.00  0.00     0.062 C 
ATOM     87  N   UNL A   1      31.424  23.865  24.037  1.00  0.00    -0.331 N 
ATOM     88  C   UNL A   1      30.937  23.355  25.322  1.00  0.00     0.262 C 
ATOM     89  H   UNL A   1      32.282  24.384  24.222  1.00  0.00     0.348 HD
BRANCH  87  90
ATOM     90  C   UNL A   1      31.807  22.774  23.101  1.00  0.00     0.299 C 
BRANCH  90  91
ATOM     91  C   UNL A   1      32.828  21.778  23.625  1.00  0.00     0.010 A 
ATOM     92  C   UNL A   1      34.079  22.205  24.088  1.00  0.00     0.010 A 
ATOM     93  C   UNL A   1      32.497  20.419  23.734  1.00  0.00     0.056 A 
ATOM     94  C   UNL A   1      34.946  21.299  24.700  1.00  0.00     0.004 A 
ATOM     95  C   UNL A   1      33.305  19.535  24.445  1.00  0.00     0.119 A 
ATOM     96  C   UNL A   1      34.547  19.976  24.899  1.00  0.00     0.046 A 
BRANCH  95  97
ATOM     97  O   UNL A   1      32.970  18.257  24.796  1.00  0.00    -0.491 OA
BRANCH  97  98
ATOM     98  C   UNL A   1      33.834  17.183  24.398  1.00  0.00     0.257 C 
BRANCH  98  99
ATOM     99  C   UNL A   1      33.396  15.838  24.991  1.00  0.00     0.197 C 
BRANCH  99 100
ATOM    100  O   UNL A   1      31.995  15.757  25.234  1.00  0.00    -0.393 OA
ATOM    101  H   UNL A   1      31.682  16.598  25.600  1.00  0.00     0.210 HD
ENDBRANCH  99 100
ENDBRANCH  98  99
ENDBRANCH  97  98
ENDBRANCH  95  97
ENDBRANCH  90  91
ENDBRANCH  87  90
ENDBRANCH  81  83
ENDBRANCH   2  77
TORSDOF 20
ENDMDL
