MODEL 1
REMARK VINA RESULT:     -12.7      0.000      0.000
REMARK SMILES Cc1nc(-c2ccc(S(=O)(=O)N3CC[NH2+][C@H](C(=O)NCCCNC(=O)c4ccc(-c5c6nc(c(-c7cc(S(=O)(=O)[O-])ccc7F)c7ccc([nH]7)c(-c7cc(S(=O)(=O)[O-])ccc7F)c7nc(c(-c8cc(S(=O)(=O)[O-])ccc8F)c8ccc5[nH]8)C=C7)C=C6)cc4)C3)s2)cs1
REMARK SMILES IDX 21 1 20 2 19 3 17 4 18 5 16 7 12 8 13 9 89 10 14 11 15 12
REMARK SMILES IDX 9 15 10 16 11 17 8 18 5 19 6 20 90 21 7 22 4 23 1 24 2 25
REMARK SMILES IDX 3 26 92 27 91 28 22 29 23 30 24 31 25 33 26 34 27 35 88 36
REMARK SMILES IDX 28 37 87 38 29 39 30 40 31 41 81 42 32 43 86 44 80 45 82 46
REMARK SMILES IDX 33 47 85 48 79 49 78 50 34 52 66 53 46 54 65 55 47 56 50 57
REMARK SMILES IDX 64 58 83 59 48 60 49 61 63 63 84 64 51 65 35 66 36 67 44 68
REMARK SMILES IDX 37 69 43 70 45 71 42 72 38 73 39 74 40 75 41 76 67 77 68 78
REMARK SMILES IDX 76 79 69 80 75 81 77 82 74 83 70 84 71 85 72 86 73 87 52 88
REMARK SMILES IDX 53 89 61 90 54 91 60 92 62 93 59 94 55 95 56 96 57 97 58 98
REMARK H PARENT 19 6 15 13 15 14 23 32 82 51 50 62
REMARK Flexibility Score: inf
ROOT
ATOM      1  C   UNL A   1      31.604  31.818  26.215  1.00  0.00     0.042 C 
ENDROOT
BRANCH   1   2
ATOM      2  C   UNL A   1      31.765  30.344  25.840  1.00  0.00     0.118 C 
BRANCH   2   3
ATOM      3  N   UNL A   1      31.726  29.525  27.038  1.00  0.00    -0.351 N 
ATOM      4  C   UNL A   1      31.546  28.185  27.189  1.00  0.00     0.279 C 
ATOM      5  O   UNL A   1      31.089  27.824  28.280  1.00  0.00    -0.268 OA
ATOM      6  H   UNL A   1      31.849  30.021  27.879  1.00  0.00     0.163 HD
BRANCH   4   7
ATOM      7  C   UNL A   1      32.031  27.150  26.139  1.00  0.00     0.287 C 
ATOM      8  N   UNL A   1      31.954  24.964  25.023  1.00  0.00    -0.185 NA
ATOM      9  C   UNL A   1      33.385  24.670  25.216  1.00  0.00     0.164 C 
ATOM     10  C   UNL A   1      31.412  25.757  26.156  1.00  0.00     0.178 C 
ATOM     11  C   UNL A   1      34.192  25.933  25.569  1.00  0.00     0.278 C 
ATOM     12  N   UNL A   1      33.528  27.074  26.221  1.00  0.00    -0.334 N 
ATOM     13  H   UNL A   1      33.900  27.925  25.798  1.00  0.00     0.347 HD
ATOM     14  H   UNL A   1      33.726  26.955  27.214  1.00  0.00     0.347 HD
BRANCH   8  15
ATOM     15  S   UNL A   1      31.315  25.168  23.466  1.00  0.00     0.253 S 
ATOM     16  O   UNL A   1      30.562  23.965  23.165  1.00  0.00    -0.206 OA
ATOM     17  O   UNL A   1      32.393  25.618  22.615  1.00  0.00    -0.206 OA
BRANCH  15  18
ATOM     18  C   UNL A   1      30.104  26.488  23.343  1.00  0.00     0.135 A 
ATOM     19  C   UNL A   1      29.164  28.715  22.771  1.00  0.00     0.055 A 
ATOM     20  C   UNL A   1      28.321  27.985  23.571  1.00  0.00     0.023 A 
ATOM     21  S   UNL A   1      30.564  27.836  22.356  1.00  0.00    -0.121 S 
ATOM     22  C   UNL A   1      28.851  26.712  23.878  1.00  0.00     0.034 A 
BRANCH  19  23
ATOM     23  C   UNL A   1      28.818  30.120  22.400  1.00  0.00     0.091 A 
ATOM     24  C   UNL A   1      29.248  33.602  23.374  1.00  0.00     0.079 C 
ATOM     25  C   UNL A   1      28.880  32.307  22.742  1.00  0.00     0.090 A 
ATOM     26  N   UNL A   1      29.174  31.141  23.267  1.00  0.00    -0.241 NA
ATOM     27  S   UNL A   1      28.035  32.242  21.248  1.00  0.00    -0.127 S 
ATOM     28  C   UNL A   1      28.173  30.526  21.253  1.00  0.00     0.096 A 
ENDBRANCH  19  23
ENDBRANCH  15  18
ENDBRANCH   8  15
ENDBRANCH   4   7
ENDBRANCH   2   3
ENDBRANCH   1   2
BRANCH   1  29
ATOM     29  C   UNL A   1      32.548  32.245  27.341  1.00  0.00     0.118 C 
BRANCH  29  30
ATOM     30  N   UNL A   1      32.491  33.680  27.569  1.00  0.00    -0.352 N 
ATOM     31  C   UNL A   1      33.188  34.442  28.472  1.00  0.00     0.251 C 
ATOM     32  H   UNL A   1      31.864  34.175  26.994  1.00  0.00     0.163 HD
ATOM     33  O   UNL A   1      32.833  35.597  28.684  1.00  0.00    -0.269 OA
BRANCH  31  34
ATOM     34  C   UNL A   1      34.347  33.870  29.193  1.00  0.00     0.039 A 
ATOM     35  C   UNL A   1      34.114  32.946  30.215  1.00  0.00     0.014 A 
ATOM     36  C   UNL A   1      35.653  34.272  28.894  1.00  0.00     0.014 A 
ATOM     37  C   UNL A   1      35.191  32.396  30.913  1.00  0.00     0.010 A 
ATOM     38  C   UNL A   1      36.729  33.676  29.549  1.00  0.00     0.010 A 
ATOM     39  C   UNL A   1      36.509  32.741  30.571  1.00  0.00    -0.014 A 
BRANCH  39  40
ATOM     40  C   UNL A   1      37.666  32.146  31.288  1.00  0.00     0.031 A 
ATOM     41  C   UNL A   1      38.447  31.024  30.659  1.00  0.00     0.074 A 
ATOM     42  C   UNL A   1      37.975  32.578  32.526  1.00  0.00     0.049 A 
ATOM     43  N   UNL A   1      39.447  30.335  31.145  1.00  0.00    -0.248 NA
ATOM     44  C   UNL A   1      38.024  30.603  29.315  1.00  0.00     0.031 C 
ATOM     45  C   UNL A   1      37.267  33.636  33.251  1.00  0.00     0.029 A 
ATOM     46  N   UNL A   1      38.959  32.182  33.395  1.00  0.00    -0.354 N 
ATOM     47  C   UNL A   1      39.760  29.384  30.178  1.00  0.00     0.074 A 
ATOM     48  C   UNL A   1      38.805  29.555  29.103  1.00  0.00     0.031 C 
ATOM     49  C   UNL A   1      37.858  33.823  34.442  1.00  0.00     0.029 A 
ATOM     50  C   UNL A   1      38.957  32.873  34.585  1.00  0.00     0.049 A 
ATOM     51  H   UNL A   1      39.606  31.470  33.188  1.00  0.00     0.167 HD
ATOM     52  C   UNL A   1      40.761  28.470  30.179  1.00  0.00     0.034 A 
ATOM     53  C   UNL A   1      39.747  32.749  35.668  1.00  0.00     0.034 A 
ATOM     54  C   UNL A   1      41.716  28.330  31.254  1.00  0.00     0.049 A 
ATOM     55  C   UNL A   1      40.845  31.716  35.654  1.00  0.00     0.074 A 
ATOM     56  C   UNL A   1      42.815  27.492  31.330  1.00  0.00     0.029 A 
ATOM     57  N   UNL A   1      41.679  29.043  32.447  1.00  0.00    -0.354 N 
ATOM     58  N   UNL A   1      41.165  30.864  34.707  1.00  0.00    -0.248 NA
ATOM     59  C   UNL A   1      41.691  31.636  36.850  1.00  0.00     0.031 C 
ATOM     60  C   UNL A   1      43.401  27.649  32.592  1.00  0.00     0.029 A 
ATOM     61  C   UNL A   1      42.712  28.637  33.278  1.00  0.00     0.049 A 
ATOM     62  H   UNL A   1      41.015  29.734  32.671  1.00  0.00     0.167 HD
ATOM     63  C   UNL A   1      42.273  30.169  35.184  1.00  0.00     0.074 A 
ATOM     64  C   UNL A   1      42.569  30.710  36.495  1.00  0.00     0.031 C 
ATOM     65  C   UNL A   1      42.986  29.177  34.589  1.00  0.00     0.034 A 
BRANCH  52  66
ATOM     66  C   UNL A   1      40.846  27.530  28.998  1.00  0.00     0.023 A 
ATOM     67  C   UNL A   1      41.819  27.686  27.994  1.00  0.00     0.031 A 
ATOM     68  C   UNL A   1      39.914  26.487  28.851  1.00  0.00     0.131 A 
ATOM     69  C   UNL A   1      41.782  26.877  26.849  1.00  0.00     0.055 A 
ATOM     70  C   UNL A   1      39.937  25.628  27.749  1.00  0.00     0.041 A 
ATOM     71  F   UNL A   1      38.950  26.297  29.765  1.00  0.00    -0.206 F 
ATOM     72  C   UNL A   1      40.863  25.832  26.731  1.00  0.00     0.022 A 
BRANCH  69  73
ATOM     73  S   UNL A   1      42.845  27.314  25.445  1.00  0.00     0.124 S 
ATOM     74  O   UNL A   1      44.049  27.787  26.123  1.00  0.00    -0.237 OA
ATOM     75  O   UNL A   1      42.967  26.045  24.737  1.00  0.00    -0.237 OA
ATOM     76  O   UNL A   1      42.085  28.348  24.747  1.00  0.00    -0.744 OA
ENDBRANCH  69  73
ENDBRANCH  52  66
BRANCH  53  77
ATOM     77  C   UNL A   1      39.542  33.625  36.856  1.00  0.00     0.023 A 
ATOM     78  C   UNL A   1      38.906  33.137  38.008  1.00  0.00     0.031 A 
ATOM     79  C   UNL A   1      39.951  34.971  36.845  1.00  0.00     0.131 A 
ATOM     80  C   UNL A   1      38.657  33.998  39.087  1.00  0.00     0.055 A 
ATOM     81  C   UNL A   1      39.743  35.811  37.941  1.00  0.00     0.041 A 
ATOM     82  F   UNL A   1      40.571  35.485  35.772  1.00  0.00    -0.206 F 
ATOM     83  C   UNL A   1      39.082  35.328  39.066  1.00  0.00     0.022 A 
BRANCH  80  84
ATOM     84  S   UNL A   1      37.703  33.368  40.495  1.00  0.00     0.124 S 
ATOM     85  O   UNL A   1      36.527  32.817  39.834  1.00  0.00    -0.237 OA
ATOM     86  O   UNL A   1      38.626  32.400  41.077  1.00  0.00    -0.237 OA
ATOM     87  O   UNL A   1      37.465  34.562  41.304  1.00  0.00    -0.744 OA
ENDBRANCH  80  84
ENDBRANCH  53  77
BRANCH  65  88
ATOM     88  C   UNL A   1      44.180  28.651  35.347  1.00  0.00     0.023 A 
ATOM     89  C   UNL A   1      44.062  27.614  36.288  1.00  0.00     0.031 A 
ATOM     90  C   UNL A   1      45.451  29.215  35.140  1.00  0.00     0.131 A 
ATOM     91  C   UNL A   1      45.183  27.212  37.029  1.00  0.00     0.055 A 
ATOM     92  C   UNL A   1      46.575  28.770  35.837  1.00  0.00     0.041 A 
ATOM     93  F   UNL A   1      45.620  30.211  34.254  1.00  0.00    -0.206 F 
ATOM     94  C   UNL A   1      46.442  27.773  36.797  1.00  0.00     0.022 A 
BRANCH  91  95
ATOM     95  S   UNL A   1      44.955  26.010  38.369  1.00  0.00     0.124 S 
ATOM     96  O   UNL A   1      44.130  24.992  37.727  1.00  0.00    -0.237 OA
ATOM     97  O   UNL A   1      46.327  25.619  38.675  1.00  0.00    -0.237 OA
ATOM     98  O   UNL A   1      44.284  26.783  39.412  1.00  0.00    -0.744 OA
ENDBRANCH  91  95
ENDBRANCH  65  88
ENDBRANCH  39  40
ENDBRANCH  31  34
ENDBRANCH  29  30
ENDBRANCH   1  29
TORSDOF 16
ENDMDL
MODEL 2
REMARK VINA RESULT:     -12.4      6.063     12.038
REMARK SMILES Cc1nc(-c2ccc(S(=O)(=O)N3CC[NH2+][C@H](C(=O)NCCCNC(=O)c4ccc(-c5c6nc(c(-c7cc(S(=O)(=O)[O-])ccc7F)c7ccc([nH]7)c(-c7cc(S(=O)(=O)[O-])ccc7F)c7nc(c(-c8cc(S(=O)(=O)[O-])ccc8F)c8ccc5[nH]8)C=C7)C=C6)cc4)C3)s2)cs1
REMARK SMILES IDX 21 1 20 2 19 3 17 4 18 5 16 7 12 8 13 9 89 10 14 11 15 12
REMARK SMILES IDX 9 15 10 16 11 17 8 18 5 19 6 20 90 21 7 22 4 23 1 24 2 25
REMARK SMILES IDX 3 26 92 27 91 28 22 29 23 30 24 31 25 33 26 34 27 35 88 36
REMARK SMILES IDX 28 37 87 38 29 39 30 40 31 41 81 42 32 43 86 44 80 45 82 46
REMARK SMILES IDX 33 47 85 48 79 49 78 50 34 52 66 53 46 54 65 55 47 56 50 57
REMARK SMILES IDX 64 58 83 59 48 60 49 61 63 63 84 64 51 65 35 66 36 67 44 68
REMARK SMILES IDX 37 69 43 70 45 71 42 72 38 73 39 74 40 75 41 76 67 77 68 78
REMARK SMILES IDX 76 79 69 80 75 81 77 82 74 83 70 84 71 85 72 86 73 87 52 88
REMARK SMILES IDX 53 89 61 90 54 91 60 92 62 93 59 94 55 95 56 96 57 97 58 98
REMARK H PARENT 19 6 15 13 15 14 23 32 82 51 50 62
REMARK Flexibility Score: inf
ROOT
ATOM      1  C   UNL A   1      37.840  19.791  25.117  1.00  0.00     0.042 C 
ENDROOT
BRANCH   1   2
ATOM      2  C   UNL A   1      36.682  20.782  24.977  1.00  0.00     0.118 C 
BRANCH   2   3
ATOM      3  N   UNL A   1      37.026  21.806  24.009  1.00  0.00    -0.351 N 
ATOM      4  C   UNL A   1      36.252  22.743  23.398  1.00  0.00     0.279 C 
ATOM      5  O   UNL A   1      36.666  23.155  22.307  1.00  0.00    -0.268 OA
ATOM      6  H   UNL A   1      37.976  21.827  23.752  1.00  0.00     0.163 HD
BRANCH   4   7
ATOM      7  C   UNL A   1      35.016  23.386  24.082  1.00  0.00     0.287 C 
ATOM      8  N   UNL A   1      32.964  24.734  24.073  1.00  0.00    -0.185 NA
ATOM      9  C   UNL A   1      33.389  25.624  25.168  1.00  0.00     0.164 C 
ATOM     10  C   UNL A   1      34.124  24.302  23.252  1.00  0.00     0.178 C 
ATOM     11  C   UNL A   1      34.566  25.034  25.968  1.00  0.00     0.278 C 
ATOM     12  N   UNL A   1      35.484  24.076  25.329  1.00  0.00    -0.334 N 
ATOM     13  H   UNL A   1      35.696  23.353  26.017  1.00  0.00     0.347 HD
ATOM     14  H   UNL A   1      36.278  24.642  25.028  1.00  0.00     0.347 HD
BRANCH   8  15
ATOM     15  S   UNL A   1      31.632  23.703  24.263  1.00  0.00     0.253 S 
ATOM     16  O   UNL A   1      30.641  24.121  23.288  1.00  0.00    -0.206 OA
ATOM     17  O   UNL A   1      31.328  23.650  25.675  1.00  0.00    -0.206 OA
BRANCH  15  18
ATOM     18  C   UNL A   1      31.970  21.991  23.841  1.00  0.00     0.135 A 
ATOM     19  C   UNL A   1      32.660  19.627  24.160  1.00  0.00     0.055 A 
ATOM     20  C   UNL A   1      32.472  19.938  22.837  1.00  0.00     0.023 A 
ATOM     21  S   UNL A   1      32.288  20.939  25.181  1.00  0.00    -0.121 S 
ATOM     22  C   UNL A   1      32.062  21.279  22.661  1.00  0.00     0.034 A 
BRANCH  19  23
ATOM     23  C   UNL A   1      33.171  18.277  24.547  1.00  0.00     0.091 A 
ATOM     24  C   UNL A   1      32.200  15.069  25.969  1.00  0.00     0.079 C 
ATOM     25  C   UNL A   1      32.898  16.248  25.390  1.00  0.00     0.090 A 
ATOM     26  N   UNL A   1      32.319  17.412  25.215  1.00  0.00    -0.241 NA
ATOM     27  S   UNL A   1      34.539  16.167  24.891  1.00  0.00    -0.127 S 
ATOM     28  C   UNL A   1      34.430  17.778  24.295  1.00  0.00     0.096 A 
ENDBRANCH  19  23
ENDBRANCH  15  18
ENDBRANCH   8  15
ENDBRANCH   4   7
ENDBRANCH   2   3
ENDBRANCH   1   2
BRANCH   1  29
ATOM     29  C   UNL A   1      39.016  20.368  25.907  1.00  0.00     0.118 C 
BRANCH  29  30
ATOM     30  N   UNL A   1      40.100  19.407  26.027  1.00  0.00    -0.352 N 
ATOM     31  C   UNL A   1      41.450  19.633  26.128  1.00  0.00     0.251 C 
ATOM     32  H   UNL A   1      39.828  18.461  26.037  1.00  0.00     0.163 HD
ATOM     33  O   UNL A   1      42.228  18.696  25.977  1.00  0.00    -0.269 OA
BRANCH  31  34
ATOM     34  C   UNL A   1      41.961  20.994  26.400  1.00  0.00     0.039 A 
ATOM     35  C   UNL A   1      42.249  21.353  27.720  1.00  0.00     0.014 A 
ATOM     36  C   UNL A   1      42.116  21.926  25.370  1.00  0.00     0.014 A 
ATOM     37  C   UNL A   1      42.729  22.633  28.002  1.00  0.00     0.010 A 
ATOM     38  C   UNL A   1      42.652  23.183  25.644  1.00  0.00     0.010 A 
ATOM     39  C   UNL A   1      42.954  23.552  26.964  1.00  0.00    -0.014 A 
BRANCH  39  40
ATOM     40  C   UNL A   1      43.487  24.910  27.246  1.00  0.00     0.031 A 
ATOM     41  C   UNL A   1      42.581  25.974  27.803  1.00  0.00     0.074 A 
ATOM     42  C   UNL A   1      44.769  25.197  26.947  1.00  0.00     0.049 A 
ATOM     43  N   UNL A   1      42.838  27.231  28.061  1.00  0.00    -0.248 NA
ATOM     44  C   UNL A   1      41.193  25.576  28.079  1.00  0.00     0.031 C 
ATOM     45  C   UNL A   1      45.732  24.255  26.370  1.00  0.00     0.029 A 
ATOM     46  N   UNL A   1      45.482  26.360  27.081  1.00  0.00    -0.354 N 
ATOM     47  C   UNL A   1      41.640  27.781  28.507  1.00  0.00     0.074 A 
ATOM     48  C   UNL A   1      40.646  26.730  28.431  1.00  0.00     0.031 C 
ATOM     49  C   UNL A   1      46.916  24.871  26.227  1.00  0.00     0.029 A 
ATOM     50  C   UNL A   1      46.788  26.259  26.659  1.00  0.00     0.049 A 
ATOM     51  H   UNL A   1      45.097  27.190  27.444  1.00  0.00     0.167 HD
ATOM     52  C   UNL A   1      41.398  29.038  28.955  1.00  0.00     0.034 A 
ATOM     53  C   UNL A   1      47.767  27.183  26.621  1.00  0.00     0.034 A 
ATOM     54  C   UNL A   1      42.409  30.065  29.042  1.00  0.00     0.049 A 
ATOM     55  C   UNL A   1      47.472  28.577  27.111  1.00  0.00     0.074 A 
ATOM     56  C   UNL A   1      42.296  31.348  29.550  1.00  0.00     0.029 A 
ATOM     57  N   UNL A   1      43.720  29.929  28.600  1.00  0.00    -0.354 N 
ATOM     58  N   UNL A   1      46.349  29.066  27.586  1.00  0.00    -0.248 NA
ATOM     59  C   UNL A   1      48.579  29.539  27.068  1.00  0.00     0.031 C 
ATOM     60  C   UNL A   1      43.516  32.007  29.354  1.00  0.00     0.029 A 
ATOM     61  C   UNL A   1      44.413  31.114  28.790  1.00  0.00     0.049 A 
ATOM     62  H   UNL A   1      44.100  29.110  28.208  1.00  0.00     0.167 HD
ATOM     63  C   UNL A   1      46.627  30.386  27.928  1.00  0.00     0.074 A 
ATOM     64  C   UNL A   1      48.024  30.611  27.615  1.00  0.00     0.031 C 
ATOM     65  C   UNL A   1      45.803  31.327  28.459  1.00  0.00     0.034 A 
BRANCH  52  66
ATOM     66  C   UNL A   1      39.977  29.373  29.350  1.00  0.00     0.023 A 
ATOM     67  C   UNL A   1      39.581  29.455  30.697  1.00  0.00     0.031 A 
ATOM     68  C   UNL A   1      38.993  29.572  28.364  1.00  0.00     0.131 A 
ATOM     69  C   UNL A   1      38.228  29.637  31.021  1.00  0.00     0.055 A 
ATOM     70  C   UNL A   1      37.663  29.841  28.695  1.00  0.00     0.041 A 
ATOM     71  F   UNL A   1      39.304  29.488  27.062  1.00  0.00    -0.206 F 
ATOM     72  C   UNL A   1      37.270  29.856  30.030  1.00  0.00     0.022 A 
BRANCH  69  73
ATOM     73  S   UNL A   1      37.715  29.421  32.748  1.00  0.00     0.124 S 
ATOM     74  O   UNL A   1      36.431  30.118  32.763  1.00  0.00    -0.237 OA
ATOM     75  O   UNL A   1      37.655  27.970  32.879  1.00  0.00    -0.237 OA
ATOM     76  O   UNL A   1      38.778  30.074  33.507  1.00  0.00    -0.744 OA
ENDBRANCH  69  73
ENDBRANCH  52  66
BRANCH  53  77
ATOM     77  C   UNL A   1      49.122  26.826  26.110  1.00  0.00     0.023 A 
ATOM     78  C   UNL A   1      49.561  27.286  24.859  1.00  0.00     0.031 A 
ATOM     79  C   UNL A   1      49.983  25.997  26.850  1.00  0.00     0.131 A 
ATOM     80  C   UNL A   1      50.809  26.879  24.363  1.00  0.00     0.055 A 
ATOM     81  C   UNL A   1      51.244  25.634  26.374  1.00  0.00     0.041 A 
ATOM     82  F   UNL A   1      49.614  25.537  28.056  1.00  0.00    -0.206 F 
ATOM     83  C   UNL A   1      51.658  26.066  25.117  1.00  0.00     0.022 A 
BRANCH  80  84
ATOM     84  S   UNL A   1      51.276  27.374  22.682  1.00  0.00     0.124 S 
ATOM     85  O   UNL A   1      51.246  28.828  22.781  1.00  0.00    -0.237 OA
ATOM     86  O   UNL A   1      52.596  26.767  22.544  1.00  0.00    -0.237 OA
ATOM     87  O   UNL A   1      50.230  26.780  21.851  1.00  0.00    -0.744 OA
ENDBRANCH  80  84
ENDBRANCH  53  77
BRANCH  65  88
ATOM     88  C   UNL A   1      46.418  32.669  28.771  1.00  0.00     0.023 A 
ATOM     89  C   UNL A   1      46.513  33.683  27.801  1.00  0.00     0.031 A 
ATOM     90  C   UNL A   1      46.936  32.928  30.051  1.00  0.00     0.131 A 
ATOM     91  C   UNL A   1      47.165  34.885  28.110  1.00  0.00     0.055 A 
ATOM     92  C   UNL A   1      47.531  34.149  30.371  1.00  0.00     0.041 A 
ATOM     93  F   UNL A   1      46.875  31.993  31.015  1.00  0.00    -0.206 F 
ATOM     94  C   UNL A   1      47.661  35.131  29.394  1.00  0.00     0.022 A 
BRANCH  91  95
ATOM     95  S   UNL A   1      47.443  36.090  26.783  1.00  0.00     0.124 S 
ATOM     96  O   UNL A   1      46.106  36.231  26.215  1.00  0.00    -0.237 OA
ATOM     97  O   UNL A   1      47.949  37.248  27.512  1.00  0.00    -0.237 OA
ATOM     98  O   UNL A   1      48.417  35.428  25.916  1.00  0.00    -0.744 OA
ENDBRANCH  91  95
ENDBRANCH  65  88
ENDBRANCH  39  40
ENDBRANCH  31  34
ENDBRANCH  29  30
ENDBRANCH   1  29
TORSDOF 16
ENDMDL
MODEL 3
REMARK VINA RESULT:     -12.4      1.499      7.614
REMARK SMILES Cc1nc(-c2ccc(S(=O)(=O)N3CC[NH2+][C@H](C(=O)NCCCNC(=O)c4ccc(-c5c6nc(c(-c7cc(S(=O)(=O)[O-])ccc7F)c7ccc([nH]7)c(-c7cc(S(=O)(=O)[O-])ccc7F)c7nc(c(-c8cc(S(=O)(=O)[O-])ccc8F)c8ccc5[nH]8)C=C7)C=C6)cc4)C3)s2)cs1
REMARK SMILES IDX 21 1 20 2 19 3 17 4 18 5 16 7 12 8 13 9 89 10 14 11 15 12
REMARK SMILES IDX 9 15 10 16 11 17 8 18 5 19 6 20 90 21 7 22 4 23 1 24 2 25
REMARK SMILES IDX 3 26 92 27 91 28 22 29 23 30 24 31 25 33 26 34 27 35 88 36
REMARK SMILES IDX 28 37 87 38 29 39 30 40 31 41 81 42 32 43 86 44 80 45 82 46
REMARK SMILES IDX 33 47 85 48 79 49 78 50 34 52 66 53 46 54 65 55 47 56 50 57
REMARK SMILES IDX 64 58 83 59 48 60 49 61 63 63 84 64 51 65 35 66 36 67 44 68
REMARK SMILES IDX 37 69 43 70 45 71 42 72 38 73 39 74 40 75 41 76 67 77 68 78
REMARK SMILES IDX 76 79 69 80 75 81 77 82 74 83 70 84 71 85 72 86 73 87 52 88
REMARK SMILES IDX 53 89 61 90 54 91 60 92 62 93 59 94 55 95 56 96 57 97 58 98
REMARK H PARENT 19 6 15 13 15 14 23 32 82 51 50 62
REMARK Flexibility Score: inf
ROOT
ATOM      1  C   UNL A   1      31.339  32.218  26.447  1.00  0.00     0.042 C 
ENDROOT
BRANCH   1   2
ATOM      2  C   UNL A   1      31.274  30.783  25.919  1.00  0.00     0.118 C 
BRANCH   2   3
ATOM      3  N   UNL A   1      31.574  29.852  26.990  1.00  0.00    -0.351 N 
ATOM      4  C   UNL A   1      31.621  28.492  26.995  1.00  0.00     0.279 C 
ATOM      5  O   UNL A   1      31.429  27.951  28.090  1.00  0.00    -0.268 OA
ATOM      6  H   UNL A   1      31.777  30.273  27.856  1.00  0.00     0.163 HD
BRANCH   4   7
ATOM      7  C   UNL A   1      32.049  27.664  25.754  1.00  0.00     0.287 C 
ATOM      8  N   UNL A   1      32.606  25.563  24.610  1.00  0.00    -0.185 NA
ATOM      9  C   UNL A   1      33.907  26.033  24.104  1.00  0.00     0.164 C 
ATOM     10  C   UNL A   1      32.293  26.169  25.930  1.00  0.00     0.178 C 
ATOM     11  C   UNL A   1      34.028  27.567  24.158  1.00  0.00     0.278 C 
ATOM     12  N   UNL A   1      33.241  28.335  25.137  1.00  0.00    -0.334 N 
ATOM     13  H   UNL A   1      32.908  29.177  24.667  1.00  0.00     0.347 HD
ATOM     14  H   UNL A   1      33.880  28.491  25.917  1.00  0.00     0.347 HD
BRANCH   8  15
ATOM     15  S   UNL A   1      31.350  25.174  23.540  1.00  0.00     0.253 S 
ATOM     16  O   UNL A   1      30.620  24.073  24.140  1.00  0.00    -0.206 OA
ATOM     17  O   UNL A   1      31.929  25.067  22.220  1.00  0.00    -0.206 OA
BRANCH  15  18
ATOM     18  C   UNL A   1      30.121  26.470  23.358  1.00  0.00     0.135 A 
ATOM     19  C   UNL A   1      29.165  28.674  22.728  1.00  0.00     0.055 A 
ATOM     20  C   UNL A   1      28.304  27.936  23.501  1.00  0.00     0.023 A 
ATOM     21  S   UNL A   1      30.595  27.818  22.376  1.00  0.00    -0.121 S 
ATOM     22  C   UNL A   1      28.844  26.676  23.841  1.00  0.00     0.034 A 
BRANCH  19  23
ATOM     23  C   UNL A   1      28.808  30.069  22.331  1.00  0.00     0.091 A 
ATOM     24  C   UNL A   1      29.153  33.568  23.278  1.00  0.00     0.079 C 
ATOM     25  C   UNL A   1      28.825  32.261  22.650  1.00  0.00     0.090 A 
ATOM     26  N   UNL A   1      29.121  31.106  23.197  1.00  0.00    -0.241 NA
ATOM     27  S   UNL A   1      28.028  32.166  21.131  1.00  0.00    -0.127 S 
ATOM     28  C   UNL A   1      28.194  30.453  21.160  1.00  0.00     0.096 A 
ENDBRANCH  19  23
ENDBRANCH  15  18
ENDBRANCH   8  15
ENDBRANCH   4   7
ENDBRANCH   2   3
ENDBRANCH   1   2
BRANCH   1  29
ATOM     29  C   UNL A   1      32.615  32.493  27.245  1.00  0.00     0.118 C 
BRANCH  29  30
ATOM     30  N   UNL A   1      32.700  33.886  27.651  1.00  0.00    -0.352 N 
ATOM     31  C   UNL A   1      33.499  34.463  28.606  1.00  0.00     0.251 C 
ATOM     32  H   UNL A   1      32.098  34.503  27.174  1.00  0.00     0.163 HD
ATOM     33  O   UNL A   1      33.259  35.608  28.977  1.00  0.00    -0.269 OA
BRANCH  31  34
ATOM     34  C   UNL A   1      34.627  33.707  29.191  1.00  0.00     0.039 A 
ATOM     35  C   UNL A   1      35.932  34.075  28.852  1.00  0.00     0.014 A 
ATOM     36  C   UNL A   1      34.403  32.614  30.035  1.00  0.00     0.014 A 
ATOM     37  C   UNL A   1      37.013  33.373  29.389  1.00  0.00     0.010 A 
ATOM     38  C   UNL A   1      35.483  31.954  30.618  1.00  0.00     0.010 A 
ATOM     39  C   UNL A   1      36.798  32.320  30.293  1.00  0.00    -0.014 A 
BRANCH  39  40
ATOM     40  C   UNL A   1      37.938  31.580  30.890  1.00  0.00     0.031 A 
ATOM     41  C   UNL A   1      38.385  31.887  32.294  1.00  0.00     0.074 A 
ATOM     42  C   UNL A   1      38.605  30.673  30.149  1.00  0.00     0.049 A 
ATOM     43  N   UNL A   1      39.390  31.396  32.972  1.00  0.00    -0.248 NA
ATOM     44  C   UNL A   1      37.612  32.906  33.020  1.00  0.00     0.031 C 
ATOM     45  C   UNL A   1      38.285  30.317  28.764  1.00  0.00     0.029 A 
ATOM     46  N   UNL A   1      39.689  29.890  30.451  1.00  0.00    -0.354 N 
ATOM     47  C   UNL A   1      39.387  32.060  34.194  1.00  0.00     0.074 A 
ATOM     48  C   UNL A   1      38.310  33.027  34.139  1.00  0.00     0.031 C 
ATOM     49  C   UNL A   1      39.136  29.366  28.348  1.00  0.00     0.029 A 
ATOM     50  C   UNL A   1      40.087  29.075  29.416  1.00  0.00     0.049 A 
ATOM     51  H   UNL A   1      40.141  29.908  31.325  1.00  0.00     0.167 HD
ATOM     52  C   UNL A   1      40.193  31.868  35.267  1.00  0.00     0.034 A 
ATOM     53  C   UNL A   1      41.106  28.198  29.337  1.00  0.00     0.034 A 
ATOM     54  C   UNL A   1      41.249  30.884  35.308  1.00  0.00     0.049 A 
ATOM     55  C   UNL A   1      41.999  28.011  30.537  1.00  0.00     0.074 A 
ATOM     56  C   UNL A   1      42.078  30.549  36.366  1.00  0.00     0.029 A 
ATOM     57  N   UNL A   1      41.628  30.080  34.239  1.00  0.00    -0.354 N 
ATOM     58  N   UNL A   1      41.946  28.605  31.708  1.00  0.00    -0.248 NA
ATOM     59  C   UNL A   1      43.082  27.029  30.407  1.00  0.00     0.031 C 
ATOM     60  C   UNL A   1      42.999  29.595  35.917  1.00  0.00     0.029 A 
ATOM     61  C   UNL A   1      42.701  29.279  34.601  1.00  0.00     0.049 A 
ATOM     62  H   UNL A   1      41.199  30.080  33.354  1.00  0.00     0.167 HD
ATOM     63  C   UNL A   1      42.970  28.042  32.463  1.00  0.00     0.074 A 
ATOM     64  C   UNL A   1      43.615  27.056  31.619  1.00  0.00     0.031 C 
ATOM     65  C   UNL A   1      43.342  28.310  33.742  1.00  0.00     0.034 A 
BRANCH  52  66
ATOM     66  C   UNL A   1      39.982  32.766  36.465  1.00  0.00     0.023 A 
ATOM     67  C   UNL A   1      39.195  32.369  37.561  1.00  0.00     0.031 A 
ATOM     68  C   UNL A   1      40.542  34.057  36.494  1.00  0.00     0.131 A 
ATOM     69  C   UNL A   1      38.916  33.280  38.591  1.00  0.00     0.055 A 
ATOM     70  C   UNL A   1      40.331  34.927  37.565  1.00  0.00     0.041 A 
ATOM     71  F   UNL A   1      41.287  34.501  35.470  1.00  0.00    -0.206 F 
ATOM     72  C   UNL A   1      39.499  34.548  38.613  1.00  0.00     0.022 A 
BRANCH  69  73
ATOM     73  S   UNL A   1      37.650  32.841  39.815  1.00  0.00     0.124 S 
ATOM     74  O   UNL A   1      37.686  33.999  40.704  1.00  0.00    -0.237 OA
ATOM     75  O   UNL A   1      36.453  32.703  38.994  1.00  0.00    -0.237 OA
ATOM     76  O   UNL A   1      38.154  31.600  40.400  1.00  0.00    -0.744 OA
ENDBRANCH  69  73
ENDBRANCH  52  66
BRANCH  53  77
ATOM     77  C   UNL A   1      41.340  27.423  28.086  1.00  0.00     0.023 A 
ATOM     78  C   UNL A   1      41.016  26.059  28.016  1.00  0.00     0.031 A 
ATOM     79  C   UNL A   1      41.919  28.025  26.955  1.00  0.00     0.131 A 
ATOM     80  C   UNL A   1      41.312  25.329  26.855  1.00  0.00     0.055 A 
ATOM     81  C   UNL A   1      42.167  27.305  25.785  1.00  0.00     0.041 A 
ATOM     82  F   UNL A   1      42.239  29.328  26.967  1.00  0.00    -0.206 F 
ATOM     83  C   UNL A   1      41.874  25.946  25.735  1.00  0.00     0.022 A 
BRANCH  80  84
ATOM     84  S   UNL A   1      41.014  23.540  26.857  1.00  0.00     0.124 S 
ATOM     85  O   UNL A   1      41.906  23.089  25.795  1.00  0.00    -0.237 OA
ATOM     86  O   UNL A   1      41.396  23.171  28.216  1.00  0.00    -0.237 OA
ATOM     87  O   UNL A   1      39.586  23.434  26.562  1.00  0.00    -0.744 OA
ENDBRANCH  80  84
ENDBRANCH  53  77
BRANCH  65  88
ATOM     88  C   UNL A   1      44.473  27.488  34.308  1.00  0.00     0.023 A 
ATOM     89  C   UNL A   1      44.241  26.283  34.994  1.00  0.00     0.031 A 
ATOM     90  C   UNL A   1      45.801  27.930  34.177  1.00  0.00     0.131 A 
ATOM     91  C   UNL A   1      45.315  25.592  35.575  1.00  0.00     0.055 A 
ATOM     92  C   UNL A   1      46.872  27.207  34.705  1.00  0.00     0.041 A 
ATOM     93  F   UNL A   1      46.079  29.076  33.533  1.00  0.00    -0.206 F 
ATOM     94  C   UNL A   1      46.631  26.039  35.420  1.00  0.00     0.022 A 
BRANCH  91  95
ATOM     95  S   UNL A   1      44.961  24.151  36.617  1.00  0.00     0.124 S 
ATOM     96  O   UNL A   1      44.303  24.762  37.768  1.00  0.00    -0.237 OA
ATOM     97  O   UNL A   1      44.110  23.341  35.753  1.00  0.00    -0.237 OA
ATOM     98  O   UNL A   1      46.284  23.589  36.887  1.00  0.00    -0.744 OA
ENDBRANCH  91  95
ENDBRANCH  65  88
ENDBRANCH  39  40
ENDBRANCH  31  34
ENDBRANCH  29  30
ENDBRANCH   1  29
TORSDOF 16
ENDMDL
