MODEL 1
REMARK VINA RESULT:      -9.8      0.000      0.000
REMARK SMILES Cc1ccc(S(=O)(=O)n2cc(C(=O)C(=O)N[C@@H](Cc3c[nH]c4ccccc34)C(=O)NCC(=O)NCCCNC(=O)c3ccc(-c4c5nc(c(-c6cc(S(=O)(=O)[O-])ccc6F)c6ccc([nH]6)c(-c6cc(S(=O)(=O)[O-])ccc6F)c6nc(c(-c7cc(S(=O)(=O)[O-])ccc7F)c7ccc4[nH]7)C=C6)C=C5)cc3)c3ccccc32)cc1
REMARK SMILES IDX 32 1 33 2 34 3 31 5 30 6 28 7 29 8 17 10 16 11 14 12 15 13
REMARK SMILES IDX 12 15 13 16 11 17 9 18 10 19 109 20 104 21 108 22 105 23
REMARK SMILES IDX 107 24 106 25 6 26 7 27 8 28 5 29 1 30 2 31 3 32 111 33 4 34
REMARK SMILES IDX 110 35 18 36 19 37 20 38 27 39 21 40 22 41 26 42 23 44 25 45
REMARK SMILES IDX 24 46 35 47 36 48 37 49 38 50 39 51 40 53 41 54 42 55 103 56
REMARK SMILES IDX 43 57 102 58 44 59 45 60 46 61 96 62 47 63 101 64 95 65
REMARK SMILES IDX 97 66 48 67 100 68 94 69 93 70 49 72 81 73 61 74 80 75 62 76
REMARK SMILES IDX 65 77 79 78 98 79 63 80 64 81 78 83 99 84 66 85 50 86 51 87
REMARK SMILES IDX 59 88 52 89 58 90 60 91 57 92 53 93 54 94 55 95 56 96 82 97
REMARK SMILES IDX 83 98 91 99 84 100 90 101 92 102 89 103 85 104 86 105 87 106
REMARK SMILES IDX 88 107 67 108 68 109 76 110 69 111 75 112 77 113 74 114
REMARK SMILES IDX 70 115 71 116 72 117 73 118
REMARK H PARENT 34 4 30 9 16 14 21 43 38 52 97 71 65 82
REMARK Flexibility Score: inf
ROOT
ATOM      1  C   UNL A   1      46.354  31.733  26.454  1.00  0.00     0.239 C 
ATOM      2  O   UNL A   1      45.703  30.904  25.815  1.00  0.00    -0.273 OA
ATOM      3  N   UNL A   1      46.493  33.009  25.988  1.00  0.00    -0.355 N 
ATOM      4  H   UNL A   1      46.016  33.232  25.156  1.00  0.00     0.163 HD
ENDROOT
BRANCH   1   5
ATOM      5  C   UNL A   1      47.016  31.377  27.785  1.00  0.00     0.216 C 
BRANCH   5   6
ATOM      6  N   UNL A   1      46.153  31.356  28.952  1.00  0.00    -0.345 N 
ATOM      7  C   UNL A   1      45.618  30.307  29.638  1.00  0.00     0.243 C 
ATOM      8  O   UNL A   1      45.274  30.552  30.804  1.00  0.00    -0.273 OA
ATOM      9  H   UNL A   1      45.917  32.243  29.305  1.00  0.00     0.164 HD
BRANCH   7  10
ATOM     10  C   UNL A   1      45.559  28.838  29.120  1.00  0.00     0.176 C 
BRANCH  10  11
ATOM     11  N   UNL A   1      46.412  27.816  29.754  1.00  0.00    -0.337 N 
ATOM     12  C   UNL A   1      46.540  26.456  29.475  1.00  0.00     0.293 C 
ATOM     13  O   UNL A   1      46.773  25.666  30.379  1.00  0.00    -0.265 OA
ATOM     14  H   UNL A   1      46.979  28.144  30.490  1.00  0.00     0.164 HD
BRANCH  12  15
ATOM     15  C   UNL A   1      46.355  25.928  28.042  1.00  0.00     0.252 C 
ATOM     16  O   UNL A   1      47.170  26.309  27.201  1.00  0.00    -0.283 OA
BRANCH  15  17
ATOM     17  C   UNL A   1      45.158  25.171  27.623  1.00  0.00     0.054 A 
ATOM     18  N   UNL A   1      43.110  24.277  27.298  1.00  0.00    -0.240 N 
ATOM     19  C   UNL A   1      43.893  24.986  28.203  1.00  0.00     0.117 A 
ATOM     20  C   UNL A   1      43.855  24.099  26.122  1.00  0.00     0.065 A 
ATOM     21  C   UNL A   1      45.178  24.346  26.459  1.00  0.00     0.012 A 
ATOM     22  C   UNL A   1      43.514  23.525  24.879  1.00  0.00     0.028 A 
ATOM     23  C   UNL A   1      46.196  23.836  25.625  1.00  0.00     0.011 A 
ATOM     24  C   UNL A   1      44.533  22.999  24.089  1.00  0.00     0.002 A 
ATOM     25  C   UNL A   1      45.859  23.110  24.482  1.00  0.00     0.001 A 
BRANCH  18  26
ATOM     26  S   UNL A   1      42.000  22.978  27.563  1.00  0.00     0.268 S 
ATOM     27  O   UNL A   1      41.848  22.976  29.011  1.00  0.00    -0.201 OA
ATOM     28  O   UNL A   1      42.678  21.868  26.900  1.00  0.00    -0.201 OA
BRANCH  26  29
ATOM     29  C   UNL A   1      40.366  22.772  26.955  1.00  0.00     0.088 A 
ATOM     30  C   UNL A   1      36.892  21.561  24.682  1.00  0.00     0.044 C 
ATOM     31  C   UNL A   1      38.056  21.989  25.528  1.00  0.00    -0.051 A 
ATOM     32  C   UNL A   1      39.095  21.084  25.692  1.00  0.00     0.005 A 
ATOM     33  C   UNL A   1      38.173  23.274  26.108  1.00  0.00     0.005 A 
ATOM     34  C   UNL A   1      40.219  21.472  26.402  1.00  0.00     0.022 A 
ATOM     35  C   UNL A   1      39.330  23.679  26.825  1.00  0.00     0.022 A 
ENDBRANCH  26  29
ENDBRANCH  18  26
ENDBRANCH  15  17
ENDBRANCH  12  15
ENDBRANCH  10  11
BRANCH  10  36
ATOM     36  C   UNL A   1      44.092  28.342  28.895  1.00  0.00     0.072 C 
BRANCH  36  37
ATOM     37  C   UNL A   1      43.140  28.379  30.067  1.00  0.00    -0.020 A 
ATOM     38  C   UNL A   1      43.289  27.673  31.251  1.00  0.00     0.087 A 
ATOM     39  C   UNL A   1      41.885  29.078  30.175  1.00  0.00     0.003 A 
ATOM     40  N   UNL A   1      42.138  27.802  31.984  1.00  0.00    -0.361 N 
ATOM     41  C   UNL A   1      41.224  28.560  31.292  1.00  0.00     0.046 A 
ATOM     42  C   UNL A   1      41.181  29.983  29.353  1.00  0.00     0.010 A 
ATOM     43  H   UNL A   1      41.987  27.410  32.875  1.00  0.00     0.166 HD
ATOM     44  C   UNL A   1      39.863  28.783  31.543  1.00  0.00     0.026 A 
ATOM     45  C   UNL A   1      39.810  30.175  29.558  1.00  0.00     0.001 A 
ATOM     46  C   UNL A   1      39.158  29.563  30.624  1.00  0.00     0.002 A 
ENDBRANCH  36  37
ENDBRANCH  10  36
ENDBRANCH   7  10
ENDBRANCH   5   6
ENDBRANCH   1   5
BRANCH   3  47
ATOM     47  C   UNL A   1      47.274  34.069  26.601  1.00  0.00     0.117 C 
BRANCH  47  48
ATOM     48  C   UNL A   1      46.963  35.414  25.953  1.00  0.00     0.042 C 
BRANCH  48  49
ATOM     49  C   UNL A   1      46.150  36.292  26.878  1.00  0.00     0.118 C 
BRANCH  49  50
ATOM     50  N   UNL A   1      44.761  36.495  26.483  1.00  0.00    -0.352 N 
ATOM     51  C   UNL A   1      43.631  35.869  26.990  1.00  0.00     0.251 C 
ATOM     52  H   UNL A   1      44.605  37.158  25.772  1.00  0.00     0.163 HD
ATOM     53  O   UNL A   1      42.524  36.040  26.518  1.00  0.00    -0.269 OA
BRANCH  51  54
ATOM     54  C   UNL A   1      43.801  35.087  28.241  1.00  0.00     0.039 A 
ATOM     55  C   UNL A   1      43.559  33.714  28.142  1.00  0.00     0.014 A 
ATOM     56  C   UNL A   1      43.782  35.732  29.475  1.00  0.00     0.014 A 
ATOM     57  C   UNL A   1      43.027  33.043  29.236  1.00  0.00     0.010 A 
ATOM     58  C   UNL A   1      43.142  35.097  30.523  1.00  0.00     0.010 A 
ATOM     59  C   UNL A   1      42.701  33.775  30.379  1.00  0.00    -0.014 A 
BRANCH  59  60
ATOM     60  C   UNL A   1      41.787  33.263  31.399  1.00  0.00     0.031 A 
ATOM     61  C   UNL A   1      40.452  33.868  31.565  1.00  0.00     0.074 A 
ATOM     62  C   UNL A   1      42.154  32.242  32.205  1.00  0.00     0.049 A 
ATOM     63  N   UNL A   1      39.801  33.909  32.678  1.00  0.00    -0.248 NA
ATOM     64  C   UNL A   1      39.759  34.533  30.469  1.00  0.00     0.031 C 
ATOM     65  C   UNL A   1      41.309  31.503  33.140  1.00  0.00     0.029 A 
ATOM     66  N   UNL A   1      43.450  31.842  32.522  1.00  0.00    -0.354 N 
ATOM     67  C   UNL A   1      38.522  34.330  32.398  1.00  0.00     0.074 A 
ATOM     68  C   UNL A   1      38.566  34.764  31.021  1.00  0.00     0.031 C 
ATOM     69  C   UNL A   1      42.085  30.957  34.088  1.00  0.00     0.029 A 
ATOM     70  C   UNL A   1      43.442  31.420  33.863  1.00  0.00     0.049 A 
ATOM     71  H   UNL A   1      44.228  31.853  31.919  1.00  0.00     0.167 HD
ATOM     72  C   UNL A   1      37.528  34.138  33.312  1.00  0.00     0.034 A 
ATOM     73  C   UNL A   1      44.239  32.019  34.793  1.00  0.00     0.034 A 
ATOM     74  C   UNL A   1      38.040  33.558  34.555  1.00  0.00     0.049 A 
ATOM     75  C   UNL A   1      43.464  32.679  35.911  1.00  0.00     0.074 A 
ATOM     76  C   UNL A   1      38.043  32.268  35.058  1.00  0.00     0.029 A 
ATOM     77  N   UNL A   1      38.921  34.289  35.348  1.00  0.00    -0.354 N 
ATOM     78  N   UNL A   1      42.182  32.925  35.871  1.00  0.00    -0.248 NA
ATOM     79  C   UNL A   1      44.078  33.128  37.156  1.00  0.00     0.031 C 
ATOM     80  C   UNL A   1      38.987  32.211  36.117  1.00  0.00     0.029 A 
ATOM     81  C   UNL A   1      39.535  33.472  36.280  1.00  0.00     0.049 A 
ATOM     82  H   UNL A   1      39.084  35.256  35.258  1.00  0.00     0.167 HD
ATOM     83  C   UNL A   1      41.801  33.573  37.020  1.00  0.00     0.074 A 
ATOM     84  C   UNL A   1      43.021  33.641  37.807  1.00  0.00     0.031 C 
ATOM     85  C   UNL A   1      40.517  34.005  37.218  1.00  0.00     0.034 A 
BRANCH  72  86
ATOM     86  C   UNL A   1      36.060  34.170  32.941  1.00  0.00     0.023 A 
ATOM     87  C   UNL A   1      35.405  35.412  32.798  1.00  0.00     0.031 A 
ATOM     88  C   UNL A   1      35.240  33.038  32.778  1.00  0.00     0.131 A 
ATOM     89  C   UNL A   1      34.009  35.491  32.640  1.00  0.00     0.055 A 
ATOM     90  C   UNL A   1      33.843  33.113  32.698  1.00  0.00     0.041 A 
ATOM     91  F   UNL A   1      35.760  31.811  32.633  1.00  0.00    -0.206 F 
ATOM     92  C   UNL A   1      33.216  34.348  32.646  1.00  0.00     0.022 A 
BRANCH  89  93
ATOM     93  S   UNL A   1      33.237  37.116  32.403  1.00  0.00     0.124 S 
ATOM     94  O   UNL A   1      32.990  37.137  30.964  1.00  0.00    -0.237 OA
ATOM     95  O   UNL A   1      32.059  37.025  33.259  1.00  0.00    -0.237 OA
ATOM     96  O   UNL A   1      34.261  38.050  32.866  1.00  0.00    -0.744 OA
ENDBRANCH  89  93
ENDBRANCH  72  86
BRANCH  73  97
ATOM     97  C   UNL A   1      45.542  32.479  34.235  1.00  0.00     0.023 A 
ATOM     98  C   UNL A   1      46.576  31.519  34.162  1.00  0.00     0.031 A 
ATOM     99  C   UNL A   1      45.656  33.626  33.440  1.00  0.00     0.131 A 
ATOM    100  C   UNL A   1      47.573  31.624  33.183  1.00  0.00     0.055 A 
ATOM    101  C   UNL A   1      46.699  33.765  32.514  1.00  0.00     0.041 A 
ATOM    102  F   UNL A   1      44.694  34.561  33.446  1.00  0.00    -0.206 F 
ATOM    103  C   UNL A   1      47.632  32.740  32.347  1.00  0.00     0.022 A 
BRANCH 100 104
ATOM    104  S   UNL A   1      48.620  30.179  32.823  1.00  0.00     0.124 S 
ATOM    105  O   UNL A   1      48.432  30.023  31.386  1.00  0.00    -0.237 OA
ATOM    106  O   UNL A   1      49.950  30.616  33.244  1.00  0.00    -0.237 OA
ATOM    107  O   UNL A   1      48.042  29.135  33.668  1.00  0.00    -0.744 OA
ENDBRANCH 100 104
ENDBRANCH  73  97
BRANCH  85 108
ATOM    108  C   UNL A   1      40.048  34.883  38.363  1.00  0.00     0.023 A 
ATOM    109  C   UNL A   1      39.721  34.388  39.635  1.00  0.00     0.031 A 
ATOM    110  C   UNL A   1      39.972  36.290  38.223  1.00  0.00     0.131 A 
ATOM    111  C   UNL A   1      39.242  35.235  40.650  1.00  0.00     0.055 A 
ATOM    112  C   UNL A   1      39.578  37.143  39.261  1.00  0.00     0.041 A 
ATOM    113  F   UNL A   1      40.284  36.905  37.072  1.00  0.00    -0.206 F 
ATOM    114  C   UNL A   1      39.187  36.615  40.480  1.00  0.00     0.022 A 
BRANCH 111 115
ATOM    115  S   UNL A   1      38.617  34.476  42.173  1.00  0.00     0.124 S 
ATOM    116  O   UNL A   1      37.621  35.452  42.607  1.00  0.00    -0.237 OA
ATOM    117  O   UNL A   1      38.090  33.202  41.697  1.00  0.00    -0.237 OA
ATOM    118  O   UNL A   1      39.803  34.379  43.022  1.00  0.00    -0.744 OA
ENDBRANCH 111 115
ENDBRANCH  85 108
ENDBRANCH  59  60
ENDBRANCH  51  54
ENDBRANCH  49  50
ENDBRANCH  48  49
ENDBRANCH  47  48
ENDBRANCH   3  47
TORSDOF 22
ENDMDL
MODEL 2
REMARK VINA RESULT:      -9.7      5.418     12.521
REMARK SMILES Cc1ccc(S(=O)(=O)n2cc(C(=O)C(=O)N[C@@H](Cc3c[nH]c4ccccc34)C(=O)NCC(=O)NCCCNC(=O)c3ccc(-c4c5nc(c(-c6cc(S(=O)(=O)[O-])ccc6F)c6ccc([nH]6)c(-c6cc(S(=O)(=O)[O-])ccc6F)c6nc(c(-c7cc(S(=O)(=O)[O-])ccc7F)c7ccc4[nH]7)C=C6)C=C5)cc3)c3ccccc32)cc1
REMARK SMILES IDX 32 1 33 2 34 3 31 5 30 6 28 7 29 8 17 10 16 11 14 12 15 13
REMARK SMILES IDX 12 15 13 16 11 17 9 18 10 19 109 20 104 21 108 22 105 23
REMARK SMILES IDX 107 24 106 25 6 26 7 27 8 28 5 29 1 30 2 31 3 32 111 33 4 34
REMARK SMILES IDX 110 35 18 36 19 37 20 38 27 39 21 40 22 41 26 42 23 44 25 45
REMARK SMILES IDX 24 46 35 47 36 48 37 49 38 50 39 51 40 53 41 54 42 55 103 56
REMARK SMILES IDX 43 57 102 58 44 59 45 60 46 61 96 62 47 63 101 64 95 65
REMARK SMILES IDX 97 66 48 67 100 68 94 69 93 70 49 72 81 73 61 74 80 75 62 76
REMARK SMILES IDX 65 77 79 78 98 79 63 80 64 81 78 83 99 84 66 85 50 86 51 87
REMARK SMILES IDX 59 88 52 89 58 90 60 91 57 92 53 93 54 94 55 95 56 96 82 97
REMARK SMILES IDX 83 98 91 99 84 100 90 101 92 102 89 103 85 104 86 105 87 106
REMARK SMILES IDX 88 107 67 108 68 109 76 110 69 111 75 112 77 113 74 114
REMARK SMILES IDX 70 115 71 116 72 117 73 118
REMARK H PARENT 34 4 30 9 16 14 21 43 38 52 97 71 65 82
REMARK Flexibility Score: inf
ROOT
ATOM      1  C   UNL A   1      42.966  41.044  30.888  1.00  0.00     0.239 C 
ATOM      2  O   UNL A   1      42.450  42.065  30.431  1.00  0.00    -0.273 OA
ATOM      3  N   UNL A   1      43.149  40.905  32.234  1.00  0.00    -0.355 N 
ATOM      4  H   UNL A   1      42.810  41.632  32.805  1.00  0.00     0.163 HD
ENDROOT
BRANCH   1   5
ATOM      5  C   UNL A   1      43.409  39.897  29.979  1.00  0.00     0.216 C 
BRANCH   5   6
ATOM      6  N   UNL A   1      42.696  39.753  28.724  1.00  0.00    -0.345 N 
ATOM      7  C   UNL A   1      43.161  39.548  27.460  1.00  0.00     0.243 C 
ATOM      8  O   UNL A   1      42.344  39.060  26.664  1.00  0.00    -0.273 OA
ATOM      9  H   UNL A   1      41.716  39.814  28.798  1.00  0.00     0.164 HD
BRANCH   7  10
ATOM     10  C   UNL A   1      44.642  39.733  27.012  1.00  0.00     0.176 C 
BRANCH  10  11
ATOM     11  N   UNL A   1      45.599  40.377  27.932  1.00  0.00    -0.337 N 
ATOM     12  C   UNL A   1      46.059  41.691  27.971  1.00  0.00     0.293 C 
ATOM     13  O   UNL A   1      47.203  41.928  28.333  1.00  0.00    -0.265 OA
ATOM     14  H   UNL A   1      45.971  39.785  28.626  1.00  0.00     0.164 HD
BRANCH  12  15
ATOM     15  C   UNL A   1      45.154  42.854  27.528  1.00  0.00     0.252 C 
ATOM     16  O   UNL A   1      44.583  43.483  28.420  1.00  0.00    -0.283 OA
BRANCH  15  17
ATOM     17  C   UNL A   1      44.808  43.095  26.113  1.00  0.00     0.054 A 
ATOM     18  N   UNL A   1      43.851  43.338  24.083  1.00  0.00    -0.240 N 
ATOM     19  C   UNL A   1      43.714  42.715  25.318  1.00  0.00     0.117 A 
ATOM     20  C   UNL A   1      44.976  44.175  24.137  1.00  0.00     0.065 A 
ATOM     21  C   UNL A   1      45.715  43.762  25.236  1.00  0.00     0.012 A 
ATOM     22  C   UNL A   1      45.512  45.081  23.197  1.00  0.00     0.028 A 
ATOM     23  C   UNL A   1      47.082  44.105  25.301  1.00  0.00     0.011 A 
ATOM     24  C   UNL A   1      46.871  45.378  23.262  1.00  0.00     0.002 A 
ATOM     25  C   UNL A   1      47.660  44.856  24.277  1.00  0.00     0.001 A 
BRANCH  18  26
ATOM     26  S   UNL A   1      43.577  42.726  22.489  1.00  0.00     0.268 S 
ATOM     27  O   UNL A   1      42.436  41.841  22.676  1.00  0.00    -0.201 OA
ATOM     28  O   UNL A   1      44.885  42.167  22.157  1.00  0.00    -0.201 OA
BRANCH  26  29
ATOM     29  C   UNL A   1      43.211  43.599  21.011  1.00  0.00     0.088 A 
ATOM     30  C   UNL A   1      41.538  44.858  17.227  1.00  0.00     0.044 C 
ATOM     31  C   UNL A   1      42.132  44.490  18.556  1.00  0.00    -0.051 A 
ATOM     32  C   UNL A   1      41.311  43.836  19.463  1.00  0.00     0.005 A 
ATOM     33  C   UNL A   1      43.484  44.717  18.901  1.00  0.00     0.005 A 
ATOM     34  C   UNL A   1      41.844  43.412  20.669  1.00  0.00     0.022 A 
ATOM     35  C   UNL A   1      44.038  44.271  20.131  1.00  0.00     0.022 A 
ENDBRANCH  26  29
ENDBRANCH  18  26
ENDBRANCH  15  17
ENDBRANCH  12  15
ENDBRANCH  10  11
BRANCH  10  36
ATOM     36  C   UNL A   1      45.228  38.449  26.336  1.00  0.00     0.072 C 
BRANCH  36  37
ATOM     37  C   UNL A   1      46.471  37.833  26.936  1.00  0.00    -0.020 A 
ATOM     38  C   UNL A   1      47.725  37.810  26.346  1.00  0.00     0.087 A 
ATOM     39  C   UNL A   1      46.598  37.106  28.173  1.00  0.00     0.003 A 
ATOM     40  N   UNL A   1      48.541  36.997  27.090  1.00  0.00    -0.361 N 
ATOM     41  C   UNL A   1      47.839  36.464  28.144  1.00  0.00     0.046 A 
ATOM     42  C   UNL A   1      45.724  36.805  29.239  1.00  0.00     0.010 A 
ATOM     43  H   UNL A   1      49.491  36.820  26.897  1.00  0.00     0.166 HD
ATOM     44  C   UNL A   1      48.187  35.439  29.033  1.00  0.00     0.026 A 
ATOM     45  C   UNL A   1      46.033  35.748  30.104  1.00  0.00     0.001 A 
ATOM     46  C   UNL A   1      47.237  35.061  29.985  1.00  0.00     0.002 A 
ENDBRANCH  36  37
ENDBRANCH  10  36
ENDBRANCH   7  10
ENDBRANCH   5   6
ENDBRANCH   1   5
BRANCH   3  47
ATOM     47  C   UNL A   1      43.793  39.789  32.905  1.00  0.00     0.117 C 
BRANCH  47  48
ATOM     48  C   UNL A   1      44.585  40.271  34.116  1.00  0.00     0.042 C 
BRANCH  48  49
ATOM     49  C   UNL A   1      44.789  39.155  35.115  1.00  0.00     0.118 C 
BRANCH  49  50
ATOM     50  N   UNL A   1      45.436  39.546  36.362  1.00  0.00    -0.352 N 
ATOM     51  C   UNL A   1      45.251  39.002  37.626  1.00  0.00     0.251 C 
ATOM     52  H   UNL A   1      46.084  40.285  36.301  1.00  0.00     0.163 HD
ATOM     53  O   UNL A   1      45.769  39.471  38.620  1.00  0.00    -0.269 OA
BRANCH  51  54
ATOM     54  C   UNL A   1      44.507  37.718  37.701  1.00  0.00     0.039 A 
ATOM     55  C   UNL A   1      45.241  36.568  37.395  1.00  0.00     0.014 A 
ATOM     56  C   UNL A   1      43.116  37.714  37.662  1.00  0.00     0.014 A 
ATOM     57  C   UNL A   1      44.594  35.501  36.782  1.00  0.00     0.010 A 
ATOM     58  C   UNL A   1      42.496  36.707  36.946  1.00  0.00     0.010 A 
ATOM     59  C   UNL A   1      43.247  35.635  36.445  1.00  0.00    -0.014 A 
BRANCH  59  60
ATOM     60  C   UNL A   1      42.598  34.769  35.464  1.00  0.00     0.031 A 
ATOM     61  C   UNL A   1      42.592  35.143  34.036  1.00  0.00     0.074 A 
ATOM     62  C   UNL A   1      41.989  33.624  35.848  1.00  0.00     0.049 A 
ATOM     63  N   UNL A   1      41.670  34.812  33.197  1.00  0.00    -0.248 NA
ATOM     64  C   UNL A   1      43.629  35.982  33.450  1.00  0.00     0.031 C 
ATOM     65  C   UNL A   1      41.459  32.569  34.988  1.00  0.00     0.029 A 
ATOM     66  N   UNL A   1      41.499  33.315  37.114  1.00  0.00    -0.354 N 
ATOM     67  C   UNL A   1      42.117  35.134  31.937  1.00  0.00     0.074 A 
ATOM     68  C   UNL A   1      43.312  35.914  32.155  1.00  0.00     0.031 C 
ATOM     69  C   UNL A   1      40.516  31.893  35.662  1.00  0.00     0.029 A 
ATOM     70  C   UNL A   1      40.327  32.560  36.937  1.00  0.00     0.049 A 
ATOM     71  H   UNL A   1      41.898  33.578  37.976  1.00  0.00     0.167 HD
ATOM     72  C   UNL A   1      41.512  34.590  30.843  1.00  0.00     0.034 A 
ATOM     73  C   UNL A   1      39.132  32.987  37.437  1.00  0.00     0.034 A 
ATOM     74  C   UNL A   1      40.356  33.772  31.213  1.00  0.00     0.049 A 
ATOM     75  C   UNL A   1      38.089  33.233  36.370  1.00  0.00     0.074 A 
ATOM     76  C   UNL A   1      40.177  32.405  31.346  1.00  0.00     0.029 A 
ATOM     77  N   UNL A   1      39.242  34.371  31.797  1.00  0.00    -0.354 N 
ATOM     78  N   UNL A   1      38.350  33.324  35.095  1.00  0.00    -0.248 NA
ATOM     79  C   UNL A   1      36.671  33.411  36.663  1.00  0.00     0.031 C 
ATOM     80  C   UNL A   1      38.980  32.189  32.079  1.00  0.00     0.029 A 
ATOM     81  C   UNL A   1      38.413  33.420  32.363  1.00  0.00     0.049 A 
ATOM     82  H   UNL A   1      39.068  35.340  31.805  1.00  0.00     0.167 HD
ATOM     83  C   UNL A   1      37.194  33.597  34.406  1.00  0.00     0.074 A 
ATOM     84  C   UNL A   1      36.166  33.605  35.433  1.00  0.00     0.031 C 
ATOM     85  C   UNL A   1      37.187  33.804  33.052  1.00  0.00     0.034 A 
BRANCH  72  86
ATOM     86  C   UNL A   1      42.177  34.540  29.483  1.00  0.00     0.023 A 
ATOM     87  C   UNL A   1      43.169  33.570  29.228  1.00  0.00     0.031 A 
ATOM     88  C   UNL A   1      41.935  35.441  28.429  1.00  0.00     0.131 A 
ATOM     89  C   UNL A   1      43.943  33.602  28.052  1.00  0.00     0.055 A 
ATOM     90  C   UNL A   1      42.752  35.524  27.294  1.00  0.00     0.041 A 
ATOM     91  F   UNL A   1      40.861  36.244  28.425  1.00  0.00    -0.206 F 
ATOM     92  C   UNL A   1      43.777  34.610  27.108  1.00  0.00     0.022 A 
BRANCH  89  93
ATOM     93  S   UNL A   1      45.161  32.291  27.759  1.00  0.00     0.124 S 
ATOM     94  O   UNL A   1      44.424  31.364  26.906  1.00  0.00    -0.237 OA
ATOM     95  O   UNL A   1      46.254  33.021  27.127  1.00  0.00    -0.237 OA
ATOM     96  O   UNL A   1      45.453  31.792  29.102  1.00  0.00    -0.744 OA
ENDBRANCH  89  93
ENDBRANCH  72  86
BRANCH  73  97
ATOM     97  C   UNL A   1      39.271  33.732  38.721  1.00  0.00     0.023 A 
ATOM     98  C   UNL A   1      39.498  32.958  39.882  1.00  0.00     0.031 A 
ATOM     99  C   UNL A   1      39.588  35.094  38.768  1.00  0.00     0.131 A 
ATOM    100  C   UNL A   1      40.199  33.500  40.967  1.00  0.00     0.055 A 
ATOM    101  C   UNL A   1      40.220  35.652  39.888  1.00  0.00     0.041 A 
ATOM    102  F   UNL A   1      39.419  35.875  37.691  1.00  0.00    -0.206 F 
ATOM    103  C   UNL A   1      40.575  34.844  40.971  1.00  0.00     0.022 A 
BRANCH 100 104
ATOM    104  S   UNL A   1      40.857  32.383  42.245  1.00  0.00     0.124 S 
ATOM    105  O   UNL A   1      39.641  31.958  42.928  1.00  0.00    -0.237 OA
ATOM    106  O   UNL A   1      41.542  31.351  41.469  1.00  0.00    -0.237 OA
ATOM    107  O   UNL A   1      41.757  33.249  43.006  1.00  0.00    -0.744 OA
ENDBRANCH 100 104
ENDBRANCH  73  97
BRANCH  85 108
ATOM    108  C   UNL A   1      36.000  34.288  32.240  1.00  0.00     0.023 A 
ATOM    109  C   UNL A   1      35.321  35.488  32.501  1.00  0.00     0.031 A 
ATOM    110  C   UNL A   1      35.543  33.566  31.111  1.00  0.00     0.131 A 
ATOM    111  C   UNL A   1      34.193  35.870  31.752  1.00  0.00     0.055 A 
ATOM    112  C   UNL A   1      34.474  33.992  30.312  1.00  0.00     0.041 A 
ATOM    113  F   UNL A   1      36.117  32.417  30.726  1.00  0.00    -0.206 F 
ATOM    114  C   UNL A   1      33.776  35.140  30.644  1.00  0.00     0.022 A 
BRANCH 111 115
ATOM    115  S   UNL A   1      33.239  37.306  32.314  1.00  0.00     0.124 S 
ATOM    116  O   UNL A   1      33.013  38.022  31.063  1.00  0.00    -0.237 OA
ATOM    117  O   UNL A   1      32.061  36.687  32.911  1.00  0.00    -0.237 OA
ATOM    118  O   UNL A   1      34.137  37.970  33.257  1.00  0.00    -0.744 OA
ENDBRANCH 111 115
ENDBRANCH  85 108
ENDBRANCH  59  60
ENDBRANCH  51  54
ENDBRANCH  49  50
ENDBRANCH  48  49
ENDBRANCH  47  48
ENDBRANCH   3  47
TORSDOF 22
ENDMDL
MODEL 3
REMARK VINA RESULT:      -9.4      4.194     10.943
REMARK SMILES Cc1ccc(S(=O)(=O)n2cc(C(=O)C(=O)N[C@@H](Cc3c[nH]c4ccccc34)C(=O)NCC(=O)NCCCNC(=O)c3ccc(-c4c5nc(c(-c6cc(S(=O)(=O)[O-])ccc6F)c6ccc([nH]6)c(-c6cc(S(=O)(=O)[O-])ccc6F)c6nc(c(-c7cc(S(=O)(=O)[O-])ccc7F)c7ccc4[nH]7)C=C6)C=C5)cc3)c3ccccc32)cc1
REMARK SMILES IDX 32 1 33 2 34 3 31 5 30 6 28 7 29 8 17 10 16 11 14 12 15 13
REMARK SMILES IDX 12 15 13 16 11 17 9 18 10 19 109 20 104 21 108 22 105 23
REMARK SMILES IDX 107 24 106 25 6 26 7 27 8 28 5 29 1 30 2 31 3 32 111 33 4 34
REMARK SMILES IDX 110 35 18 36 19 37 20 38 27 39 21 40 22 41 26 42 23 44 25 45
REMARK SMILES IDX 24 46 35 47 36 48 37 49 38 50 39 51 40 53 41 54 42 55 103 56
REMARK SMILES IDX 43 57 102 58 44 59 45 60 46 61 96 62 47 63 101 64 95 65
REMARK SMILES IDX 97 66 48 67 100 68 94 69 93 70 49 72 81 73 61 74 80 75 62 76
REMARK SMILES IDX 65 77 79 78 98 79 63 80 64 81 78 83 99 84 66 85 50 86 51 87
REMARK SMILES IDX 59 88 52 89 58 90 60 91 57 92 53 93 54 94 55 95 56 96 82 97
REMARK SMILES IDX 83 98 91 99 84 100 90 101 92 102 89 103 85 104 86 105 87 106
REMARK SMILES IDX 88 107 67 108 68 109 76 110 69 111 75 112 77 113 74 114
REMARK SMILES IDX 70 115 71 116 72 117 73 118
REMARK H PARENT 34 4 30 9 16 14 21 43 38 52 97 71 65 82
REMARK Flexibility Score: inf
ROOT
ATOM      1  C   UNL A   1      38.636  29.114  28.320  1.00  0.00     0.239 C 
ATOM      2  O   UNL A   1      38.197  29.750  27.361  1.00  0.00    -0.273 OA
ATOM      3  N   UNL A   1      39.486  28.064  28.122  1.00  0.00    -0.355 N 
ATOM      4  H   UNL A   1      39.754  27.879  27.193  1.00  0.00     0.163 HD
ENDROOT
BRANCH   1   5
ATOM      5  C   UNL A   1      38.263  29.477  29.758  1.00  0.00     0.216 C 
BRANCH   5   6
ATOM      6  N   UNL A   1      38.400  30.873  30.130  1.00  0.00    -0.345 N 
ATOM      7  C   UNL A   1      38.066  31.519  31.281  1.00  0.00     0.243 C 
ATOM      8  O   UNL A   1      38.656  32.591  31.483  1.00  0.00    -0.273 OA
ATOM      9  H   UNL A   1      38.800  31.447  29.437  1.00  0.00     0.164 HD
BRANCH   7  10
ATOM     10  C   UNL A   1      37.140  30.940  32.394  1.00  0.00     0.176 C 
BRANCH  10  11
ATOM     11  N   UNL A   1      37.532  31.089  33.808  1.00  0.00    -0.337 N 
ATOM     12  C   UNL A   1      38.575  30.496  34.517  1.00  0.00     0.293 C 
ATOM     13  O   UNL A   1      38.433  30.226  35.702  1.00  0.00    -0.265 OA
ATOM     14  H   UNL A   1      36.968  31.702  34.334  1.00  0.00     0.164 HD
BRANCH  12  15
ATOM     15  C   UNL A   1      39.897  30.139  33.816  1.00  0.00     0.252 C 
ATOM     16  O   UNL A   1      40.161  28.942  33.705  1.00  0.00    -0.283 OA
BRANCH  15  17
ATOM     17  C   UNL A   1      40.910  31.157  33.469  1.00  0.00     0.054 A 
ATOM     18  N   UNL A   1      42.394  32.855  33.376  1.00  0.00    -0.240 N 
ATOM     19  C   UNL A   1      41.281  32.376  34.058  1.00  0.00     0.117 A 
ATOM     20  C   UNL A   1      42.771  31.895  32.424  1.00  0.00     0.065 A 
ATOM     21  C   UNL A   1      41.682  31.049  32.273  1.00  0.00     0.012 A 
ATOM     22  C   UNL A   1      43.864  31.842  31.533  1.00  0.00     0.028 A 
ATOM     23  C   UNL A   1      41.587  30.268  31.101  1.00  0.00     0.011 A 
ATOM     24  C   UNL A   1      43.734  31.091  30.367  1.00  0.00     0.002 A 
ATOM     25  C   UNL A   1      42.586  30.349  30.130  1.00  0.00     0.001 A 
BRANCH  18  26
ATOM     26  S   UNL A   1      42.781  34.461  32.861  1.00  0.00     0.268 S 
ATOM     27  O   UNL A   1      44.143  34.633  33.346  1.00  0.00    -0.201 OA
ATOM     28  O   UNL A   1      41.693  35.233  33.454  1.00  0.00    -0.201 OA
BRANCH  26  29
ATOM     29  C   UNL A   1      42.810  35.130  31.239  1.00  0.00     0.088 A 
ATOM     30  C   UNL A   1      42.328  35.765  26.989  1.00  0.00     0.044 C 
ATOM     31  C   UNL A   1      42.493  35.616  28.474  1.00  0.00    -0.051 A 
ATOM     32  C   UNL A   1      41.512  34.914  29.159  1.00  0.00     0.005 A 
ATOM     33  C   UNL A   1      43.614  36.095  29.189  1.00  0.00     0.005 A 
ATOM     34  C   UNL A   1      41.669  34.690  30.516  1.00  0.00     0.022 A 
ATOM     35  C   UNL A   1      43.786  35.854  30.579  1.00  0.00     0.022 A 
ENDBRANCH  26  29
ENDBRANCH  18  26
ENDBRANCH  15  17
ENDBRANCH  12  15
ENDBRANCH  10  11
BRANCH  10  36
ATOM     36  C   UNL A   1      35.630  31.272  32.149  1.00  0.00     0.072 C 
BRANCH  36  37
ATOM     37  C   UNL A   1      35.286  32.613  31.544  1.00  0.00    -0.020 A 
ATOM     38  C   UNL A   1      35.258  33.822  32.223  1.00  0.00     0.087 A 
ATOM     39  C   UNL A   1      34.863  32.902  30.197  1.00  0.00     0.003 A 
ATOM     40  N   UNL A   1      34.712  34.772  31.398  1.00  0.00    -0.361 N 
ATOM     41  C   UNL A   1      34.356  34.204  30.199  1.00  0.00     0.046 A 
ATOM     42  C   UNL A   1      34.718  32.138  29.020  1.00  0.00     0.010 A 
ATOM     43  H   UNL A   1      34.591  35.721  31.632  1.00  0.00     0.166 HD
ATOM     44  C   UNL A   1      33.590  34.724  29.147  1.00  0.00     0.026 A 
ATOM     45  C   UNL A   1      33.912  32.621  27.982  1.00  0.00     0.001 A 
ATOM     46  C   UNL A   1      33.338  33.886  28.058  1.00  0.00     0.002 A 
ENDBRANCH  36  37
ENDBRANCH  10  36
ENDBRANCH   7  10
ENDBRANCH   5   6
ENDBRANCH   1   5
BRANCH   3  47
ATOM     47  C   UNL A   1      40.033  27.193  29.149  1.00  0.00     0.117 C 
BRANCH  47  48
ATOM     48  C   UNL A   1      39.997  25.737  28.697  1.00  0.00     0.042 C 
BRANCH  48  49
ATOM     49  C   UNL A   1      41.283  25.349  28.002  1.00  0.00     0.118 C 
BRANCH  49  50
ATOM     50  N   UNL A   1      41.182  24.211  27.095  1.00  0.00    -0.352 N 
ATOM     51  C   UNL A   1      42.196  23.619  26.355  1.00  0.00     0.251 C 
ATOM     52  H   UNL A   1      40.286  23.814  26.997  1.00  0.00     0.163 HD
ATOM     53  O   UNL A   1      41.983  22.733  25.549  1.00  0.00    -0.269 OA
BRANCH  51  54
ATOM     54  C   UNL A   1      43.589  24.005  26.695  1.00  0.00     0.039 A 
ATOM     55  C   UNL A   1      44.256  23.162  27.588  1.00  0.00     0.014 A 
ATOM     56  C   UNL A   1      44.025  25.309  26.476  1.00  0.00     0.014 A 
ATOM     57  C   UNL A   1      45.186  23.710  28.464  1.00  0.00     0.010 A 
ATOM     58  C   UNL A   1      44.855  25.877  27.424  1.00  0.00     0.010 A 
ATOM     59  C   UNL A   1      45.380  25.092  28.460  1.00  0.00    -0.014 A 
BRANCH  59  60
ATOM     60  C   UNL A   1      46.003  25.796  29.578  1.00  0.00     0.031 A 
ATOM     61  C   UNL A   1      45.170  26.556  30.530  1.00  0.00     0.074 A 
ATOM     62  C   UNL A   1      47.344  25.771  29.749  1.00  0.00     0.049 A 
ATOM     63  N   UNL A   1      45.567  27.595  31.182  1.00  0.00    -0.248 NA
ATOM     64  C   UNL A   1      43.776  26.215  30.784  1.00  0.00     0.031 C 
ATOM     65  C   UNL A   1      48.101  26.262  30.898  1.00  0.00     0.029 A 
ATOM     66  N   UNL A   1      48.313  25.520  28.780  1.00  0.00    -0.354 N 
ATOM     67  C   UNL A   1      44.613  27.885  32.129  1.00  0.00     0.074 A 
ATOM     68  C   UNL A   1      43.492  27.035  31.798  1.00  0.00     0.031 C 
ATOM     69  C   UNL A   1      49.355  26.536  30.506  1.00  0.00     0.029 A 
ATOM     70  C   UNL A   1      49.417  26.340  29.070  1.00  0.00     0.049 A 
ATOM     71  H   UNL A   1      48.238  24.886  28.031  1.00  0.00     0.167 HD
ATOM     72  C   UNL A   1      44.920  28.705  33.174  1.00  0.00     0.034 A 
ATOM     73  C   UNL A   1      49.871  27.253  28.165  1.00  0.00     0.034 A 
ATOM     74  C   UNL A   1      46.274  29.248  33.057  1.00  0.00     0.049 A 
ATOM     75  C   UNL A   1      49.793  28.680  28.661  1.00  0.00     0.074 A 
ATOM     76  C   UNL A   1      47.478  28.904  33.649  1.00  0.00     0.029 A 
ATOM     77  N   UNL A   1      46.586  30.111  32.009  1.00  0.00    -0.354 N 
ATOM     78  N   UNL A   1      49.105  29.057  29.704  1.00  0.00    -0.248 NA
ATOM     79  C   UNL A   1      50.473  29.793  28.009  1.00  0.00     0.031 C 
ATOM     80  C   UNL A   1      48.523  29.511  32.904  1.00  0.00     0.029 A 
ATOM     81  C   UNL A   1      47.956  30.250  31.880  1.00  0.00     0.049 A 
ATOM     82  H   UNL A   1      45.921  30.561  31.439  1.00  0.00     0.167 HD
ATOM     83  C   UNL A   1      49.205  30.418  29.854  1.00  0.00     0.074 A 
ATOM     84  C   UNL A   1      50.104  30.825  28.787  1.00  0.00     0.031 C 
ATOM     85  C   UNL A   1      48.531  31.092  30.837  1.00  0.00     0.034 A 
BRANCH  72  86
ATOM     86  C   UNL A   1      44.108  28.738  34.452  1.00  0.00     0.023 A 
ATOM     87  C   UNL A   1      43.487  27.557  34.913  1.00  0.00     0.031 A 
ATOM     88  C   UNL A   1      43.852  29.888  35.221  1.00  0.00     0.131 A 
ATOM     89  C   UNL A   1      42.575  27.578  35.985  1.00  0.00     0.055 A 
ATOM     90  C   UNL A   1      42.889  29.928  36.237  1.00  0.00     0.041 A 
ATOM     91  F   UNL A   1      44.566  31.012  35.060  1.00  0.00    -0.206 F 
ATOM     92  C   UNL A   1      42.229  28.769  36.614  1.00  0.00     0.022 A 
BRANCH  89  93
ATOM     93  S   UNL A   1      41.858  26.016  36.566  1.00  0.00     0.124 S 
ATOM     94  O   UNL A   1      42.968  25.416  37.299  1.00  0.00    -0.237 OA
ATOM     95  O   UNL A   1      40.728  26.476  37.366  1.00  0.00    -0.237 OA
ATOM     96  O   UNL A   1      41.493  25.329  35.328  1.00  0.00    -0.744 OA
ENDBRANCH  89  93
ENDBRANCH  72  86
BRANCH  73  97
ATOM     97  C   UNL A   1      49.713  26.803  26.752  1.00  0.00     0.023 A 
ATOM     98  C   UNL A   1      48.473  27.079  26.133  1.00  0.00     0.031 A 
ATOM     99  C   UNL A   1      50.808  26.516  25.929  1.00  0.00     0.131 A 
ATOM    100  C   UNL A   1      48.398  27.252  24.745  1.00  0.00     0.055 A 
ATOM    101  C   UNL A   1      50.710  26.615  24.534  1.00  0.00     0.041 A 
ATOM    102  F   UNL A   1      52.017  26.271  26.456  1.00  0.00    -0.206 F 
ATOM    103  C   UNL A   1      49.518  27.034  23.940  1.00  0.00     0.022 A 
BRANCH 100 104
ATOM    104  S   UNL A   1      46.916  28.027  24.026  1.00  0.00     0.124 S 
ATOM    105  O   UNL A   1      47.295  28.154  22.624  1.00  0.00    -0.237 OA
ATOM    106  O   UNL A   1      45.860  27.059  24.312  1.00  0.00    -0.237 OA
ATOM    107  O   UNL A   1      46.799  29.275  24.779  1.00  0.00    -0.744 OA
ENDBRANCH 100 104
ENDBRANCH  73  97
BRANCH  85 108
ATOM    108  C   UNL A   1      48.436  32.601  30.966  1.00  0.00     0.023 A 
ATOM    109  C   UNL A   1      49.334  33.373  31.718  1.00  0.00     0.031 A 
ATOM    110  C   UNL A   1      47.446  33.334  30.267  1.00  0.00     0.131 A 
ATOM    111  C   UNL A   1      49.175  34.764  31.850  1.00  0.00     0.055 A 
ATOM    112  C   UNL A   1      47.341  34.729  30.328  1.00  0.00     0.041 A 
ATOM    113  F   UNL A   1      46.538  32.730  29.485  1.00  0.00    -0.206 F 
ATOM    114  C   UNL A   1      48.195  35.453  31.142  1.00  0.00     0.022 A 
BRANCH 111 115
ATOM    115  S   UNL A   1      50.234  35.638  33.033  1.00  0.00     0.124 S 
ATOM    116  O   UNL A   1      50.804  34.533  33.798  1.00  0.00    -0.237 OA
ATOM    117  O   UNL A   1      51.162  36.349  32.160  1.00  0.00    -0.237 OA
ATOM    118  O   UNL A   1      49.301  36.488  33.770  1.00  0.00    -0.744 OA
ENDBRANCH 111 115
ENDBRANCH  85 108
ENDBRANCH  59  60
ENDBRANCH  51  54
ENDBRANCH  49  50
ENDBRANCH  48  49
ENDBRANCH  47  48
ENDBRANCH   3  47
TORSDOF 22
ENDMDL
