MODEL 1
REMARK VINA RESULT:     -12.5      0.000      0.000
REMARK SMILES O=C(NCCCNC(=O)c1ccc(-c2c3nc(c(-c4cc(S(=O)(=O)[O-])ccc4F)c4ccc([nH]4)c(-c4cc(S(=O)(=O)[O-])ccc4F)c4nc(c(-c5cc(S(=O)(=O)[O-])ccc5F)c5ccc2[nH]5)C=C4)C=C3)cc1)c1ccc(Cn2cc(Cl)c(=O)[nH]c2=O)cc1
REMARK SMILES IDX 5 1 4 2 3 3 1 4 2 5 73 7 74 8 88 9 75 10 87 11 76 12 77 13
REMARK SMILES IDX 78 14 79 15 85 16 80 17 84 18 86 19 81 20 82 21 83 23 6 24
REMARK SMILES IDX 7 25 8 26 9 28 10 29 11 30 72 31 12 32 71 33 13 34 14 35
REMARK SMILES IDX 15 36 65 37 16 38 70 39 64 40 66 41 17 42 69 43 63 44 62 45
REMARK SMILES IDX 18 47 50 48 30 49 49 50 31 51 34 52 48 53 67 54 32 55 33 56
REMARK SMILES IDX 47 58 68 59 35 60 19 61 20 62 28 63 21 64 27 65 29 66 26 67
REMARK SMILES IDX 22 68 23 69 24 70 25 71 51 72 52 73 60 74 53 75 59 76 61 77
REMARK SMILES IDX 58 78 54 79 55 80 56 81 57 82 36 83 37 84 45 85 38 86 44 87
REMARK SMILES IDX 46 88 43 89 39 90 40 91 41 92 42 93
REMARK H PARENT 3 6 84 22 7 27 66 46 34 57
REMARK Flexibility Score: inf
ROOT
ATOM      1  C   UNL A   1      31.837  31.399  26.733  1.00  0.00     0.042 C 
ENDROOT
BRANCH   1   2
ATOM      2  C   UNL A   1      32.204  29.991  26.285  1.00  0.00     0.118 C 
BRANCH   2   3
ATOM      3  N   UNL A   1      32.367  29.887  24.840  1.00  0.00    -0.352 N 
ATOM      4  O   UNL A   1      32.816  28.863  22.873  1.00  0.00    -0.269 OA
ATOM      5  C   UNL A   1      32.539  28.767  24.065  1.00  0.00     0.251 C 
ATOM      6  H   UNL A   1      32.351  30.741  24.350  1.00  0.00     0.163 HD
BRANCH   5   7
ATOM      7  C   UNL A   1      32.391  27.435  24.679  1.00  0.00     0.039 A 
ATOM      8  C   UNL A   1      31.127  26.854  24.789  1.00  0.00     0.014 A 
ATOM      9  C   UNL A   1      33.521  26.768  25.154  1.00  0.00     0.014 A 
ATOM     10  C   UNL A   1      30.981  25.644  25.464  1.00  0.00     0.006 A 
ATOM     11  C   UNL A   1      33.370  25.561  25.842  1.00  0.00     0.006 A 
ATOM     12  C   UNL A   1      32.094  25.004  26.032  1.00  0.00    -0.028 A 
BRANCH  12  13
ATOM     13  C   UNL A   1      31.913  23.752  26.865  1.00  0.00     0.162 C 
BRANCH  13  14
ATOM     14  N   UNL A   1      32.572  22.569  26.290  1.00  0.00    -0.295 N 
ATOM     15  C   UNL A   1      32.153  22.072  25.065  1.00  0.00     0.117 A 
ATOM     16  C   UNL A   1      33.631  21.988  26.980  1.00  0.00     0.328 A 
ATOM     17  C   UNL A   1      32.714  21.008  24.485  1.00  0.00     0.122 A 
ATOM     18  N   UNL A   1      34.203  20.896  26.374  1.00  0.00    -0.273 N 
ATOM     19  O   UNL A   1      34.072  22.403  28.048  1.00  0.00    -0.248 OA
ATOM     20  Cl  UNL A   1      32.174  20.408  22.972  1.00  0.00    -0.077 Cl
ATOM     21  C   UNL A   1      33.849  20.347  25.169  1.00  0.00     0.272 A 
ATOM     22  H   UNL A   1      34.943  20.462  26.856  1.00  0.00     0.175 HD
ATOM     23  O   UNL A   1      34.458  19.396  24.692  1.00  0.00    -0.268 OA
ENDBRANCH  13  14
ENDBRANCH  12  13
ENDBRANCH   5   7
ENDBRANCH   2   3
ENDBRANCH   1   2
BRANCH   1  24
ATOM     24  C   UNL A   1      32.995  32.188  27.327  1.00  0.00     0.118 C 
BRANCH  24  25
ATOM     25  N   UNL A   1      32.660  33.584  27.582  1.00  0.00    -0.352 N 
ATOM     26  C   UNL A   1      33.164  34.460  28.515  1.00  0.00     0.251 C 
ATOM     27  H   UNL A   1      31.964  33.958  26.995  1.00  0.00     0.163 HD
ATOM     28  O   UNL A   1      32.616  35.547  28.678  1.00  0.00    -0.269 OA
BRANCH  26  29
ATOM     29  C   UNL A   1      34.335  34.081  29.338  1.00  0.00     0.039 A 
ATOM     30  C   UNL A   1      34.133  33.347  30.510  1.00  0.00     0.014 A 
ATOM     31  C   UNL A   1      35.628  34.434  28.949  1.00  0.00     0.014 A 
ATOM     32  C   UNL A   1      35.235  32.887  31.238  1.00  0.00     0.010 A 
ATOM     33  C   UNL A   1      36.723  33.899  29.622  1.00  0.00     0.010 A 
ATOM     34  C   UNL A   1      36.539  33.113  30.770  1.00  0.00    -0.014 A 
BRANCH  34  35
ATOM     35  C   UNL A   1      37.728  32.535  31.452  1.00  0.00     0.031 A 
ATOM     36  C   UNL A   1      38.475  31.390  30.824  1.00  0.00     0.074 A 
ATOM     37  C   UNL A   1      38.081  32.981  32.676  1.00  0.00     0.049 A 
ATOM     38  N   UNL A   1      39.446  30.664  31.313  1.00  0.00    -0.248 NA
ATOM     39  C   UNL A   1      38.047  30.988  29.474  1.00  0.00     0.031 C 
ATOM     40  C   UNL A   1      37.418  34.064  33.406  1.00  0.00     0.029 A 
ATOM     41  N   UNL A   1      39.075  32.569  33.532  1.00  0.00    -0.354 N 
ATOM     42  C   UNL A   1      39.735  29.710  30.343  1.00  0.00     0.074 A 
ATOM     43  C   UNL A   1      38.792  29.914  29.264  1.00  0.00     0.031 C 
ATOM     44  C   UNL A   1      38.034  34.243  34.584  1.00  0.00     0.029 A 
ATOM     45  C   UNL A   1      39.096  33.252  34.726  1.00  0.00     0.049 A 
ATOM     46  H   UNL A   1      39.712  31.851  33.310  1.00  0.00     0.167 HD
ATOM     47  C   UNL A   1      40.708  28.766  30.344  1.00  0.00     0.034 A 
ATOM     48  C   UNL A   1      39.863  33.085  35.822  1.00  0.00     0.034 A 
ATOM     49  C   UNL A   1      41.646  28.584  31.425  1.00  0.00     0.049 A 
ATOM     50  C   UNL A   1      40.910  31.998  35.819  1.00  0.00     0.074 A 
ATOM     51  C   UNL A   1      42.705  27.697  31.505  1.00  0.00     0.029 A 
ATOM     52  N   UNL A   1      41.632  29.293  32.620  1.00  0.00    -0.354 N 
ATOM     53  N   UNL A   1      41.199  31.132  34.875  1.00  0.00    -0.248 NA
ATOM     54  C   UNL A   1      41.738  31.867  37.025  1.00  0.00     0.031 C 
ATOM     55  C   UNL A   1      43.279  27.812  32.774  1.00  0.00     0.029 A 
ATOM     56  C   UNL A   1      42.640  28.835  33.456  1.00  0.00     0.049 A 
ATOM     57  H   UNL A   1      41.001  30.015  32.842  1.00  0.00     0.167 HD
ATOM     58  C   UNL A   1      42.266  30.380  35.361  1.00  0.00     0.074 A 
ATOM     59  C   UNL A   1      42.574  30.901  36.677  1.00  0.00     0.031 C 
ATOM     60  C   UNL A   1      42.936  29.358  34.770  1.00  0.00     0.034 A 
BRANCH  47  61
ATOM     61  C   UNL A   1      40.784  27.841  29.152  1.00  0.00     0.023 A 
ATOM     62  C   UNL A   1      41.730  28.027  28.130  1.00  0.00     0.031 A 
ATOM     63  C   UNL A   1      39.885  26.767  29.027  1.00  0.00     0.131 A 
ATOM     64  C   UNL A   1      41.706  27.204  26.993  1.00  0.00     0.055 A 
ATOM     65  C   UNL A   1      39.923  25.897  27.934  1.00  0.00     0.041 A 
ATOM     66  F   UNL A   1      38.943  26.548  29.958  1.00  0.00    -0.206 F 
ATOM     67  C   UNL A   1      40.828  26.123  26.901  1.00  0.00     0.022 A 
BRANCH  64  68
ATOM     68  S   UNL A   1      42.735  27.663  25.572  1.00  0.00     0.124 S 
ATOM     69  O   UNL A   1      42.700  26.440  24.774  1.00  0.00    -0.237 OA
ATOM     70  O   UNL A   1      42.019  28.808  25.020  1.00  0.00    -0.237 OA
ATOM     71  O   UNL A   1      44.032  27.968  26.173  1.00  0.00    -0.744 OA
ENDBRANCH  64  68
ENDBRANCH  47  61
BRANCH  48  72
ATOM     72  C   UNL A   1      39.665  33.946  37.025  1.00  0.00     0.023 A 
ATOM     73  C   UNL A   1      39.033  33.449  38.175  1.00  0.00     0.031 A 
ATOM     74  C   UNL A   1      40.064  35.296  37.025  1.00  0.00     0.131 A 
ATOM     75  C   UNL A   1      38.771  34.305  39.257  1.00  0.00     0.055 A 
ATOM     76  C   UNL A   1      39.857  36.126  38.127  1.00  0.00     0.041 A 
ATOM     77  F   UNL A   1      40.674  35.823  35.952  1.00  0.00    -0.206 F 
ATOM     78  C   UNL A   1      39.193  35.636  39.246  1.00  0.00     0.022 A 
BRANCH  75  79
ATOM     79  S   UNL A   1      37.779  33.677  40.639  1.00  0.00     0.124 S 
ATOM     80  O   UNL A   1      38.700  32.734  41.261  1.00  0.00    -0.237 OA
ATOM     81  O   UNL A   1      37.502  34.897  41.391  1.00  0.00    -0.237 OA
ATOM     82  O   UNL A   1      36.620  33.077  39.981  1.00  0.00    -0.744 OA
ENDBRANCH  75  79
ENDBRANCH  48  72
BRANCH  60  83
ATOM     83  C   UNL A   1      44.108  28.772  35.519  1.00  0.00     0.023 A 
ATOM     84  C   UNL A   1      43.959  27.702  36.417  1.00  0.00     0.031 A 
ATOM     85  C   UNL A   1      45.400  29.288  35.315  1.00  0.00     0.131 A 
ATOM     86  C   UNL A   1      45.075  27.212  37.113  1.00  0.00     0.055 A 
ATOM     87  C   UNL A   1      46.517  28.757  35.962  1.00  0.00     0.041 A 
ATOM     88  F   UNL A   1      45.601  30.314  34.473  1.00  0.00    -0.206 F 
ATOM     89  C   UNL A   1      46.356  27.719  36.876  1.00  0.00     0.022 A 
BRANCH  86  90
ATOM     90  S   UNL A   1      44.824  25.954  38.395  1.00  0.00     0.124 S 
ATOM     91  O   UNL A   1      46.176  25.441  38.586  1.00  0.00    -0.237 OA
ATOM     92  O   UNL A   1      44.277  26.737  39.498  1.00  0.00    -0.237 OA
ATOM     93  O   UNL A   1      43.886  25.017  37.778  1.00  0.00    -0.744 OA
ENDBRANCH  86  90
ENDBRANCH  60  83
ENDBRANCH  34  35
ENDBRANCH  26  29
ENDBRANCH  24  25
ENDBRANCH   1  24
TORSDOF 15
ENDMDL
MODEL 2
REMARK VINA RESULT:     -12.4      5.693      9.259
REMARK SMILES O=C(NCCCNC(=O)c1ccc(-c2c3nc(c(-c4cc(S(=O)(=O)[O-])ccc4F)c4ccc([nH]4)c(-c4cc(S(=O)(=O)[O-])ccc4F)c4nc(c(-c5cc(S(=O)(=O)[O-])ccc5F)c5ccc2[nH]5)C=C4)C=C3)cc1)c1ccc(Cn2cc(Cl)c(=O)[nH]c2=O)cc1
REMARK SMILES IDX 5 1 4 2 3 3 1 4 2 5 73 7 74 8 88 9 75 10 87 11 76 12 77 13
REMARK SMILES IDX 78 14 79 15 85 16 80 17 84 18 86 19 81 20 82 21 83 23 6 24
REMARK SMILES IDX 7 25 8 26 9 28 10 29 11 30 72 31 12 32 71 33 13 34 14 35
REMARK SMILES IDX 15 36 65 37 16 38 70 39 64 40 66 41 17 42 69 43 63 44 62 45
REMARK SMILES IDX 18 47 50 48 30 49 49 50 31 51 34 52 48 53 67 54 32 55 33 56
REMARK SMILES IDX 47 58 68 59 35 60 19 61 20 62 28 63 21 64 27 65 29 66 26 67
REMARK SMILES IDX 22 68 23 69 24 70 25 71 51 72 52 73 60 74 53 75 59 76 61 77
REMARK SMILES IDX 58 78 54 79 55 80 56 81 57 82 36 83 37 84 45 85 38 86 44 87
REMARK SMILES IDX 46 88 43 89 39 90 40 91 41 92 42 93
REMARK H PARENT 3 6 84 22 7 27 66 46 34 57
REMARK Flexibility Score: inf
ROOT
ATOM      1  C   UNL A   1      36.714  19.963  24.720  1.00  0.00     0.042 C 
ENDROOT
BRANCH   1   2
ATOM      2  C   UNL A   1      35.346  20.544  25.046  1.00  0.00     0.118 C 
BRANCH   2   3
ATOM      3  N   UNL A   1      34.283  19.550  24.975  1.00  0.00    -0.352 N 
ATOM      4  O   UNL A   1      32.151  18.788  24.994  1.00  0.00    -0.269 OA
ATOM      5  C   UNL A   1      32.925  19.736  24.890  1.00  0.00     0.251 C 
ATOM      6  H   UNL A   1      34.580  18.611  24.990  1.00  0.00     0.163 HD
BRANCH   5   7
ATOM      7  C   UNL A   1      32.395  21.094  24.674  1.00  0.00     0.039 A 
ATOM      8  C   UNL A   1      31.919  21.837  25.756  1.00  0.00     0.014 A 
ATOM      9  C   UNL A   1      32.364  21.624  23.384  1.00  0.00     0.014 A 
ATOM     10  C   UNL A   1      31.323  23.076  25.532  1.00  0.00     0.006 A 
ATOM     11  C   UNL A   1      31.754  22.861  23.161  1.00  0.00     0.006 A 
ATOM     12  C   UNL A   1      31.198  23.584  24.229  1.00  0.00    -0.028 A 
BRANCH  12  13
ATOM     13  C   UNL A   1      30.444  24.874  23.980  1.00  0.00     0.162 C 
BRANCH  13  14
ATOM     14  N   UNL A   1      31.214  26.076  24.335  1.00  0.00    -0.295 N 
ATOM     15  C   UNL A   1      32.086  26.636  23.414  1.00  0.00     0.117 A 
ATOM     16  C   UNL A   1      31.026  26.648  25.589  1.00  0.00     0.328 A 
ATOM     17  C   UNL A   1      32.808  27.729  23.671  1.00  0.00     0.122 A 
ATOM     18  N   UNL A   1      31.771  27.774  25.843  1.00  0.00    -0.273 N 
ATOM     19  O   UNL A   1      30.242  26.223  26.433  1.00  0.00    -0.248 OA
ATOM     20  Cl  UNL A   1      33.885  28.398  22.516  1.00  0.00    -0.077 Cl
ATOM     21  C   UNL A   1      32.649  28.387  24.988  1.00  0.00     0.272 A 
ATOM     22  H   UNL A   1      31.662  28.184  26.731  1.00  0.00     0.175 HD
ATOM     23  O   UNL A   1      33.231  29.420  25.296  1.00  0.00    -0.268 OA
ENDBRANCH  13  14
ENDBRANCH  12  13
ENDBRANCH   5   7
ENDBRANCH   2   3
ENDBRANCH   1   2
BRANCH   1  24
ATOM     24  C   UNL A   1      37.882  20.758  25.285  1.00  0.00     0.118 C 
BRANCH  24  25
ATOM     25  N   UNL A   1      38.954  19.911  25.793  1.00  0.00    -0.352 N 
ATOM     26  C   UNL A   1      40.144  20.251  26.394  1.00  0.00     0.251 C 
ATOM     27  H   UNL A   1      38.804  18.943  25.689  1.00  0.00     0.163 HD
ATOM     28  O   UNL A   1      40.990  19.382  26.589  1.00  0.00    -0.269 OA
BRANCH  26  29
ATOM     29  C   UNL A   1      40.415  21.656  26.770  1.00  0.00     0.039 A 
ATOM     30  C   UNL A   1      41.324  21.923  27.798  1.00  0.00     0.014 A 
ATOM     31  C   UNL A   1      39.787  22.710  26.103  1.00  0.00     0.014 A 
ATOM     32  C   UNL A   1      41.672  23.244  28.090  1.00  0.00     0.010 A 
ATOM     33  C   UNL A   1      40.203  24.018  26.331  1.00  0.00     0.010 A 
ATOM     34  C   UNL A   1      41.156  24.301  27.322  1.00  0.00    -0.014 A 
BRANCH  34  35
ATOM     35  C   UNL A   1      41.599  25.707  27.524  1.00  0.00     0.031 A 
ATOM     36  C   UNL A   1      42.942  26.155  27.015  1.00  0.00     0.074 A 
ATOM     37  C   UNL A   1      40.832  26.554  28.243  1.00  0.00     0.049 A 
ATOM     38  N   UNL A   1      43.564  27.289  27.203  1.00  0.00    -0.248 NA
ATOM     39  C   UNL A   1      43.699  25.180  26.213  1.00  0.00     0.031 C 
ATOM     40  C   UNL A   1      39.524  26.230  28.817  1.00  0.00     0.029 A 
ATOM     41  N   UNL A   1      41.047  27.855  28.628  1.00  0.00    -0.354 N 
ATOM     42  C   UNL A   1      44.791  27.161  26.560  1.00  0.00     0.074 A 
ATOM     43  C   UNL A   1      44.846  25.815  26.030  1.00  0.00     0.031 C 
ATOM     44  C   UNL A   1      39.047  27.308  29.460  1.00  0.00     0.029 A 
ATOM     45  C   UNL A   1      40.036  28.380  29.400  1.00  0.00     0.049 A 
ATOM     46  H   UNL A   1      41.851  28.365  28.374  1.00  0.00     0.167 HD
ATOM     47  C   UNL A   1      45.771  28.086  26.408  1.00  0.00     0.034 A 
ATOM     48  C   UNL A   1      39.925  29.575  30.012  1.00  0.00     0.034 A 
ATOM     49  C   UNL A   1      45.693  29.427  26.935  1.00  0.00     0.049 A 
ATOM     50  C   UNL A   1      41.048  30.574  29.868  1.00  0.00     0.074 A 
ATOM     51  C   UNL A   1      46.602  30.461  26.792  1.00  0.00     0.029 A 
ATOM     52  N   UNL A   1      44.654  29.919  27.715  1.00  0.00    -0.354 N 
ATOM     53  N   UNL A   1      42.183  30.452  29.218  1.00  0.00    -0.248 NA
ATOM     54  C   UNL A   1      40.874  31.871  30.533  1.00  0.00     0.031 C 
ATOM     55  C   UNL A   1      46.154  31.547  27.549  1.00  0.00     0.029 A 
ATOM     56  C   UNL A   1      44.920  31.228  28.091  1.00  0.00     0.049 A 
ATOM     57  H   UNL A   1      43.847  29.414  27.964  1.00  0.00     0.167 HD
ATOM     58  C   UNL A   1      42.839  31.671  29.367  1.00  0.00     0.074 A 
ATOM     59  C   UNL A   1      41.970  32.516  30.160  1.00  0.00     0.031 C 
ATOM     60  C   UNL A   1      44.048  32.060  28.887  1.00  0.00     0.034 A 
BRANCH  47  61
ATOM     61  C   UNL A   1      47.019  27.666  25.669  1.00  0.00     0.023 A 
ATOM     62  C   UNL A   1      47.212  27.969  24.310  1.00  0.00     0.031 A 
ATOM     63  C   UNL A   1      48.024  26.936  26.328  1.00  0.00     0.131 A 
ATOM     64  C   UNL A   1      48.340  27.478  23.635  1.00  0.00     0.055 A 
ATOM     65  C   UNL A   1      49.188  26.525  25.672  1.00  0.00     0.041 A 
ATOM     66  F   UNL A   1      47.890  26.596  27.619  1.00  0.00    -0.206 F 
ATOM     67  C   UNL A   1      49.343  26.783  24.313  1.00  0.00     0.022 A 
BRANCH  64  68
ATOM     68  S   UNL A   1      48.401  27.630  21.829  1.00  0.00     0.124 S 
ATOM     69  O   UNL A   1      47.085  28.192  21.535  1.00  0.00    -0.237 OA
ATOM     70  O   UNL A   1      49.537  28.523  21.626  1.00  0.00    -0.237 OA
ATOM     71  O   UNL A   1      48.598  26.255  21.376  1.00  0.00    -0.744 OA
ENDBRANCH  64  68
ENDBRANCH  47  61
BRANCH  48  72
ATOM     72  C   UNL A   1      38.723  29.897  30.836  1.00  0.00     0.023 A 
ATOM     73  C   UNL A   1      37.693  30.705  30.330  1.00  0.00     0.031 A 
ATOM     74  C   UNL A   1      38.608  29.440  32.162  1.00  0.00     0.131 A 
ATOM     75  C   UNL A   1      36.620  31.073  31.156  1.00  0.00     0.055 A 
ATOM     76  C   UNL A   1      37.509  29.758  32.960  1.00  0.00     0.041 A 
ATOM     77  F   UNL A   1      39.564  28.663  32.698  1.00  0.00    -0.206 F 
ATOM     78  C   UNL A   1      36.513  30.592  32.463  1.00  0.00     0.022 A 
BRANCH  75  79
ATOM     79  S   UNL A   1      35.415  32.275  30.530  1.00  0.00     0.124 S 
ATOM     80  O   UNL A   1      36.234  33.474  30.398  1.00  0.00    -0.237 OA
ATOM     81  O   UNL A   1      34.984  31.650  29.283  1.00  0.00    -0.237 OA
ATOM     82  O   UNL A   1      34.403  32.323  31.583  1.00  0.00    -0.744 OA
ENDBRANCH  75  79
ENDBRANCH  48  72
BRANCH  60  83
ATOM     83  C   UNL A   1      44.476  33.482  29.155  1.00  0.00     0.023 A 
ATOM     84  C   UNL A   1      44.026  34.557  28.369  1.00  0.00     0.031 A 
ATOM     85  C   UNL A   1      45.343  33.765  30.226  1.00  0.00     0.131 A 
ATOM     86  C   UNL A   1      44.478  35.858  28.640  1.00  0.00     0.055 A 
ATOM     87  C   UNL A   1      45.740  35.068  30.529  1.00  0.00     0.041 A 
ATOM     88  F   UNL A   1      45.809  32.776  31.006  1.00  0.00    -0.206 F 
ATOM     89  C   UNL A   1      45.316  36.122  29.727  1.00  0.00     0.022 A 
BRANCH  86  90
ATOM     90  S   UNL A   1      44.023  37.195  27.503  1.00  0.00     0.124 S 
ATOM     91  O   UNL A   1      45.319  37.581  26.953  1.00  0.00    -0.237 OA
ATOM     92  O   UNL A   1      43.113  36.526  26.580  1.00  0.00    -0.237 OA
ATOM     93  O   UNL A   1      43.399  38.190  28.374  1.00  0.00    -0.744 OA
ENDBRANCH  86  90
ENDBRANCH  60  83
ENDBRANCH  34  35
ENDBRANCH  26  29
ENDBRANCH  24  25
ENDBRANCH   1  24
TORSDOF 15
ENDMDL
MODEL 3
REMARK VINA RESULT:     -12.3      2.262      3.010
REMARK SMILES O=C(NCCCNC(=O)c1ccc(-c2c3nc(c(-c4cc(S(=O)(=O)[O-])ccc4F)c4ccc([nH]4)c(-c4cc(S(=O)(=O)[O-])ccc4F)c4nc(c(-c5cc(S(=O)(=O)[O-])ccc5F)c5ccc2[nH]5)C=C4)C=C3)cc1)c1ccc(Cn2cc(Cl)c(=O)[nH]c2=O)cc1
REMARK SMILES IDX 5 1 4 2 3 3 1 4 2 5 73 7 74 8 88 9 75 10 87 11 76 12 77 13
REMARK SMILES IDX 78 14 79 15 85 16 80 17 84 18 86 19 81 20 82 21 83 23 6 24
REMARK SMILES IDX 7 25 8 26 9 28 10 29 11 30 72 31 12 32 71 33 13 34 14 35
REMARK SMILES IDX 15 36 65 37 16 38 70 39 64 40 66 41 17 42 69 43 63 44 62 45
REMARK SMILES IDX 18 47 50 48 30 49 49 50 31 51 34 52 48 53 67 54 32 55 33 56
REMARK SMILES IDX 47 58 68 59 35 60 19 61 20 62 28 63 21 64 27 65 29 66 26 67
REMARK SMILES IDX 22 68 23 69 24 70 25 71 51 72 52 73 60 74 53 75 59 76 61 77
REMARK SMILES IDX 58 78 54 79 55 80 56 81 57 82 36 83 37 84 45 85 38 86 44 87
REMARK SMILES IDX 46 88 43 89 39 90 40 91 41 92 42 93
REMARK H PARENT 3 6 84 22 7 27 66 46 34 57
REMARK Flexibility Score: inf
ROOT
ATOM      1  C   UNL A   1      32.972  29.270  24.410  1.00  0.00     0.042 C 
ENDROOT
BRANCH   1   2
ATOM      2  C   UNL A   1      31.971  28.360  23.713  1.00  0.00     0.118 C 
BRANCH   2   3
ATOM      3  N   UNL A   1      32.506  27.767  22.494  1.00  0.00    -0.352 N 
ATOM      4  O   UNL A   1      33.656  26.267  21.249  1.00  0.00    -0.269 OA
ATOM      5  C   UNL A   1      33.122  26.553  22.317  1.00  0.00     0.251 C 
ATOM      6  H   UNL A   1      32.412  28.315  21.680  1.00  0.00     0.163 HD
BRANCH   5   7
ATOM      7  C   UNL A   1      33.144  25.586  23.430  1.00  0.00     0.039 A 
ATOM      8  C   UNL A   1      34.080  25.724  24.456  1.00  0.00     0.014 A 
ATOM      9  C   UNL A   1      32.230  24.532  23.442  1.00  0.00     0.014 A 
ATOM     10  C   UNL A   1      34.164  24.749  25.447  1.00  0.00     0.006 A 
ATOM     11  C   UNL A   1      32.326  23.548  24.430  1.00  0.00     0.006 A 
ATOM     12  C   UNL A   1      33.316  23.631  25.423  1.00  0.00    -0.028 A 
BRANCH  12  13
ATOM     13  C   UNL A   1      33.492  22.516  26.435  1.00  0.00     0.162 C 
BRANCH  13  14
ATOM     14  N   UNL A   1      33.930  21.248  25.832  1.00  0.00    -0.295 N 
ATOM     15  C   UNL A   1      32.995  20.278  25.503  1.00  0.00     0.117 A 
ATOM     16  C   UNL A   1      35.285  21.060  25.576  1.00  0.00     0.328 A 
ATOM     17  C   UNL A   1      33.328  19.111  24.947  1.00  0.00     0.122 A 
ATOM     18  N   UNL A   1      35.616  19.857  25.002  1.00  0.00    -0.273 N 
ATOM     19  O   UNL A   1      36.156  21.893  25.809  1.00  0.00    -0.248 OA
ATOM     20  Cl  UNL A   1      32.152  17.925  24.555  1.00  0.00    -0.077 Cl
ATOM     21  C   UNL A   1      34.754  18.852  24.646  1.00  0.00     0.272 A 
ATOM     22  H   UNL A   1      36.572  19.700  24.827  1.00  0.00     0.175 HD
ATOM     23  O   UNL A   1      35.149  17.832  24.093  1.00  0.00    -0.268 OA
ENDBRANCH  13  14
ENDBRANCH  12  13
ENDBRANCH   5   7
ENDBRANCH   2   3
ENDBRANCH   1   2
BRANCH   1  24
ATOM     24  C   UNL A   1      32.745  29.419  25.907  1.00  0.00     0.118 C 
BRANCH  24  25
ATOM     25  N   UNL A   1      32.429  30.787  26.301  1.00  0.00    -0.352 N 
ATOM     26  C   UNL A   1      33.094  31.641  27.151  1.00  0.00     0.251 C 
ATOM     27  H   UNL A   1      31.612  31.158  25.896  1.00  0.00     0.163 HD
ATOM     28  O   UNL A   1      32.560  32.695  27.483  1.00  0.00    -0.269 OA
BRANCH  26  29
ATOM     29  C   UNL A   1      34.424  31.274  27.686  1.00  0.00     0.039 A 
ATOM     30  C   UNL A   1      35.391  32.271  27.847  1.00  0.00     0.014 A 
ATOM     31  C   UNL A   1      34.715  29.956  28.041  1.00  0.00     0.014 A 
ATOM     32  C   UNL A   1      36.611  31.961  28.453  1.00  0.00     0.010 A 
ATOM     33  C   UNL A   1      35.892  29.668  28.726  1.00  0.00     0.010 A 
ATOM     34  C   UNL A   1      36.851  30.669  28.948  1.00  0.00    -0.014 A 
BRANCH  34  35
ATOM     35  C   UNL A   1      38.087  30.336  29.705  1.00  0.00     0.031 A 
ATOM     36  C   UNL A   1      39.079  29.358  29.135  1.00  0.00     0.074 A 
ATOM     37  C   UNL A   1      38.273  30.844  30.941  1.00  0.00     0.049 A 
ATOM     38  N   UNL A   1      40.143  28.837  29.690  1.00  0.00    -0.248 NA
ATOM     39  C   UNL A   1      38.818  28.879  27.769  1.00  0.00     0.031 C 
ATOM     40  C   UNL A   1      37.369  31.776  31.618  1.00  0.00     0.029 A 
ATOM     41  N   UNL A   1      39.276  30.635  31.858  1.00  0.00    -0.354 N 
ATOM     42  C   UNL A   1      40.669  27.957  28.750  1.00  0.00     0.074 A 
ATOM     43  C   UNL A   1      39.770  27.971  27.615  1.00  0.00     0.031 C 
ATOM     44  C   UNL A   1      37.868  32.075  32.828  1.00  0.00     0.029 A 
ATOM     45  C   UNL A   1      39.093  31.310  33.043  1.00  0.00     0.049 A 
ATOM     46  H   UNL A   1      40.053  30.055  31.683  1.00  0.00     0.167 HD
ATOM     47  C   UNL A   1      41.806  27.221  28.819  1.00  0.00     0.034 A 
ATOM     48  C   UNL A   1      39.812  31.298  34.184  1.00  0.00     0.034 A 
ATOM     49  C   UNL A   1      42.696  27.228  29.955  1.00  0.00     0.049 A 
ATOM     50  C   UNL A   1      41.049  30.437  34.255  1.00  0.00     0.074 A 
ATOM     51  C   UNL A   1      43.902  26.566  30.107  1.00  0.00     0.029 A 
ATOM     52  N   UNL A   1      42.474  27.922  31.138  1.00  0.00    -0.354 N 
ATOM     53  N   UNL A   1      41.557  29.643  33.340  1.00  0.00    -0.248 NA
ATOM     54  C   UNL A   1      41.813  30.472  35.509  1.00  0.00     0.031 C 
ATOM     55  C   UNL A   1      44.366  26.793  31.406  1.00  0.00     0.029 A 
ATOM     56  C   UNL A   1      43.500  27.672  32.037  1.00  0.00     0.049 A 
ATOM     57  H   UNL A   1      41.702  28.506  31.313  1.00  0.00     0.167 HD
ATOM     58  C   UNL A   1      42.720  29.116  33.896  1.00  0.00     0.074 A 
ATOM     59  C   UNL A   1      42.841  29.688  35.221  1.00  0.00     0.031 C 
ATOM     60  C   UNL A   1      43.610  28.244  33.358  1.00  0.00     0.034 A 
BRANCH  47  61
ATOM     61  C   UNL A   1      42.132  26.328  27.646  1.00  0.00     0.023 A 
ATOM     62  C   UNL A   1      41.633  25.018  27.551  1.00  0.00     0.031 A 
ATOM     63  C   UNL A   1      42.971  26.787  26.614  1.00  0.00     0.131 A 
ATOM     64  C   UNL A   1      42.037  24.187  26.494  1.00  0.00     0.055 A 
ATOM     65  C   UNL A   1      43.298  25.984  25.518  1.00  0.00     0.041 A 
ATOM     66  F   UNL A   1      43.497  28.021  26.656  1.00  0.00    -0.206 F 
ATOM     67  C   UNL A   1      42.843  24.671  25.462  1.00  0.00     0.022 A 
BRANCH  64  68
ATOM     68  S   UNL A   1      41.617  22.425  26.571  1.00  0.00     0.124 S 
ATOM     69  O   UNL A   1      42.214  22.034  27.846  1.00  0.00    -0.237 OA
ATOM     70  O   UNL A   1      40.159  22.446  26.528  1.00  0.00    -0.237 OA
ATOM     71  O   UNL A   1      42.269  21.866  25.389  1.00  0.00    -0.744 OA
ENDBRANCH  64  68
ENDBRANCH  47  61
BRANCH  48  72
ATOM     72  C   UNL A   1      39.378  32.105  35.362  1.00  0.00     0.023 A 
ATOM     73  C   UNL A   1      38.679  31.515  36.426  1.00  0.00     0.031 A 
ATOM     74  C   UNL A   1      39.616  33.491  35.420  1.00  0.00     0.131 A 
ATOM     75  C   UNL A   1      38.198  32.312  37.477  1.00  0.00     0.055 A 
ATOM     76  C   UNL A   1      39.189  34.269  36.496  1.00  0.00     0.041 A 
ATOM     77  F   UNL A   1      40.281  34.108  34.430  1.00  0.00    -0.206 F 
ATOM     78  C   UNL A   1      38.462  33.682  37.527  1.00  0.00     0.022 A 
BRANCH  75  79
ATOM     79  S   UNL A   1      37.131  31.546  38.729  1.00  0.00     0.124 S 
ATOM     80  O   UNL A   1      35.955  32.407  38.682  1.00  0.00    -0.237 OA
ATOM     81  O   UNL A   1      36.963  30.197  38.198  1.00  0.00    -0.237 OA
ATOM     82  O   UNL A   1      37.924  31.638  39.953  1.00  0.00    -0.744 OA
ENDBRANCH  75  79
ENDBRANCH  48  72
BRANCH  60  83
ATOM     83  C   UNL A   1      44.828  27.899  34.181  1.00  0.00     0.023 A 
ATOM     84  C   UNL A   1      44.884  26.746  34.981  1.00  0.00     0.031 A 
ATOM     85  C   UNL A   1      45.957  28.738  34.149  1.00  0.00     0.131 A 
ATOM     86  C   UNL A   1      46.028  26.486  35.752  1.00  0.00     0.055 A 
ATOM     87  C   UNL A   1      47.115  28.442  34.869  1.00  0.00     0.041 A 
ATOM     88  F   UNL A   1      45.956  29.856  33.406  1.00  0.00    -0.206 F 
ATOM     89  C   UNL A   1      47.151  27.315  35.685  1.00  0.00     0.022 A 
BRANCH  86  90
ATOM     90  S   UNL A   1      46.003  25.090  36.910  1.00  0.00     0.124 S 
ATOM     91  O   UNL A   1      47.240  25.293  37.658  1.00  0.00    -0.237 OA
ATOM     92  O   UNL A   1      44.766  25.318  37.649  1.00  0.00    -0.237 OA
ATOM     93  O   UNL A   1      45.993  23.918  36.035  1.00  0.00    -0.744 OA
ENDBRANCH  86  90
ENDBRANCH  60  83
ENDBRANCH  34  35
ENDBRANCH  26  29
ENDBRANCH  24  25
ENDBRANCH   1  24
TORSDOF 15
ENDMDL
