MODEL 1
REMARK VINA RESULT:     -11.8      0.000      0.000
REMARK SMILES CC[C@H](NC(=O)c1nn(C)cc1C(=O)NCCCNC(=O)c1ccc(-c2c3nc(c(-c4cc(S(=O)(=O)[O-])ccc4F)c4ccc([nH]4)c(-c4cc(S(=O)(=O)[O-])ccc4F)c4nc(c(-c5cc(S(=O)(=O)[O-])ccc5F)c5ccc2[nH]5)C=C4)C=C3)cc1)c1ccccc1
REMARK SMILES IDX 17 1 16 2 15 3 13 4 14 5 12 7 7 8 8 9 9 10 11 11 10 12 5 13
REMARK SMILES IDX 4 14 6 16 3 17 2 18 1 19 85 20 86 21 90 22 87 23 89 24 88 25
REMARK SMILES IDX 18 26 19 27 20 28 21 30 22 31 23 32 84 33 24 34 83 35 25 36
REMARK SMILES IDX 26 37 27 38 77 39 28 40 82 41 76 42 78 43 29 44 81 45 75 46
REMARK SMILES IDX 74 47 30 49 62 50 42 51 61 52 43 53 46 54 60 55 79 56 44 57
REMARK SMILES IDX 45 58 59 60 80 61 47 62 31 63 32 64 40 65 33 66 39 67 41 68
REMARK SMILES IDX 38 69 34 70 35 71 36 72 37 73 63 74 64 75 72 76 65 77 71 78
REMARK SMILES IDX 73 79 70 80 66 81 67 82 68 83 69 84 48 85 49 86 57 87 50 88
REMARK SMILES IDX 56 89 58 90 55 91 51 92 52 93 53 94 54 95
REMARK H PARENT 15 6 4 15 19 29 78 48 46 59
REMARK Flexibility Score: inf
ROOT
ATOM      1  C   UNL A   1      35.770  22.704  24.474  1.00  0.00     0.042 C 
ENDROOT
BRANCH   1   2
ATOM      2  C   UNL A   1      35.130  24.088  24.510  1.00  0.00     0.118 C 
BRANCH   2   3
ATOM      3  N   UNL A   1      34.507  24.443  23.248  1.00  0.00    -0.352 N 
ATOM      4  C   UNL A   1      33.585  25.368  22.845  1.00  0.00     0.255 C 
ATOM      5  O   UNL A   1      33.296  25.320  21.647  1.00  0.00    -0.269 OA
ATOM      6  H   UNL A   1      34.825  23.884  22.504  1.00  0.00     0.163 HD
BRANCH   4   7
ATOM      7  C   UNL A   1      32.987  26.363  23.712  1.00  0.00     0.090 A 
ATOM      8  C   UNL A   1      31.652  26.313  24.252  1.00  0.00     0.162 A 
ATOM      9  N   UNL A   1      31.355  27.442  24.933  1.00  0.00    -0.167 NA
ATOM     10  N   UNL A   1      32.468  28.170  24.865  1.00  0.00    -0.274 N 
ATOM     11  C   UNL A   1      33.479  27.567  24.181  1.00  0.00     0.123 A 
ATOM     12  C   UNL A   1      32.478  29.494  25.439  1.00  0.00     0.173 C 
BRANCH   8  13
ATOM     13  C   UNL A   1      30.591  25.311  24.086  1.00  0.00     0.273 C 
ATOM     14  N   UNL A   1      30.607  24.129  24.787  1.00  0.00    -0.344 N 
ATOM     15  H   UNL A   1      29.708  23.788  24.992  1.00  0.00     0.164 HD
ATOM     16  O   UNL A   1      29.560  25.564  23.456  1.00  0.00    -0.267 OA
BRANCH  14  17
ATOM     17  C   UNL A   1      31.680  23.269  25.294  1.00  0.00     0.112 C 
BRANCH  17  18
ATOM     18  C   UNL A   1      31.589  23.099  26.839  1.00  0.00     0.026 C 
ATOM     19  C   UNL A   1      32.911  22.846  27.564  1.00  0.00     0.006 C 
ENDBRANCH  17  18
BRANCH  17  20
ATOM     20  C   UNL A   1      31.949  22.028  24.453  1.00  0.00    -0.026 A 
ATOM     21  C   UNL A   1      32.273  20.774  24.997  1.00  0.00     0.006 A 
ATOM     22  C   UNL A   1      31.872  22.124  23.050  1.00  0.00     0.006 A 
ATOM     23  C   UNL A   1      32.422  19.649  24.178  1.00  0.00     0.000 A 
ATOM     24  C   UNL A   1      32.005  20.999  22.234  1.00  0.00     0.000 A 
ATOM     25  C   UNL A   1      32.264  19.756  22.801  1.00  0.00     0.000 A 
ENDBRANCH  17  20
ENDBRANCH  14  17
ENDBRANCH   8  13
ENDBRANCH   4   7
ENDBRANCH   2   3
ENDBRANCH   1   2
BRANCH   1  26
ATOM     26  C   UNL A   1      36.110  22.152  25.860  1.00  0.00     0.118 C 
BRANCH  26  27
ATOM     27  N   UNL A   1      37.080  21.064  25.794  1.00  0.00    -0.352 N 
ATOM     28  C   UNL A   1      38.452  21.097  25.817  1.00  0.00     0.251 C 
ATOM     29  H   UNL A   1      36.687  20.164  25.721  1.00  0.00     0.163 HD
ATOM     30  O   UNL A   1      39.080  20.110  25.446  1.00  0.00    -0.269 OA
BRANCH  28  31
ATOM     31  C   UNL A   1      39.165  22.307  26.275  1.00  0.00     0.039 A 
ATOM     32  C   UNL A   1      40.197  22.179  27.209  1.00  0.00     0.014 A 
ATOM     33  C   UNL A   1      38.782  23.573  25.824  1.00  0.00     0.014 A 
ATOM     34  C   UNL A   1      40.885  23.315  27.643  1.00  0.00     0.010 A 
ATOM     35  C   UNL A   1      39.515  24.694  26.201  1.00  0.00     0.010 A 
ATOM     36  C   UNL A   1      40.572  24.579  27.117  1.00  0.00    -0.014 A 
BRANCH  36  37
ATOM     37  C   UNL A   1      41.319  25.801  27.520  1.00  0.00     0.031 A 
ATOM     38  C   UNL A   1      40.637  26.853  28.352  1.00  0.00     0.074 A 
ATOM     39  C   UNL A   1      42.572  25.999  27.067  1.00  0.00     0.049 A 
ATOM     40  N   UNL A   1      41.056  28.047  28.684  1.00  0.00    -0.248 NA
ATOM     41  C   UNL A   1      39.292  26.528  28.847  1.00  0.00     0.031 C 
ATOM     42  C   UNL A   1      43.329  25.061  26.235  1.00  0.00     0.029 A 
ATOM     43  N   UNL A   1      43.426  27.062  27.227  1.00  0.00    -0.354 N 
ATOM     44  C   UNL A   1      40.019  28.624  29.409  1.00  0.00     0.074 A 
ATOM     45  C   UNL A   1      38.932  27.668  29.417  1.00  0.00     0.031 C 
ATOM     46  C   UNL A   1      44.536  25.585  25.968  1.00  0.00     0.029 A 
ATOM     47  C   UNL A   1      44.621  26.916  26.562  1.00  0.00     0.049 A 
ATOM     48  H   UNL A   1      43.203  27.856  27.765  1.00  0.00     0.167 HD
ATOM     49  C   UNL A   1      39.984  29.833  30.025  1.00  0.00     0.034 A 
ATOM     50  C   UNL A   1      45.659  27.766  26.427  1.00  0.00     0.034 A 
ATOM     51  C   UNL A   1      41.084  30.766  30.017  1.00  0.00     0.049 A 
ATOM     52  C   UNL A   1      45.588  29.115  27.095  1.00  0.00     0.074 A 
ATOM     53  C   UNL A   1      41.174  31.997  30.646  1.00  0.00     0.029 A 
ATOM     54  N   UNL A   1      42.284  30.577  29.344  1.00  0.00    -0.354 N 
ATOM     55  N   UNL A   1      44.612  29.636  27.802  1.00  0.00    -0.248 NA
ATOM     56  C   UNL A   1      46.762  29.988  26.956  1.00  0.00     0.031 C 
ATOM     57  C   UNL A   1      42.398  32.579  30.297  1.00  0.00     0.029 A 
ATOM     58  C   UNL A   1      43.109  31.678  29.520  1.00  0.00     0.049 A 
ATOM     59  H   UNL A   1      42.516  29.778  28.819  1.00  0.00     0.167 HD
ATOM     60  C   UNL A   1      45.071  30.880  28.225  1.00  0.00     0.074 A 
ATOM     61  C   UNL A   1      46.412  31.029  27.698  1.00  0.00     0.031 C 
ATOM     62  C   UNL A   1      44.445  31.811  28.989  1.00  0.00     0.034 A 
BRANCH  49  63
ATOM     63  C   UNL A   1      38.703  30.218  30.730  1.00  0.00     0.023 A 
ATOM     64  C   UNL A   1      37.653  30.867  30.056  1.00  0.00     0.031 A 
ATOM     65  C   UNL A   1      38.540  29.959  32.102  1.00  0.00     0.131 A 
ATOM     66  C   UNL A   1      36.528  31.305  30.769  1.00  0.00     0.055 A 
ATOM     67  C   UNL A   1      37.379  30.319  32.788  1.00  0.00     0.041 A 
ATOM     68  F   UNL A   1      39.515  29.361  32.806  1.00  0.00    -0.206 F 
ATOM     69  C   UNL A   1      36.370  31.012  32.125  1.00  0.00     0.022 A 
BRANCH  66  70
ATOM     70  S   UNL A   1      35.344  32.395  29.931  1.00  0.00     0.124 S 
ATOM     71  O   UNL A   1      34.350  32.610  30.980  1.00  0.00    -0.237 OA
ATOM     72  O   UNL A   1      36.167  33.547  29.584  1.00  0.00    -0.237 OA
ATOM     73  O   UNL A   1      34.882  31.593  28.800  1.00  0.00    -0.744 OA
ENDBRANCH  66  70
ENDBRANCH  49  63
BRANCH  50  74
ATOM     74  C   UNL A   1      46.851  27.378  25.616  1.00  0.00     0.023 A 
ATOM     75  C   UNL A   1      46.995  27.817  24.291  1.00  0.00     0.031 A 
ATOM     76  C   UNL A   1      47.842  26.531  26.142  1.00  0.00     0.131 A 
ATOM     77  C   UNL A   1      48.079  27.369  23.520  1.00  0.00     0.055 A 
ATOM     78  C   UNL A   1      48.948  26.133  25.389  1.00  0.00     0.041 A 
ATOM     79  F   UNL A   1      47.757  26.088  27.407  1.00  0.00    -0.206 F 
ATOM     80  C   UNL A   1      49.064  26.541  24.064  1.00  0.00     0.022 A 
BRANCH  77  81
ATOM     81  S   UNL A   1      48.138  27.818  21.764  1.00  0.00     0.124 S 
ATOM     82  O   UNL A   1      48.360  26.522  21.134  1.00  0.00    -0.237 OA
ATOM     83  O   UNL A   1      46.823  28.415  21.561  1.00  0.00    -0.237 OA
ATOM     84  O   UNL A   1      49.261  28.750  21.690  1.00  0.00    -0.744 OA
ENDBRANCH  77  81
ENDBRANCH  50  74
BRANCH  62  85
ATOM     85  C   UNL A   1      45.233  33.045  29.356  1.00  0.00     0.023 A 
ATOM     86  C   UNL A   1      45.195  34.214  28.578  1.00  0.00     0.031 A 
ATOM     87  C   UNL A   1      46.032  33.046  30.514  1.00  0.00     0.131 A 
ATOM     88  C   UNL A   1      45.981  35.319  28.940  1.00  0.00     0.055 A 
ATOM     89  C   UNL A   1      46.766  34.167  30.901  1.00  0.00     0.041 A 
ATOM     90  F   UNL A   1      46.108  31.955  31.293  1.00  0.00    -0.206 F 
ATOM     91  C   UNL A   1      46.751  35.309  30.105  1.00  0.00     0.022 A 
BRANCH  88  92
ATOM     92  S   UNL A   1      46.045  36.748  27.823  1.00  0.00     0.124 S 
ATOM     93  O   UNL A   1      47.381  36.622  27.248  1.00  0.00    -0.237 OA
ATOM     94  O   UNL A   1      44.934  36.486  26.915  1.00  0.00    -0.237 OA
ATOM     95  O   UNL A   1      45.859  37.890  28.716  1.00  0.00    -0.744 OA
ENDBRANCH  88  92
ENDBRANCH  62  85
ENDBRANCH  36  37
ENDBRANCH  28  31
ENDBRANCH  26  27
ENDBRANCH   1  26
TORSDOF 17
ENDMDL
MODEL 2
REMARK VINA RESULT:     -11.7      4.961      7.991
REMARK SMILES CC[C@H](NC(=O)c1nn(C)cc1C(=O)NCCCNC(=O)c1ccc(-c2c3nc(c(-c4cc(S(=O)(=O)[O-])ccc4F)c4ccc([nH]4)c(-c4cc(S(=O)(=O)[O-])ccc4F)c4nc(c(-c5cc(S(=O)(=O)[O-])ccc5F)c5ccc2[nH]5)C=C4)C=C3)cc1)c1ccccc1
REMARK SMILES IDX 17 1 16 2 15 3 13 4 14 5 12 7 7 8 8 9 9 10 11 11 10 12 5 13
REMARK SMILES IDX 4 14 6 16 3 17 2 18 1 19 85 20 86 21 90 22 87 23 89 24 88 25
REMARK SMILES IDX 18 26 19 27 20 28 21 30 22 31 23 32 84 33 24 34 83 35 25 36
REMARK SMILES IDX 26 37 27 38 77 39 28 40 82 41 76 42 78 43 29 44 81 45 75 46
REMARK SMILES IDX 74 47 30 49 62 50 42 51 61 52 43 53 46 54 60 55 79 56 44 57
REMARK SMILES IDX 45 58 59 60 80 61 47 62 31 63 32 64 40 65 33 66 39 67 41 68
REMARK SMILES IDX 38 69 34 70 35 71 36 72 37 73 63 74 64 75 72 76 65 77 71 78
REMARK SMILES IDX 73 79 70 80 66 81 67 82 68 83 69 84 48 85 49 86 57 87 50 88
REMARK SMILES IDX 56 89 58 90 55 91 51 92 52 93 53 94 54 95
REMARK H PARENT 15 6 4 15 19 29 78 48 46 59
REMARK Flexibility Score: inf
ROOT
ATOM      1  C   UNL A   1      32.287  29.057  26.399  1.00  0.00     0.042 C 
ENDROOT
BRANCH   1   2
ATOM      2  C   UNL A   1      31.995  28.117  27.564  1.00  0.00     0.118 C 
BRANCH   2   3
ATOM      3  N   UNL A   1      31.093  27.042  27.196  1.00  0.00    -0.352 N 
ATOM      4  C   UNL A   1      31.170  25.938  26.393  1.00  0.00     0.255 C 
ATOM      5  O   UNL A   1      30.133  25.273  26.330  1.00  0.00    -0.269 OA
ATOM      6  H   UNL A   1      30.213  27.127  27.629  1.00  0.00     0.163 HD
BRANCH   4   7
ATOM      7  C   UNL A   1      32.360  25.527  25.676  1.00  0.00     0.090 A 
ATOM      8  C   UNL A   1      32.470  25.385  24.246  1.00  0.00     0.162 A 
ATOM      9  N   UNL A   1      33.674  24.880  23.895  1.00  0.00    -0.167 NA
ATOM     10  N   UNL A   1      34.323  24.742  25.049  1.00  0.00    -0.274 N 
ATOM     11  C   UNL A   1      33.605  25.139  26.135  1.00  0.00     0.123 A 
ATOM     12  C   UNL A   1      35.639  24.151  25.050  1.00  0.00     0.173 C 
BRANCH   8  13
ATOM     13  C   UNL A   1      31.477  25.597  23.185  1.00  0.00     0.273 C 
ATOM     14  N   UNL A   1      31.256  26.845  22.652  1.00  0.00    -0.344 N 
ATOM     15  H   UNL A   1      30.992  26.820  21.705  1.00  0.00     0.164 HD
ATOM     16  O   UNL A   1      30.940  24.647  22.607  1.00  0.00    -0.267 OA
BRANCH  14  17
ATOM     17  C   UNL A   1      31.329  28.203  23.196  1.00  0.00     0.112 C 
BRANCH  17  18
ATOM     18  C   UNL A   1      32.550  28.979  22.622  1.00  0.00     0.026 C 
ATOM     19  C   UNL A   1      33.928  28.420  22.980  1.00  0.00     0.006 C 
ENDBRANCH  17  18
BRANCH  17  20
ATOM     20  C   UNL A   1      29.992  28.929  23.270  1.00  0.00    -0.026 A 
ATOM     21  C   UNL A   1      29.865  30.303  23.536  1.00  0.00     0.006 A 
ATOM     22  C   UNL A   1      28.806  28.199  23.062  1.00  0.00     0.006 A 
ATOM     23  C   UNL A   1      28.616  30.931  23.504  1.00  0.00     0.000 A 
ATOM     24  C   UNL A   1      27.560  28.829  23.013  1.00  0.00     0.000 A 
ATOM     25  C   UNL A   1      27.467  30.201  23.219  1.00  0.00     0.000 A 
ENDBRANCH  17  20
ENDBRANCH  14  17
ENDBRANCH   8  13
ENDBRANCH   4   7
ENDBRANCH   2   3
ENDBRANCH   1   2
BRANCH   1  26
ATOM     26  C   UNL A   1      33.697  29.650  26.430  1.00  0.00     0.118 C 
BRANCH  26  27
ATOM     27  N   UNL A   1      33.707  31.014  26.947  1.00  0.00    -0.352 N 
ATOM     28  C   UNL A   1      34.464  31.580  27.942  1.00  0.00     0.251 C 
ATOM     29  H   UNL A   1      33.069  31.626  26.512  1.00  0.00     0.163 HD
ATOM     30  O   UNL A   1      34.110  32.650  28.428  1.00  0.00    -0.269 OA
BRANCH  28  31
ATOM     31  C   UNL A   1      35.685  30.906  28.429  1.00  0.00     0.039 A 
ATOM     32  C   UNL A   1      36.931  31.320  27.950  1.00  0.00     0.014 A 
ATOM     33  C   UNL A   1      35.599  29.832  29.319  1.00  0.00     0.014 A 
ATOM     34  C   UNL A   1      38.094  30.697  28.410  1.00  0.00     0.010 A 
ATOM     35  C   UNL A   1      36.761  29.261  29.831  1.00  0.00     0.010 A 
ATOM     36  C   UNL A   1      38.020  29.684  29.380  1.00  0.00    -0.014 A 
BRANCH  36  37
ATOM     37  C   UNL A   1      39.241  29.036  29.928  1.00  0.00     0.031 A 
ATOM     38  C   UNL A   1      39.914  29.615  31.143  1.00  0.00     0.074 A 
ATOM     39  C   UNL A   1      39.787  27.985  29.285  1.00  0.00     0.049 A 
ATOM     40  N   UNL A   1      41.059  29.293  31.689  1.00  0.00    -0.248 NA
ATOM     41  C   UNL A   1      39.219  30.724  31.811  1.00  0.00     0.031 C 
ATOM     42  C   UNL A   1      39.239  27.351  28.084  1.00  0.00     0.029 A 
ATOM     43  N   UNL A   1      40.935  27.276  29.538  1.00  0.00    -0.354 N 
ATOM     44  C   UNL A   1      41.232  30.174  32.752  1.00  0.00     0.074 A 
ATOM     45  C   UNL A   1      40.101  31.077  32.735  1.00  0.00     0.031 C 
ATOM     46  C   UNL A   1      40.043  26.341  27.715  1.00  0.00     0.029 A 
ATOM     47  C   UNL A   1      41.191  26.289  28.615  1.00  0.00     0.049 A 
ATOM     48  H   UNL A   1      41.522  27.458  30.308  1.00  0.00     0.167 HD
ATOM     49  C   UNL A   1      42.234  30.214  33.666  1.00  0.00     0.034 A 
ATOM     50  C   UNL A   1      42.240  25.451  28.494  1.00  0.00     0.034 A 
ATOM     51  C   UNL A   1      43.347  29.296  33.674  1.00  0.00     0.049 A 
ATOM     52  C   UNL A   1      43.357  25.532  29.504  1.00  0.00     0.074 A 
ATOM     53  C   UNL A   1      44.392  29.215  34.579  1.00  0.00     0.029 A 
ATOM     54  N   UNL A   1      43.564  28.300  32.730  1.00  0.00    -0.354 N 
ATOM     55  N   UNL A   1      43.493  26.351  30.521  1.00  0.00    -0.248 NA
ATOM     56  C   UNL A   1      44.457  24.569  29.356  1.00  0.00     0.031 C 
ATOM     57  C   UNL A   1      45.273  28.219  34.144  1.00  0.00     0.029 A 
ATOM     58  C   UNL A   1      44.738  27.619  33.015  1.00  0.00     0.049 A 
ATOM     59  H   UNL A   1      42.971  28.105  31.969  1.00  0.00     0.167 HD
ATOM     60  C   UNL A   1      44.673  25.974  31.157  1.00  0.00     0.074 A 
ATOM     61  C   UNL A   1      45.206  24.853  30.411  1.00  0.00     0.031 C 
ATOM     62  C   UNL A   1      45.257  26.501  32.263  1.00  0.00     0.034 A 
BRANCH  49  63
ATOM     63  C   UNL A   1      42.180  31.305  34.711  1.00  0.00     0.023 A 
ATOM     64  C   UNL A   1      42.777  32.561  34.501  1.00  0.00     0.031 A 
ATOM     65  C   UNL A   1      41.547  31.078  35.945  1.00  0.00     0.131 A 
ATOM     66  C   UNL A   1      42.799  33.508  35.536  1.00  0.00     0.055 A 
ATOM     67  C   UNL A   1      41.496  32.057  36.939  1.00  0.00     0.041 A 
ATOM     68  F   UNL A   1      40.977  29.892  36.214  1.00  0.00    -0.206 F 
ATOM     69  C   UNL A   1      42.140  33.276  36.744  1.00  0.00     0.022 A 
BRANCH  66  70
ATOM     70  S   UNL A   1      43.833  34.985  35.333  1.00  0.00     0.124 S 
ATOM     71  O   UNL A   1      42.905  35.904  34.677  1.00  0.00    -0.237 OA
ATOM     72  O   UNL A   1      44.189  35.312  36.709  1.00  0.00    -0.237 OA
ATOM     73  O   UNL A   1      44.934  34.520  34.494  1.00  0.00    -0.744 OA
ENDBRANCH  66  70
ENDBRANCH  49  63
BRANCH  50  74
ATOM     74  C   UNL A   1      42.299  24.473  27.369  1.00  0.00     0.023 A 
ATOM     75  C   UNL A   1      41.528  23.300  27.393  1.00  0.00     0.031 A 
ATOM     76  C   UNL A   1      43.156  24.677  26.273  1.00  0.00     0.131 A 
ATOM     77  C   UNL A   1      41.665  22.353  26.366  1.00  0.00     0.055 A 
ATOM     78  C   UNL A   1      43.247  23.759  25.226  1.00  0.00     0.041 A 
ATOM     79  F   UNL A   1      43.910  25.786  26.197  1.00  0.00    -0.206 F 
ATOM     80  C   UNL A   1      42.508  22.580  25.276  1.00  0.00     0.022 A 
BRANCH  77  81
ATOM     81  S   UNL A   1      40.784  20.775  26.519  1.00  0.00     0.124 S 
ATOM     82  O   UNL A   1      40.903  20.507  27.947  1.00  0.00    -0.237 OA
ATOM     83  O   UNL A   1      39.451  21.125  26.039  1.00  0.00    -0.237 OA
ATOM     84  O   UNL A   1      41.541  19.878  25.650  1.00  0.00    -0.744 OA
ENDBRANCH  77  81
ENDBRANCH  50  74
BRANCH  62  85
ATOM     85  C   UNL A   1      46.506  25.824  32.772  1.00  0.00     0.023 A 
ATOM     86  C   UNL A   1      46.460  24.784  33.716  1.00  0.00     0.031 A 
ATOM     87  C   UNL A   1      47.765  26.230  32.294  1.00  0.00     0.131 A 
ATOM     88  C   UNL A   1      47.654  24.218  34.189  1.00  0.00     0.055 A 
ATOM     89  C   UNL A   1      48.946  25.624  32.724  1.00  0.00     0.041 A 
ATOM     90  F   UNL A   1      47.868  27.221  31.393  1.00  0.00    -0.206 F 
ATOM     91  C   UNL A   1      48.895  24.618  33.685  1.00  0.00     0.022 A 
BRANCH  88  92
ATOM     92  S   UNL A   1      47.571  23.001  35.532  1.00  0.00     0.124 S 
ATOM     93  O   UNL A   1      48.572  22.024  35.117  1.00  0.00    -0.237 OA
ATOM     94  O   UNL A   1      47.912  23.804  36.702  1.00  0.00    -0.237 OA
ATOM     95  O   UNL A   1      46.188  22.532  35.485  1.00  0.00    -0.744 OA
ENDBRANCH  88  92
ENDBRANCH  62  85
ENDBRANCH  36  37
ENDBRANCH  28  31
ENDBRANCH  26  27
ENDBRANCH   1  26
TORSDOF 17
ENDMDL
MODEL 3
REMARK VINA RESULT:     -11.6      4.957      9.834
REMARK SMILES CC[C@H](NC(=O)c1nn(C)cc1C(=O)NCCCNC(=O)c1ccc(-c2c3nc(c(-c4cc(S(=O)(=O)[O-])ccc4F)c4ccc([nH]4)c(-c4cc(S(=O)(=O)[O-])ccc4F)c4nc(c(-c5cc(S(=O)(=O)[O-])ccc5F)c5ccc2[nH]5)C=C4)C=C3)cc1)c1ccccc1
REMARK SMILES IDX 17 1 16 2 15 3 13 4 14 5 12 7 7 8 8 9 9 10 11 11 10 12 5 13
REMARK SMILES IDX 4 14 6 16 3 17 2 18 1 19 85 20 86 21 90 22 87 23 89 24 88 25
REMARK SMILES IDX 18 26 19 27 20 28 21 30 22 31 23 32 84 33 24 34 83 35 25 36
REMARK SMILES IDX 26 37 27 38 77 39 28 40 82 41 76 42 78 43 29 44 81 45 75 46
REMARK SMILES IDX 74 47 30 49 62 50 42 51 61 52 43 53 46 54 60 55 79 56 44 57
REMARK SMILES IDX 45 58 59 60 80 61 47 62 31 63 32 64 40 65 33 66 39 67 41 68
REMARK SMILES IDX 38 69 34 70 35 71 36 72 37 73 63 74 64 75 72 76 65 77 71 78
REMARK SMILES IDX 73 79 70 80 66 81 67 82 68 83 69 84 48 85 49 86 57 87 50 88
REMARK SMILES IDX 56 89 58 90 55 91 51 92 52 93 53 94 54 95
REMARK H PARENT 15 6 4 15 19 29 78 48 46 59
REMARK Flexibility Score: inf
ROOT
ATOM      1  C   UNL A   1      31.565  28.742  25.766  1.00  0.00     0.042 C 
ENDROOT
BRANCH   1   2
ATOM      2  C   UNL A   1      31.755  27.504  26.635  1.00  0.00     0.118 C 
BRANCH   2   3
ATOM      3  N   UNL A   1      33.063  26.900  26.462  1.00  0.00    -0.352 N 
ATOM      4  C   UNL A   1      33.666  26.145  25.495  1.00  0.00     0.255 C 
ATOM      5  O   UNL A   1      34.820  25.798  25.757  1.00  0.00    -0.269 OA
ATOM      6  H   UNL A   1      33.660  27.076  27.224  1.00  0.00     0.163 HD
BRANCH   4   7
ATOM      7  C   UNL A   1      33.050  25.780  24.236  1.00  0.00     0.090 A 
ATOM      8  C   UNL A   1      32.055  24.753  24.055  1.00  0.00     0.162 A 
ATOM      9  N   UNL A   1      31.760  24.579  22.748  1.00  0.00    -0.167 NA
ATOM     10  N   UNL A   1      32.507  25.485  22.119  1.00  0.00    -0.274 N 
ATOM     11  C   UNL A   1      33.267  26.246  22.953  1.00  0.00     0.123 A 
ATOM     12  C   UNL A   1      32.492  25.530  20.677  1.00  0.00     0.173 C 
BRANCH   8  13
ATOM     13  C   UNL A   1      31.430  23.845  25.027  1.00  0.00     0.273 C 
ATOM     14  N   UNL A   1      32.055  22.689  25.430  1.00  0.00    -0.344 N 
ATOM     15  H   UNL A   1      31.843  22.437  26.357  1.00  0.00     0.164 HD
ATOM     16  O   UNL A   1      30.417  24.171  25.652  1.00  0.00    -0.267 OA
BRANCH  14  17
ATOM     17  C   UNL A   1      32.969  21.753  24.773  1.00  0.00     0.112 C 
BRANCH  17  18
ATOM     18  C   UNL A   1      32.316  21.112  23.513  1.00  0.00     0.026 C 
ATOM     19  C   UNL A   1      32.433  19.592  23.396  1.00  0.00     0.006 C 
ENDBRANCH  17  18
BRANCH  17  20
ATOM     20  C   UNL A   1      34.408  22.242  24.661  1.00  0.00    -0.026 A 
ATOM     21  C   UNL A   1      34.995  22.669  23.458  1.00  0.00     0.006 A 
ATOM     22  C   UNL A   1      35.208  22.277  25.819  1.00  0.00     0.006 A 
ATOM     23  C   UNL A   1      36.292  23.191  23.434  1.00  0.00     0.000 A 
ATOM     24  C   UNL A   1      36.498  22.814  25.798  1.00  0.00     0.000 A 
ATOM     25  C   UNL A   1      37.034  23.287  24.606  1.00  0.00     0.000 A 
ENDBRANCH  17  20
ENDBRANCH  14  17
ENDBRANCH   8  13
ENDBRANCH   4   7
ENDBRANCH   2   3
ENDBRANCH   1   2
BRANCH   1  26
ATOM     26  C   UNL A   1      32.793  29.653  25.722  1.00  0.00     0.118 C 
BRANCH  26  27
ATOM     27  N   UNL A   1      32.464  31.034  26.056  1.00  0.00    -0.352 N 
ATOM     28  C   UNL A   1      32.966  31.852  27.037  1.00  0.00     0.251 C 
ATOM     29  H   UNL A   1      31.773  31.444  25.488  1.00  0.00     0.163 HD
ATOM     30  O   UNL A   1      32.346  32.867  27.345  1.00  0.00    -0.269 OA
BRANCH  28  31
ATOM     31  C   UNL A   1      34.230  31.514  27.721  1.00  0.00     0.039 A 
ATOM     32  C   UNL A   1      35.227  32.488  27.837  1.00  0.00     0.014 A 
ATOM     33  C   UNL A   1      34.456  30.222  28.204  1.00  0.00     0.014 A 
ATOM     34  C   UNL A   1      36.424  32.183  28.490  1.00  0.00     0.010 A 
ATOM     35  C   UNL A   1      35.618  29.941  28.917  1.00  0.00     0.010 A 
ATOM     36  C   UNL A   1      36.616  30.917  29.065  1.00  0.00    -0.014 A 
BRANCH  36  37
ATOM     37  C   UNL A   1      37.857  30.576  29.810  1.00  0.00     0.031 A 
ATOM     38  C   UNL A   1      38.864  29.640  29.198  1.00  0.00     0.074 A 
ATOM     39  C   UNL A   1      38.034  31.039  31.064  1.00  0.00     0.049 A 
ATOM     40  N   UNL A   1      39.930  29.104  29.735  1.00  0.00    -0.248 NA
ATOM     41  C   UNL A   1      38.617  29.231  27.809  1.00  0.00     0.031 C 
ATOM     42  C   UNL A   1      37.116  31.934  31.772  1.00  0.00     0.029 A 
ATOM     43  N   UNL A   1      39.036  30.806  31.973  1.00  0.00    -0.354 N 
ATOM     44  C   UNL A   1      40.470  28.276  28.755  1.00  0.00     0.074 A 
ATOM     45  C   UNL A   1      39.581  28.342  27.615  1.00  0.00     0.031 C 
ATOM     46  C   UNL A   1      37.603  32.183  32.997  1.00  0.00     0.029 A 
ATOM     47  C   UNL A   1      38.837  31.426  33.185  1.00  0.00     0.049 A 
ATOM     48  H   UNL A   1      39.822  30.247  31.776  1.00  0.00     0.167 HD
ATOM     49  C   UNL A   1      41.612  27.544  28.799  1.00  0.00     0.034 A 
ATOM     50  C   UNL A   1      39.555  31.372  34.325  1.00  0.00     0.034 A 
ATOM     51  C   UNL A   1      42.494  27.504  29.940  1.00  0.00     0.049 A 
ATOM     52  C   UNL A   1      40.804  30.530  34.361  1.00  0.00     0.074 A 
ATOM     53  C   UNL A   1      43.698  26.835  30.076  1.00  0.00     0.029 A 
ATOM     54  N   UNL A   1      42.266  28.156  31.145  1.00  0.00    -0.354 N 
ATOM     55  N   UNL A   1      41.318  29.775  33.417  1.00  0.00    -0.248 NA
ATOM     56  C   UNL A   1      41.576  30.538  35.611  1.00  0.00     0.031 C 
ATOM     57  C   UNL A   1      44.162  27.026  31.382  1.00  0.00     0.029 A 
ATOM     58  C   UNL A   1      43.292  27.883  32.037  1.00  0.00     0.049 A 
ATOM     59  H   UNL A   1      41.489  28.729  31.339  1.00  0.00     0.167 HD
ATOM     60  C   UNL A   1      42.495  29.253  33.948  1.00  0.00     0.074 A 
ATOM     61  C   UNL A   1      42.616  29.782  35.291  1.00  0.00     0.031 C 
ATOM     62  C   UNL A   1      43.400  28.420  33.373  1.00  0.00     0.034 A 
BRANCH  49  63
ATOM     63  C   UNL A   1      41.950  26.709  27.585  1.00  0.00     0.023 A 
ATOM     64  C   UNL A   1      41.556  25.363  27.480  1.00  0.00     0.031 A 
ATOM     65  C   UNL A   1      42.699  27.257  26.529  1.00  0.00     0.131 A 
ATOM     66  C   UNL A   1      41.982  24.591  26.389  1.00  0.00     0.055 A 
ATOM     67  C   UNL A   1      43.045  26.507  25.403  1.00  0.00     0.041 A 
ATOM     68  F   UNL A   1      43.122  28.530  26.579  1.00  0.00    -0.206 F 
ATOM     69  C   UNL A   1      42.700  25.160  25.336  1.00  0.00     0.022 A 
BRANCH  66  70
ATOM     70  S   UNL A   1      41.711  22.798  26.441  1.00  0.00     0.124 S 
ATOM     71  O   UNL A   1      42.372  22.438  27.693  1.00  0.00    -0.237 OA
ATOM     72  O   UNL A   1      40.257  22.698  26.433  1.00  0.00    -0.237 OA
ATOM     73  O   UNL A   1      42.378  22.316  25.233  1.00  0.00    -0.744 OA
ENDBRANCH  66  70
ENDBRANCH  49  63
BRANCH  50  74
ATOM     74  C   UNL A   1      39.107  32.124  35.534  1.00  0.00     0.023 A 
ATOM     75  C   UNL A   1      38.449  31.471  36.587  1.00  0.00     0.031 A 
ATOM     76  C   UNL A   1      39.297  33.514  35.636  1.00  0.00     0.131 A 
ATOM     77  C   UNL A   1      37.960  32.213  37.673  1.00  0.00     0.055 A 
ATOM     78  C   UNL A   1      38.858  34.239  36.744  1.00  0.00     0.041 A 
ATOM     79  F   UNL A   1      39.927  34.187  34.659  1.00  0.00    -0.206 F 
ATOM     80  C   UNL A   1      38.172  33.590  37.766  1.00  0.00     0.022 A 
BRANCH  77  81
ATOM     81  S   UNL A   1      36.964  31.361  38.928  1.00  0.00     0.124 S 
ATOM     82  O   UNL A   1      35.754  32.174  38.949  1.00  0.00    -0.237 OA
ATOM     83  O   UNL A   1      36.833  30.026  38.353  1.00  0.00    -0.237 OA
ATOM     84  O   UNL A   1      37.792  31.441  40.129  1.00  0.00    -0.744 OA
ENDBRANCH  77  81
ENDBRANCH  50  74
BRANCH  62  85
ATOM     85  C   UNL A   1      44.634  28.084  34.174  1.00  0.00     0.023 A 
ATOM     86  C   UNL A   1      44.696  26.961  35.016  1.00  0.00     0.031 A 
ATOM     87  C   UNL A   1      45.771  28.907  34.084  1.00  0.00     0.131 A 
ATOM     88  C   UNL A   1      45.853  26.718  35.772  1.00  0.00     0.055 A 
ATOM     89  C   UNL A   1      46.940  28.629  34.793  1.00  0.00     0.041 A 
ATOM     90  F   UNL A   1      45.767  29.995  33.296  1.00  0.00    -0.206 F 
ATOM     91  C   UNL A   1      46.981  27.534  35.652  1.00  0.00     0.022 A 
BRANCH  88  92
ATOM     92  S   UNL A   1      45.839  25.363  36.978  1.00  0.00     0.124 S 
ATOM     93  O   UNL A   1      45.821  24.188  36.113  1.00  0.00    -0.237 OA
ATOM     94  O   UNL A   1      47.076  25.590  37.718  1.00  0.00    -0.237 OA
ATOM     95  O   UNL A   1      44.612  25.593  37.739  1.00  0.00    -0.744 OA
ENDBRANCH  88  92
ENDBRANCH  62  85
ENDBRANCH  36  37
ENDBRANCH  28  31
ENDBRANCH  26  27
ENDBRANCH   1  26
TORSDOF 17
ENDMDL
