MODEL 1
REMARK VINA RESULT:     -12.1      0.000      0.000
REMARK SMILES CCN(CC)c1ccc(NS(=O)(=O)c2ccc(Cl)s2)cc1C(=O)NCCCNC(=O)c1ccc(-c2c3nc(c(-c4cc(S(=O)(=O)[O-])ccc4F)c4ccc([nH]4)c(-c4cc(S(=O)(=O)[O-])ccc4F)c4nc(c(-c5cc(S(=O)(=O)[O-])ccc5F)c5ccc2[nH]5)C=C4)C=C3)cc1
REMARK SMILES IDX 26 1 25 2 24 3 22 4 23 5 21 7 6 8 7 9 8 10 20 11 9 12 3 13
REMARK SMILES IDX 2 14 1 15 4 16 5 17 10 18 11 20 12 21 13 22 14 23 15 24
REMARK SMILES IDX 19 25 16 26 17 27 18 28 27 29 28 30 29 31 30 33 31 34 32 35
REMARK SMILES IDX 93 36 33 37 92 38 34 39 35 40 36 41 86 42 37 43 91 44 85 45
REMARK SMILES IDX 87 46 38 47 90 48 84 49 83 50 39 52 71 53 51 54 70 55 52 56
REMARK SMILES IDX 55 57 69 58 88 59 53 60 54 61 68 63 89 64 56 65 40 66 41 67
REMARK SMILES IDX 49 68 42 69 48 70 50 71 47 72 43 73 44 74 45 75 46 76 72 77
REMARK SMILES IDX 73 78 81 79 74 80 80 81 82 82 79 83 75 84 76 85 77 86 78 87
REMARK SMILES IDX 57 88 58 89 66 90 59 91 65 92 67 93 64 94 60 95 61 96 62 97
REMARK SMILES IDX 63 98
REMARK H PARENT 24 6 10 19 28 32 87 51 55 62
REMARK Flexibility Score: inf
ROOT
ATOM      1  C   UNL A   1      32.255  30.632  26.405  1.00  0.00     0.042 C 
ENDROOT
BRANCH   1   2
ATOM      2  C   UNL A   1      32.883  29.372  25.841  1.00  0.00     0.118 C 
BRANCH   2   3
ATOM      3  N   UNL A   1      33.087  29.381  24.417  1.00  0.00    -0.352 N 
ATOM      4  C   UNL A   1      32.212  29.023  23.428  1.00  0.00     0.253 C 
ATOM      5  O   UNL A   1      32.595  29.152  22.261  1.00  0.00    -0.269 OA
ATOM      6  H   UNL A   1      33.973  29.683  24.115  1.00  0.00     0.163 HD
BRANCH   4   7
ATOM      7  C   UNL A   1      30.869  28.414  23.655  1.00  0.00     0.065 A 
ATOM      8  C   UNL A   1      29.619  28.890  23.202  1.00  0.00     0.050 A 
ATOM      9  C   UNL A   1      28.549  27.983  23.229  1.00  0.00     0.029 A 
ATOM     10  C   UNL A   1      28.658  26.710  23.782  1.00  0.00     0.029 A 
ATOM     11  C   UNL A   1      30.953  27.131  24.255  1.00  0.00     0.042 A 
ATOM     12  C   UNL A   1      29.850  26.283  24.346  1.00  0.00     0.050 A 
BRANCH   8  13
ATOM     13  N   UNL A   1      29.355  30.170  22.724  1.00  0.00    -0.371 N 
BRANCH  13  14
ATOM     14  C   UNL A   1      29.102  30.346  21.290  1.00  0.00     0.113 C 
ATOM     15  C   UNL A   1      28.223  31.555  21.009  1.00  0.00     0.027 C 
ENDBRANCH  13  14
BRANCH  13  16
ATOM     16  C   UNL A   1      28.734  31.137  23.660  1.00  0.00     0.113 C 
ATOM     17  C   UNL A   1      29.704  31.931  24.515  1.00  0.00     0.027 C 
ENDBRANCH  13  16
ENDBRANCH   8  13
BRANCH  12  18
ATOM     18  N   UNL A   1      29.968  25.125  25.180  1.00  0.00    -0.279 N 
ATOM     19  H   UNL A   1      29.366  24.364  25.012  1.00  0.00     0.180 HD
BRANCH  18  20
ATOM     20  S   UNL A   1      31.080  24.999  26.433  1.00  0.00     0.271 S 
ATOM     21  O   UNL A   1      31.182  26.284  27.089  1.00  0.00    -0.200 OA
ATOM     22  O   UNL A   1      30.757  23.804  27.183  1.00  0.00    -0.200 OA
BRANCH  20  23
ATOM     23  C   UNL A   1      32.705  24.714  25.760  1.00  0.00     0.141 A 
ATOM     24  C   UNL A   1      33.854  25.490  25.777  1.00  0.00     0.036 A 
ATOM     25  S   UNL A   1      32.907  23.311  24.799  1.00  0.00    -0.110 S 
ATOM     26  C   UNL A   1      34.856  24.984  24.898  1.00  0.00     0.034 A 
ATOM     27  C   UNL A   1      34.445  23.818  24.308  1.00  0.00     0.094 A 
ATOM     28  Cl  UNL A   1      35.321  22.897  23.153  1.00  0.00    -0.072 Cl
ENDBRANCH  20  23
ENDBRANCH  18  20
ENDBRANCH  12  18
ENDBRANCH   4   7
ENDBRANCH   2   3
ENDBRANCH   1   2
BRANCH   1  29
ATOM     29  C   UNL A   1      33.208  31.434  27.288  1.00  0.00     0.118 C 
BRANCH  29  30
ATOM     30  N   UNL A   1      32.839  32.838  27.475  1.00  0.00    -0.352 N 
ATOM     31  C   UNL A   1      33.313  33.849  28.279  1.00  0.00     0.251 C 
ATOM     32  H   UNL A   1      32.088  33.119  26.903  1.00  0.00     0.163 HD
ATOM     33  O   UNL A   1      32.731  34.933  28.261  1.00  0.00    -0.269 OA
BRANCH  31  34
ATOM     34  C   UNL A   1      34.445  33.642  29.213  1.00  0.00     0.039 A 
ATOM     35  C   UNL A   1      34.254  32.850  30.351  1.00  0.00     0.014 A 
ATOM     36  C   UNL A   1      35.703  34.186  28.978  1.00  0.00     0.014 A 
ATOM     37  C   UNL A   1      35.348  32.489  31.146  1.00  0.00     0.010 A 
ATOM     38  C   UNL A   1      36.807  33.704  29.670  1.00  0.00     0.010 A 
ATOM     39  C   UNL A   1      36.652  32.830  30.755  1.00  0.00    -0.014 A 
BRANCH  39  40
ATOM     40  C   UNL A   1      37.863  32.276  31.426  1.00  0.00     0.031 A 
ATOM     41  C   UNL A   1      38.673  31.191  30.758  1.00  0.00     0.074 A 
ATOM     42  C   UNL A   1      38.159  32.649  32.690  1.00  0.00     0.049 A 
ATOM     43  N   UNL A   1      39.610  30.427  31.259  1.00  0.00    -0.248 NA
ATOM     44  C   UNL A   1      38.339  30.887  29.358  1.00  0.00     0.031 C 
ATOM     45  C   UNL A   1      37.419  33.634  33.485  1.00  0.00     0.029 A 
ATOM     46  N   UNL A   1      39.154  32.230  33.541  1.00  0.00    -0.354 N 
ATOM     47  C   UNL A   1      39.939  29.522  30.255  1.00  0.00     0.074 A 
ATOM     48  C   UNL A   1      39.055  29.794  29.142  1.00  0.00     0.031 C 
ATOM     49  C   UNL A   1      38.005  33.771  34.684  1.00  0.00     0.029 A 
ATOM     50  C   UNL A   1      39.124  32.841  34.774  1.00  0.00     0.049 A 
ATOM     51  H   UNL A   1      39.827  31.557  33.291  1.00  0.00     0.167 HD
ATOM     52  C   UNL A   1      40.905  28.568  30.248  1.00  0.00     0.034 A 
ATOM     53  C   UNL A   1      39.896  32.662  35.864  1.00  0.00     0.034 A 
ATOM     54  C   UNL A   1      41.824  28.352  31.338  1.00  0.00     0.049 A 
ATOM     55  C   UNL A   1      40.999  31.638  35.812  1.00  0.00     0.074 A 
ATOM     56  C   UNL A   1      42.887  27.467  31.409  1.00  0.00     0.029 A 
ATOM     57  N   UNL A   1      41.801  29.040  32.544  1.00  0.00    -0.354 N 
ATOM     58  N   UNL A   1      41.313  30.811  34.842  1.00  0.00    -0.248 NA
ATOM     59  C   UNL A   1      41.858  31.529  36.999  1.00  0.00     0.031 C 
ATOM     60  C   UNL A   1      43.481  27.592  32.671  1.00  0.00     0.029 A 
ATOM     61  C   UNL A   1      42.825  28.595  33.366  1.00  0.00     0.049 A 
ATOM     62  H   UNL A   1      41.153  29.742  32.781  1.00  0.00     0.167 HD
ATOM     63  C   UNL A   1      42.423  30.104  35.294  1.00  0.00     0.074 A 
ATOM     64  C   UNL A   1      42.735  30.616  36.613  1.00  0.00     0.031 C 
ATOM     65  C   UNL A   1      43.121  29.117  34.678  1.00  0.00     0.034 A 
BRANCH  52  66
ATOM     66  C   UNL A   1      41.012  27.693  29.022  1.00  0.00     0.023 A 
ATOM     67  C   UNL A   1      42.025  27.884  28.068  1.00  0.00     0.031 A 
ATOM     68  C   UNL A   1      40.072  26.673  28.787  1.00  0.00     0.131 A 
ATOM     69  C   UNL A   1      42.026  27.130  26.885  1.00  0.00     0.055 A 
ATOM     70  C   UNL A   1      40.131  25.866  27.649  1.00  0.00     0.041 A 
ATOM     71  F   UNL A   1      39.071  26.453  29.654  1.00  0.00    -0.206 F 
ATOM     72  C   UNL A   1      41.103  26.103  26.681  1.00  0.00     0.022 A 
BRANCH  69  73
ATOM     73  S   UNL A   1      43.167  27.607  25.559  1.00  0.00     0.124 S 
ATOM     74  O   UNL A   1      44.019  28.578  26.243  1.00  0.00    -0.237 OA
ATOM     75  O   UNL A   1      43.798  26.338  25.212  1.00  0.00    -0.237 OA
ATOM     76  O   UNL A   1      42.289  28.168  24.536  1.00  0.00    -0.744 OA
ENDBRANCH  69  73
ENDBRANCH  52  66
BRANCH  53  77
ATOM     77  C   UNL A   1      39.660  33.457  37.104  1.00  0.00     0.023 A 
ATOM     78  C   UNL A   1      38.984  32.895  38.198  1.00  0.00     0.031 A 
ATOM     79  C   UNL A   1      40.060  34.801  37.195  1.00  0.00     0.131 A 
ATOM     80  C   UNL A   1      38.674  33.689  39.313  1.00  0.00     0.055 A 
ATOM     81  C   UNL A   1      39.798  35.572  38.330  1.00  0.00     0.041 A 
ATOM     82  F   UNL A   1      40.721  35.384  36.183  1.00  0.00    -0.206 F 
ATOM     83  C   UNL A   1      39.086  35.020  39.392  1.00  0.00     0.022 A 
BRANCH  80  84
ATOM     84  S   UNL A   1      37.637  32.977  40.620  1.00  0.00     0.124 S 
ATOM     85  O   UNL A   1      37.670  34.028  41.631  1.00  0.00    -0.237 OA
ATOM     86  O   UNL A   1      36.367  32.790  39.928  1.00  0.00    -0.237 OA
ATOM     87  O   UNL A   1      38.339  31.745  40.976  1.00  0.00    -0.744 OA
ENDBRANCH  80  84
ENDBRANCH  53  77
BRANCH  65  88
ATOM     88  C   UNL A   1      44.317  28.571  35.413  1.00  0.00     0.023 A 
ATOM     89  C   UNL A   1      44.194  27.532  36.351  1.00  0.00     0.031 A 
ATOM     90  C   UNL A   1      45.593  29.117  35.187  1.00  0.00     0.131 A 
ATOM     91  C   UNL A   1      45.319  27.109  37.073  1.00  0.00     0.055 A 
ATOM     92  C   UNL A   1      46.718  28.653  35.868  1.00  0.00     0.041 A 
ATOM     93  F   UNL A   1      45.763  30.111  34.302  1.00  0.00    -0.206 F 
ATOM     94  C   UNL A   1      46.583  27.653  36.828  1.00  0.00     0.022 A 
BRANCH  91  95
ATOM     95  S   UNL A   1      45.093  25.897  38.403  1.00  0.00     0.124 S 
ATOM     96  O   UNL A   1      44.395  24.816  37.715  1.00  0.00    -0.237 OA
ATOM     97  O   UNL A   1      46.468  25.615  38.805  1.00  0.00    -0.237 OA
ATOM     98  O   UNL A   1      44.296  26.620  39.393  1.00  0.00    -0.744 OA
ENDBRANCH  91  95
ENDBRANCH  65  88
ENDBRANCH  39  40
ENDBRANCH  31  34
ENDBRANCH  29  30
ENDBRANCH   1  29
TORSDOF 19
ENDMDL
MODEL 2
REMARK VINA RESULT:     -11.8      2.563      3.427
REMARK SMILES CCN(CC)c1ccc(NS(=O)(=O)c2ccc(Cl)s2)cc1C(=O)NCCCNC(=O)c1ccc(-c2c3nc(c(-c4cc(S(=O)(=O)[O-])ccc4F)c4ccc([nH]4)c(-c4cc(S(=O)(=O)[O-])ccc4F)c4nc(c(-c5cc(S(=O)(=O)[O-])ccc5F)c5ccc2[nH]5)C=C4)C=C3)cc1
REMARK SMILES IDX 26 1 25 2 24 3 22 4 23 5 21 7 6 8 7 9 8 10 20 11 9 12 3 13
REMARK SMILES IDX 2 14 1 15 4 16 5 17 10 18 11 20 12 21 13 22 14 23 15 24
REMARK SMILES IDX 19 25 16 26 17 27 18 28 27 29 28 30 29 31 30 33 31 34 32 35
REMARK SMILES IDX 93 36 33 37 92 38 34 39 35 40 36 41 86 42 37 43 91 44 85 45
REMARK SMILES IDX 87 46 38 47 90 48 84 49 83 50 39 52 71 53 51 54 70 55 52 56
REMARK SMILES IDX 55 57 69 58 88 59 53 60 54 61 68 63 89 64 56 65 40 66 41 67
REMARK SMILES IDX 49 68 42 69 48 70 50 71 47 72 43 73 44 74 45 75 46 76 72 77
REMARK SMILES IDX 73 78 81 79 74 80 80 81 82 82 79 83 75 84 76 85 77 86 78 87
REMARK SMILES IDX 57 88 58 89 66 90 59 91 65 92 67 93 64 94 60 95 61 96 62 97
REMARK SMILES IDX 63 98
REMARK H PARENT 24 6 10 19 28 32 87 51 55 62
REMARK Flexibility Score: inf
ROOT
ATOM      1  C   UNL A   1      31.942  28.442  27.161  1.00  0.00     0.042 C 
ENDROOT
BRANCH   1   2
ATOM      2  C   UNL A   1      31.779  27.069  26.538  1.00  0.00     0.118 C 
BRANCH   2   3
ATOM      3  N   UNL A   1      30.460  26.779  26.045  1.00  0.00    -0.352 N 
ATOM      4  C   UNL A   1      30.102  26.061  24.935  1.00  0.00     0.253 C 
ATOM      5  O   UNL A   1      28.895  25.906  24.728  1.00  0.00    -0.269 OA
ATOM      6  H   UNL A   1      29.716  27.146  26.574  1.00  0.00     0.163 HD
BRANCH   4   7
ATOM      7  C   UNL A   1      31.055  25.528  23.919  1.00  0.00     0.065 A 
ATOM      8  C   UNL A   1      31.921  26.264  23.080  1.00  0.00     0.050 A 
ATOM      9  C   UNL A   1      32.964  25.553  22.468  1.00  0.00     0.029 A 
ATOM     10  C   UNL A   1      33.090  24.170  22.569  1.00  0.00     0.029 A 
ATOM     11  C   UNL A   1      31.171  24.115  23.976  1.00  0.00     0.042 A 
ATOM     12  C   UNL A   1      32.168  23.426  23.287  1.00  0.00     0.050 A 
BRANCH   8  13
ATOM     13  N   UNL A   1      31.839  27.627  22.814  1.00  0.00    -0.371 N 
BRANCH  13  14
ATOM     14  C   UNL A   1      33.047  28.330  22.371  1.00  0.00     0.113 C 
ATOM     15  C   UNL A   1      34.028  28.556  23.513  1.00  0.00     0.027 C 
ENDBRANCH  13  14
BRANCH  13  16
ATOM     16  C   UNL A   1      30.528  28.163  22.378  1.00  0.00     0.113 C 
ATOM     17  C   UNL A   1      29.994  29.325  23.195  1.00  0.00     0.027 C 
ENDBRANCH  13  16
ENDBRANCH   8  13
BRANCH  12  18
ATOM     18  N   UNL A   1      32.056  22.000  23.204  1.00  0.00    -0.279 N 
ATOM     19  H   UNL A   1      31.690  21.607  22.380  1.00  0.00     0.180 HD
BRANCH  18  20
ATOM     20  S   UNL A   1      32.517  20.965  24.445  1.00  0.00     0.271 S 
ATOM     21  O   UNL A   1      31.410  20.832  25.367  1.00  0.00    -0.200 OA
ATOM     22  O   UNL A   1      33.123  19.800  23.836  1.00  0.00    -0.200 OA
BRANCH  20  23
ATOM     23  C   UNL A   1      33.808  21.726  25.407  1.00  0.00     0.141 A 
ATOM     24  C   UNL A   1      33.777  22.380  26.630  1.00  0.00     0.036 A 
ATOM     25  S   UNL A   1      35.359  21.815  24.685  1.00  0.00    -0.110 S 
ATOM     26  C   UNL A   1      35.002  23.054  26.909  1.00  0.00     0.034 A 
ATOM     27  C   UNL A   1      35.922  22.828  25.918  1.00  0.00     0.094 A 
ATOM     28  Cl  UNL A   1      37.507  23.480  25.832  1.00  0.00    -0.072 Cl
ENDBRANCH  20  23
ENDBRANCH  18  20
ENDBRANCH  12  18
ENDBRANCH   4   7
ENDBRANCH   2   3
ENDBRANCH   1   2
BRANCH   1  29
ATOM     29  C   UNL A   1      32.375  29.508  26.157  1.00  0.00     0.118 C 
BRANCH  29  30
ATOM     30  N   UNL A   1      32.234  30.887  26.626  1.00  0.00    -0.352 N 
ATOM     31  C   UNL A   1      33.064  31.755  27.297  1.00  0.00     0.251 C 
ATOM     32  H   UNL A   1      31.354  31.278  26.416  1.00  0.00     0.163 HD
ATOM     33  O   UNL A   1      32.620  32.857  27.622  1.00  0.00    -0.269 OA
BRANCH  31  34
ATOM     34  C   UNL A   1      34.437  31.371  27.703  1.00  0.00     0.039 A 
ATOM     35  C   UNL A   1      35.399  32.371  27.885  1.00  0.00     0.014 A 
ATOM     36  C   UNL A   1      34.792  30.048  27.938  1.00  0.00     0.014 A 
ATOM     37  C   UNL A   1      36.643  32.055  28.444  1.00  0.00     0.010 A 
ATOM     38  C   UNL A   1      35.959  29.756  28.633  1.00  0.00     0.010 A 
ATOM     39  C   UNL A   1      36.897  30.758  28.917  1.00  0.00    -0.014 A 
BRANCH  39  40
ATOM     40  C   UNL A   1      38.102  30.421  29.730  1.00  0.00     0.031 A 
ATOM     41  C   UNL A   1      39.125  29.443  29.203  1.00  0.00     0.074 A 
ATOM     42  C   UNL A   1      38.211  30.888  30.992  1.00  0.00     0.049 A 
ATOM     43  N   UNL A   1      40.108  28.851  29.831  1.00  0.00    -0.248 NA
ATOM     44  C   UNL A   1      38.982  29.034  27.797  1.00  0.00     0.031 C 
ATOM     45  C   UNL A   1      37.259  31.782  31.657  1.00  0.00     0.029 A 
ATOM     46  N   UNL A   1      39.166  30.659  31.954  1.00  0.00    -0.354 N 
ATOM     47  C   UNL A   1      40.664  27.963  28.915  1.00  0.00     0.074 A 
ATOM     48  C   UNL A   1      39.867  28.052  27.711  1.00  0.00     0.031 C 
ATOM     49  C   UNL A   1      37.696  32.056  32.896  1.00  0.00     0.029 A 
ATOM     50  C   UNL A   1      38.923  31.310  33.143  1.00  0.00     0.049 A 
ATOM     51  H   UNL A   1      39.951  30.085  31.807  1.00  0.00     0.167 HD
ATOM     52  C   UNL A   1      41.755  27.167  29.053  1.00  0.00     0.034 A 
ATOM     53  C   UNL A   1      39.599  31.295  34.309  1.00  0.00     0.034 A 
ATOM     54  C   UNL A   1      42.581  27.137  30.235  1.00  0.00     0.049 A 
ATOM     55  C   UNL A   1      40.839  30.448  34.418  1.00  0.00     0.074 A 
ATOM     56  C   UNL A   1      43.749  26.427  30.454  1.00  0.00     0.029 A 
ATOM     57  N   UNL A   1      42.337  27.865  31.392  1.00  0.00    -0.354 N 
ATOM     58  N   UNL A   1      41.366  29.637  33.530  1.00  0.00    -0.248 NA
ATOM     59  C   UNL A   1      41.581  30.520  35.684  1.00  0.00     0.031 C 
ATOM     60  C   UNL A   1      44.188  26.693  31.757  1.00  0.00     0.029 A 
ATOM     61  C   UNL A   1      43.326  27.614  32.330  1.00  0.00     0.049 A 
ATOM     62  H   UNL A   1      41.572  28.471  31.528  1.00  0.00     0.167 HD
ATOM     63  C   UNL A   1      42.516  29.125  34.123  1.00  0.00     0.074 A 
ATOM     64  C   UNL A   1      42.616  29.733  35.434  1.00  0.00     0.031 C 
ATOM     65  C   UNL A   1      43.409  28.229  33.632  1.00  0.00     0.034 A 
BRANCH  52  66
ATOM     66  C   UNL A   1      42.111  26.267  27.894  1.00  0.00     0.023 A 
ATOM     67  C   UNL A   1      41.669  24.935  27.834  1.00  0.00     0.031 A 
ATOM     68  C   UNL A   1      42.928  26.736  26.849  1.00  0.00     0.131 A 
ATOM     69  C   UNL A   1      42.113  24.094  26.803  1.00  0.00     0.055 A 
ATOM     70  C   UNL A   1      43.294  25.918  25.778  1.00  0.00     0.041 A 
ATOM     71  F   UNL A   1      43.395  27.994  26.858  1.00  0.00    -0.206 F 
ATOM     72  C   UNL A   1      42.901  24.582  25.759  1.00  0.00     0.022 A 
BRANCH  69  73
ATOM     73  S   UNL A   1      41.760  22.319  26.924  1.00  0.00     0.124 S 
ATOM     74  O   UNL A   1      42.968  21.741  26.339  1.00  0.00    -0.237 OA
ATOM     75  O   UNL A   1      41.592  22.127  28.360  1.00  0.00    -0.237 OA
ATOM     76  O   UNL A   1      40.548  22.155  26.126  1.00  0.00    -0.744 OA
ENDBRANCH  69  73
ENDBRANCH  52  66
BRANCH  53  77
ATOM     77  C   UNL A   1      39.126  32.098  35.474  1.00  0.00     0.023 A 
ATOM     78  C   UNL A   1      39.571  33.417  35.663  1.00  0.00     0.031 A 
ATOM     79  C   UNL A   1      38.268  31.547  36.440  1.00  0.00     0.131 A 
ATOM     80  C   UNL A   1      39.204  34.120  36.819  1.00  0.00     0.055 A 
ATOM     81  C   UNL A   1      37.861  32.270  37.563  1.00  0.00     0.041 A 
ATOM     82  F   UNL A   1      37.804  30.295  36.302  1.00  0.00    -0.206 F 
ATOM     83  C   UNL A   1      38.343  33.561  37.766  1.00  0.00     0.022 A 
BRANCH  80  84
ATOM     84  S   UNL A   1      39.950  35.747  37.115  1.00  0.00     0.124 S 
ATOM     85  O   UNL A   1      41.345  35.396  37.352  1.00  0.00    -0.237 OA
ATOM     86  O   UNL A   1      39.665  36.441  35.864  1.00  0.00    -0.237 OA
ATOM     87  O   UNL A   1      39.224  36.245  38.282  1.00  0.00    -0.744 OA
ENDBRANCH  80  84
ENDBRANCH  53  77
BRANCH  65  88
ATOM     88  C   UNL A   1      44.592  27.901  34.505  1.00  0.00     0.023 A 
ATOM     89  C   UNL A   1      44.536  26.879  35.468  1.00  0.00     0.031 A 
ATOM     90  C   UNL A   1      45.782  28.640  34.387  1.00  0.00     0.131 A 
ATOM     91  C   UNL A   1      45.631  26.661  36.316  1.00  0.00     0.055 A 
ATOM     92  C   UNL A   1      46.888  28.380  35.197  1.00  0.00     0.041 A 
ATOM     93  F   UNL A   1      45.886  29.627  33.483  1.00  0.00    -0.206 F 
ATOM     94  C   UNL A   1      46.811  27.395  36.178  1.00  0.00     0.022 A 
BRANCH  91  95
ATOM     95  S   UNL A   1      45.459  25.461  37.665  1.00  0.00     0.124 S 
ATOM     96  O   UNL A   1      45.488  24.190  36.949  1.00  0.00    -0.237 OA
ATOM     97  O   UNL A   1      46.625  25.754  38.493  1.00  0.00    -0.237 OA
ATOM     98  O   UNL A   1      44.172  25.804  38.268  1.00  0.00    -0.744 OA
ENDBRANCH  91  95
ENDBRANCH  65  88
ENDBRANCH  39  40
ENDBRANCH  31  34
ENDBRANCH  29  30
ENDBRANCH   1  29
TORSDOF 19
ENDMDL
MODEL 3
REMARK VINA RESULT:     -11.7      0.905      7.625
REMARK SMILES CCN(CC)c1ccc(NS(=O)(=O)c2ccc(Cl)s2)cc1C(=O)NCCCNC(=O)c1ccc(-c2c3nc(c(-c4cc(S(=O)(=O)[O-])ccc4F)c4ccc([nH]4)c(-c4cc(S(=O)(=O)[O-])ccc4F)c4nc(c(-c5cc(S(=O)(=O)[O-])ccc5F)c5ccc2[nH]5)C=C4)C=C3)cc1
REMARK SMILES IDX 26 1 25 2 24 3 22 4 23 5 21 7 6 8 7 9 8 10 20 11 9 12 3 13
REMARK SMILES IDX 2 14 1 15 4 16 5 17 10 18 11 20 12 21 13 22 14 23 15 24
REMARK SMILES IDX 19 25 16 26 17 27 18 28 27 29 28 30 29 31 30 33 31 34 32 35
REMARK SMILES IDX 93 36 33 37 92 38 34 39 35 40 36 41 86 42 37 43 91 44 85 45
REMARK SMILES IDX 87 46 38 47 90 48 84 49 83 50 39 52 71 53 51 54 70 55 52 56
REMARK SMILES IDX 55 57 69 58 88 59 53 60 54 61 68 63 89 64 56 65 40 66 41 67
REMARK SMILES IDX 49 68 42 69 48 70 50 71 47 72 43 73 44 74 45 75 46 76 72 77
REMARK SMILES IDX 73 78 81 79 74 80 80 81 82 82 79 83 75 84 76 85 77 86 78 87
REMARK SMILES IDX 57 88 58 89 66 90 59 91 65 92 67 93 64 94 60 95 61 96 62 97
REMARK SMILES IDX 63 98
REMARK H PARENT 24 6 10 19 28 32 87 51 55 62
REMARK Flexibility Score: inf
ROOT
ATOM      1  C   UNL A   1      31.883  31.613  26.874  1.00  0.00     0.042 C 
ENDROOT
BRANCH   1   2
ATOM      2  C   UNL A   1      32.260  30.165  26.626  1.00  0.00     0.118 C 
BRANCH   2   3
ATOM      3  N   UNL A   1      32.943  29.920  25.384  1.00  0.00    -0.352 N 
ATOM      4  C   UNL A   1      32.485  29.264  24.273  1.00  0.00     0.253 C 
ATOM      5  O   UNL A   1      33.240  29.210  23.298  1.00  0.00    -0.269 OA
ATOM      6  H   UNL A   1      33.861  30.269  25.325  1.00  0.00     0.163 HD
BRANCH   4   7
ATOM      7  C   UNL A   1      31.182  28.542  24.185  1.00  0.00     0.065 A 
ATOM      8  C   UNL A   1      30.039  28.915  23.444  1.00  0.00     0.050 A 
ATOM      9  C   UNL A   1      29.073  27.920  23.230  1.00  0.00     0.029 A 
ATOM     10  C   UNL A   1      29.155  26.657  23.809  1.00  0.00     0.029 A 
ATOM     11  C   UNL A   1      31.229  27.266  24.804  1.00  0.00     0.042 A 
ATOM     12  C   UNL A   1      30.211  26.328  24.643  1.00  0.00     0.050 A 
BRANCH   8  13
ATOM     13  N   UNL A   1      29.789  30.171  22.902  1.00  0.00    -0.371 N 
BRANCH  13  14
ATOM     14  C   UNL A   1      29.628  30.290  21.449  1.00  0.00     0.113 C 
ATOM     15  C   UNL A   1      28.244  30.795  21.067  1.00  0.00     0.027 C 
ENDBRANCH  13  14
BRANCH  13  16
ATOM     16  C   UNL A   1      29.096  31.163  23.758  1.00  0.00     0.113 C 
ATOM     17  C   UNL A   1      27.625  30.889  24.013  1.00  0.00     0.027 C 
ENDBRANCH  13  16
ENDBRANCH   8  13
BRANCH  12  18
ATOM     18  N   UNL A   1      30.225  25.177  25.496  1.00  0.00    -0.279 N 
ATOM     19  H   UNL A   1      29.862  25.266  26.406  1.00  0.00     0.180 HD
BRANCH  18  20
ATOM     20  S   UNL A   1      30.833  23.684  25.021  1.00  0.00     0.271 S 
ATOM     21  O   UNL A   1      30.356  22.679  25.945  1.00  0.00    -0.200 OA
ATOM     22  O   UNL A   1      30.606  23.555  23.597  1.00  0.00    -0.200 OA
BRANCH  20  23
ATOM     23  C   UNL A   1      32.603  23.670  25.225  1.00  0.00     0.141 A 
ATOM     24  C   UNL A   1      33.414  24.171  26.232  1.00  0.00     0.036 A 
ATOM     25  S   UNL A   1      33.526  23.063  23.916  1.00  0.00    -0.110 S 
ATOM     26  C   UNL A   1      34.792  24.161  25.866  1.00  0.00     0.034 A 
ATOM     27  C   UNL A   1      34.965  23.597  24.629  1.00  0.00     0.094 A 
ATOM     28  Cl  UNL A   1      36.452  23.422  23.788  1.00  0.00    -0.072 Cl
ENDBRANCH  20  23
ENDBRANCH  18  20
ENDBRANCH  12  18
ENDBRANCH   4   7
ENDBRANCH   2   3
ENDBRANCH   1   2
BRANCH   1  29
ATOM     29  C   UNL A   1      33.068  32.476  27.302  1.00  0.00     0.118 C 
BRANCH  29  30
ATOM     30  N   UNL A   1      32.722  33.839  27.706  1.00  0.00    -0.352 N 
ATOM     31  C   UNL A   1      33.199  34.698  28.670  1.00  0.00     0.251 C 
ATOM     32  H   UNL A   1      31.990  34.226  27.174  1.00  0.00     0.163 HD
ATOM     33  O   UNL A   1      32.638  35.783  28.816  1.00  0.00    -0.269 OA
BRANCH  31  34
ATOM     34  C   UNL A   1      34.307  34.318  29.579  1.00  0.00     0.039 A 
ATOM     35  C   UNL A   1      34.010  33.664  30.780  1.00  0.00     0.014 A 
ATOM     36  C   UNL A   1      35.637  34.565  29.260  1.00  0.00     0.014 A 
ATOM     37  C   UNL A   1      35.041  33.133  31.563  1.00  0.00     0.010 A 
ATOM     38  C   UNL A   1      36.649  33.907  29.949  1.00  0.00     0.010 A 
ATOM     39  C   UNL A   1      36.367  33.162  31.103  1.00  0.00    -0.014 A 
BRANCH  39  40
ATOM     40  C   UNL A   1      37.467  32.409  31.773  1.00  0.00     0.031 A 
ATOM     41  C   UNL A   1      37.945  32.824  33.144  1.00  0.00     0.074 A 
ATOM     42  C   UNL A   1      38.125  31.442  31.100  1.00  0.00     0.049 A 
ATOM     43  N   UNL A   1      39.019  32.456  33.795  1.00  0.00    -0.248 NA
ATOM     44  C   UNL A   1      37.138  33.833  33.847  1.00  0.00     0.031 C 
ATOM     45  C   UNL A   1      37.818  30.987  29.740  1.00  0.00     0.029 A 
ATOM     46  N   UNL A   1      39.206  30.673  31.460  1.00  0.00    -0.354 N 
ATOM     47  C   UNL A   1      39.043  33.225  34.955  1.00  0.00     0.074 A 
ATOM     48  C   UNL A   1      37.910  34.122  34.884  1.00  0.00     0.031 C 
ATOM     49  C   UNL A   1      38.659  29.999  29.400  1.00  0.00     0.029 A 
ATOM     50  C   UNL A   1      39.609  29.789  30.485  1.00  0.00     0.049 A 
ATOM     51  H   UNL A   1      39.651  30.747  32.335  1.00  0.00     0.167 HD
ATOM     52  C   UNL A   1      39.911  33.171  35.997  1.00  0.00     0.034 A 
ATOM     53  C   UNL A   1      40.637  28.918  30.456  1.00  0.00     0.034 A 
ATOM     54  C   UNL A   1      40.996  32.226  36.087  1.00  0.00     0.049 A 
ATOM     55  C   UNL A   1      41.553  28.836  31.649  1.00  0.00     0.074 A 
ATOM     56  C   UNL A   1      41.889  32.032  37.128  1.00  0.00     0.029 A 
ATOM     57  N   UNL A   1      41.327  31.300  35.105  1.00  0.00    -0.354 N 
ATOM     58  N   UNL A   1      41.541  29.552  32.749  1.00  0.00    -0.248 NA
ATOM     59  C   UNL A   1      42.615  27.823  31.599  1.00  0.00     0.031 C 
ATOM     60  C   UNL A   1      42.783  31.020  36.759  1.00  0.00     0.029 A 
ATOM     61  C   UNL A   1      42.413  30.541  35.513  1.00  0.00     0.049 A 
ATOM     62  H   UNL A   1      40.858  31.198  34.245  1.00  0.00     0.167 HD
ATOM     63  C   UNL A   1      42.577  29.055  33.533  1.00  0.00     0.074 A 
ATOM     64  C   UNL A   1      43.179  27.968  32.789  1.00  0.00     0.031 C 
ATOM     65  C   UNL A   1      42.999  29.462  34.757  1.00  0.00     0.034 A 
BRANCH  52  66
ATOM     66  C   UNL A   1      39.715  34.163  37.119  1.00  0.00     0.023 A 
ATOM     67  C   UNL A   1      39.245  33.764  38.381  1.00  0.00     0.031 A 
ATOM     68  C   UNL A   1      39.975  35.531  36.917  1.00  0.00     0.131 A 
ATOM     69  C   UNL A   1      38.965  34.726  39.362  1.00  0.00     0.055 A 
ATOM     70  C   UNL A   1      39.778  36.474  37.927  1.00  0.00     0.041 A 
ATOM     71  F   UNL A   1      40.410  35.976  35.727  1.00  0.00    -0.206 F 
ATOM     72  C   UNL A   1      39.254  36.076  39.155  1.00  0.00     0.022 A 
BRANCH  69  73
ATOM     73  S   UNL A   1      38.088  34.202  40.859  1.00  0.00     0.124 S 
ATOM     74  O   UNL A   1      39.132  33.463  41.565  1.00  0.00    -0.237 OA
ATOM     75  O   UNL A   1      37.691  35.472  41.456  1.00  0.00    -0.237 OA
ATOM     76  O   UNL A   1      36.992  33.384  40.346  1.00  0.00    -0.744 OA
ENDBRANCH  69  73
ENDBRANCH  52  66
BRANCH  53  77
ATOM     77  C   UNL A   1      40.871  28.054  29.263  1.00  0.00     0.023 A 
ATOM     78  C   UNL A   1      41.844  28.395  28.311  1.00  0.00     0.031 A 
ATOM     79  C   UNL A   1      40.094  26.907  29.029  1.00  0.00     0.131 A 
ATOM     80  C   UNL A   1      41.977  27.633  27.141  1.00  0.00     0.055 A 
ATOM     81  C   UNL A   1      40.267  26.119  27.889  1.00  0.00     0.041 A 
ATOM     82  F   UNL A   1      39.157  26.528  29.914  1.00  0.00    -0.206 F 
ATOM     83  C   UNL A   1      41.203  26.491  26.928  1.00  0.00     0.022 A 
BRANCH  80  84
ATOM     84  S   UNL A   1      43.114  28.216  25.853  1.00  0.00     0.124 S 
ATOM     85  O   UNL A   1      42.371  27.905  24.637  1.00  0.00    -0.237 OA
ATOM     86  O   UNL A   1      43.242  29.631  26.183  1.00  0.00    -0.237 OA
ATOM     87  O   UNL A   1      44.316  27.414  26.074  1.00  0.00    -0.744 OA
ENDBRANCH  80  84
ENDBRANCH  53  77
BRANCH  65  88
ATOM     88  C   UNL A   1      44.133  28.687  35.376  1.00  0.00     0.023 A 
ATOM     89  C   UNL A   1      43.899  27.599  36.234  1.00  0.00     0.031 A 
ATOM     90  C   UNL A   1      45.465  29.061  35.123  1.00  0.00     0.131 A 
ATOM     91  C   UNL A   1      44.980  26.957  36.855  1.00  0.00     0.055 A 
ATOM     92  C   UNL A   1      46.538  28.382  35.700  1.00  0.00     0.041 A 
ATOM     93  F   UNL A   1      45.741  30.094  34.311  1.00  0.00    -0.206 F 
ATOM     94  C   UNL A   1      46.298  27.333  36.583  1.00  0.00     0.022 A 
BRANCH  91  95
ATOM     95  S   UNL A   1      44.636  25.679  38.095  1.00  0.00     0.124 S 
ATOM     96  O   UNL A   1      45.905  24.962  38.155  1.00  0.00    -0.237 OA
ATOM     97  O   UNL A   1      44.294  26.472  39.273  1.00  0.00    -0.237 OA
ATOM     98  O   UNL A   1      43.525  24.927  37.514  1.00  0.00    -0.744 OA
ENDBRANCH  91  95
ENDBRANCH  65  88
ENDBRANCH  39  40
ENDBRANCH  31  34
ENDBRANCH  29  30
ENDBRANCH   1  29
TORSDOF 19
ENDMDL
