MODEL 1
REMARK VINA RESULT:     -11.1      0.000      0.000
REMARK SMILES COc1ccc(NC(=O)[C@H](CC(=O)NCCCNC(=O)c2ccc(-c3c4nc(c(-c5cc(S(=O)(=O)[O-])ccc5F)c5ccc([nH]5)c(-c5cc(S(=O)(=O)[O-])ccc5F)c5nc(c(-c6cc(S(=O)(=O)[O-])ccc6F)c6ccc3[nH]6)C=C5)C=C4)cc2)Cc2ccccc2)cc1
REMARK SMILES IDX 15 1 14 2 12 3 13 4 11 6 10 7 8 8 7 9 9 11 6 12 3 13 4 14
REMARK SMILES IDX 92 15 5 16 91 17 2 18 1 19 84 20 85 21 86 22 90 23 87 24
REMARK SMILES IDX 89 25 88 26 16 27 17 28 18 29 19 30 20 32 21 33 22 34 83 35
REMARK SMILES IDX 23 36 82 37 24 38 25 39 26 40 76 41 27 42 81 43 75 44 77 45
REMARK SMILES IDX 28 46 80 47 74 48 73 49 29 51 61 52 41 53 60 54 42 55 45 56
REMARK SMILES IDX 59 57 78 58 43 59 44 60 58 62 79 63 46 64 30 65 31 66 39 67
REMARK SMILES IDX 32 68 38 69 40 70 37 71 33 72 34 73 35 74 36 75 62 76 63 77
REMARK SMILES IDX 71 78 64 79 70 80 72 81 69 82 65 83 66 84 67 85 68 86 47 87
REMARK SMILES IDX 48 88 56 89 49 90 55 91 57 92 54 93 50 94 51 95 52 96 53 97
REMARK H PARENT 14 5 7 10 18 31 77 50 45 61
REMARK Flexibility Score: inf
ROOT
ATOM      1  C   UNL A   1      31.728  30.225  25.961  1.00  0.00     0.117 C 
ENDROOT
BRANCH   1   2
ATOM      2  N   UNL A   1      33.065  29.773  26.284  1.00  0.00    -0.356 N 
ATOM      3  C   UNL A   1      33.485  28.548  26.697  1.00  0.00     0.220 C 
ATOM      4  O   UNL A   1      34.694  28.358  26.848  1.00  0.00    -0.275 OA
ATOM      5  H   UNL A   1      33.773  30.451  26.190  1.00  0.00     0.163 HD
BRANCH   3   6
ATOM      6  C   UNL A   1      32.496  27.404  26.839  1.00  0.00     0.113 C 
BRANCH   6   7
ATOM      7  C   UNL A   1      32.550  26.206  25.877  1.00  0.00     0.092 C 
BRANCH   7   8
ATOM      8  C   UNL A   1      31.246  26.161  25.094  1.00  0.00     0.228 C 
ATOM      9  N   UNL A   1      30.710  25.033  24.560  1.00  0.00    -0.326 N 
ATOM     10  H   UNL A   1      29.837  25.197  24.135  1.00  0.00     0.169 HD
ATOM     11  O   UNL A   1      30.664  27.218  24.814  1.00  0.00    -0.274 OA
BRANCH   9  12
ATOM     12  C   UNL A   1      31.103  23.690  24.469  1.00  0.00     0.041 A 
ATOM     13  C   UNL A   1      32.258  21.152  24.089  1.00  0.00     0.119 A 
ATOM     14  C   UNL A   1      31.777  21.530  25.337  1.00  0.00     0.048 A 
ATOM     15  C   UNL A   1      32.055  21.993  23.000  1.00  0.00     0.048 A 
ATOM     16  C   UNL A   1      31.181  22.781  25.520  1.00  0.00     0.030 A 
ATOM     17  C   UNL A   1      31.479  23.253  23.192  1.00  0.00     0.030 A 
BRANCH  13  18
ATOM     18  O   UNL A   1      32.878  19.936  24.034  1.00  0.00    -0.497 OA
ATOM     19  C   UNL A   1      33.087  19.326  25.305  1.00  0.00     0.278 C 
ENDBRANCH  13  18
ENDBRANCH   9  12
ENDBRANCH   7   8
BRANCH   7  20
ATOM     20  C   UNL A   1      33.689  26.039  24.851  1.00  0.00     0.049 C 
BRANCH  20  21
ATOM     21  C   UNL A   1      34.507  24.758  24.786  1.00  0.00    -0.047 A 
ATOM     22  C   UNL A   1      35.040  24.210  23.615  1.00  0.00     0.004 A 
ATOM     23  C   UNL A   1      34.655  24.011  25.971  1.00  0.00     0.004 A 
ATOM     24  C   UNL A   1      35.645  22.949  23.606  1.00  0.00     0.000 A 
ATOM     25  C   UNL A   1      35.289  22.765  25.974  1.00  0.00     0.000 A 
ATOM     26  C   UNL A   1      35.768  22.224  24.786  1.00  0.00     0.000 A 
ENDBRANCH  20  21
ENDBRANCH   7  20
ENDBRANCH   6   7
ENDBRANCH   3   6
ENDBRANCH   1   2
BRANCH   1  27
ATOM     27  C   UNL A   1      31.460  31.606  26.538  1.00  0.00     0.042 C 
BRANCH  27  28
ATOM     28  C   UNL A   1      32.713  32.274  27.062  1.00  0.00     0.118 C 
BRANCH  28  29
ATOM     29  N   UNL A   1      32.497  33.683  27.369  1.00  0.00    -0.352 N 
ATOM     30  C   UNL A   1      33.095  34.462  28.331  1.00  0.00     0.251 C 
ATOM     31  H   UNL A   1      31.830  34.140  26.808  1.00  0.00     0.163 HD
ATOM     32  O   UNL A   1      32.658  35.587  28.559  1.00  0.00    -0.269 OA
BRANCH  30  33
ATOM     33  C   UNL A   1      34.233  33.923  29.112  1.00  0.00     0.039 A 
ATOM     34  C   UNL A   1      34.061  32.753  29.858  1.00  0.00     0.014 A 
ATOM     35  C   UNL A   1      35.478  34.550  29.079  1.00  0.00     0.014 A 
ATOM     36  C   UNL A   1      35.159  32.176  30.505  1.00  0.00     0.010 A 
ATOM     37  C   UNL A   1      36.588  33.911  29.614  1.00  0.00     0.010 A 
ATOM     38  C   UNL A   1      36.440  32.727  30.351  1.00  0.00    -0.014 A 
BRANCH  38  39
ATOM     39  C   UNL A   1      37.647  32.132  30.985  1.00  0.00     0.031 A 
ATOM     40  C   UNL A   1      38.445  31.106  30.221  1.00  0.00     0.074 A 
ATOM     41  C   UNL A   1      37.963  32.426  32.261  1.00  0.00     0.049 A 
ATOM     42  N   UNL A   1      39.400  30.315  30.635  1.00  0.00    -0.248 NA
ATOM     43  C   UNL A   1      38.070  30.904  28.812  1.00  0.00     0.031 C 
ATOM     44  C   UNL A   1      37.243  33.368  33.119  1.00  0.00     0.029 A 
ATOM     45  N   UNL A   1      38.964  31.944  33.067  1.00  0.00    -0.354 N 
ATOM     46  C   UNL A   1      39.703  29.492  29.555  1.00  0.00     0.074 A 
ATOM     47  C   UNL A   1      38.779  29.834  28.495  1.00  0.00     0.031 C 
ATOM     48  C   UNL A   1      37.840  33.414  34.322  1.00  0.00     0.029 A 
ATOM     49  C   UNL A   1      38.949  32.466  34.341  1.00  0.00     0.049 A 
ATOM     50  H   UNL A   1      39.632  31.287  32.763  1.00  0.00     0.167 HD
ATOM     51  C   UNL A   1      40.680  28.558  29.446  1.00  0.00     0.034 A 
ATOM     52  C   UNL A   1      39.729  32.195  35.406  1.00  0.00     0.034 A 
ATOM     53  C   UNL A   1      41.620  28.269  30.500  1.00  0.00     0.049 A 
ATOM     54  C   UNL A   1      40.824  31.168  35.260  1.00  0.00     0.074 A 
ATOM     55  C   UNL A   1      42.695  27.397  30.484  1.00  0.00     0.029 A 
ATOM     56  N   UNL A   1      41.600  28.852  31.762  1.00  0.00    -0.354 N 
ATOM     57  N   UNL A   1      41.123  30.421  34.223  1.00  0.00    -0.248 NA
ATOM     58  C   UNL A   1      41.691  30.956  36.427  1.00  0.00     0.031 C 
ATOM     59  C   UNL A   1      43.288  27.411  31.752  1.00  0.00     0.029 A 
ATOM     60  C   UNL A   1      42.631  28.346  32.537  1.00  0.00     0.049 A 
ATOM     61  H   UNL A   1      40.949  29.526  32.061  1.00  0.00     0.167 HD
ATOM     62  C   UNL A   1      42.236  29.674  34.601  1.00  0.00     0.074 A 
ATOM     63  C   UNL A   1      42.557  30.069  35.958  1.00  0.00     0.031 C 
ATOM     64  C   UNL A   1      42.934  28.753  33.890  1.00  0.00     0.034 A 
BRANCH  51  65
ATOM     65  C   UNL A   1      40.756  27.780  28.152  1.00  0.00     0.023 A 
ATOM     66  C   UNL A   1      40.201  26.494  28.027  1.00  0.00     0.031 A 
ATOM     67  C   UNL A   1      41.443  28.306  27.043  1.00  0.00     0.131 A 
ATOM     68  C   UNL A   1      40.431  25.738  26.867  1.00  0.00     0.055 A 
ATOM     69  C   UNL A   1      41.585  27.585  25.853  1.00  0.00     0.041 A 
ATOM     70  F   UNL A   1      42.012  29.519  27.102  1.00  0.00    -0.206 F 
ATOM     71  C   UNL A   1      41.096  26.285  25.768  1.00  0.00     0.022 A 
BRANCH  68  72
ATOM     72  S   UNL A   1      40.003  23.976  26.889  1.00  0.00     0.124 S 
ATOM     73  O   UNL A   1      38.658  23.993  26.318  1.00  0.00    -0.237 OA
ATOM     74  O   UNL A   1      41.044  23.388  26.054  1.00  0.00    -0.237 OA
ATOM     75  O   UNL A   1      40.065  23.625  28.306  1.00  0.00    -0.744 OA
ENDBRANCH  68  72
ENDBRANCH  51  65
BRANCH  52  76
ATOM     76  C   UNL A   1      39.506  32.899  36.701  1.00  0.00     0.023 A 
ATOM     77  C   UNL A   1      38.643  32.367  37.672  1.00  0.00     0.031 A 
ATOM     78  C   UNL A   1      40.135  34.126  36.980  1.00  0.00     0.131 A 
ATOM     79  C   UNL A   1      38.399  33.077  38.858  1.00  0.00     0.055 A 
ATOM     80  C   UNL A   1      39.927  34.805  38.182  1.00  0.00     0.041 A 
ATOM     81  F   UNL A   1      40.977  34.675  36.090  1.00  0.00    -0.206 F 
ATOM     82  C   UNL A   1      39.046  34.287  39.125  1.00  0.00     0.022 A 
BRANCH  79  83
ATOM     83  S   UNL A   1      37.169  32.429  40.022  1.00  0.00     0.124 S 
ATOM     84  O   UNL A   1      37.864  31.275  40.579  1.00  0.00    -0.237 OA
ATOM     85  O   UNL A   1      36.978  33.560  40.924  1.00  0.00    -0.237 OA
ATOM     86  O   UNL A   1      36.024  32.118  39.168  1.00  0.00    -0.744 OA
ENDBRANCH  79  83
ENDBRANCH  52  76
BRANCH  64  87
ATOM     87  C   UNL A   1      44.151  28.154  34.550  1.00  0.00     0.023 A 
ATOM     88  C   UNL A   1      44.087  26.954  35.279  1.00  0.00     0.031 A 
ATOM     89  C   UNL A   1      45.396  28.799  34.440  1.00  0.00     0.131 A 
ATOM     90  C   UNL A   1      45.238  26.462  35.911  1.00  0.00     0.055 A 
ATOM     91  C   UNL A   1      46.549  28.273  35.022  1.00  0.00     0.041 A 
ATOM     92  F   UNL A   1      45.511  29.949  33.755  1.00  0.00    -0.206 F 
ATOM     93  C   UNL A   1      46.472  27.105  35.773  1.00  0.00     0.022 A 
BRANCH  90  94
ATOM     94  S   UNL A   1      45.088  25.010  36.988  1.00  0.00     0.124 S 
ATOM     95  O   UNL A   1      43.851  25.293  37.708  1.00  0.00    -0.237 OA
ATOM     96  O   UNL A   1      45.030  23.914  36.027  1.00  0.00    -0.237 OA
ATOM     97  O   UNL A   1      46.303  25.058  37.799  1.00  0.00    -0.744 OA
ENDBRANCH  90  94
ENDBRANCH  64  87
ENDBRANCH  38  39
ENDBRANCH  30  33
ENDBRANCH  28  29
ENDBRANCH  27  28
ENDBRANCH   1  27
TORSDOF 19
ENDMDL
MODEL 2
REMARK VINA RESULT:     -11.1      5.736     11.113
REMARK SMILES COc1ccc(NC(=O)[C@H](CC(=O)NCCCNC(=O)c2ccc(-c3c4nc(c(-c5cc(S(=O)(=O)[O-])ccc5F)c5ccc([nH]5)c(-c5cc(S(=O)(=O)[O-])ccc5F)c5nc(c(-c6cc(S(=O)(=O)[O-])ccc6F)c6ccc3[nH]6)C=C5)C=C4)cc2)Cc2ccccc2)cc1
REMARK SMILES IDX 15 1 14 2 12 3 13 4 11 6 10 7 8 8 7 9 9 11 6 12 3 13 4 14
REMARK SMILES IDX 92 15 5 16 91 17 2 18 1 19 84 20 85 21 86 22 90 23 87 24
REMARK SMILES IDX 89 25 88 26 16 27 17 28 18 29 19 30 20 32 21 33 22 34 83 35
REMARK SMILES IDX 23 36 82 37 24 38 25 39 26 40 76 41 27 42 81 43 75 44 77 45
REMARK SMILES IDX 28 46 80 47 74 48 73 49 29 51 61 52 41 53 60 54 42 55 45 56
REMARK SMILES IDX 59 57 78 58 43 59 44 60 58 62 79 63 46 64 30 65 31 66 39 67
REMARK SMILES IDX 32 68 38 69 40 70 37 71 33 72 34 73 35 74 36 75 62 76 63 77
REMARK SMILES IDX 71 78 64 79 70 80 72 81 69 82 65 83 66 84 67 85 68 86 47 87
REMARK SMILES IDX 48 88 56 89 49 90 55 91 57 92 54 93 50 94 51 95 52 96 53 97
REMARK H PARENT 14 5 7 10 18 31 77 50 45 61
REMARK Flexibility Score: inf
ROOT
ATOM      1  C   UNL A   1      36.612  21.000  24.803  1.00  0.00     0.117 C 
ENDROOT
BRANCH   1   2
ATOM      2  N   UNL A   1      36.973  22.197  25.533  1.00  0.00    -0.356 N 
ATOM      3  C   UNL A   1      36.677  23.496  25.260  1.00  0.00     0.220 C 
ATOM      4  O   UNL A   1      37.027  24.362  26.065  1.00  0.00    -0.275 OA
ATOM      5  H   UNL A   1      37.509  22.049  26.346  1.00  0.00     0.163 HD
BRANCH   3   6
ATOM      6  C   UNL A   1      35.819  23.853  24.059  1.00  0.00     0.113 C 
BRANCH   6   7
ATOM      7  C   UNL A   1      34.395  24.400  24.257  1.00  0.00     0.092 C 
BRANCH   7   8
ATOM      8  C   UNL A   1      33.411  23.385  23.695  1.00  0.00     0.228 C 
ATOM      9  N   UNL A   1      32.200  23.702  23.167  1.00  0.00    -0.326 N 
ATOM     10  H   UNL A   1      31.729  22.914  22.808  1.00  0.00     0.169 HD
ATOM     11  O   UNL A   1      33.648  22.175  23.807  1.00  0.00    -0.274 OA
BRANCH   9  12
ATOM     12  C   UNL A   1      31.460  24.883  23.010  1.00  0.00     0.041 A 
ATOM     13  C   UNL A   1      30.007  27.289  23.138  1.00  0.00     0.119 A 
ATOM     14  C   UNL A   1      31.066  27.149  22.249  1.00  0.00     0.048 A 
ATOM     15  C   UNL A   1      29.593  26.188  23.879  1.00  0.00     0.048 A 
ATOM     16  C   UNL A   1      31.772  25.946  22.168  1.00  0.00     0.030 A 
ATOM     17  C   UNL A   1      30.316  24.993  23.812  1.00  0.00     0.030 A 
BRANCH  13  18
ATOM     18  O   UNL A   1      29.427  28.525  23.182  1.00  0.00    -0.497 OA
ATOM     19  C   UNL A   1      30.263  29.583  22.721  1.00  0.00     0.278 C 
ENDBRANCH  13  18
ENDBRANCH   9  12
ENDBRANCH   7   8
BRANCH   7  20
ATOM     20  C   UNL A   1      33.867  24.808  25.646  1.00  0.00     0.049 C 
BRANCH  20  21
ATOM     21  C   UNL A   1      33.199  26.156  25.868  1.00  0.00    -0.047 A 
ATOM     22  C   UNL A   1      32.116  26.378  26.723  1.00  0.00     0.004 A 
ATOM     23  C   UNL A   1      33.633  27.242  25.084  1.00  0.00     0.004 A 
ATOM     24  C   UNL A   1      31.452  27.609  26.759  1.00  0.00     0.000 A 
ATOM     25  C   UNL A   1      32.994  28.485  25.141  1.00  0.00     0.000 A 
ATOM     26  C   UNL A   1      31.889  28.663  25.966  1.00  0.00     0.000 A 
ENDBRANCH  20  21
ENDBRANCH   7  20
ENDBRANCH   6   7
ENDBRANCH   3   6
ENDBRANCH   1   2
BRANCH   1  27
ATOM     27  C   UNL A   1      37.644  19.902  25.002  1.00  0.00     0.042 C 
BRANCH  27  28
ATOM     28  C   UNL A   1      38.941  20.417  25.588  1.00  0.00     0.118 C 
BRANCH  28  29
ATOM     29  N   UNL A   1      39.895  19.345  25.841  1.00  0.00    -0.352 N 
ATOM     30  C   UNL A   1      41.236  19.427  26.134  1.00  0.00     0.251 C 
ATOM     31  H   UNL A   1      39.527  18.433  25.796  1.00  0.00     0.163 HD
ATOM     32  O   UNL A   1      41.919  18.407  26.143  1.00  0.00    -0.269 OA
BRANCH  30  33
ATOM     33  C   UNL A   1      41.851  20.750  26.396  1.00  0.00     0.039 A 
ATOM     34  C   UNL A   1      41.957  21.676  25.356  1.00  0.00     0.014 A 
ATOM     35  C   UNL A   1      42.289  21.088  27.677  1.00  0.00     0.014 A 
ATOM     36  C   UNL A   1      42.431  22.965  25.621  1.00  0.00     0.010 A 
ATOM     37  C   UNL A   1      42.638  22.400  27.962  1.00  0.00     0.010 A 
ATOM     38  C   UNL A   1      42.734  23.351  26.935  1.00  0.00    -0.014 A 
BRANCH  38  39
ATOM     39  C   UNL A   1      43.205  24.719  27.279  1.00  0.00     0.031 A 
ATOM     40  C   UNL A   1      42.255  25.671  27.962  1.00  0.00     0.074 A 
ATOM     41  C   UNL A   1      44.425  25.139  26.892  1.00  0.00     0.049 A 
ATOM     42  N   UNL A   1      42.372  26.956  28.174  1.00  0.00    -0.248 NA
ATOM     43  C   UNL A   1      40.975  25.103  28.412  1.00  0.00     0.031 C 
ATOM     44  C   UNL A   1      45.418  24.328  26.184  1.00  0.00     0.029 A 
ATOM     45  N   UNL A   1      45.032  26.363  27.021  1.00  0.00    -0.354 N 
ATOM     46  C   UNL A   1      41.163  27.355  28.735  1.00  0.00     0.074 A 
ATOM     47  C   UNL A   1      40.306  26.190  28.760  1.00  0.00     0.031 C 
ATOM     48  C   UNL A   1      46.517  25.068  25.965  1.00  0.00     0.029 A 
ATOM     49  C   UNL A   1      46.289  26.420  26.463  1.00  0.00     0.049 A 
ATOM     50  H   UNL A   1      44.608  27.130  27.471  1.00  0.00     0.167 HD
ATOM     51  C   UNL A   1      40.810  28.575  29.212  1.00  0.00     0.034 A 
ATOM     52  C   UNL A   1      47.151  27.450  26.352  1.00  0.00     0.034 A 
ATOM     53  C   UNL A   1      41.699  29.710  29.220  1.00  0.00     0.049 A 
ATOM     54  C   UNL A   1      46.749  28.794  26.907  1.00  0.00     0.074 A 
ATOM     55  C   UNL A   1      41.481  30.974  29.739  1.00  0.00     0.029 A 
ATOM     56  N   UNL A   1      42.983  29.715  28.688  1.00  0.00    -0.354 N 
ATOM     57  N   UNL A   1      45.616  29.151  27.466  1.00  0.00    -0.248 NA
ATOM     58  C   UNL A   1      47.746  29.869  26.823  1.00  0.00     0.031 C 
ATOM     59  C   UNL A   1      42.608  31.758  29.469  1.00  0.00     0.029 A 
ATOM     60  C   UNL A   1      43.561  30.964  28.849  1.00  0.00     0.049 A 
ATOM     61  H   UNL A   1      43.418  28.944  28.258  1.00  0.00     0.167 HD
ATOM     62  C   UNL A   1      45.778  30.485  27.833  1.00  0.00     0.074 A 
ATOM     63  C   UNL A   1      47.120  30.863  27.437  1.00  0.00     0.031 C 
ATOM     64  C   UNL A   1      44.902  31.320  28.446  1.00  0.00     0.034 A 
BRANCH  51  65
ATOM     65  C   UNL A   1      39.402  28.733  29.739  1.00  0.00     0.023 A 
ATOM     66  C   UNL A   1      38.351  29.188  28.922  1.00  0.00     0.031 A 
ATOM     67  C   UNL A   1      39.114  28.481  31.093  1.00  0.00     0.131 A 
ATOM     68  C   UNL A   1      37.098  29.477  29.483  1.00  0.00     0.055 A 
ATOM     69  C   UNL A   1      37.836  28.678  31.625  1.00  0.00     0.041 A 
ATOM     70  F   UNL A   1      40.074  28.063  31.931  1.00  0.00    -0.206 F 
ATOM     71  C   UNL A   1      36.825  29.200  30.823  1.00  0.00     0.022 A 
BRANCH  68  72
ATOM     72  S   UNL A   1      35.893  30.385  28.477  1.00  0.00     0.124 S 
ATOM     73  O   UNL A   1      35.312  31.294  29.463  1.00  0.00    -0.237 OA
ATOM     74  O   UNL A   1      36.732  31.001  27.456  1.00  0.00    -0.237 OA
ATOM     75  O   UNL A   1      34.990  29.340  27.998  1.00  0.00    -0.744 OA
ENDBRANCH  68  72
ENDBRANCH  51  65
BRANCH  52  76
ATOM     76  C   UNL A   1      48.473  27.259  25.689  1.00  0.00     0.023 A 
ATOM     77  C   UNL A   1      48.619  27.448  24.306  1.00  0.00     0.031 A 
ATOM     78  C   UNL A   1      49.604  26.862  26.424  1.00  0.00     0.131 A 
ATOM     79  C   UNL A   1      49.858  27.202  23.693  1.00  0.00     0.055 A 
ATOM     80  C   UNL A   1      50.846  26.665  25.817  1.00  0.00     0.041 A 
ATOM     81  F   UNL A   1      49.521  26.675  27.751  1.00  0.00    -0.206 F 
ATOM     82  C   UNL A   1      50.976  26.825  24.441  1.00  0.00     0.022 A 
BRANCH  79  83
ATOM     83  S   UNL A   1      49.971  27.317  21.886  1.00  0.00     0.124 S 
ATOM     84  O   UNL A   1      51.346  26.896  21.646  1.00  0.00    -0.237 OA
ATOM     85  O   UNL A   1      48.931  26.389  21.457  1.00  0.00    -0.237 OA
ATOM     86  O   UNL A   1      49.693  28.727  21.617  1.00  0.00    -0.744 OA
ENDBRANCH  79  83
ENDBRANCH  52  76
BRANCH  64  87
ATOM     87  C   UNL A   1      45.393  32.706  28.780  1.00  0.00     0.023 A 
ATOM     88  C   UNL A   1      45.187  33.797  27.918  1.00  0.00     0.031 A 
ATOM     89  C   UNL A   1      46.076  32.935  29.989  1.00  0.00     0.131 A 
ATOM     90  C   UNL A   1      45.702  35.057  28.255  1.00  0.00     0.055 A 
ATOM     91  C   UNL A   1      46.534  34.203  30.345  1.00  0.00     0.041 A 
ATOM     92  F   UNL A   1      46.300  31.927  30.848  1.00  0.00    -0.206 F 
ATOM     93  C   UNL A   1      46.360  35.270  29.470  1.00  0.00     0.022 A 
BRANCH  90  94
ATOM     94  S   UNL A   1      45.574  36.402  27.045  1.00  0.00     0.124 S 
ATOM     95  O   UNL A   1      46.420  37.430  27.643  1.00  0.00    -0.237 OA
ATOM     96  O   UNL A   1      46.091  35.779  25.831  1.00  0.00    -0.237 OA
ATOM     97  O   UNL A   1      44.146  36.710  27.022  1.00  0.00    -0.744 OA
ENDBRANCH  90  94
ENDBRANCH  64  87
ENDBRANCH  38  39
ENDBRANCH  30  33
ENDBRANCH  28  29
ENDBRANCH  27  28
ENDBRANCH   1  27
TORSDOF 19
ENDMDL
MODEL 3
REMARK VINA RESULT:     -11.0      1.441      1.811
REMARK SMILES COc1ccc(NC(=O)[C@H](CC(=O)NCCCNC(=O)c2ccc(-c3c4nc(c(-c5cc(S(=O)(=O)[O-])ccc5F)c5ccc([nH]5)c(-c5cc(S(=O)(=O)[O-])ccc5F)c5nc(c(-c6cc(S(=O)(=O)[O-])ccc6F)c6ccc3[nH]6)C=C5)C=C4)cc2)Cc2ccccc2)cc1
REMARK SMILES IDX 15 1 14 2 12 3 13 4 11 6 10 7 8 8 7 9 9 11 6 12 3 13 4 14
REMARK SMILES IDX 92 15 5 16 91 17 2 18 1 19 84 20 85 21 86 22 90 23 87 24
REMARK SMILES IDX 89 25 88 26 16 27 17 28 18 29 19 30 20 32 21 33 22 34 83 35
REMARK SMILES IDX 23 36 82 37 24 38 25 39 26 40 76 41 27 42 81 43 75 44 77 45
REMARK SMILES IDX 28 46 80 47 74 48 73 49 29 51 61 52 41 53 60 54 42 55 45 56
REMARK SMILES IDX 59 57 78 58 43 59 44 60 58 62 79 63 46 64 30 65 31 66 39 67
REMARK SMILES IDX 32 68 38 69 40 70 37 71 33 72 34 73 35 74 36 75 62 76 63 77
REMARK SMILES IDX 71 78 64 79 70 80 72 81 69 82 65 83 66 84 67 85 68 86 47 87
REMARK SMILES IDX 48 88 56 89 49 90 55 91 57 92 54 93 50 94 51 95 52 96 53 97
REMARK H PARENT 14 5 7 10 18 31 77 50 45 61
REMARK Flexibility Score: inf
ROOT
ATOM      1  C   UNL A   1      31.271  30.320  25.368  1.00  0.00     0.117 C 
ENDROOT
BRANCH   1   2
ATOM      2  N   UNL A   1      32.124  29.453  26.153  1.00  0.00    -0.356 N 
ATOM      3  C   UNL A   1      32.339  28.115  26.034  1.00  0.00     0.220 C 
ATOM      4  O   UNL A   1      33.171  27.583  26.771  1.00  0.00    -0.275 OA
ATOM      5  H   UNL A   1      32.620  29.895  26.879  1.00  0.00     0.163 HD
BRANCH   3   6
ATOM      6  C   UNL A   1      31.665  27.325  24.925  1.00  0.00     0.113 C 
BRANCH   6   7
ATOM      7  C   UNL A   1      32.279  26.005  24.429  1.00  0.00     0.092 C 
BRANCH   7   8
ATOM      8  C   UNL A   1      31.461  25.514  23.243  1.00  0.00     0.228 C 
ATOM      9  N   UNL A   1      31.245  24.205  22.950  1.00  0.00    -0.326 N 
ATOM     10  H   UNL A   1      30.649  24.087  22.175  1.00  0.00     0.169 HD
ATOM     11  O   UNL A   1      31.042  26.327  22.410  1.00  0.00    -0.274 OA
BRANCH   9  12
ATOM     12  C   UNL A   1      31.668  22.981  23.489  1.00  0.00     0.041 A 
ATOM     13  C   UNL A   1      32.109  20.503  24.747  1.00  0.00     0.119 A 
ATOM     14  C   UNL A   1      32.406  20.675  23.401  1.00  0.00     0.048 A 
ATOM     15  C   UNL A   1      31.705  21.601  25.499  1.00  0.00     0.048 A 
ATOM     16  C   UNL A   1      32.210  21.912  22.782  1.00  0.00     0.030 A 
ATOM     17  C   UNL A   1      31.488  22.832  24.871  1.00  0.00     0.030 A 
BRANCH  13  18
ATOM     18  O   UNL A   1      32.277  19.239  25.237  1.00  0.00    -0.497 OA
ATOM     19  C   UNL A   1      33.391  18.540  24.688  1.00  0.00     0.278 C 
ENDBRANCH  13  18
ENDBRANCH   9  12
ENDBRANCH   7   8
BRANCH   7  20
ATOM     20  C   UNL A   1      33.761  25.902  24.018  1.00  0.00     0.049 C 
BRANCH  20  21
ATOM     21  C   UNL A   1      34.598  24.688  24.392  1.00  0.00    -0.047 A 
ATOM     22  C   UNL A   1      35.174  23.804  23.476  1.00  0.00     0.004 A 
ATOM     23  C   UNL A   1      34.720  24.369  25.758  1.00  0.00     0.004 A 
ATOM     24  C   UNL A   1      35.797  22.622  23.892  1.00  0.00     0.000 A 
ATOM     25  C   UNL A   1      35.371  23.206  26.181  1.00  0.00     0.000 A 
ATOM     26  C   UNL A   1      35.893  22.321  25.245  1.00  0.00     0.000 A 
ENDBRANCH  20  21
ENDBRANCH   7  20
ENDBRANCH   6   7
ENDBRANCH   3   6
ENDBRANCH   1   2
BRANCH   1  27
ATOM     27  C   UNL A   1      31.044  31.650  26.067  1.00  0.00     0.042 C 
BRANCH  27  28
ATOM     28  C   UNL A   1      32.234  32.086  26.894  1.00  0.00     0.118 C 
BRANCH  28  29
ATOM     29  N   UNL A   1      32.148  33.488  27.284  1.00  0.00    -0.352 N 
ATOM     30  C   UNL A   1      32.950  34.200  28.146  1.00  0.00     0.251 C 
ATOM     31  H   UNL A   1      31.413  33.997  26.873  1.00  0.00     0.163 HD
ATOM     32  O   UNL A   1      32.619  35.331  28.489  1.00  0.00    -0.269 OA
BRANCH  30  33
ATOM     33  C   UNL A   1      34.184  33.579  28.683  1.00  0.00     0.039 A 
ATOM     34  C   UNL A   1      35.409  34.231  28.519  1.00  0.00     0.014 A 
ATOM     35  C   UNL A   1      34.126  32.373  29.382  1.00  0.00     0.014 A 
ATOM     36  C   UNL A   1      36.558  33.709  29.121  1.00  0.00     0.010 A 
ATOM     37  C   UNL A   1      35.238  31.927  30.082  1.00  0.00     0.010 A 
ATOM     38  C   UNL A   1      36.473  32.577  29.944  1.00  0.00    -0.014 A 
BRANCH  38  39
ATOM     39  C   UNL A   1      37.657  32.002  30.639  1.00  0.00     0.031 A 
ATOM     40  C   UNL A   1      38.488  30.962  29.930  1.00  0.00     0.074 A 
ATOM     41  C   UNL A   1      37.921  32.326  31.919  1.00  0.00     0.049 A 
ATOM     42  N   UNL A   1      39.429  30.186  30.400  1.00  0.00    -0.248 NA
ATOM     43  C   UNL A   1      38.170  30.727  28.513  1.00  0.00     0.031 C 
ATOM     44  C   UNL A   1      37.164  33.284  32.727  1.00  0.00     0.029 A 
ATOM     45  N   UNL A   1      38.891  31.868  32.775  1.00  0.00    -0.354 N 
ATOM     46  C   UNL A   1      39.778  29.340  29.351  1.00  0.00     0.074 A 
ATOM     47  C   UNL A   1      38.895  29.654  28.249  1.00  0.00     0.031 C 
ATOM     48  C   UNL A   1      37.713  33.360  33.951  1.00  0.00     0.029 A 
ATOM     49  C   UNL A   1      38.823  32.418  34.035  1.00  0.00     0.049 A 
ATOM     50  H   UNL A   1      39.573  31.207  32.512  1.00  0.00     0.167 HD
ATOM     51  C   UNL A   1      40.762  28.408  29.303  1.00  0.00     0.034 A 
ATOM     52  C   UNL A   1      39.562  32.175  35.136  1.00  0.00     0.034 A 
ATOM     53  C   UNL A   1      41.660  28.148  30.400  1.00  0.00     0.049 A 
ATOM     54  C   UNL A   1      40.666  31.150  35.057  1.00  0.00     0.074 A 
ATOM     55  C   UNL A   1      42.739  27.281  30.446  1.00  0.00     0.029 A 
ATOM     56  N   UNL A   1      41.589  28.759  31.646  1.00  0.00    -0.354 N 
ATOM     57  N   UNL A   1      41.008  30.382  34.049  1.00  0.00    -0.248 NA
ATOM     58  C   UNL A   1      41.487  30.969  36.261  1.00  0.00     0.031 C 
ATOM     59  C   UNL A   1      43.281  27.326  31.735  1.00  0.00     0.029 A 
ATOM     60  C   UNL A   1      42.590  28.276  32.473  1.00  0.00     0.049 A 
ATOM     61  H   UNL A   1      40.923  29.437  31.904  1.00  0.00     0.167 HD
ATOM     62  C   UNL A   1      42.109  29.649  34.488  1.00  0.00     0.074 A 
ATOM     63  C   UNL A   1      42.374  30.075  35.848  1.00  0.00     0.031 C 
ATOM     64  C   UNL A   1      42.837  28.714  33.827  1.00  0.00     0.034 A 
BRANCH  51  65
ATOM     65  C   UNL A   1      40.892  27.602  28.031  1.00  0.00     0.023 A 
ATOM     66  C   UNL A   1      40.439  26.272  27.947  1.00  0.00     0.031 A 
ATOM     67  C   UNL A   1      41.529  28.148  26.902  1.00  0.00     0.131 A 
ATOM     68  C   UNL A   1      40.722  25.504  26.807  1.00  0.00     0.055 A 
ATOM     69  C   UNL A   1      41.721  27.406  25.732  1.00  0.00     0.041 A 
ATOM     70  F   UNL A   1      42.001  29.403  26.922  1.00  0.00    -0.206 F 
ATOM     71  C   UNL A   1      41.336  26.070  25.688  1.00  0.00     0.022 A 
BRANCH  68  72
ATOM     72  S   UNL A   1      40.436  23.715  26.882  1.00  0.00     0.124 S 
ATOM     73  O   UNL A   1      40.520  23.464  28.319  1.00  0.00    -0.237 OA
ATOM     74  O   UNL A   1      39.111  23.581  26.287  1.00  0.00    -0.237 OA
ATOM     75  O   UNL A   1      41.535  23.158  26.096  1.00  0.00    -0.744 OA
ENDBRANCH  68  72
ENDBRANCH  51  65
BRANCH  52  76
ATOM     76  C   UNL A   1      39.286  32.907  36.405  1.00  0.00     0.023 A 
ATOM     77  C   UNL A   1      39.859  34.164  36.652  1.00  0.00     0.031 A 
ATOM     78  C   UNL A   1      38.463  32.350  37.401  1.00  0.00     0.131 A 
ATOM     79  C   UNL A   1      39.636  34.808  37.880  1.00  0.00     0.055 A 
ATOM     80  C   UNL A   1      38.205  33.016  38.602  1.00  0.00     0.041 A 
ATOM     81  F   UNL A   1      37.883  31.155  37.214  1.00  0.00    -0.206 F 
ATOM     82  C   UNL A   1      38.802  34.247  38.851  1.00  0.00     0.022 A 
BRANCH  79  83
ATOM     83  S   UNL A   1      40.509  36.361  38.218  1.00  0.00     0.124 S 
ATOM     84  O   UNL A   1      41.330  35.997  39.366  1.00  0.00    -0.237 OA
ATOM     85  O   UNL A   1      41.220  36.589  36.965  1.00  0.00    -0.237 OA
ATOM     86  O   UNL A   1      39.427  37.304  38.497  1.00  0.00    -0.744 OA
ENDBRANCH  79  83
ENDBRANCH  52  76
BRANCH  64  87
ATOM     87  C   UNL A   1      44.029  28.137  34.548  1.00  0.00     0.023 A 
ATOM     88  C   UNL A   1      43.939  26.962  35.312  1.00  0.00     0.031 A 
ATOM     89  C   UNL A   1      45.279  28.777  34.460  1.00  0.00     0.131 A 
ATOM     90  C   UNL A   1      45.066  26.489  36.000  1.00  0.00     0.055 A 
ATOM     91  C   UNL A   1      46.410  28.270  35.099  1.00  0.00     0.041 A 
ATOM     92  F   UNL A   1      45.420  29.904  33.743  1.00  0.00    -0.206 F 
ATOM     93  C   UNL A   1      46.305  27.127  35.884  1.00  0.00     0.022 A 
BRANCH  90  94
ATOM     94  S   UNL A   1      44.876  25.073  37.117  1.00  0.00     0.124 S 
ATOM     95  O   UNL A   1      43.580  25.342  37.731  1.00  0.00    -0.237 OA
ATOM     96  O   UNL A   1      44.923  23.941  36.197  1.00  0.00    -0.237 OA
ATOM     97  O   UNL A   1      46.024  25.188  38.015  1.00  0.00    -0.744 OA
ENDBRANCH  90  94
ENDBRANCH  64  87
ENDBRANCH  38  39
ENDBRANCH  30  33
ENDBRANCH  28  29
ENDBRANCH  27  28
ENDBRANCH   1  27
TORSDOF 19
ENDMDL
