MODEL 1
REMARK VINA RESULT:     -11.5      0.000      0.000
REMARK SMILES CC(C)Cc1ccc([C@H](C)C(=O)NCCCNC(=O)c2ccc(-c3c4nc(c(-c5cc(S(=O)(=O)[O-])ccc5F)c5ccc([nH]5)c(-c5cc(S(=O)(=O)[O-])ccc5F)c5nc(c(-c6cc(S(=O)(=O)[O-])ccc6F)c6ccc3[nH]6)C=C5)C=C4)cc2)cc1
REMARK SMILES IDX 15 1 14 2 13 3 11 4 12 5 9 7 10 8 8 9 5 10 6 11 84 12 7 13
REMARK SMILES IDX 83 14 4 15 2 16 1 17 3 18 16 19 17 20 18 21 19 23 20 24
REMARK SMILES IDX 21 25 82 26 22 27 81 28 23 29 24 30 25 31 75 32 26 33 80 34
REMARK SMILES IDX 74 35 76 36 27 37 79 38 73 39 72 40 28 42 60 43 40 44 59 45
REMARK SMILES IDX 41 46 44 47 58 48 77 49 42 50 43 51 57 53 78 54 45 55 29 56
REMARK SMILES IDX 30 57 38 58 31 59 37 60 39 61 36 62 32 63 33 64 34 65 35 66
REMARK SMILES IDX 61 67 62 68 70 69 63 70 69 71 71 72 68 73 64 74 65 75 66 76
REMARK SMILES IDX 67 77 46 78 47 79 55 80 48 81 54 82 56 83 53 84 49 85 50 86
REMARK SMILES IDX 51 87 52 88
REMARK H PARENT 13 6 17 22 76 41 44 52
REMARK Flexibility Score: inf
ROOT
ATOM      1  C   UNL A   1      33.359  29.266  25.476  1.00  0.00     0.042 C 
ENDROOT
BRANCH   1   2
ATOM      2  C   UNL A   1      33.343  27.758  25.262  1.00  0.00     0.117 C 
BRANCH   2   3
ATOM      3  N   UNL A   1      32.261  27.096  25.970  1.00  0.00    -0.356 N 
ATOM      4  C   UNL A   1      31.211  26.361  25.506  1.00  0.00     0.227 C 
ATOM      5  O   UNL A   1      30.495  25.808  26.348  1.00  0.00    -0.274 OA
ATOM      6  H   UNL A   1      32.291  27.195  26.950  1.00  0.00     0.163 HD
BRANCH   4   7
ATOM      7  C   UNL A   1      30.887  26.231  24.011  1.00  0.00     0.105 C 
ATOM      8  C   UNL A   1      30.423  24.808  23.700  1.00  0.00     0.023 C 
BRANCH   7   9
ATOM      9  C   UNL A   1      30.022  27.372  23.490  1.00  0.00    -0.036 A 
ATOM     10  C   UNL A   1      28.517  29.663  22.807  1.00  0.00    -0.048 A 
ATOM     11  C   UNL A   1      27.878  28.484  23.205  1.00  0.00     0.004 A 
ATOM     12  C   UNL A   1      29.909  29.663  22.673  1.00  0.00     0.004 A 
ATOM     13  C   UNL A   1      28.620  27.344  23.519  1.00  0.00     0.005 A 
ATOM     14  C   UNL A   1      30.653  28.533  23.016  1.00  0.00     0.005 A 
BRANCH  10  15
ATOM     15  C   UNL A   1      27.725  30.930  22.602  1.00  0.00     0.038 C 
BRANCH  15  16
ATOM     16  C   UNL A   1      28.531  32.031  21.878  1.00  0.00    -0.013 C 
ATOM     17  C   UNL A   1      27.848  32.506  20.591  1.00  0.00     0.008 C 
ATOM     18  C   UNL A   1      28.741  33.223  22.813  1.00  0.00     0.008 C 
ENDBRANCH  15  16
ENDBRANCH  10  15
ENDBRANCH   7   9
ENDBRANCH   4   7
ENDBRANCH   2   3
ENDBRANCH   1   2
BRANCH   1  19
ATOM     19  C   UNL A   1      32.604  29.719  26.717  1.00  0.00     0.118 C 
BRANCH  19  20
ATOM     20  N   UNL A   1      32.474  31.168  26.798  1.00  0.00    -0.352 N 
ATOM     21  C   UNL A   1      33.283  32.100  27.406  1.00  0.00     0.251 C 
ATOM     22  H   UNL A   1      31.681  31.539  26.348  1.00  0.00     0.163 HD
ATOM     23  O   UNL A   1      32.885  33.257  27.525  1.00  0.00    -0.269 OA
BRANCH  21  24
ATOM     24  C   UNL A   1      34.608  31.711  27.937  1.00  0.00     0.039 A 
ATOM     25  C   UNL A   1      35.656  32.636  27.901  1.00  0.00     0.014 A 
ATOM     26  C   UNL A   1      34.822  30.436  28.462  1.00  0.00     0.014 A 
ATOM     27  C   UNL A   1      36.892  32.311  28.471  1.00  0.00     0.010 A 
ATOM     28  C   UNL A   1      36.023  30.143  29.100  1.00  0.00     0.010 A 
ATOM     29  C   UNL A   1      37.070  31.079  29.117  1.00  0.00    -0.014 A 
BRANCH  29  30
ATOM     30  C   UNL A   1      38.336  30.723  29.815  1.00  0.00     0.031 A 
ATOM     31  C   UNL A   1      39.281  29.739  29.179  1.00  0.00     0.074 A 
ATOM     32  C   UNL A   1      38.577  31.191  31.055  1.00  0.00     0.049 A 
ATOM     33  N   UNL A   1      40.322  29.137  29.693  1.00  0.00    -0.248 NA
ATOM     34  C   UNL A   1      38.988  29.357  27.790  1.00  0.00     0.031 C 
ATOM     35  C   UNL A   1      37.727  32.134  31.784  1.00  0.00     0.029 A 
ATOM     36  N   UNL A   1      39.595  30.917  31.935  1.00  0.00    -0.354 N 
ATOM     37  C   UNL A   1      40.790  28.281  28.703  1.00  0.00     0.074 A 
ATOM     38  C   UNL A   1      39.888  28.410  27.577  1.00  0.00     0.031 C 
ATOM     39  C   UNL A   1      38.261  32.362  32.996  1.00  0.00     0.029 A 
ATOM     40  C   UNL A   1      39.456  31.540  33.153  1.00  0.00     0.049 A 
ATOM     41  H   UNL A   1      40.354  30.328  31.713  1.00  0.00     0.167 HD
ATOM     42  C   UNL A   1      41.879  27.473  28.726  1.00  0.00     0.034 A 
ATOM     43  C   UNL A   1      40.188  31.436  34.281  1.00  0.00     0.034 A 
ATOM     44  C   UNL A   1      42.779  27.377  29.849  1.00  0.00     0.049 A 
ATOM     45  C   UNL A   1      41.381  30.513  34.296  1.00  0.00     0.074 A 
ATOM     46  C   UNL A   1      43.943  26.635  29.960  1.00  0.00     0.029 A 
ATOM     47  N   UNL A   1      42.616  28.042  31.057  1.00  0.00    -0.354 N 
ATOM     48  N   UNL A   1      41.825  29.726  33.343  1.00  0.00    -0.248 NA
ATOM     49  C   UNL A   1      42.171  30.463  35.533  1.00  0.00     0.031 C 
ATOM     50  C   UNL A   1      44.448  26.803  31.254  1.00  0.00     0.029 A 
ATOM     51  C   UNL A   1      43.642  27.708  31.927  1.00  0.00     0.049 A 
ATOM     52  H   UNL A   1      41.878  28.661  31.266  1.00  0.00     0.167 HD
ATOM     53  C   UNL A   1      42.969  29.119  33.855  1.00  0.00     0.074 A 
ATOM     54  C   UNL A   1      43.144  29.628  35.199  1.00  0.00     0.031 C 
ATOM     55  C   UNL A   1      43.805  28.231  33.262  1.00  0.00     0.034 A 
BRANCH  42  56
ATOM     56  C   UNL A   1      42.134  26.613  27.512  1.00  0.00     0.023 A 
ATOM     57  C   UNL A   1      41.727  25.269  27.459  1.00  0.00     0.031 A 
ATOM     58  C   UNL A   1      42.823  27.135  26.402  1.00  0.00     0.131 A 
ATOM     59  C   UNL A   1      42.082  24.471  26.361  1.00  0.00     0.055 A 
ATOM     60  C   UNL A   1      43.099  26.359  25.275  1.00  0.00     0.041 A 
ATOM     61  F   UNL A   1      43.255  28.406  26.402  1.00  0.00    -0.206 F 
ATOM     62  C   UNL A   1      42.742  25.013  25.256  1.00  0.00     0.022 A 
BRANCH  59  63
ATOM     63  S   UNL A   1      41.798  22.683  26.464  1.00  0.00     0.124 S 
ATOM     64  O   UNL A   1      42.466  22.352  27.721  1.00  0.00    -0.237 OA
ATOM     65  O   UNL A   1      40.343  22.594  26.472  1.00  0.00    -0.237 OA
ATOM     66  O   UNL A   1      42.451  22.163  25.265  1.00  0.00    -0.744 OA
ENDBRANCH  59  63
ENDBRANCH  42  56
BRANCH  43  67
ATOM     67  C   UNL A   1      39.808  32.206  35.501  1.00  0.00     0.023 A 
ATOM     68  C   UNL A   1      38.938  31.659  36.456  1.00  0.00     0.031 A 
ATOM     69  C   UNL A   1      40.285  33.511  35.713  1.00  0.00     0.131 A 
ATOM     70  C   UNL A   1      38.536  32.430  37.558  1.00  0.00     0.055 A 
ATOM     71  C   UNL A   1      39.921  34.256  36.837  1.00  0.00     0.041 A 
ATOM     72  F   UNL A   1      41.125  34.079  34.833  1.00  0.00    -0.206 F 
ATOM     73  C   UNL A   1      39.032  33.720  37.761  1.00  0.00     0.022 A 
BRANCH  70  74
ATOM     74  S   UNL A   1      37.288  31.748  38.684  1.00  0.00     0.124 S 
ATOM     75  O   UNL A   1      37.981  31.806  39.966  1.00  0.00    -0.237 OA
ATOM     76  O   UNL A   1      36.180  32.681  38.508  1.00  0.00    -0.237 OA
ATOM     77  O   UNL A   1      37.057  30.403  38.160  1.00  0.00    -0.744 OA
ENDBRANCH  70  74
ENDBRANCH  43  67
BRANCH  55  78
ATOM     78  C   UNL A   1      45.025  27.805  34.038  1.00  0.00     0.023 A 
ATOM     79  C   UNL A   1      45.023  26.671  34.865  1.00  0.00     0.031 A 
ATOM     80  C   UNL A   1      46.219  28.540  33.917  1.00  0.00     0.131 A 
ATOM     81  C   UNL A   1      46.188  26.319  35.566  1.00  0.00     0.055 A 
ATOM     82  C   UNL A   1      47.385  28.159  34.578  1.00  0.00     0.041 A 
ATOM     83  F   UNL A   1      46.271  29.633  33.138  1.00  0.00    -0.206 F 
ATOM     84  C   UNL A   1      47.372  27.046  35.415  1.00  0.00     0.022 A 
BRANCH  81  85
ATOM     85  S   UNL A   1      46.126  24.920  36.720  1.00  0.00     0.124 S 
ATOM     86  O   UNL A   1      47.448  24.326  36.547  1.00  0.00    -0.237 OA
ATOM     87  O   UNL A   1      45.887  25.579  38.000  1.00  0.00    -0.237 OA
ATOM     88  O   UNL A   1      45.014  24.113  36.223  1.00  0.00    -0.744 OA
ENDBRANCH  81  85
ENDBRANCH  55  78
ENDBRANCH  29  30
ENDBRANCH  21  24
ENDBRANCH  19  20
ENDBRANCH   1  19
TORSDOF 16
ENDMDL
MODEL 2
REMARK VINA RESULT:     -11.5      5.835     10.854
REMARK SMILES CC(C)Cc1ccc([C@H](C)C(=O)NCCCNC(=O)c2ccc(-c3c4nc(c(-c5cc(S(=O)(=O)[O-])ccc5F)c5ccc([nH]5)c(-c5cc(S(=O)(=O)[O-])ccc5F)c5nc(c(-c6cc(S(=O)(=O)[O-])ccc6F)c6ccc3[nH]6)C=C5)C=C4)cc2)cc1
REMARK SMILES IDX 15 1 14 2 13 3 11 4 12 5 9 7 10 8 8 9 5 10 6 11 84 12 7 13
REMARK SMILES IDX 83 14 4 15 2 16 1 17 3 18 16 19 17 20 18 21 19 23 20 24
REMARK SMILES IDX 21 25 82 26 22 27 81 28 23 29 24 30 25 31 75 32 26 33 80 34
REMARK SMILES IDX 74 35 76 36 27 37 79 38 73 39 72 40 28 42 60 43 40 44 59 45
REMARK SMILES IDX 41 46 44 47 58 48 77 49 42 50 43 51 57 53 78 54 45 55 29 56
REMARK SMILES IDX 30 57 38 58 31 59 37 60 39 61 36 62 32 63 33 64 34 65 35 66
REMARK SMILES IDX 61 67 62 68 70 69 63 70 69 71 71 72 68 73 64 74 65 75 66 76
REMARK SMILES IDX 67 77 46 78 47 79 55 80 48 81 54 82 56 83 53 84 49 85 50 86
REMARK SMILES IDX 51 87 52 88
REMARK H PARENT 13 6 17 22 76 41 44 52
REMARK Flexibility Score: inf
ROOT
ATOM      1  C   UNL A   1      35.962  22.982  26.135  1.00  0.00     0.042 C 
ENDROOT
BRANCH   1   2
ATOM      2  C   UNL A   1      34.951  24.031  25.693  1.00  0.00     0.117 C 
BRANCH   2   3
ATOM      3  N   UNL A   1      34.768  24.072  24.253  1.00  0.00    -0.356 N 
ATOM      4  C   UNL A   1      33.776  23.567  23.466  1.00  0.00     0.227 C 
ATOM      5  O   UNL A   1      33.811  23.851  22.264  1.00  0.00    -0.274 OA
ATOM      6  H   UNL A   1      35.481  24.543  23.762  1.00  0.00     0.163 HD
BRANCH   4   7
ATOM      7  C   UNL A   1      32.667  22.656  24.014  1.00  0.00     0.105 C 
ATOM      8  C   UNL A   1      31.305  23.136  23.513  1.00  0.00     0.023 C 
BRANCH   7   9
ATOM      9  C   UNL A   1      32.984  21.175  23.854  1.00  0.00    -0.036 A 
ATOM     10  C   UNL A   1      33.276  18.368  23.730  1.00  0.00    -0.048 A 
ATOM     11  C   UNL A   1      34.129  19.137  24.528  1.00  0.00     0.004 A 
ATOM     12  C   UNL A   1      32.331  19.018  22.932  1.00  0.00     0.004 A 
ATOM     13  C   UNL A   1      34.001  20.527  24.570  1.00  0.00     0.005 A 
ATOM     14  C   UNL A   1      32.182  20.404  22.997  1.00  0.00     0.005 A 
BRANCH  10  15
ATOM     15  C   UNL A   1      33.325  16.862  23.792  1.00  0.00     0.038 C 
BRANCH  15  16
ATOM     16  C   UNL A   1      33.585  16.327  25.218  1.00  0.00    -0.013 C 
ATOM     17  C   UNL A   1      32.541  15.295  25.656  1.00  0.00     0.008 C 
ATOM     18  C   UNL A   1      34.980  15.704  25.293  1.00  0.00     0.008 C 
ENDBRANCH  15  16
ENDBRANCH  10  15
ENDBRANCH   7   9
ENDBRANCH   4   7
ENDBRANCH   2   3
ENDBRANCH   1   2
BRANCH   1  19
ATOM     19  C   UNL A   1      37.027  22.675  25.092  1.00  0.00     0.118 C 
BRANCH  19  20
ATOM     20  N   UNL A   1      37.890  21.566  25.479  1.00  0.00    -0.352 N 
ATOM     21  C   UNL A   1      39.112  21.570  26.111  1.00  0.00     0.251 C 
ATOM     22  H   UNL A   1      37.544  20.673  25.252  1.00  0.00     0.163 HD
ATOM     23  O   UNL A   1      39.764  20.530  26.166  1.00  0.00    -0.269 OA
BRANCH  21  24
ATOM     24  C   UNL A   1      39.651  22.818  26.695  1.00  0.00     0.039 A 
ATOM     25  C   UNL A   1      40.511  22.741  27.794  1.00  0.00     0.014 A 
ATOM     26  C   UNL A   1      39.305  24.063  26.167  1.00  0.00     0.014 A 
ATOM     27  C   UNL A   1      41.092  23.906  28.307  1.00  0.00     0.010 A 
ATOM     28  C   UNL A   1      39.944  25.210  26.624  1.00  0.00     0.010 A 
ATOM     29  C   UNL A   1      40.849  25.145  27.696  1.00  0.00    -0.014 A 
BRANCH  29  30
ATOM     30  C   UNL A   1      41.512  26.398  28.149  1.00  0.00     0.031 A 
ATOM     31  C   UNL A   1      40.701  27.453  28.852  1.00  0.00     0.074 A 
ATOM     32  C   UNL A   1      42.800  26.633  27.831  1.00  0.00     0.049 A 
ATOM     33  N   UNL A   1      41.019  28.687  29.145  1.00  0.00    -0.248 NA
ATOM     34  C   UNL A   1      39.336  27.073  29.244  1.00  0.00     0.031 C 
ATOM     35  C   UNL A   1      43.684  25.697  27.133  1.00  0.00     0.029 A 
ATOM     36  N   UNL A   1      43.584  27.744  28.026  1.00  0.00    -0.354 N 
ATOM     37  C   UNL A   1      39.884  29.243  29.725  1.00  0.00     0.074 A 
ATOM     38  C   UNL A   1      38.858  28.221  29.698  1.00  0.00     0.031 C 
ATOM     39  C   UNL A   1      44.887  26.271  26.965  1.00  0.00     0.029 A 
ATOM     40  C   UNL A   1      44.845  27.633  27.487  1.00  0.00     0.049 A 
ATOM     41  H   UNL A   1      43.272  28.545  28.508  1.00  0.00     0.167 HD
ATOM     42  C   UNL A   1      39.719  30.484  30.245  1.00  0.00     0.034 A 
ATOM     43  C   UNL A   1      45.843  28.535  27.394  1.00  0.00     0.034 A 
ATOM     44  C   UNL A   1      40.762  31.480  30.286  1.00  0.00     0.049 A 
ATOM     45  C   UNL A   1      45.631  29.919  27.956  1.00  0.00     0.074 A 
ATOM     46  C   UNL A   1      40.723  32.748  30.838  1.00  0.00     0.029 A 
ATOM     47  N   UNL A   1      42.034  31.320  29.749  1.00  0.00    -0.354 N 
ATOM     48  N   UNL A   1      44.559  30.422  28.523  1.00  0.00    -0.248 NA
ATOM     49  C   UNL A   1      46.760  30.855  27.867  1.00  0.00     0.031 C 
ATOM     50  C   UNL A   1      41.947  33.376  30.582  1.00  0.00     0.029 A 
ATOM     51  C   UNL A   1      42.777  32.475  29.935  1.00  0.00     0.049 A 
ATOM     52  H   UNL A   1      42.359  30.505  29.301  1.00  0.00     0.167 HD
ATOM     53  C   UNL A   1      44.900  31.721  28.893  1.00  0.00     0.074 A 
ATOM     54  C   UNL A   1      46.274  31.923  28.483  1.00  0.00     0.031 C 
ATOM     55  C   UNL A   1      44.149  32.656  29.525  1.00  0.00     0.034 A 
BRANCH  42  56
ATOM     56  C   UNL A   1      38.354  30.837  30.784  1.00  0.00     0.023 A 
ATOM     57  C   UNL A   1      37.369  31.427  29.973  1.00  0.00     0.031 A 
ATOM     58  C   UNL A   1      38.042  30.610  32.137  1.00  0.00     0.131 A 
ATOM     59  C   UNL A   1      36.154  31.844  30.537  1.00  0.00     0.055 A 
ATOM     60  C   UNL A   1      36.799  30.950  32.673  1.00  0.00     0.041 A 
ATOM     61  F   UNL A   1      38.948  30.069  32.966  1.00  0.00    -0.206 F 
ATOM     62  C   UNL A   1      35.851  31.586  31.876  1.00  0.00     0.022 A 
BRANCH  59  63
ATOM     63  S   UNL A   1      35.039  32.860  29.531  1.00  0.00     0.124 S 
ATOM     64  O   UNL A   1      34.381  31.847  28.709  1.00  0.00    -0.237 OA
ATOM     65  O   UNL A   1      34.204  33.506  30.538  1.00  0.00    -0.237 OA
ATOM     66  O   UNL A   1      35.945  33.748  28.805  1.00  0.00    -0.744 OA
ENDBRANCH  59  63
ENDBRANCH  42  56
BRANCH  43  67
ATOM     67  C   UNL A   1      47.126  28.175  26.725  1.00  0.00     0.023 A 
ATOM     68  C   UNL A   1      47.225  28.141  25.326  1.00  0.00     0.031 A 
ATOM     69  C   UNL A   1      48.263  27.829  27.475  1.00  0.00     0.131 A 
ATOM     70  C   UNL A   1      48.421  27.727  24.719  1.00  0.00     0.055 A 
ATOM     71  C   UNL A   1      49.467  27.466  26.867  1.00  0.00     0.041 A 
ATOM     72  F   UNL A   1      48.225  27.851  28.817  1.00  0.00    -0.206 F 
ATOM     73  C   UNL A   1      49.546  27.402  25.480  1.00  0.00     0.022 A 
BRANCH  70  74
ATOM     74  S   UNL A   1      48.459  27.543  22.915  1.00  0.00     0.124 S 
ATOM     75  O   UNL A   1      49.742  28.152  22.581  1.00  0.00    -0.237 OA
ATOM     76  O   UNL A   1      48.373  26.095  22.757  1.00  0.00    -0.237 OA
ATOM     77  O   UNL A   1      47.281  28.287  22.473  1.00  0.00    -0.744 OA
ENDBRANCH  70  74
ENDBRANCH  43  67
BRANCH  55  78
ATOM     78  C   UNL A   1      44.818  33.960  29.876  1.00  0.00     0.023 A 
ATOM     79  C   UNL A   1      44.774  35.074  29.022  1.00  0.00     0.031 A 
ATOM     80  C   UNL A   1      45.487  34.091  31.107  1.00  0.00     0.131 A 
ATOM     81  C   UNL A   1      45.416  36.264  29.398  1.00  0.00     0.055 A 
ATOM     82  C   UNL A   1      46.082  35.290  31.496  1.00  0.00     0.041 A 
ATOM     83  F   UNL A   1      45.558  33.054  31.959  1.00  0.00    -0.206 F 
ATOM     84  C   UNL A   1      46.055  36.385  30.635  1.00  0.00     0.022 A 
BRANCH  81  85
ATOM     85  S   UNL A   1      45.446  37.650  28.226  1.00  0.00     0.124 S 
ATOM     86  O   UNL A   1      46.836  37.641  27.783  1.00  0.00    -0.237 OA
ATOM     87  O   UNL A   1      44.458  37.242  27.232  1.00  0.00    -0.237 OA
ATOM     88  O   UNL A   1      45.063  38.799  29.043  1.00  0.00    -0.744 OA
ENDBRANCH  81  85
ENDBRANCH  55  78
ENDBRANCH  29  30
ENDBRANCH  21  24
ENDBRANCH  19  20
ENDBRANCH   1  19
TORSDOF 16
ENDMDL
MODEL 3
REMARK VINA RESULT:     -11.2      6.448     11.512
REMARK SMILES CC(C)Cc1ccc([C@H](C)C(=O)NCCCNC(=O)c2ccc(-c3c4nc(c(-c5cc(S(=O)(=O)[O-])ccc5F)c5ccc([nH]5)c(-c5cc(S(=O)(=O)[O-])ccc5F)c5nc(c(-c6cc(S(=O)(=O)[O-])ccc6F)c6ccc3[nH]6)C=C5)C=C4)cc2)cc1
REMARK SMILES IDX 15 1 14 2 13 3 11 4 12 5 9 7 10 8 8 9 5 10 6 11 84 12 7 13
REMARK SMILES IDX 83 14 4 15 2 16 1 17 3 18 16 19 17 20 18 21 19 23 20 24
REMARK SMILES IDX 21 25 82 26 22 27 81 28 23 29 24 30 25 31 75 32 26 33 80 34
REMARK SMILES IDX 74 35 76 36 27 37 79 38 73 39 72 40 28 42 60 43 40 44 59 45
REMARK SMILES IDX 41 46 44 47 58 48 77 49 42 50 43 51 57 53 78 54 45 55 29 56
REMARK SMILES IDX 30 57 38 58 31 59 37 60 39 61 36 62 32 63 33 64 34 65 35 66
REMARK SMILES IDX 61 67 62 68 70 69 63 70 69 71 71 72 68 73 64 74 65 75 66 76
REMARK SMILES IDX 67 77 46 78 47 79 55 80 48 81 54 82 56 83 53 84 49 85 50 86
REMARK SMILES IDX 51 87 52 88
REMARK H PARENT 13 6 17 22 76 41 44 52
REMARK Flexibility Score: inf
ROOT
ATOM      1  C   UNL A   1      38.769  21.929  26.404  1.00  0.00     0.042 C 
ENDROOT
BRANCH   1   2
ATOM      2  C   UNL A   1      37.956  23.146  25.981  1.00  0.00     0.117 C 
BRANCH   2   3
ATOM      3  N   UNL A   1      37.691  23.184  24.553  1.00  0.00    -0.356 N 
ATOM      4  C   UNL A   1      36.515  23.254  23.867  1.00  0.00     0.227 C 
ATOM      5  O   UNL A   1      36.586  23.391  22.641  1.00  0.00    -0.274 OA
ATOM      6  H   UNL A   1      38.496  23.152  23.986  1.00  0.00     0.163 HD
BRANCH   4   7
ATOM      7  C   UNL A   1      35.147  23.140  24.554  1.00  0.00     0.105 C 
ATOM      8  C   UNL A   1      34.235  24.276  24.090  1.00  0.00     0.023 C 
BRANCH   7   9
ATOM      9  C   UNL A   1      34.575  21.728  24.508  1.00  0.00    -0.036 A 
ATOM     10  C   UNL A   1      33.327  19.202  24.698  1.00  0.00    -0.048 A 
ATOM     11  C   UNL A   1      34.683  19.350  25.009  1.00  0.00     0.004 A 
ATOM     12  C   UNL A   1      32.621  20.307  24.213  1.00  0.00     0.004 A 
ATOM     13  C   UNL A   1      35.306  20.594  24.891  1.00  0.00     0.005 A 
ATOM     14  C   UNL A   1      33.236  21.557  24.125  1.00  0.00     0.005 A 
BRANCH  10  15
ATOM     15  C   UNL A   1      32.623  17.893  24.957  1.00  0.00     0.038 C 
BRANCH  15  16
ATOM     16  C   UNL A   1      33.542  16.668  24.757  1.00  0.00    -0.013 C 
ATOM     17  C   UNL A   1      32.902  15.368  25.257  1.00  0.00     0.008 C 
ATOM     18  C   UNL A   1      33.901  16.523  23.278  1.00  0.00     0.008 C 
ENDBRANCH  15  16
ENDBRANCH  10  15
ENDBRANCH   7   9
ENDBRANCH   4   7
ENDBRANCH   2   3
ENDBRANCH   1   2
BRANCH   1  19
ATOM     19  C   UNL A   1      39.042  20.948  25.272  1.00  0.00     0.118 C 
BRANCH  19  20
ATOM     20  N   UNL A   1      39.866  19.822  25.691  1.00  0.00    -0.352 N 
ATOM     21  C   UNL A   1      41.164  19.791  26.146  1.00  0.00     0.251 C 
ATOM     22  H   UNL A   1      39.424  18.944  25.641  1.00  0.00     0.163 HD
ATOM     23  O   UNL A   1      41.737  18.709  26.258  1.00  0.00    -0.269 OA
BRANCH  21  24
ATOM     24  C   UNL A   1      41.876  21.047  26.470  1.00  0.00     0.039 A 
ATOM     25  C   UNL A   1      42.226  21.919  25.434  1.00  0.00     0.014 A 
ATOM     26  C   UNL A   1      42.205  21.363  27.788  1.00  0.00     0.014 A 
ATOM     27  C   UNL A   1      42.828  23.147  25.732  1.00  0.00     0.010 A 
ATOM     28  C   UNL A   1      42.729  22.616  28.089  1.00  0.00     0.010 A 
ATOM     29  C   UNL A   1      43.041  23.525  27.066  1.00  0.00    -0.014 A 
BRANCH  29  30
ATOM     30  C   UNL A   1      43.596  24.855  27.435  1.00  0.00     0.031 A 
ATOM     31  C   UNL A   1      42.674  25.924  27.958  1.00  0.00     0.074 A 
ATOM     32  C   UNL A   1      44.892  25.136  27.197  1.00  0.00     0.049 A 
ATOM     33  N   UNL A   1      42.900  27.198  28.143  1.00  0.00    -0.248 NA
ATOM     34  C   UNL A   1      41.302  25.502  28.278  1.00  0.00     0.031 C 
ATOM     35  C   UNL A   1      45.880  24.190  26.674  1.00  0.00     0.029 A 
ATOM     36  N   UNL A   1      45.597  26.306  27.336  1.00  0.00    -0.354 N 
ATOM     37  C   UNL A   1      41.692  27.739  28.571  1.00  0.00     0.074 A 
ATOM     38  C   UNL A   1      40.728  26.659  28.570  1.00  0.00     0.031 C 
ATOM     39  C   UNL A   1      47.062  24.817  26.542  1.00  0.00     0.029 A 
ATOM     40  C   UNL A   1      46.903  26.219  26.913  1.00  0.00     0.049 A 
ATOM     41  H   UNL A   1      45.203  27.131  27.704  1.00  0.00     0.167 HD
ATOM     42  C   UNL A   1      41.418  29.014  28.942  1.00  0.00     0.034 A 
ATOM     43  C   UNL A   1      47.856  27.167  26.805  1.00  0.00     0.034 A 
ATOM     44  C   UNL A   1      42.400  30.070  28.960  1.00  0.00     0.049 A 
ATOM     45  C   UNL A   1      47.525  28.584  27.199  1.00  0.00     0.074 A 
ATOM     46  C   UNL A   1      42.247  31.383  29.371  1.00  0.00     0.029 A 
ATOM     47  N   UNL A   1      43.719  29.935  28.545  1.00  0.00    -0.354 N 
ATOM     48  N   UNL A   1      46.383  29.076  27.623  1.00  0.00    -0.248 NA
ATOM     49  C   UNL A   1      48.606  29.574  27.102  1.00  0.00     0.031 C 
ATOM     50  C   UNL A   1      43.454  32.056  29.148  1.00  0.00     0.029 A 
ATOM     51  C   UNL A   1      44.382  31.146  28.667  1.00  0.00     0.049 A 
ATOM     52  H   UNL A   1      44.124  29.101  28.213  1.00  0.00     0.167 HD
ATOM     53  C   UNL A   1      46.623  30.423  27.881  1.00  0.00     0.074 A 
ATOM     54  C   UNL A   1      48.014  30.667  27.561  1.00  0.00     0.031 C 
ATOM     55  C   UNL A   1      45.772  31.370  28.350  1.00  0.00     0.034 A 
BRANCH  42  56
ATOM     56  C   UNL A   1      39.996  29.335  29.331  1.00  0.00     0.023 A 
ATOM     57  C   UNL A   1      39.600  29.428  30.677  1.00  0.00     0.031 A 
ATOM     58  C   UNL A   1      39.012  29.520  28.343  1.00  0.00     0.131 A 
ATOM     59  C   UNL A   1      38.247  29.615  30.999  1.00  0.00     0.055 A 
ATOM     60  C   UNL A   1      37.682  29.792  28.669  1.00  0.00     0.041 A 
ATOM     61  F   UNL A   1      39.325  29.424  27.041  1.00  0.00    -0.206 F 
ATOM     62  C   UNL A   1      37.289  29.825  30.004  1.00  0.00     0.022 A 
BRANCH  59  63
ATOM     63  S   UNL A   1      37.738  29.433  32.729  1.00  0.00     0.124 S 
ATOM     64  O   UNL A   1      36.464  30.150  32.737  1.00  0.00    -0.237 OA
ATOM     65  O   UNL A   1      37.658  27.986  32.886  1.00  0.00    -0.237 OA
ATOM     66  O   UNL A   1      38.814  30.085  33.474  1.00  0.00    -0.744 OA
ENDBRANCH  59  63
ENDBRANCH  42  56
BRANCH  43  67
ATOM     67  C   UNL A   1      49.209  26.821  26.280  1.00  0.00     0.023 A 
ATOM     68  C   UNL A   1      49.634  27.278  25.024  1.00  0.00     0.031 A 
ATOM     69  C   UNL A   1      50.083  26.000  27.014  1.00  0.00     0.131 A 
ATOM     70  C   UNL A   1      50.881  26.878  24.519  1.00  0.00     0.055 A 
ATOM     71  C   UNL A   1      51.344  25.646  26.530  1.00  0.00     0.041 A 
ATOM     72  F   UNL A   1      49.728  25.540  28.225  1.00  0.00    -0.206 F 
ATOM     73  C   UNL A   1      51.744  26.076  25.269  1.00  0.00     0.022 A 
BRANCH  70  74
ATOM     74  S   UNL A   1      51.327  27.360  22.828  1.00  0.00     0.124 S 
ATOM     75  O   UNL A   1      50.260  26.739  22.052  1.00  0.00    -0.237 OA
ATOM     76  O   UNL A   1      51.300  28.816  22.911  1.00  0.00    -0.237 OA
ATOM     77  O   UNL A   1      52.654  26.772  22.647  1.00  0.00    -0.744 OA
ENDBRANCH  70  74
ENDBRANCH  43  67
BRANCH  55  78
ATOM     78  C   UNL A   1      46.340  32.741  28.613  1.00  0.00     0.023 A 
ATOM     79  C   UNL A   1      46.488  33.694  27.593  1.00  0.00     0.031 A 
ATOM     80  C   UNL A   1      46.710  33.102  29.922  1.00  0.00     0.131 A 
ATOM     81  C   UNL A   1      47.023  34.957  27.893  1.00  0.00     0.055 A 
ATOM     82  C   UNL A   1      47.196  34.373  30.222  1.00  0.00     0.041 A 
ATOM     83  F   UNL A   1      46.588  32.225  30.932  1.00  0.00    -0.206 F 
ATOM     84  C   UNL A   1      47.363  35.308  29.204  1.00  0.00     0.022 A 
BRANCH  81  85
ATOM     85  S   UNL A   1      47.316  36.129  26.539  1.00  0.00     0.124 S 
ATOM     86  O   UNL A   1      47.627  35.236  25.428  1.00  0.00    -0.237 OA
ATOM     87  O   UNL A   1      46.040  36.833  26.453  1.00  0.00    -0.237 OA
ATOM     88  O   UNL A   1      48.436  36.935  27.019  1.00  0.00    -0.744 OA
ENDBRANCH  81  85
ENDBRANCH  55  78
ENDBRANCH  29  30
ENDBRANCH  21  24
ENDBRANCH  19  20
ENDBRANCH   1  19
TORSDOF 16
ENDMDL
