MODEL 1
REMARK VINA RESULT:     -12.7      0.000      0.000
REMARK SMILES CCc1ccc(C(=O)NCCCNC(=O)c2ccc(-c3c4nc(c(-c5cc(S(=O)(=O)[O-])ccc5F)c5ccc([nH]5)c(-c5cc(S(=O)(=O)[O-])ccc5F)c5nc(c(-c6cc(S(=O)(=O)[O-])ccc6F)c6ccc3[nH]6)C=C5)C=C4)cc2)cc1S(=O)(=O)Nc1ccc(F)c(F)c1F
REMARK SMILES IDX 11 1 10 2 9 3 7 4 8 5 6 7 3 8 4 9 80 10 5 11 79 12 2 13 1 14
REMARK SMILES IDX 81 15 82 16 83 17 84 18 85 20 86 21 92 22 87 23 90 24 93 25
REMARK SMILES IDX 88 26 91 27 89 28 12 29 13 30 14 31 15 33 16 34 17 35 78 36
REMARK SMILES IDX 18 37 77 38 19 39 20 40 21 41 71 42 22 43 76 44 70 45 72 46
REMARK SMILES IDX 23 47 75 48 69 49 68 50 24 52 56 53 36 54 55 55 37 56 40 57
REMARK SMILES IDX 54 58 73 59 38 60 39 61 53 63 74 64 41 65 25 66 26 67 34 68
REMARK SMILES IDX 27 69 33 70 35 71 32 72 28 73 29 74 30 75 31 76 57 77 58 78
REMARK SMILES IDX 66 79 59 80 65 81 67 82 64 83 60 84 61 85 62 86 63 87 42 88
REMARK SMILES IDX 43 89 51 90 44 91 50 92 52 93 49 94 45 95 46 96 47 97 48 98
REMARK H PARENT 9 6 84 19 13 32 72 51 40 62
REMARK Flexibility Score: inf
ROOT
ATOM      1  C   UNL A   1      38.143  19.626  24.988  1.00  0.00     0.042 C 
ENDROOT
BRANCH   1   2
ATOM      2  C   UNL A   1      36.893  20.502  25.013  1.00  0.00     0.118 C 
BRANCH   2   3
ATOM      3  N   UNL A   1      37.161  21.799  25.599  1.00  0.00    -0.352 N 
ATOM      4  C   UNL A   1      36.453  22.953  25.751  1.00  0.00     0.251 C 
ATOM      5  O   UNL A   1      37.036  23.861  26.352  1.00  0.00    -0.269 OA
ATOM      6  H   UNL A   1      38.068  21.861  25.976  1.00  0.00     0.163 HD
BRANCH   4   7
ATOM      7  C   UNL A   1      35.077  23.217  25.234  1.00  0.00     0.041 A 
ATOM      8  C   UNL A   1      32.633  23.271  23.821  1.00  0.00    -0.028 A 
ATOM      9  C   UNL A   1      33.822  23.711  23.220  1.00  0.00     0.006 A 
ATOM     10  C   UNL A   1      32.624  23.119  25.213  1.00  0.00     0.091 A 
ATOM     11  C   UNL A   1      35.021  23.697  23.921  1.00  0.00     0.014 A 
ATOM     12  C   UNL A   1      33.864  22.987  25.885  1.00  0.00     0.036 A 
BRANCH   8  13
ATOM     13  C   UNL A   1      31.610  22.735  22.856  1.00  0.00     0.033 C 
ATOM     14  C   UNL A   1      31.980  21.346  22.345  1.00  0.00     0.009 C 
ENDBRANCH   8  13
BRANCH  10  15
ATOM     15  S   UNL A   1      31.214  23.241  26.324  1.00  0.00     0.262 S 
ATOM     16  O   UNL A   1      30.469  22.010  26.140  1.00  0.00    -0.201 OA
ATOM     17  O   UNL A   1      31.764  23.571  27.622  1.00  0.00    -0.201 OA
BRANCH  15  18
ATOM     18  N   UNL A   1      30.144  24.431  25.880  1.00  0.00    -0.277 N 
ATOM     19  H   UNL A   1      29.191  24.186  25.895  1.00  0.00     0.180 HD
BRANCH  18  20
ATOM     20  C   UNL A   1      30.441  25.762  25.481  1.00  0.00     0.088 A 
ATOM     21  C   UNL A   1      31.134  26.683  26.271  1.00  0.00     0.033 A 
ATOM     22  C   UNL A   1      30.075  26.126  24.174  1.00  0.00     0.185 A 
ATOM     23  C   UNL A   1      31.556  27.897  25.716  1.00  0.00     0.045 A 
ATOM     24  C   UNL A   1      30.515  27.317  23.617  1.00  0.00     0.196 A 
ATOM     25  F   UNL A   1      29.397  25.249  23.414  1.00  0.00    -0.201 F 
ATOM     26  C   UNL A   1      31.271  28.191  24.384  1.00  0.00     0.162 A 
ATOM     27  F   UNL A   1      30.270  27.588  22.327  1.00  0.00    -0.200 F 
ATOM     28  F   UNL A   1      31.756  29.316  23.841  1.00  0.00    -0.204 F 
ENDBRANCH  18  20
ENDBRANCH  15  18
ENDBRANCH  10  15
ENDBRANCH   4   7
ENDBRANCH   2   3
ENDBRANCH   1   2
BRANCH   1  29
ATOM     29  C   UNL A   1      39.305  20.216  25.794  1.00  0.00     0.118 C 
BRANCH  29  30
ATOM     30  N   UNL A   1      40.355  19.230  26.017  1.00  0.00    -0.352 N 
ATOM     31  C   UNL A   1      41.711  19.400  26.116  1.00  0.00     0.251 C 
ATOM     32  H   UNL A   1      40.042  18.302  26.111  1.00  0.00     0.163 HD
ATOM     33  O   UNL A   1      42.448  18.425  25.992  1.00  0.00    -0.269 OA
BRANCH  31  34
ATOM     34  C   UNL A   1      42.278  20.736  26.384  1.00  0.00     0.039 A 
ATOM     35  C   UNL A   1      42.419  21.159  27.709  1.00  0.00     0.014 A 
ATOM     36  C   UNL A   1      42.602  21.596  25.331  1.00  0.00     0.014 A 
ATOM     37  C   UNL A   1      42.915  22.436  27.978  1.00  0.00     0.010 A 
ATOM     38  C   UNL A   1      43.150  22.846  25.601  1.00  0.00     0.010 A 
ATOM     39  C   UNL A   1      43.297  23.282  26.926  1.00  0.00    -0.014 A 
BRANCH  39  40
ATOM     40  C   UNL A   1      43.824  24.644  27.190  1.00  0.00     0.031 A 
ATOM     41  C   UNL A   1      42.904  25.716  27.703  1.00  0.00     0.074 A 
ATOM     42  C   UNL A   1      45.110  24.923  26.906  1.00  0.00     0.049 A 
ATOM     43  N   UNL A   1      43.146  26.983  27.923  1.00  0.00    -0.248 NA
ATOM     44  C   UNL A   1      41.517  25.312  27.975  1.00  0.00     0.031 C 
ATOM     45  C   UNL A   1      46.084  23.968  26.373  1.00  0.00     0.029 A 
ATOM     46  N   UNL A   1      45.817  26.092  27.018  1.00  0.00    -0.354 N 
ATOM     47  C   UNL A   1      41.938  27.532  28.342  1.00  0.00     0.074 A 
ATOM     48  C   UNL A   1      40.955  26.470  28.283  1.00  0.00     0.031 C 
ATOM     49  C   UNL A   1      47.268  24.584  26.229  1.00  0.00     0.029 A 
ATOM     50  C   UNL A   1      47.128  25.984  26.618  1.00  0.00     0.049 A 
ATOM     51  H   UNL A   1      45.424  26.931  27.352  1.00  0.00     0.167 HD
ATOM     52  C   UNL A   1      41.679  28.797  28.757  1.00  0.00     0.034 A 
ATOM     53  C   UNL A   1      48.103  26.912  26.567  1.00  0.00     0.034 A 
ATOM     54  C   UNL A   1      42.680  29.837  28.817  1.00  0.00     0.049 A 
ATOM     55  C   UNL A   1      47.789  28.317  27.008  1.00  0.00     0.074 A 
ATOM     56  C   UNL A   1      42.552  31.137  29.271  1.00  0.00     0.029 A 
ATOM     57  N   UNL A   1      43.997  29.693  28.397  1.00  0.00    -0.354 N 
ATOM     58  N   UNL A   1      46.654  28.813  27.445  1.00  0.00    -0.248 NA
ATOM     59  C   UNL A   1      48.891  29.285  26.956  1.00  0.00     0.031 C 
ATOM     60  C   UNL A   1      43.772  31.795  29.072  1.00  0.00     0.029 A 
ATOM     61  C   UNL A   1      44.684  30.888  28.554  1.00  0.00     0.049 A 
ATOM     62  H   UNL A   1      44.388  28.862  28.040  1.00  0.00     0.167 HD
ATOM     63  C   UNL A   1      46.915  30.145  27.750  1.00  0.00     0.074 A 
ATOM     64  C   UNL A   1      48.317  30.369  27.454  1.00  0.00     0.031 C 
ATOM     65  C   UNL A   1      46.077  31.095  28.238  1.00  0.00     0.034 A 
BRANCH  52  66
ATOM     66  C   UNL A   1      40.254  29.119  29.145  1.00  0.00     0.023 A 
ATOM     67  C   UNL A   1      39.838  29.125  30.489  1.00  0.00     0.031 A 
ATOM     68  C   UNL A   1      39.282  29.360  28.158  1.00  0.00     0.131 A 
ATOM     69  C   UNL A   1      38.478  29.268  30.802  1.00  0.00     0.055 A 
ATOM     70  C   UNL A   1      37.942  29.591  28.482  1.00  0.00     0.041 A 
ATOM     71  F   UNL A   1      39.611  29.349  26.856  1.00  0.00    -0.206 F 
ATOM     72  C   UNL A   1      37.530  29.525  29.810  1.00  0.00     0.022 A 
BRANCH  69  73
ATOM     73  S   UNL A   1      37.944  28.935  32.504  1.00  0.00     0.124 S 
ATOM     74  O   UNL A   1      38.898  29.734  33.272  1.00  0.00    -0.237 OA
ATOM     75  O   UNL A   1      36.567  29.411  32.502  1.00  0.00    -0.237 OA
ATOM     76  O   UNL A   1      38.106  27.489  32.637  1.00  0.00    -0.744 OA
ENDBRANCH  69  73
ENDBRANCH  52  66
BRANCH  53  77
ATOM     77  C   UNL A   1      49.465  26.545  26.092  1.00  0.00     0.023 A 
ATOM     78  C   UNL A   1      49.932  26.991  24.846  1.00  0.00     0.031 A 
ATOM     79  C   UNL A   1      50.311  25.729  26.863  1.00  0.00     0.131 A 
ATOM     80  C   UNL A   1      51.196  26.588  24.388  1.00  0.00     0.055 A 
ATOM     81  C   UNL A   1      51.584  25.367  26.423  1.00  0.00     0.041 A 
ATOM     82  F   UNL A   1      49.914  25.285  28.066  1.00  0.00    -0.206 F 
ATOM     83  C   UNL A   1      52.030  25.788  25.173  1.00  0.00     0.022 A 
BRANCH  80  84
ATOM     84  S   UNL A   1      51.711  27.077  22.720  1.00  0.00     0.124 S 
ATOM     85  O   UNL A   1      50.462  26.957  21.976  1.00  0.00    -0.237 OA
ATOM     86  O   UNL A   1      52.199  28.435  22.939  1.00  0.00    -0.237 OA
ATOM     87  O   UNL A   1      52.738  26.095  22.380  1.00  0.00    -0.744 OA
ENDBRANCH  80  84
ENDBRANCH  53  77
BRANCH  65  88
ATOM     88  C   UNL A   1      46.680  32.449  28.517  1.00  0.00     0.023 A 
ATOM     89  C   UNL A   1      46.760  33.441  27.525  1.00  0.00     0.031 A 
ATOM     90  C   UNL A   1      47.204  32.739  29.789  1.00  0.00     0.131 A 
ATOM     91  C   UNL A   1      47.400  34.657  27.803  1.00  0.00     0.055 A 
ATOM     92  C   UNL A   1      47.789  33.973  30.078  1.00  0.00     0.041 A 
ATOM     93  F   UNL A   1      47.155  31.826  30.772  1.00  0.00    -0.206 F 
ATOM     94  C   UNL A   1      47.902  34.934  29.078  1.00  0.00     0.022 A 
BRANCH  91  95
ATOM     95  S   UNL A   1      47.649  35.842  26.453  1.00  0.00     0.124 S 
ATOM     96  O   UNL A   1      48.709  36.691  26.986  1.00  0.00    -0.237 OA
ATOM     97  O   UNL A   1      48.027  34.974  25.341  1.00  0.00    -0.237 OA
ATOM     98  O   UNL A   1      46.345  36.488  26.317  1.00  0.00    -0.744 OA
ENDBRANCH  91  95
ENDBRANCH  65  88
ENDBRANCH  39  40
ENDBRANCH  31  34
ENDBRANCH  29  30
ENDBRANCH   1  29
TORSDOF 17
ENDMDL
MODEL 2
REMARK VINA RESULT:     -12.6      5.859     11.563
REMARK SMILES CCc1ccc(C(=O)NCCCNC(=O)c2ccc(-c3c4nc(c(-c5cc(S(=O)(=O)[O-])ccc5F)c5ccc([nH]5)c(-c5cc(S(=O)(=O)[O-])ccc5F)c5nc(c(-c6cc(S(=O)(=O)[O-])ccc6F)c6ccc3[nH]6)C=C5)C=C4)cc2)cc1S(=O)(=O)Nc1ccc(F)c(F)c1F
REMARK SMILES IDX 11 1 10 2 9 3 7 4 8 5 6 7 3 8 4 9 80 10 5 11 79 12 2 13 1 14
REMARK SMILES IDX 81 15 82 16 83 17 84 18 85 20 86 21 92 22 87 23 90 24 93 25
REMARK SMILES IDX 88 26 91 27 89 28 12 29 13 30 14 31 15 33 16 34 17 35 78 36
REMARK SMILES IDX 18 37 77 38 19 39 20 40 21 41 71 42 22 43 76 44 70 45 72 46
REMARK SMILES IDX 23 47 75 48 69 49 68 50 24 52 56 53 36 54 55 55 37 56 40 57
REMARK SMILES IDX 54 58 73 59 38 60 39 61 53 63 74 64 41 65 25 66 26 67 34 68
REMARK SMILES IDX 27 69 33 70 35 71 32 72 28 73 29 74 30 75 31 76 57 77 58 78
REMARK SMILES IDX 66 79 59 80 65 81 67 82 64 83 60 84 61 85 62 86 63 87 42 88
REMARK SMILES IDX 43 89 51 90 44 91 50 92 52 93 49 94 45 95 46 96 47 97 48 98
REMARK H PARENT 9 6 84 19 13 32 72 51 40 62
REMARK Flexibility Score: inf
ROOT
ATOM      1  C   UNL A   1      31.590  32.301  26.805  1.00  0.00     0.042 C 
ENDROOT
BRANCH   1   2
ATOM      2  C   UNL A   1      31.662  30.808  26.493  1.00  0.00     0.118 C 
BRANCH   2   3
ATOM      3  N   UNL A   1      32.826  30.192  27.096  1.00  0.00    -0.352 N 
ATOM      4  C   UNL A   1      33.549  29.062  26.860  1.00  0.00     0.251 C 
ATOM      5  O   UNL A   1      34.526  28.891  27.597  1.00  0.00    -0.269 OA
ATOM      6  H   UNL A   1      33.175  30.712  27.855  1.00  0.00     0.163 HD
BRANCH   4   7
ATOM      7  C   UNL A   1      33.248  28.022  25.832  1.00  0.00     0.041 A 
ATOM      8  C   UNL A   1      33.300  25.909  23.959  1.00  0.00    -0.028 A 
ATOM      9  C   UNL A   1      34.014  27.095  23.727  1.00  0.00     0.006 A 
ATOM     10  C   UNL A   1      32.319  25.925  24.958  1.00  0.00     0.091 A 
ATOM     11  C   UNL A   1      33.976  28.139  24.642  1.00  0.00     0.014 A 
ATOM     12  C   UNL A   1      32.380  26.935  25.948  1.00  0.00     0.036 A 
BRANCH   8  13
ATOM     13  C   UNL A   1      33.890  24.689  23.304  1.00  0.00     0.033 C 
ATOM     14  C   UNL A   1      34.827  23.935  24.241  1.00  0.00     0.009 C 
ENDBRANCH   8  13
BRANCH  10  15
ATOM     15  S   UNL A   1      30.842  24.902  25.065  1.00  0.00     0.262 S 
ATOM     16  O   UNL A   1      31.243  23.591  24.591  1.00  0.00    -0.201 OA
ATOM     17  O   UNL A   1      30.347  25.068  26.416  1.00  0.00    -0.201 OA
BRANCH  15  18
ATOM     18  N   UNL A   1      29.655  25.371  24.002  1.00  0.00    -0.277 N 
ATOM     19  H   UNL A   1      29.123  24.647  23.599  1.00  0.00     0.180 HD
BRANCH  18  20
ATOM     20  C   UNL A   1      29.316  26.692  23.604  1.00  0.00     0.088 A 
ATOM     21  C   UNL A   1      30.185  27.559  22.937  1.00  0.00     0.033 A 
ATOM     22  C   UNL A   1      27.993  27.102  23.838  1.00  0.00     0.185 A 
ATOM     23  C   UNL A   1      29.698  28.761  22.408  1.00  0.00     0.045 A 
ATOM     24  C   UNL A   1      27.505  28.280  23.292  1.00  0.00     0.196 A 
ATOM     25  F   UNL A   1      27.155  26.278  24.490  1.00  0.00    -0.201 F 
ATOM     26  C   UNL A   1      28.355  29.097  22.562  1.00  0.00     0.162 A 
ATOM     27  F   UNL A   1      26.205  28.589  23.410  1.00  0.00    -0.200 F 
ATOM     28  F   UNL A   1      27.884  30.206  21.977  1.00  0.00    -0.204 F 
ENDBRANCH  18  20
ENDBRANCH  15  18
ENDBRANCH  10  15
ENDBRANCH   4   7
ENDBRANCH   2   3
ENDBRANCH   1   2
BRANCH   1  29
ATOM     29  C   UNL A   1      32.932  32.886  27.253  1.00  0.00     0.118 C 
BRANCH  29  30
ATOM     30  N   UNL A   1      32.780  34.240  27.770  1.00  0.00    -0.352 N 
ATOM     31  C   UNL A   1      33.299  34.811  28.903  1.00  0.00     0.251 C 
ATOM     32  H   UNL A   1      32.220  34.834  27.222  1.00  0.00     0.163 HD
ATOM     33  O   UNL A   1      32.810  35.854  29.327  1.00  0.00    -0.269 OA
BRANCH  31  34
ATOM     34  C   UNL A   1      34.444  34.186  29.596  1.00  0.00     0.039 A 
ATOM     35  C   UNL A   1      34.199  33.312  30.658  1.00  0.00     0.014 A 
ATOM     36  C   UNL A   1      35.755  34.520  29.244  1.00  0.00     0.014 A 
ATOM     37  C   UNL A   1      35.271  32.745  31.349  1.00  0.00     0.010 A 
ATOM     38  C   UNL A   1      36.822  33.910  29.896  1.00  0.00     0.010 A 
ATOM     39  C   UNL A   1      36.590  33.029  30.963  1.00  0.00    -0.014 A 
BRANCH  39  40
ATOM     40  C   UNL A   1      37.744  32.440  31.685  1.00  0.00     0.031 A 
ATOM     41  C   UNL A   1      38.542  31.337  31.048  1.00  0.00     0.074 A 
ATOM     42  C   UNL A   1      38.028  32.858  32.933  1.00  0.00     0.049 A 
ATOM     43  N   UNL A   1      39.532  30.638  31.539  1.00  0.00    -0.248 NA
ATOM     44  C   UNL A   1      38.147  30.948  29.686  1.00  0.00     0.031 C 
ATOM     45  C   UNL A   1      37.300  33.899  33.661  1.00  0.00     0.029 A 
ATOM     46  N   UNL A   1      38.999  32.453  33.812  1.00  0.00    -0.354 N 
ATOM     47  C   UNL A   1      39.870  29.714  30.554  1.00  0.00     0.074 A 
ATOM     48  C   UNL A   1      38.934  29.906  29.466  1.00  0.00     0.031 C 
ATOM     49  C   UNL A   1      37.867  34.069  34.866  1.00  0.00     0.029 A 
ATOM     50  C   UNL A   1      38.968  33.122  35.013  1.00  0.00     0.049 A 
ATOM     51  H   UNL A   1      39.655  31.749  33.605  1.00  0.00     0.167 HD
ATOM     52  C   UNL A   1      40.879  28.808  30.550  1.00  0.00     0.034 A 
ATOM     53  C   UNL A   1      39.738  32.981  36.108  1.00  0.00     0.034 A 
ATOM     54  C   UNL A   1      41.807  28.644  31.644  1.00  0.00     0.049 A 
ATOM     55  C   UNL A   1      40.837  31.952  36.094  1.00  0.00     0.074 A 
ATOM     56  C   UNL A   1      42.901  27.801  31.733  1.00  0.00     0.029 A 
ATOM     57  N   UNL A   1      41.742  29.334  32.849  1.00  0.00    -0.354 N 
ATOM     58  N   UNL A   1      41.175  31.115  35.139  1.00  0.00    -0.248 NA
ATOM     59  C   UNL A   1      41.664  31.854  37.303  1.00  0.00     0.031 C 
ATOM     60  C   UNL A   1      43.460  27.939  33.010  1.00  0.00     0.029 A 
ATOM     61  C   UNL A   1      42.756  28.916  33.697  1.00  0.00     0.049 A 
ATOM     62  H   UNL A   1      41.072  30.022  33.069  1.00  0.00     0.167 HD
ATOM     63  C   UNL A   1      42.274  30.413  35.622  1.00  0.00     0.074 A 
ATOM     64  C   UNL A   1      42.546  30.932  36.949  1.00  0.00     0.031 C 
ATOM     65  C   UNL A   1      43.000  29.435  35.022  1.00  0.00     0.034 A 
BRANCH  52  66
ATOM     66  C   UNL A   1      40.999  27.915  29.337  1.00  0.00     0.023 A 
ATOM     67  C   UNL A   1      42.019  28.096  28.384  1.00  0.00     0.031 A 
ATOM     68  C   UNL A   1      40.048  26.908  29.093  1.00  0.00     0.131 A 
ATOM     69  C   UNL A   1      42.006  27.356  27.192  1.00  0.00     0.055 A 
ATOM     70  C   UNL A   1      40.093  26.112  27.945  1.00  0.00     0.041 A 
ATOM     71  F   UNL A   1      39.040  26.696  29.954  1.00  0.00    -0.206 F 
ATOM     72  C   UNL A   1      41.064  26.348  26.976  1.00  0.00     0.022 A 
BRANCH  69  73
ATOM     73  S   UNL A   1      43.128  27.854  25.856  1.00  0.00     0.124 S 
ATOM     74  O   UNL A   1      43.637  29.129  26.357  1.00  0.00    -0.237 OA
ATOM     75  O   UNL A   1      44.084  26.753  25.821  1.00  0.00    -0.237 OA
ATOM     76  O   UNL A   1      42.251  27.957  24.692  1.00  0.00    -0.744 OA
ENDBRANCH  69  73
ENDBRANCH  52  66
BRANCH  53  77
ATOM     77  C   UNL A   1      39.508  33.838  37.304  1.00  0.00     0.023 A 
ATOM     78  C   UNL A   1      38.817  33.339  38.419  1.00  0.00     0.031 A 
ATOM     79  C   UNL A   1      39.955  35.170  37.343  1.00  0.00     0.131 A 
ATOM     80  C   UNL A   1      38.559  34.178  39.514  1.00  0.00     0.055 A 
ATOM     81  C   UNL A   1      39.733  35.988  38.452  1.00  0.00     0.041 A 
ATOM     82  F   UNL A   1      40.628  35.691  36.305  1.00  0.00    -0.206 F 
ATOM     83  C   UNL A   1      39.022  35.496  39.543  1.00  0.00     0.022 A 
BRANCH  80  84
ATOM     84  S   UNL A   1      37.552  33.538  40.879  1.00  0.00     0.124 S 
ATOM     85  O   UNL A   1      38.463  32.582  41.498  1.00  0.00    -0.237 OA
ATOM     86  O   UNL A   1      37.274  34.749  41.645  1.00  0.00    -0.237 OA
ATOM     87  O   UNL A   1      36.396  32.951  40.203  1.00  0.00    -0.744 OA
ENDBRANCH  80  84
ENDBRANCH  53  77
BRANCH  65  88
ATOM     88  C   UNL A   1      44.181  28.901  35.793  1.00  0.00     0.023 A 
ATOM     89  C   UNL A   1      44.065  27.791  36.647  1.00  0.00     0.031 A 
ATOM     90  C   UNL A   1      45.435  29.530  35.688  1.00  0.00     0.131 A 
ATOM     91  C   UNL A   1      45.169  27.376  37.407  1.00  0.00     0.055 A 
ATOM     92  C   UNL A   1      46.544  29.077  36.403  1.00  0.00     0.041 A 
ATOM     93  F   UNL A   1      45.599  30.595  34.888  1.00  0.00    -0.206 F 
ATOM     94  C   UNL A   1      46.411  28.004  37.279  1.00  0.00     0.022 A 
BRANCH  91  95
ATOM     95  S   UNL A   1      44.939  26.060  38.633  1.00  0.00     0.124 S 
ATOM     96  O   UNL A   1      46.317  25.704  38.957  1.00  0.00    -0.237 OA
ATOM     97  O   UNL A   1      44.193  26.741  39.687  1.00  0.00    -0.237 OA
ATOM     98  O   UNL A   1      44.189  25.038  37.905  1.00  0.00    -0.744 OA
ENDBRANCH  91  95
ENDBRANCH  65  88
ENDBRANCH  39  40
ENDBRANCH  31  34
ENDBRANCH  29  30
ENDBRANCH   1  29
TORSDOF 17
ENDMDL
MODEL 3
REMARK VINA RESULT:     -12.5      5.897     11.655
REMARK SMILES CCc1ccc(C(=O)NCCCNC(=O)c2ccc(-c3c4nc(c(-c5cc(S(=O)(=O)[O-])ccc5F)c5ccc([nH]5)c(-c5cc(S(=O)(=O)[O-])ccc5F)c5nc(c(-c6cc(S(=O)(=O)[O-])ccc6F)c6ccc3[nH]6)C=C5)C=C4)cc2)cc1S(=O)(=O)Nc1ccc(F)c(F)c1F
REMARK SMILES IDX 11 1 10 2 9 3 7 4 8 5 6 7 3 8 4 9 80 10 5 11 79 12 2 13 1 14
REMARK SMILES IDX 81 15 82 16 83 17 84 18 85 20 86 21 92 22 87 23 90 24 93 25
REMARK SMILES IDX 88 26 91 27 89 28 12 29 13 30 14 31 15 33 16 34 17 35 78 36
REMARK SMILES IDX 18 37 77 38 19 39 20 40 21 41 71 42 22 43 76 44 70 45 72 46
REMARK SMILES IDX 23 47 75 48 69 49 68 50 24 52 56 53 36 54 55 55 37 56 40 57
REMARK SMILES IDX 54 58 73 59 38 60 39 61 53 63 74 64 41 65 25 66 26 67 34 68
REMARK SMILES IDX 27 69 33 70 35 71 32 72 28 73 29 74 30 75 31 76 57 77 58 78
REMARK SMILES IDX 66 79 59 80 65 81 67 82 64 83 60 84 61 85 62 86 63 87 42 88
REMARK SMILES IDX 43 89 51 90 44 91 50 92 52 93 49 94 45 95 46 96 47 97 48 98
REMARK H PARENT 9 6 84 19 13 32 72 51 40 62
REMARK Flexibility Score: inf
ROOT
ATOM      1  C   UNL A   1      31.386  32.261  26.637  1.00  0.00     0.042 C 
ENDROOT
BRANCH   1   2
ATOM      2  C   UNL A   1      31.487  30.832  26.108  1.00  0.00     0.118 C 
BRANCH   2   3
ATOM      3  N   UNL A   1      32.800  30.268  26.341  1.00  0.00    -0.352 N 
ATOM      4  C   UNL A   1      33.412  29.091  26.031  1.00  0.00     0.251 C 
ATOM      5  O   UNL A   1      34.589  28.991  26.390  1.00  0.00    -0.269 OA
ATOM      6  H   UNL A   1      33.388  30.878  26.842  1.00  0.00     0.163 HD
BRANCH   4   7
ATOM      7  C   UNL A   1      32.782  27.926  25.341  1.00  0.00     0.041 A 
ATOM      8  C   UNL A   1      31.045  26.010  24.209  1.00  0.00    -0.028 A 
ATOM      9  C   UNL A   1      31.112  26.188  25.599  1.00  0.00     0.006 A 
ATOM     10  C   UNL A   1      32.073  26.557  23.431  1.00  0.00     0.091 A 
ATOM     11  C   UNL A   1      31.978  27.121  26.155  1.00  0.00     0.014 A 
ATOM     12  C   UNL A   1      32.862  27.592  23.988  1.00  0.00     0.036 A 
BRANCH   8  13
ATOM     13  C   UNL A   1      29.716  25.508  23.709  1.00  0.00     0.033 C 
ATOM     14  C   UNL A   1      28.562  26.390  24.174  1.00  0.00     0.009 C 
ENDBRANCH   8  13
BRANCH  10  15
ATOM     15  S   UNL A   1      32.659  25.990  21.827  1.00  0.00     0.262 S 
ATOM     16  O   UNL A   1      31.587  26.285  20.896  1.00  0.00    -0.201 OA
ATOM     17  O   UNL A   1      33.963  26.594  21.650  1.00  0.00    -0.201 OA
BRANCH  15  18
ATOM     18  N   UNL A   1      32.822  24.339  21.746  1.00  0.00    -0.277 N 
ATOM     19  H   UNL A   1      32.521  23.913  20.912  1.00  0.00     0.180 HD
BRANCH  18  20
ATOM     20  C   UNL A   1      33.345  23.468  22.739  1.00  0.00     0.088 A 
ATOM     21  C   UNL A   1      34.606  23.611  23.325  1.00  0.00     0.033 A 
ATOM     22  C   UNL A   1      32.491  22.453  23.202  1.00  0.00     0.185 A 
ATOM     23  C   UNL A   1      34.949  22.830  24.435  1.00  0.00     0.045 A 
ATOM     24  C   UNL A   1      32.822  21.697  24.317  1.00  0.00     0.196 A 
ATOM     25  F   UNL A   1      31.283  22.302  22.634  1.00  0.00    -0.201 F 
ATOM     26  C   UNL A   1      34.043  21.900  24.942  1.00  0.00     0.162 A 
ATOM     27  F   UNL A   1      31.938  20.826  24.826  1.00  0.00    -0.200 F 
ATOM     28  F   UNL A   1      34.350  21.223  26.055  1.00  0.00    -0.204 F 
ENDBRANCH  18  20
ENDBRANCH  15  18
ENDBRANCH  10  15
ENDBRANCH   4   7
ENDBRANCH   2   3
ENDBRANCH   1   2
BRANCH   1  29
ATOM     29  C   UNL A   1      32.723  32.808  27.146  1.00  0.00     0.118 C 
BRANCH  29  30
ATOM     30  N   UNL A   1      32.593  34.178  27.625  1.00  0.00    -0.352 N 
ATOM     31  C   UNL A   1      33.144  34.780  28.726  1.00  0.00     0.251 C 
ATOM     32  H   UNL A   1      32.023  34.760  27.073  1.00  0.00     0.163 HD
ATOM     33  O   UNL A   1      32.672  35.840  29.130  1.00  0.00    -0.269 OA
BRANCH  31  34
ATOM     34  C   UNL A   1      34.301  34.168  29.410  1.00  0.00     0.039 A 
ATOM     35  C   UNL A   1      34.085  33.416  30.567  1.00  0.00     0.014 A 
ATOM     36  C   UNL A   1      35.600  34.397  28.950  1.00  0.00     0.014 A 
ATOM     37  C   UNL A   1      35.172  32.865  31.247  1.00  0.00     0.010 A 
ATOM     38  C   UNL A   1      36.679  33.801  29.595  1.00  0.00     0.010 A 
ATOM     39  C   UNL A   1      36.475  33.042  30.758  1.00  0.00    -0.014 A 
BRANCH  39  40
ATOM     40  C   UNL A   1      37.646  32.468  31.467  1.00  0.00     0.031 A 
ATOM     41  C   UNL A   1      38.412  31.332  30.847  1.00  0.00     0.074 A 
ATOM     42  C   UNL A   1      37.972  32.929  32.688  1.00  0.00     0.049 A 
ATOM     43  N   UNL A   1      39.410  30.642  31.335  1.00  0.00    -0.248 NA
ATOM     44  C   UNL A   1      37.972  30.897  29.515  1.00  0.00     0.031 C 
ATOM     45  C   UNL A   1      37.277  34.006  33.398  1.00  0.00     0.029 A 
ATOM     46  N   UNL A   1      38.965  32.548  33.552  1.00  0.00    -0.354 N 
ATOM     47  C   UNL A   1      39.708  29.678  30.376  1.00  0.00     0.074 A 
ATOM     48  C   UNL A   1      38.741  29.838  29.311  1.00  0.00     0.031 C 
ATOM     49  C   UNL A   1      37.883  34.214  34.577  1.00  0.00     0.029 A 
ATOM     50  C   UNL A   1      38.978  33.261  34.727  1.00  0.00     0.049 A 
ATOM     51  H   UNL A   1      39.608  31.829  33.352  1.00  0.00     0.167 HD
ATOM     52  C   UNL A   1      40.708  28.761  30.376  1.00  0.00     0.034 A 
ATOM     53  C   UNL A   1      39.781  33.154  35.803  1.00  0.00     0.034 A 
ATOM     54  C   UNL A   1      41.668  28.628  31.446  1.00  0.00     0.049 A 
ATOM     55  C   UNL A   1      40.869  32.113  35.794  1.00  0.00     0.074 A 
ATOM     56  C   UNL A   1      42.755  27.778  31.534  1.00  0.00     0.029 A 
ATOM     57  N   UNL A   1      41.646  29.364  32.625  1.00  0.00    -0.354 N 
ATOM     58  N   UNL A   1      41.168  31.237  34.862  1.00  0.00    -0.248 NA
ATOM     59  C   UNL A   1      41.732  32.052  36.980  1.00  0.00     0.031 C 
ATOM     60  C   UNL A   1      43.355  27.957  32.787  1.00  0.00     0.029 A 
ATOM     61  C   UNL A   1      42.683  28.968  33.457  1.00  0.00     0.049 A 
ATOM     62  H   UNL A   1      40.991  30.067  32.839  1.00  0.00     0.167 HD
ATOM     63  C   UNL A   1      42.275  30.542  35.337  1.00  0.00     0.074 A 
ATOM     64  C   UNL A   1      42.593  31.107  36.634  1.00  0.00     0.031 C 
ATOM     65  C   UNL A   1      42.972  29.533  34.754  1.00  0.00     0.034 A 
BRANCH  52  66
ATOM     66  C   UNL A   1      40.782  27.821  29.194  1.00  0.00     0.023 A 
ATOM     67  C   UNL A   1      41.724  28.001  28.165  1.00  0.00     0.031 A 
ATOM     68  C   UNL A   1      39.860  26.768  29.059  1.00  0.00     0.131 A 
ATOM     69  C   UNL A   1      41.660  27.210  27.008  1.00  0.00     0.055 A 
ATOM     70  C   UNL A   1      39.859  25.926  27.945  1.00  0.00     0.041 A 
ATOM     71  F   UNL A   1      38.923  26.554  29.998  1.00  0.00    -0.206 F 
ATOM     72  C   UNL A   1      40.750  26.157  26.901  1.00  0.00     0.022 A 
BRANCH  69  73
ATOM     73  S   UNL A   1      42.666  27.693  25.576  1.00  0.00     0.124 S 
ATOM     74  O   UNL A   1      41.940  28.864  25.088  1.00  0.00    -0.237 OA
ATOM     75  O   UNL A   1      43.968  27.952  26.178  1.00  0.00    -0.237 OA
ATOM     76  O   UNL A   1      42.602  26.522  24.703  1.00  0.00    -0.744 OA
ENDBRANCH  69  73
ENDBRANCH  52  66
BRANCH  53  77
ATOM     77  C   UNL A   1      39.596  34.058  36.971  1.00  0.00     0.023 A 
ATOM     78  C   UNL A   1      39.012  33.585  38.156  1.00  0.00     0.031 A 
ATOM     79  C   UNL A   1      39.980  35.409  36.916  1.00  0.00     0.131 A 
ATOM     80  C   UNL A   1      38.792  34.465  39.227  1.00  0.00     0.055 A 
ATOM     81  C   UNL A   1      39.800  36.270  37.999  1.00  0.00     0.041 A 
ATOM     82  F   UNL A   1      40.553  35.907  35.808  1.00  0.00    -0.206 F 
ATOM     83  C   UNL A   1      39.193  35.801  39.161  1.00  0.00     0.022 A 
BRANCH  80  84
ATOM     84  S   UNL A   1      37.917  33.849  40.691  1.00  0.00     0.124 S 
ATOM     85  O   UNL A   1      36.809  33.115  40.089  1.00  0.00    -0.237 OA
ATOM     86  O   UNL A   1      38.944  33.041  41.340  1.00  0.00    -0.237 OA
ATOM     87  O   UNL A   1      37.544  35.070  41.403  1.00  0.00    -0.744 OA
ENDBRANCH  80  84
ENDBRANCH  53  77
BRANCH  65  88
ATOM     88  C   UNL A   1      44.171  29.016  35.508  1.00  0.00     0.023 A 
ATOM     89  C   UNL A   1      44.058  27.989  36.461  1.00  0.00     0.031 A 
ATOM     90  C   UNL A   1      45.441  29.577  35.284  1.00  0.00     0.131 A 
ATOM     91  C   UNL A   1      45.184  27.593  37.197  1.00  0.00     0.055 A 
ATOM     92  C   UNL A   1      46.569  29.139  35.980  1.00  0.00     0.041 A 
ATOM     93  F   UNL A   1      45.604  30.562  34.386  1.00  0.00    -0.206 F 
ATOM     94  C   UNL A   1      46.441  28.152  36.952  1.00  0.00     0.022 A 
BRANCH  91  95
ATOM     95  S   UNL A   1      44.969  26.399  38.544  1.00  0.00     0.124 S 
ATOM     96  O   UNL A   1      45.778  26.990  39.606  1.00  0.00    -0.237 OA
ATOM     97  O   UNL A   1      43.525  26.422  38.757  1.00  0.00    -0.237 OA
ATOM     98  O   UNL A   1      45.492  25.153  37.987  1.00  0.00    -0.744 OA
ENDBRANCH  91  95
ENDBRANCH  65  88
ENDBRANCH  39  40
ENDBRANCH  31  34
ENDBRANCH  29  30
ENDBRANCH   1  29
TORSDOF 17
ENDMDL
