MODEL 1
REMARK VINA RESULT:     -11.4      0.000      0.000
REMARK SMILES O=C(CCn1ccnc1)N[C@H]1C=C[C@H](C(=O)NCCCNC(=O)c2ccc(-c3c4nc(c(-c5cc(S(=O)(=O)[O-])ccc5F)c5ccc([nH]5)c(-c5cc(S(=O)(=O)[O-])ccc5F)c5nc(c(-c6cc(S(=O)(=O)[O-])ccc6F)c6ccc3[nH]6)C=C5)C=C4)cc2)C1
REMARK SMILES IDX 18 1 17 2 15 3 16 4 14 6 11 7 12 8 87 9 13 10 10 11 1 12
REMARK SMILES IDX 2 13 3 15 4 16 5 17 6 18 9 19 7 20 8 21 19 22 20 23 21 24
REMARK SMILES IDX 22 25 23 27 24 28 25 29 86 30 26 31 85 32 27 33 28 34 29 35
REMARK SMILES IDX 79 36 30 37 84 38 78 39 80 40 31 41 83 42 77 43 76 44 32 46
REMARK SMILES IDX 64 47 44 48 63 49 45 50 48 51 62 52 81 53 46 54 47 55 61 57
REMARK SMILES IDX 82 58 49 59 33 60 34 61 42 62 35 63 41 64 43 65 40 66 36 67
REMARK SMILES IDX 37 68 38 69 39 70 65 71 66 72 74 73 67 74 73 75 75 76 72 77
REMARK SMILES IDX 68 78 69 79 70 80 71 81 50 82 51 83 59 84 52 85 58 86 60 87
REMARK SMILES IDX 57 88 53 89 54 90 55 91 56 92
REMARK H PARENT 17 5 10 14 21 26 80 45 48 56
REMARK Flexibility Score: inf
ROOT
ATOM      1  C   UNL A   1      36.806  21.462  24.706  1.00  0.00     0.117 C 
ENDROOT
BRANCH   1   2
ATOM      2  N   UNL A   1      35.731  21.601  25.673  1.00  0.00    -0.356 N 
ATOM      3  C   UNL A   1      34.827  22.592  25.900  1.00  0.00     0.227 C 
ATOM      4  O   UNL A   1      33.955  22.368  26.748  1.00  0.00    -0.274 OA
ATOM      5  H   UNL A   1      35.639  20.831  26.280  1.00  0.00     0.163 HD
BRANCH   3   6
ATOM      6  C   UNL A   1      34.780  23.911  25.117  1.00  0.00     0.103 C 
ATOM      7  C   UNL A   1      32.673  25.158  24.932  1.00  0.00     0.106 C 
ATOM      8  C   UNL A   1      33.074  24.545  23.637  1.00  0.00    -0.006 C 
ATOM      9  C   UNL A   1      33.925  24.983  25.805  1.00  0.00     0.047 C 
ATOM     10  C   UNL A   1      34.223  23.868  23.734  1.00  0.00    -0.016 C 
BRANCH   7  11
ATOM     11  N   UNL A   1      32.265  26.547  24.867  1.00  0.00    -0.350 N 
ATOM     12  O   UNL A   1      30.042  26.422  24.252  1.00  0.00    -0.275 OA
ATOM     13  C   UNL A   1      31.042  27.071  24.540  1.00  0.00     0.222 C 
ATOM     14  H   UNL A   1      32.963  27.205  25.089  1.00  0.00     0.164 HD
BRANCH  13  15
ATOM     15  C   UNL A   1      30.988  28.585  24.502  1.00  0.00     0.122 C 
BRANCH  15  16
ATOM     16  C   UNL A   1      30.491  29.152  23.176  1.00  0.00     0.133 C 
BRANCH  16  17
ATOM     17  N   UNL A   1      29.266  29.927  23.219  1.00  0.00    -0.337 N 
ATOM     18  C   UNL A   1      29.058  31.163  23.767  1.00  0.00     0.107 A 
ATOM     19  C   UNL A   1      28.067  29.502  22.714  1.00  0.00     0.199 A 
ATOM     20  C   UNL A   1      27.702  31.375  23.669  1.00  0.00     0.130 A 
ATOM     21  N   UNL A   1      27.100  30.345  22.998  1.00  0.00    -0.245 NA
ENDBRANCH  16  17
ENDBRANCH  15  16
ENDBRANCH  13  15
ENDBRANCH   7  11
ENDBRANCH   3   6
ENDBRANCH   1   2
BRANCH   1  22
ATOM     22  C   UNL A   1      37.718  20.259  24.956  1.00  0.00     0.042 C 
BRANCH  22  23
ATOM     23  C   UNL A   1      38.940  20.627  25.779  1.00  0.00     0.118 C 
BRANCH  23  24
ATOM     24  N   UNL A   1      39.943  19.560  25.784  1.00  0.00    -0.352 N 
ATOM     25  C   UNL A   1      41.313  19.657  25.958  1.00  0.00     0.251 C 
ATOM     26  H   UNL A   1      39.596  18.649  25.645  1.00  0.00     0.163 HD
ATOM     27  O   UNL A   1      42.046  18.753  25.598  1.00  0.00    -0.269 OA
BRANCH  25  28
ATOM     28  C   UNL A   1      41.856  20.887  26.566  1.00  0.00     0.039 A 
ATOM     29  C   UNL A   1      42.144  22.010  25.789  1.00  0.00     0.014 A 
ATOM     30  C   UNL A   1      42.000  20.922  27.950  1.00  0.00     0.014 A 
ATOM     31  C   UNL A   1      42.466  23.202  26.434  1.00  0.00     0.010 A 
ATOM     32  C   UNL A   1      42.148  22.131  28.584  1.00  0.00     0.010 A 
ATOM     33  C   UNL A   1      42.426  23.269  27.838  1.00  0.00    -0.014 A 
BRANCH  33  34
ATOM     34  C   UNL A   1      42.518  24.556  28.530  1.00  0.00     0.031 A 
ATOM     35  C   UNL A   1      41.343  25.443  28.315  1.00  0.00     0.074 A 
ATOM     36  C   UNL A   1      43.460  24.860  29.451  1.00  0.00     0.049 A 
ATOM     37  N   UNL A   1      41.297  26.515  27.598  1.00  0.00    -0.248 NA
ATOM     38  C   UNL A   1      40.025  25.000  28.798  1.00  0.00     0.031 C 
ATOM     39  C   UNL A   1      44.518  23.997  29.987  1.00  0.00     0.029 A 
ATOM     40  N   UNL A   1      43.606  25.994  30.192  1.00  0.00    -0.354 N 
ATOM     41  C   UNL A   1      40.018  27.033  27.769  1.00  0.00     0.074 A 
ATOM     42  C   UNL A   1      39.233  25.955  28.306  1.00  0.00     0.031 C 
ATOM     43  C   UNL A   1      45.030  24.543  31.111  1.00  0.00     0.029 A 
ATOM     44  C   UNL A   1      44.473  25.872  31.278  1.00  0.00     0.049 A 
ATOM     45  H   UNL A   1      43.137  26.833  29.977  1.00  0.00     0.167 HD
ATOM     46  C   UNL A   1      39.800  28.377  27.713  1.00  0.00     0.034 A 
ATOM     47  C   UNL A   1      44.721  26.790  32.251  1.00  0.00     0.034 A 
ATOM     48  C   UNL A   1      40.925  29.053  27.097  1.00  0.00     0.049 A 
ATOM     49  C   UNL A   1      44.372  28.112  31.678  1.00  0.00     0.074 A 
ATOM     50  C   UNL A   1      41.583  28.929  25.888  1.00  0.00     0.029 A 
ATOM     51  N   UNL A   1      41.798  29.738  27.915  1.00  0.00    -0.354 N 
ATOM     52  N   UNL A   1      45.011  28.643  30.671  1.00  0.00    -0.248 NA
ATOM     53  C   UNL A   1      43.023  28.613  31.887  1.00  0.00     0.031 C 
ATOM     54  C   UNL A   1      42.969  29.059  26.211  1.00  0.00     0.029 A 
ATOM     55  C   UNL A   1      43.073  29.359  27.570  1.00  0.00     0.049 A 
ATOM     56  H   UNL A   1      41.553  30.381  28.619  1.00  0.00     0.167 HD
ATOM     57  C   UNL A   1      44.020  29.179  29.863  1.00  0.00     0.074 A 
ATOM     58  C   UNL A   1      42.830  29.226  30.714  1.00  0.00     0.031 C 
ATOM     59  C   UNL A   1      44.178  29.266  28.509  1.00  0.00     0.034 A 
BRANCH  46  60
ATOM     60  C   UNL A   1      38.781  29.123  28.554  1.00  0.00     0.023 A 
ATOM     61  C   UNL A   1      39.028  29.197  29.939  1.00  0.00     0.031 A 
ATOM     62  C   UNL A   1      37.479  29.494  28.148  1.00  0.00     0.131 A 
ATOM     63  C   UNL A   1      37.995  29.490  30.845  1.00  0.00     0.055 A 
ATOM     64  C   UNL A   1      36.472  29.854  29.050  1.00  0.00     0.041 A 
ATOM     65  F   UNL A   1      37.068  29.446  26.877  1.00  0.00    -0.206 F 
ATOM     66  C   UNL A   1      36.715  29.817  30.410  1.00  0.00     0.022 A 
BRANCH  63  67
ATOM     67  S   UNL A   1      38.311  29.244  32.610  1.00  0.00     0.124 S 
ATOM     68  O   UNL A   1      38.405  30.622  33.081  1.00  0.00    -0.237 OA
ATOM     69  O   UNL A   1      37.129  28.498  33.026  1.00  0.00    -0.237 OA
ATOM     70  O   UNL A   1      39.563  28.491  32.627  1.00  0.00    -0.744 OA
ENDBRANCH  63  67
ENDBRANCH  46  60
BRANCH  47  71
ATOM     71  C   UNL A   1      44.939  26.551  33.706  1.00  0.00     0.023 A 
ATOM     72  C   UNL A   1      43.909  26.670  34.668  1.00  0.00     0.031 A 
ATOM     73  C   UNL A   1      46.136  25.936  34.138  1.00  0.00     0.131 A 
ATOM     74  C   UNL A   1      44.098  26.176  35.982  1.00  0.00     0.055 A 
ATOM     75  C   UNL A   1      46.315  25.450  35.436  1.00  0.00     0.041 A 
ATOM     76  F   UNL A   1      47.145  25.703  33.284  1.00  0.00    -0.206 F 
ATOM     77  C   UNL A   1      45.291  25.558  36.361  1.00  0.00     0.022 A 
BRANCH  74  78
ATOM     78  S   UNL A   1      42.746  26.242  37.207  1.00  0.00     0.124 S 
ATOM     79  O   UNL A   1      42.054  24.980  36.975  1.00  0.00    -0.237 OA
ATOM     80  O   UNL A   1      43.468  26.364  38.469  1.00  0.00    -0.237 OA
ATOM     81  O   UNL A   1      41.993  27.436  36.821  1.00  0.00    -0.744 OA
ENDBRANCH  74  78
ENDBRANCH  47  71
BRANCH  59  82
ATOM     82  C   UNL A   1      45.567  29.062  27.926  1.00  0.00     0.023 A 
ATOM     83  C   UNL A   1      46.122  27.818  27.541  1.00  0.00     0.031 A 
ATOM     84  C   UNL A   1      46.324  30.218  27.658  1.00  0.00     0.131 A 
ATOM     85  C   UNL A   1      47.392  27.769  26.928  1.00  0.00     0.055 A 
ATOM     86  C   UNL A   1      47.568  30.167  27.031  1.00  0.00     0.041 A 
ATOM     87  F   UNL A   1      45.847  31.432  27.978  1.00  0.00    -0.206 F 
ATOM     88  C   UNL A   1      48.111  28.941  26.670  1.00  0.00     0.022 A 
BRANCH  85  89
ATOM     89  S   UNL A   1      48.156  26.175  26.476  1.00  0.00     0.124 S 
ATOM     90  O   UNL A   1      47.603  25.240  27.448  1.00  0.00    -0.237 OA
ATOM     91  O   UNL A   1      47.719  25.994  25.094  1.00  0.00    -0.237 OA
ATOM     92  O   UNL A   1      49.591  26.431  26.628  1.00  0.00    -0.744 OA
ENDBRANCH  85  89
ENDBRANCH  59  82
ENDBRANCH  33  34
ENDBRANCH  25  28
ENDBRANCH  23  24
ENDBRANCH  22  23
ENDBRANCH   1  22
TORSDOF 17
ENDMDL
MODEL 2
REMARK VINA RESULT:     -11.3      3.357      8.798
REMARK SMILES O=C(CCn1ccnc1)N[C@H]1C=C[C@H](C(=O)NCCCNC(=O)c2ccc(-c3c4nc(c(-c5cc(S(=O)(=O)[O-])ccc5F)c5ccc([nH]5)c(-c5cc(S(=O)(=O)[O-])ccc5F)c5nc(c(-c6cc(S(=O)(=O)[O-])ccc6F)c6ccc3[nH]6)C=C5)C=C4)cc2)C1
REMARK SMILES IDX 18 1 17 2 15 3 16 4 14 6 11 7 12 8 87 9 13 10 10 11 1 12
REMARK SMILES IDX 2 13 3 15 4 16 5 17 6 18 9 19 7 20 8 21 19 22 20 23 21 24
REMARK SMILES IDX 22 25 23 27 24 28 25 29 86 30 26 31 85 32 27 33 28 34 29 35
REMARK SMILES IDX 79 36 30 37 84 38 78 39 80 40 31 41 83 42 77 43 76 44 32 46
REMARK SMILES IDX 64 47 44 48 63 49 45 50 48 51 62 52 81 53 46 54 47 55 61 57
REMARK SMILES IDX 82 58 49 59 33 60 34 61 42 62 35 63 41 64 43 65 40 66 36 67
REMARK SMILES IDX 37 68 38 69 39 70 65 71 66 72 74 73 67 74 73 75 75 76 72 77
REMARK SMILES IDX 68 78 69 79 70 80 71 81 50 82 51 83 59 84 52 85 58 86 60 87
REMARK SMILES IDX 57 88 53 89 54 90 55 91 56 92
REMARK H PARENT 17 5 10 14 21 26 80 45 48 56
REMARK Flexibility Score: inf
ROOT
ATOM      1  C   UNL A   1      33.166  30.513  27.047  1.00  0.00     0.117 C 
ENDROOT
BRANCH   1   2
ATOM      2  N   UNL A   1      33.196  30.018  25.682  1.00  0.00    -0.356 N 
ATOM      3  C   UNL A   1      33.172  28.760  25.164  1.00  0.00     0.227 C 
ATOM      4  O   UNL A   1      33.107  28.665  23.933  1.00  0.00    -0.274 OA
ATOM      5  H   UNL A   1      33.244  30.728  25.002  1.00  0.00     0.163 HD
BRANCH   3   6
ATOM      6  C   UNL A   1      33.135  27.481  26.011  1.00  0.00     0.103 C 
ATOM      7  C   UNL A   1      32.247  25.399  25.057  1.00  0.00     0.106 C 
ATOM      8  C   UNL A   1      31.345  25.967  26.096  1.00  0.00    -0.006 C 
ATOM      9  C   UNL A   1      33.530  26.229  25.217  1.00  0.00     0.047 C 
ATOM     10  C   UNL A   1      31.828  27.099  26.620  1.00  0.00    -0.016 C 
BRANCH   7  11
ATOM     11  N   UNL A   1      32.518  23.981  25.172  1.00  0.00    -0.350 N 
ATOM     12  O   UNL A   1      32.035  23.522  27.384  1.00  0.00    -0.275 OA
ATOM     13  C   UNL A   1      32.411  23.169  26.271  1.00  0.00     0.222 C 
ATOM     14  H   UNL A   1      32.821  23.539  24.346  1.00  0.00     0.164 HD
BRANCH  13  15
ATOM     15  C   UNL A   1      32.849  21.736  26.049  1.00  0.00     0.122 C 
BRANCH  15  16
ATOM     16  C   UNL A   1      34.158  21.376  26.743  1.00  0.00     0.133 C 
BRANCH  16  17
ATOM     17  N   UNL A   1      35.379  21.802  26.085  1.00  0.00    -0.337 N 
ATOM     18  C   UNL A   1      36.247  21.058  25.334  1.00  0.00     0.107 A 
ATOM     19  C   UNL A   1      35.883  23.074  26.144  1.00  0.00     0.199 A 
ATOM     20  C   UNL A   1      37.305  21.898  25.072  1.00  0.00     0.130 A 
ATOM     21  N   UNL A   1      37.059  23.151  25.564  1.00  0.00    -0.245 NA
ENDBRANCH  16  17
ENDBRANCH  15  16
ENDBRANCH  13  15
ENDBRANCH   7  11
ENDBRANCH   3   6
ENDBRANCH   1   2
BRANCH   1  22
ATOM     22  C   UNL A   1      34.489  31.119  27.520  1.00  0.00     0.042 C 
BRANCH  22  23
ATOM     23  C   UNL A   1      35.426  30.071  28.096  1.00  0.00     0.118 C 
BRANCH  23  24
ATOM     24  N   UNL A   1      35.627  30.243  29.537  1.00  0.00    -0.352 N 
ATOM     25  C   UNL A   1      36.549  29.627  30.364  1.00  0.00     0.251 C 
ATOM     26  H   UNL A   1      35.023  30.885  29.976  1.00  0.00     0.163 HD
ATOM     27  O   UNL A   1      36.377  29.601  31.570  1.00  0.00    -0.269 OA
BRANCH  25  28
ATOM     28  C   UNL A   1      37.726  28.986  29.746  1.00  0.00     0.039 A 
ATOM     29  C   UNL A   1      38.324  29.524  28.605  1.00  0.00     0.014 A 
ATOM     30  C   UNL A   1      38.271  27.873  30.378  1.00  0.00     0.014 A 
ATOM     31  C   UNL A   1      39.541  28.997  28.178  1.00  0.00     0.010 A 
ATOM     32  C   UNL A   1      39.545  27.471  30.061  1.00  0.00     0.010 A 
ATOM     33  C   UNL A   1      40.171  27.994  28.936  1.00  0.00    -0.014 A 
BRANCH  33  34
ATOM     34  C   UNL A   1      41.551  27.597  28.653  1.00  0.00     0.031 A 
ATOM     35  C   UNL A   1      41.669  26.331  27.880  1.00  0.00     0.074 A 
ATOM     36  C   UNL A   1      42.630  28.382  28.870  1.00  0.00     0.049 A 
ATOM     37  N   UNL A   1      42.066  25.184  28.319  1.00  0.00    -0.248 NA
ATOM     38  C   UNL A   1      41.116  26.280  26.517  1.00  0.00     0.031 C 
ATOM     39  C   UNL A   1      42.663  29.765  29.358  1.00  0.00     0.029 A 
ATOM     40  N   UNL A   1      43.942  28.139  28.593  1.00  0.00    -0.354 N 
ATOM     41  C   UNL A   1      42.078  24.338  27.217  1.00  0.00     0.074 A 
ATOM     42  C   UNL A   1      41.273  24.989  26.219  1.00  0.00     0.031 C 
ATOM     43  C   UNL A   1      43.877  30.307  29.119  1.00  0.00     0.029 A 
ATOM     44  C   UNL A   1      44.763  29.266  28.632  1.00  0.00     0.049 A 
ATOM     45  H   UNL A   1      44.283  27.240  28.384  1.00  0.00     0.167 HD
ATOM     46  C   UNL A   1      42.978  23.317  27.134  1.00  0.00     0.034 A 
ATOM     47  C   UNL A   1      46.077  29.350  28.289  1.00  0.00     0.034 A 
ATOM     48  C   UNL A   1      43.563  23.044  28.433  1.00  0.00     0.049 A 
ATOM     49  C   UNL A   1      46.629  27.979  28.411  1.00  0.00     0.074 A 
ATOM     50  C   UNL A   1      43.050  22.730  29.677  1.00  0.00     0.029 A 
ATOM     51  N   UNL A   1      44.847  23.487  28.672  1.00  0.00    -0.354 N 
ATOM     52  N   UNL A   1      46.712  27.343  29.548  1.00  0.00    -0.248 NA
ATOM     53  C   UNL A   1      46.625  27.133  27.229  1.00  0.00     0.031 C 
ATOM     54  C   UNL A   1      43.834  23.490  30.599  1.00  0.00     0.029 A 
ATOM     55  C   UNL A   1      44.842  24.138  29.883  1.00  0.00     0.049 A 
ATOM     56  H   UNL A   1      45.626  23.360  28.084  1.00  0.00     0.167 HD
ATOM     57  C   UNL A   1      46.309  26.048  29.261  1.00  0.00     0.074 A 
ATOM     58  C   UNL A   1      46.373  25.951  27.802  1.00  0.00     0.031 C 
ATOM     59  C   UNL A   1      45.692  25.273  30.201  1.00  0.00     0.034 A 
BRANCH  46  60
ATOM     60  C   UNL A   1      43.625  22.837  25.849  1.00  0.00     0.023 A 
ATOM     61  C   UNL A   1      43.732  21.444  25.669  1.00  0.00     0.031 A 
ATOM     62  C   UNL A   1      44.388  23.626  24.957  1.00  0.00     0.131 A 
ATOM     63  C   UNL A   1      44.645  20.899  24.750  1.00  0.00     0.055 A 
ATOM     64  C   UNL A   1      45.242  23.078  23.995  1.00  0.00     0.041 A 
ATOM     65  F   UNL A   1      44.428  24.961  25.012  1.00  0.00    -0.206 F 
ATOM     66  C   UNL A   1      45.405  21.707  23.911  1.00  0.00     0.022 A 
BRANCH  63  67
ATOM     67  S   UNL A   1      44.959  19.118  24.812  1.00  0.00     0.124 S 
ATOM     68  O   UNL A   1      45.074  18.795  23.393  1.00  0.00    -0.237 OA
ATOM     69  O   UNL A   1      46.192  19.057  25.590  1.00  0.00    -0.237 OA
ATOM     70  O   UNL A   1      43.772  18.589  25.480  1.00  0.00    -0.744 OA
ENDBRANCH  63  67
ENDBRANCH  46  60
BRANCH  47  71
ATOM     71  C   UNL A   1      46.773  30.462  27.583  1.00  0.00     0.023 A 
ATOM     72  C   UNL A   1      46.090  31.568  27.027  1.00  0.00     0.031 A 
ATOM     73  C   UNL A   1      48.179  30.574  27.678  1.00  0.00     0.131 A 
ATOM     74  C   UNL A   1      46.807  32.716  26.609  1.00  0.00     0.055 A 
ATOM     75  C   UNL A   1      48.881  31.710  27.265  1.00  0.00     0.041 A 
ATOM     76  F   UNL A   1      48.915  29.615  28.262  1.00  0.00    -0.206 F 
ATOM     77  C   UNL A   1      48.195  32.792  26.739  1.00  0.00     0.022 A 
BRANCH  74  78
ATOM     78  S   UNL A   1      45.930  34.185  25.973  1.00  0.00     0.124 S 
ATOM     79  O   UNL A   1      45.864  35.042  27.151  1.00  0.00    -0.237 OA
ATOM     80  O   UNL A   1      46.802  34.631  24.893  1.00  0.00    -0.237 OA
ATOM     81  O   UNL A   1      44.641  33.649  25.532  1.00  0.00    -0.744 OA
ENDBRANCH  74  78
ENDBRANCH  47  71
BRANCH  59  82
ATOM     82  C   UNL A   1      45.730  25.724  31.652  1.00  0.00     0.023 A 
ATOM     83  C   UNL A   1      46.813  25.535  32.543  1.00  0.00     0.031 A 
ATOM     84  C   UNL A   1      44.635  26.478  32.116  1.00  0.00     0.131 A 
ATOM     85  C   UNL A   1      46.763  26.079  33.844  1.00  0.00     0.055 A 
ATOM     86  C   UNL A   1      44.599  27.034  33.394  1.00  0.00     0.041 A 
ATOM     87  F   UNL A   1      43.583  26.713  31.315  1.00  0.00    -0.206 F 
ATOM     88  C   UNL A   1      45.660  26.830  34.267  1.00  0.00     0.022 A 
BRANCH  85  89
ATOM     89  S   UNL A   1      48.118  25.800  35.033  1.00  0.00     0.124 S 
ATOM     90  O   UNL A   1      49.299  26.287  34.330  1.00  0.00    -0.237 OA
ATOM     91  O   UNL A   1      47.693  26.584  36.189  1.00  0.00    -0.237 OA
ATOM     92  O   UNL A   1      48.092  24.350  35.244  1.00  0.00    -0.744 OA
ENDBRANCH  85  89
ENDBRANCH  59  82
ENDBRANCH  33  34
ENDBRANCH  25  28
ENDBRANCH  23  24
ENDBRANCH  22  23
ENDBRANCH   1  22
TORSDOF 17
ENDMDL
MODEL 3
REMARK VINA RESULT:     -11.2      3.339      8.415
REMARK SMILES O=C(CCn1ccnc1)N[C@H]1C=C[C@H](C(=O)NCCCNC(=O)c2ccc(-c3c4nc(c(-c5cc(S(=O)(=O)[O-])ccc5F)c5ccc([nH]5)c(-c5cc(S(=O)(=O)[O-])ccc5F)c5nc(c(-c6cc(S(=O)(=O)[O-])ccc6F)c6ccc3[nH]6)C=C5)C=C4)cc2)C1
REMARK SMILES IDX 18 1 17 2 15 3 16 4 14 6 11 7 12 8 87 9 13 10 10 11 1 12
REMARK SMILES IDX 2 13 3 15 4 16 5 17 6 18 9 19 7 20 8 21 19 22 20 23 21 24
REMARK SMILES IDX 22 25 23 27 24 28 25 29 86 30 26 31 85 32 27 33 28 34 29 35
REMARK SMILES IDX 79 36 30 37 84 38 78 39 80 40 31 41 83 42 77 43 76 44 32 46
REMARK SMILES IDX 64 47 44 48 63 49 45 50 48 51 62 52 81 53 46 54 47 55 61 57
REMARK SMILES IDX 82 58 49 59 33 60 34 61 42 62 35 63 41 64 43 65 40 66 36 67
REMARK SMILES IDX 37 68 38 69 39 70 65 71 66 72 74 73 67 74 73 75 75 76 72 77
REMARK SMILES IDX 68 78 69 79 70 80 71 81 50 82 51 83 59 84 52 85 58 86 60 87
REMARK SMILES IDX 57 88 53 89 54 90 55 91 56 92
REMARK H PARENT 17 5 10 14 21 26 80 45 48 56
REMARK Flexibility Score: inf
ROOT
ATOM      1  C   UNL A   1      32.439  29.706  26.847  1.00  0.00     0.117 C 
ENDROOT
BRANCH   1   2
ATOM      2  N   UNL A   1      33.043  29.296  25.591  1.00  0.00    -0.356 N 
ATOM      3  C   UNL A   1      33.475  28.090  25.134  1.00  0.00     0.227 C 
ATOM      4  O   UNL A   1      33.859  28.043  23.960  1.00  0.00    -0.274 OA
ATOM      5  H   UNL A   1      33.164  30.032  24.949  1.00  0.00     0.163 HD
BRANCH   3   6
ATOM      6  C   UNL A   1      33.434  26.793  25.954  1.00  0.00     0.103 C 
ATOM      7  C   UNL A   1      33.373  24.619  24.814  1.00  0.00     0.106 C 
ATOM      8  C   UNL A   1      32.080  24.937  25.479  1.00  0.00    -0.006 C 
ATOM      9  C   UNL A   1      34.325  25.690  25.370  1.00  0.00     0.047 C 
ATOM     10  C   UNL A   1      32.111  26.119  26.103  1.00  0.00    -0.016 C 
BRANCH   7  11
ATOM     11  N   UNL A   1      33.886  23.284  25.050  1.00  0.00    -0.350 N 
ATOM     12  O   UNL A   1      33.109  22.086  23.233  1.00  0.00    -0.275 OA
ATOM     13  C   UNL A   1      33.726  22.153  24.291  1.00  0.00     0.222 C 
ATOM     14  H   UNL A   1      34.423  23.174  25.867  1.00  0.00     0.164 HD
BRANCH  13  15
ATOM     15  C   UNL A   1      34.344  20.901  24.878  1.00  0.00     0.122 C 
BRANCH  15  16
ATOM     16  C   UNL A   1      33.329  19.815  25.222  1.00  0.00     0.133 C 
BRANCH  16  17
ATOM     17  N   UNL A   1      33.318  18.643  24.366  1.00  0.00    -0.337 N 
ATOM     18  C   UNL A   1      34.024  17.480  24.505  1.00  0.00     0.107 A 
ATOM     19  C   UNL A   1      32.579  18.533  23.220  1.00  0.00     0.199 A 
ATOM     20  C   UNL A   1      33.763  16.764  23.359  1.00  0.00     0.130 A 
ATOM     21  N   UNL A   1      32.851  17.420  22.578  1.00  0.00    -0.245 NA
ENDBRANCH  16  17
ENDBRANCH  15  16
ENDBRANCH  13  15
ENDBRANCH   7  11
ENDBRANCH   3   6
ENDBRANCH   1   2
BRANCH   1  22
ATOM     22  C   UNL A   1      33.083  30.944  27.474  1.00  0.00     0.042 C 
BRANCH  22  23
ATOM     23  C   UNL A   1      34.589  30.801  27.609  1.00  0.00     0.118 C 
BRANCH  23  24
ATOM     24  N   UNL A   1      35.272  32.096  27.565  1.00  0.00    -0.352 N 
ATOM     25  C   UNL A   1      36.403  32.504  28.251  1.00  0.00     0.251 C 
ATOM     26  H   UNL A   1      34.872  32.767  26.967  1.00  0.00     0.163 HD
ATOM     27  O   UNL A   1      36.650  33.689  28.384  1.00  0.00    -0.269 OA
BRANCH  25  28
ATOM     28  C   UNL A   1      37.281  31.470  28.831  1.00  0.00     0.039 A 
ATOM     29  C   UNL A   1      37.120  30.122  28.506  1.00  0.00     0.014 A 
ATOM     30  C   UNL A   1      38.326  31.886  29.651  1.00  0.00     0.014 A 
ATOM     31  C   UNL A   1      38.092  29.215  28.924  1.00  0.00     0.010 A 
ATOM     32  C   UNL A   1      39.364  31.025  29.912  1.00  0.00     0.010 A 
ATOM     33  C   UNL A   1      39.238  29.679  29.593  1.00  0.00    -0.014 A 
BRANCH  33  34
ATOM     34  C   UNL A   1      40.380  28.793  29.825  1.00  0.00     0.031 A 
ATOM     35  C   UNL A   1      40.656  28.527  31.263  1.00  0.00     0.074 A 
ATOM     36  C   UNL A   1      41.014  28.097  28.856  1.00  0.00     0.049 A 
ATOM     37  N   UNL A   1      41.637  28.984  31.966  1.00  0.00    -0.248 NA
ATOM     38  C   UNL A   1      39.637  27.825  32.061  1.00  0.00     0.031 C 
ATOM     39  C   UNL A   1      40.686  28.025  27.427  1.00  0.00     0.029 A 
ATOM     40  N   UNL A   1      42.041  27.208  28.964  1.00  0.00    -0.354 N 
ATOM     41  C   UNL A   1      41.512  28.399  33.221  1.00  0.00     0.074 A 
ATOM     42  C   UNL A   1      40.163  27.905  33.285  1.00  0.00     0.031 C 
ATOM     43  C   UNL A   1      41.328  26.980  26.861  1.00  0.00     0.029 A 
ATOM     44  C   UNL A   1      42.251  26.421  27.832  1.00  0.00     0.049 A 
ATOM     45  H   UNL A   1      42.592  27.129  29.776  1.00  0.00     0.167 HD
ATOM     46  C   UNL A   1      42.615  28.132  33.977  1.00  0.00     0.034 A 
ATOM     47  C   UNL A   1      43.117  25.380  27.691  1.00  0.00     0.034 A 
ATOM     48  C   UNL A   1      43.764  28.866  33.482  1.00  0.00     0.049 A 
ATOM     49  C   UNL A   1      44.175  25.576  28.711  1.00  0.00     0.074 A 
ATOM     50  C   UNL A   1      44.029  30.202  33.244  1.00  0.00     0.029 A 
ATOM     51  N   UNL A   1      44.712  28.175  32.758  1.00  0.00    -0.354 N 
ATOM     52  N   UNL A   1      45.001  26.586  28.695  1.00  0.00    -0.248 NA
ATOM     53  C   UNL A   1      44.001  24.940  30.007  1.00  0.00     0.031 C 
ATOM     54  C   UNL A   1      44.746  30.218  32.008  1.00  0.00     0.029 A 
ATOM     55  C   UNL A   1      44.971  28.897  31.618  1.00  0.00     0.049 A 
ATOM     56  H   UNL A   1      45.129  27.320  33.012  1.00  0.00     0.167 HD
ATOM     57  C   UNL A   1      45.085  26.997  30.017  1.00  0.00     0.074 A 
ATOM     58  C   UNL A   1      44.537  25.882  30.790  1.00  0.00     0.031 C 
ATOM     59  C   UNL A   1      45.323  28.303  30.339  1.00  0.00     0.034 A 
BRANCH  46  60
ATOM     60  C   UNL A   1      42.766  26.933  34.892  1.00  0.00     0.023 A 
ATOM     61  C   UNL A   1      43.564  25.870  34.427  1.00  0.00     0.031 A 
ATOM     62  C   UNL A   1      41.964  26.642  36.021  1.00  0.00     0.131 A 
ATOM     63  C   UNL A   1      43.452  24.583  34.978  1.00  0.00     0.055 A 
ATOM     64  C   UNL A   1      41.910  25.376  36.611  1.00  0.00     0.041 A 
ATOM     65  F   UNL A   1      41.123  27.526  36.567  1.00  0.00    -0.206 F 
ATOM     66  C   UNL A   1      42.627  24.326  36.068  1.00  0.00     0.022 A 
BRANCH  63  67
ATOM     67  S   UNL A   1      44.260  23.211  34.117  1.00  0.00     0.124 S 
ATOM     68  O   UNL A   1      45.564  23.791  33.810  1.00  0.00    -0.237 OA
ATOM     69  O   UNL A   1      44.242  22.166  35.134  1.00  0.00    -0.237 OA
ATOM     70  O   UNL A   1      43.393  22.977  32.965  1.00  0.00    -0.744 OA
ENDBRANCH  63  67
ENDBRANCH  46  60
BRANCH  47  71
ATOM     71  C   UNL A   1      42.906  24.103  26.952  1.00  0.00     0.023 A 
ATOM     72  C   UNL A   1      43.913  23.489  26.174  1.00  0.00     0.031 A 
ATOM     73  C   UNL A   1      41.757  23.324  27.224  1.00  0.00     0.131 A 
ATOM     74  C   UNL A   1      43.752  22.157  25.717  1.00  0.00     0.055 A 
ATOM     75  C   UNL A   1      41.606  22.011  26.772  1.00  0.00     0.041 A 
ATOM     76  F   UNL A   1      40.778  23.784  28.019  1.00  0.00    -0.206 F 
ATOM     77  C   UNL A   1      42.610  21.417  26.025  1.00  0.00     0.022 A 
BRANCH  74  78
ATOM     78  S   UNL A   1      45.083  21.322  24.788  1.00  0.00     0.124 S 
ATOM     79  O   UNL A   1      46.272  22.037  25.236  1.00  0.00    -0.237 OA
ATOM     80  O   UNL A   1      44.954  19.937  25.227  1.00  0.00    -0.237 OA
ATOM     81  O   UNL A   1      44.720  21.552  23.389  1.00  0.00    -0.744 OA
ENDBRANCH  74  78
ENDBRANCH  47  71
BRANCH  59  82
ATOM     82  C   UNL A   1      45.805  29.244  29.247  1.00  0.00     0.023 A 
ATOM     83  C   UNL A   1      44.977  30.082  28.461  1.00  0.00     0.031 A 
ATOM     84  C   UNL A   1      47.196  29.363  29.073  1.00  0.00     0.131 A 
ATOM     85  C   UNL A   1      45.554  30.979  27.537  1.00  0.00     0.055 A 
ATOM     86  C   UNL A   1      47.762  30.267  28.176  1.00  0.00     0.041 A 
ATOM     87  F   UNL A   1      48.039  28.614  29.803  1.00  0.00    -0.206 F 
ATOM     88  C   UNL A   1      46.943  31.074  27.398  1.00  0.00     0.022 A 
BRANCH  85  89
ATOM     89  S   UNL A   1      44.510  32.026  26.468  1.00  0.00     0.124 S 
ATOM     90  O   UNL A   1      43.415  31.143  26.084  1.00  0.00    -0.237 OA
ATOM     91  O   UNL A   1      44.158  33.133  27.355  1.00  0.00    -0.237 OA
ATOM     92  O   UNL A   1      45.407  32.393  25.370  1.00  0.00    -0.744 OA
ENDBRANCH  85  89
ENDBRANCH  59  82
ENDBRANCH  33  34
ENDBRANCH  25  28
ENDBRANCH  23  24
ENDBRANCH  22  23
ENDBRANCH   1  22
TORSDOF 17
ENDMDL
