MODEL 1
REMARK VINA RESULT:     -11.7      0.000      0.000
REMARK SMILES CC(C)(C)c1csc(C[NH+]2CC(C(=O)NCCCNC(=O)c3ccc(-c4c5nc(c(-c6cc(S(=O)(=O)[O-])ccc6F)c6ccc([nH]6)c(-c6cc(S(=O)(=O)[O-])ccc6F)c6nc(c(-c7cc(S(=O)(=O)[O-])ccc7F)c7ccc4[nH]7)C=C6)C=C5)cc3)C2)n1
REMARK SMILES IDX 17 1 16 2 15 3 13 4 14 5 12 7 10 8 11 9 85 10 9 12 8 13 5 14
REMARK SMILES IDX 6 15 86 16 7 17 2 18 1 19 3 20 4 21 18 22 19 23 20 24 21 26
REMARK SMILES IDX 22 27 23 28 84 29 24 30 83 31 25 32 26 33 27 34 77 35 28 36
REMARK SMILES IDX 82 37 76 38 78 39 29 40 81 41 75 42 74 43 30 45 62 46 42 47
REMARK SMILES IDX 61 48 43 49 46 50 60 51 79 52 44 53 45 54 59 56 80 57 47 58
REMARK SMILES IDX 31 59 32 60 40 61 33 62 39 63 41 64 38 65 34 66 35 67 36 68
REMARK SMILES IDX 37 69 63 70 64 71 72 72 65 73 71 74 73 75 70 76 66 77 67 78
REMARK SMILES IDX 68 79 69 80 48 81 49 82 57 83 50 84 56 85 58 86 55 87 51 88
REMARK SMILES IDX 52 89 53 90 54 91
REMARK H PARENT 15 6 10 11 19 25 78 44 46 55
REMARK Flexibility Score: inf
ROOT
ATOM      1  C   UNL A   1      32.494  29.050  23.878  1.00  0.00     0.042 C 
ENDROOT
BRANCH   1   2
ATOM      2  C   UNL A   1      33.633  28.658  22.947  1.00  0.00     0.117 C 
BRANCH   2   3
ATOM      3  N   UNL A   1      33.217  27.701  21.944  1.00  0.00    -0.355 N 
ATOM      4  C   UNL A   1      33.289  26.330  21.915  1.00  0.00     0.234 C 
ATOM      5  O   UNL A   1      32.839  25.804  20.884  1.00  0.00    -0.274 OA
ATOM      6  H   UNL A   1      32.811  28.103  21.141  1.00  0.00     0.163 HD
BRANCH   4   7
ATOM      7  C   UNL A   1      33.869  25.488  23.050  1.00  0.00     0.188 C 
ATOM      8  N   UNL A   1      33.791  23.913  24.417  1.00  0.00    -0.327 N 
ATOM      9  C   UNL A   1      34.028  23.950  22.960  1.00  0.00     0.282 C 
ATOM     10  C   UNL A   1      33.078  25.203  24.344  1.00  0.00     0.282 C 
ATOM     11  H   UNL A   1      34.574  23.800  25.060  1.00  0.00     0.348 HD
BRANCH   8  12
ATOM     12  C   UNL A   1      32.998  22.772  24.902  1.00  0.00     0.331 C 
BRANCH  12  13
ATOM     13  C   UNL A   1      33.578  21.374  24.928  1.00  0.00     0.147 A 
ATOM     14  C   UNL A   1      33.764  19.173  24.573  1.00  0.00     0.057 A 
ATOM     15  C   UNL A   1      35.051  19.451  24.998  1.00  0.00     0.091 A 
ATOM     16  N   UNL A   1      32.916  20.282  24.594  1.00  0.00    -0.240 NA
ATOM     17  S   UNL A   1      35.254  21.133  25.244  1.00  0.00    -0.121 S 
BRANCH  14  18
ATOM     18  C   UNL A   1      33.250  17.860  23.994  1.00  0.00     0.005 C 
ATOM     19  C   UNL A   1      34.409  16.912  23.632  1.00  0.00     0.017 C 
ATOM     20  C   UNL A   1      32.398  18.067  22.725  1.00  0.00     0.017 C 
ATOM     21  C   UNL A   1      32.366  17.177  25.061  1.00  0.00     0.017 C 
ENDBRANCH  14  18
ENDBRANCH  12  13
ENDBRANCH   8  12
ENDBRANCH   4   7
ENDBRANCH   2   3
ENDBRANCH   1   2
BRANCH   1  22
ATOM     22  C   UNL A   1      32.921  29.249  25.324  1.00  0.00     0.118 C 
BRANCH  22  23
ATOM     23  N   UNL A   1      32.509  30.546  25.846  1.00  0.00    -0.352 N 
ATOM     24  C   UNL A   1      32.976  31.276  26.910  1.00  0.00     0.251 C 
ATOM     25  H   UNL A   1      31.771  30.971  25.352  1.00  0.00     0.163 HD
ATOM     26  O   UNL A   1      32.299  32.225  27.318  1.00  0.00    -0.269 OA
BRANCH  24  27
ATOM     27  C   UNL A   1      34.250  30.935  27.582  1.00  0.00     0.039 A 
ATOM     28  C   UNL A   1      35.198  31.941  27.791  1.00  0.00     0.014 A 
ATOM     29  C   UNL A   1      34.537  29.626  27.977  1.00  0.00     0.014 A 
ATOM     30  C   UNL A   1      36.389  31.649  28.462  1.00  0.00     0.010 A 
ATOM     31  C   UNL A   1      35.674  29.359  28.735  1.00  0.00     0.010 A 
ATOM     32  C   UNL A   1      36.617  30.366  28.984  1.00  0.00    -0.014 A 
BRANCH  32  33
ATOM     33  C   UNL A   1      37.832  30.051  29.784  1.00  0.00     0.031 A 
ATOM     34  C   UNL A   1      38.880  29.119  29.234  1.00  0.00     0.074 A 
ATOM     35  C   UNL A   1      37.955  30.544  31.033  1.00  0.00     0.049 A 
ATOM     36  N   UNL A   1      39.947  28.637  29.817  1.00  0.00    -0.248 NA
ATOM     37  C   UNL A   1      38.679  28.639  27.858  1.00  0.00     0.031 C 
ATOM     38  C   UNL A   1      36.990  31.428  31.692  1.00  0.00     0.029 A 
ATOM     39  N   UNL A   1      38.935  30.367  31.978  1.00  0.00    -0.354 N 
ATOM     40  C   UNL A   1      40.536  27.785  28.887  1.00  0.00     0.074 A 
ATOM     41  C   UNL A   1      39.668  27.767  27.729  1.00  0.00     0.031 C 
ATOM     42  C   UNL A   1      37.439  31.735  32.918  1.00  0.00     0.029 A 
ATOM     43  C   UNL A   1      38.692  31.027  33.160  1.00  0.00     0.049 A 
ATOM     44  H   UNL A   1      39.738  29.817  31.824  1.00  0.00     0.167 HD
ATOM     45  C   UNL A   1      41.704  27.100  28.981  1.00  0.00     0.034 A 
ATOM     46  C   UNL A   1      39.387  31.047  34.316  1.00  0.00     0.034 A 
ATOM     47  C   UNL A   1      42.564  27.140  30.138  1.00  0.00     0.049 A 
ATOM     48  C   UNL A   1      40.665  30.250  34.409  1.00  0.00     0.074 A 
ATOM     49  C   UNL A   1      43.795  26.533  30.318  1.00  0.00     0.029 A 
ATOM     50  N   UNL A   1      42.282  27.820  31.317  1.00  0.00    -0.354 N 
ATOM     51  N   UNL A   1      41.231  29.487  33.502  1.00  0.00    -0.248 NA
ATOM     52  C   UNL A   1      41.399  30.323  35.677  1.00  0.00     0.031 C 
ATOM     53  C   UNL A   1      44.219  26.779  31.628  1.00  0.00     0.029 A 
ATOM     54  C   UNL A   1      43.298  27.614  32.239  1.00  0.00     0.049 A 
ATOM     55  H   UNL A   1      41.479  28.366  31.476  1.00  0.00     0.167 HD
ATOM     56  C   UNL A   1      42.406  29.018  34.082  1.00  0.00     0.074 A 
ATOM     57  C   UNL A   1      42.473  29.596  35.409  1.00  0.00     0.031 C 
ATOM     58  C   UNL A   1      43.348  28.189  33.564  1.00  0.00     0.034 A 
BRANCH  45  59
ATOM     59  C   UNL A   1      42.099  26.232  27.809  1.00  0.00     0.023 A 
ATOM     60  C   UNL A   1      41.669  24.897  27.698  1.00  0.00     0.031 A 
ATOM     61  C   UNL A   1      42.937  26.736  26.798  1.00  0.00     0.131 A 
ATOM     62  C   UNL A   1      42.140  24.093  26.649  1.00  0.00     0.055 A 
ATOM     63  C   UNL A   1      43.331  25.955  25.708  1.00  0.00     0.041 A 
ATOM     64  F   UNL A   1      43.399  27.995  26.857  1.00  0.00    -0.206 F 
ATOM     65  C   UNL A   1      42.946  24.620  25.638  1.00  0.00     0.022 A 
BRANCH  62  66
ATOM     66  S   UNL A   1      41.809  22.311  26.711  1.00  0.00     0.124 S 
ATOM     67  O   UNL A   1      40.373  22.288  26.981  1.00  0.00    -0.237 OA
ATOM     68  O   UNL A   1      42.216  21.867  25.384  1.00  0.00    -0.237 OA
ATOM     69  O   UNL A   1      42.649  21.844  27.812  1.00  0.00    -0.744 OA
ENDBRANCH  62  66
ENDBRANCH  45  59
BRANCH  46  70
ATOM     70  C   UNL A   1      38.891  31.831  35.484  1.00  0.00     0.023 A 
ATOM     71  C   UNL A   1      38.297  31.191  36.583  1.00  0.00     0.031 A 
ATOM     72  C   UNL A   1      38.963  33.235  35.501  1.00  0.00     0.131 A 
ATOM     73  C   UNL A   1      37.753  31.954  37.628  1.00  0.00     0.055 A 
ATOM     74  C   UNL A   1      38.474  33.988  36.570  1.00  0.00     0.041 A 
ATOM     75  F   UNL A   1      39.525  33.899  34.478  1.00  0.00    -0.206 F 
ATOM     76  C   UNL A   1      37.851  33.347  37.636  1.00  0.00     0.022 A 
BRANCH  73  77
ATOM     77  S   UNL A   1      36.829  31.101  38.937  1.00  0.00     0.124 S 
ATOM     78  O   UNL A   1      37.743  31.217  40.067  1.00  0.00    -0.237 OA
ATOM     79  O   UNL A   1      35.609  31.898  39.012  1.00  0.00    -0.237 OA
ATOM     80  O   UNL A   1      36.658  29.751  38.406  1.00  0.00    -0.744 OA
ENDBRANCH  73  77
ENDBRANCH  46  70
BRANCH  58  81
ATOM     81  C   UNL A   1      44.557  27.899  34.421  1.00  0.00     0.023 A 
ATOM     82  C   UNL A   1      44.622  26.769  35.255  1.00  0.00     0.031 A 
ATOM     83  C   UNL A   1      45.659  28.773  34.405  1.00  0.00     0.131 A 
ATOM     84  C   UNL A   1      45.742  26.573  36.080  1.00  0.00     0.055 A 
ATOM     85  C   UNL A   1      46.797  28.537  35.177  1.00  0.00     0.041 A 
ATOM     86  F   UNL A   1      45.650  29.870  33.630  1.00  0.00    -0.206 F 
ATOM     87  C   UNL A   1      46.837  27.439  36.030  1.00  0.00     0.022 A 
BRANCH  84  88
ATOM     88  S   UNL A   1      45.707  25.222  37.289  1.00  0.00     0.124 S 
ATOM     89  O   UNL A   1      47.047  25.292  37.860  1.00  0.00    -0.237 OA
ATOM     90  O   UNL A   1      44.615  25.620  38.171  1.00  0.00    -0.237 OA
ATOM     91  O   UNL A   1      45.442  24.038  36.472  1.00  0.00    -0.744 OA
ENDBRANCH  84  88
ENDBRANCH  58  81
ENDBRANCH  32  33
ENDBRANCH  24  27
ENDBRANCH  22  23
ENDBRANCH   1  22
TORSDOF 16
ENDMDL
MODEL 2
REMARK VINA RESULT:     -11.7      2.446      3.372
REMARK SMILES CC(C)(C)c1csc(C[NH+]2CC(C(=O)NCCCNC(=O)c3ccc(-c4c5nc(c(-c6cc(S(=O)(=O)[O-])ccc6F)c6ccc([nH]6)c(-c6cc(S(=O)(=O)[O-])ccc6F)c6nc(c(-c7cc(S(=O)(=O)[O-])ccc7F)c7ccc4[nH]7)C=C6)C=C5)cc3)C2)n1
REMARK SMILES IDX 17 1 16 2 15 3 13 4 14 5 12 7 10 8 11 9 85 10 9 12 8 13 5 14
REMARK SMILES IDX 6 15 86 16 7 17 2 18 1 19 3 20 4 21 18 22 19 23 20 24 21 26
REMARK SMILES IDX 22 27 23 28 84 29 24 30 83 31 25 32 26 33 27 34 77 35 28 36
REMARK SMILES IDX 82 37 76 38 78 39 29 40 81 41 75 42 74 43 30 45 62 46 42 47
REMARK SMILES IDX 61 48 43 49 46 50 60 51 79 52 44 53 45 54 59 56 80 57 47 58
REMARK SMILES IDX 31 59 32 60 40 61 33 62 39 63 41 64 38 65 34 66 35 67 36 68
REMARK SMILES IDX 37 69 63 70 64 71 72 72 65 73 71 74 73 75 70 76 66 77 67 78
REMARK SMILES IDX 68 79 69 80 48 81 49 82 57 83 50 84 56 85 58 86 55 87 51 88
REMARK SMILES IDX 52 89 53 90 54 91
REMARK H PARENT 15 6 10 11 19 25 78 44 46 55
REMARK Flexibility Score: inf
ROOT
ATOM      1  C   UNL A   1      31.497  31.743  26.521  1.00  0.00     0.042 C 
ENDROOT
BRANCH   1   2
ATOM      2  C   UNL A   1      31.752  30.431  25.794  1.00  0.00     0.117 C 
BRANCH   2   3
ATOM      3  N   UNL A   1      31.014  30.339  24.552  1.00  0.00    -0.355 N 
ATOM      4  C   UNL A   1      30.514  29.256  23.873  1.00  0.00     0.234 C 
ATOM      5  O   UNL A   1      29.924  29.528  22.814  1.00  0.00    -0.274 OA
ATOM      6  H   UNL A   1      30.839  31.206  24.117  1.00  0.00     0.163 HD
BRANCH   4   7
ATOM      7  C   UNL A   1      30.652  27.814  24.357  1.00  0.00     0.188 C 
ATOM      8  N   UNL A   1      31.324  25.848  24.161  1.00  0.00    -0.327 N 
ATOM      9  C   UNL A   1      32.020  27.104  24.505  1.00  0.00     0.282 C 
ATOM     10  C   UNL A   1      30.267  26.612  23.469  1.00  0.00     0.282 C 
ATOM     11  H   UNL A   1      31.076  25.183  24.893  1.00  0.00     0.348 HD
BRANCH   8  12
ATOM     12  C   UNL A   1      32.086  24.910  23.321  1.00  0.00     0.331 C 
BRANCH  12  13
ATOM     13  C   UNL A   1      32.859  23.764  23.936  1.00  0.00     0.147 A 
ATOM     14  C   UNL A   1      34.598  22.506  24.571  1.00  0.00     0.057 A 
ATOM     15  C   UNL A   1      33.590  21.895  25.296  1.00  0.00     0.091 A 
ATOM     16  N   UNL A   1      34.148  23.543  23.752  1.00  0.00    -0.240 NA
ATOM     17  S   UNL A   1      32.112  22.735  25.099  1.00  0.00    -0.121 S 
BRANCH  14  18
ATOM     18  C   UNL A   1      36.096  22.244  24.676  1.00  0.00     0.005 C 
ATOM     19  C   UNL A   1      36.734  23.073  25.808  1.00  0.00     0.017 C 
ATOM     20  C   UNL A   1      36.846  22.577  23.370  1.00  0.00     0.017 C 
ATOM     21  C   UNL A   1      36.302  20.745  24.983  1.00  0.00     0.017 C 
ENDBRANCH  14  18
ENDBRANCH  12  13
ENDBRANCH   8  12
ENDBRANCH   4   7
ENDBRANCH   2   3
ENDBRANCH   1   2
BRANCH   1  22
ATOM     22  C   UNL A   1      32.717  32.292  27.246  1.00  0.00     0.118 C 
BRANCH  22  23
ATOM     23  N   UNL A   1      32.581  33.710  27.555  1.00  0.00    -0.352 N 
ATOM     24  C   UNL A   1      33.178  34.481  28.520  1.00  0.00     0.251 C 
ATOM     25  H   UNL A   1      31.955  34.198  26.971  1.00  0.00     0.163 HD
ATOM     26  O   UNL A   1      32.711  35.600  28.755  1.00  0.00    -0.269 OA
BRANCH  24  27
ATOM     27  C   UNL A   1      34.342  33.990  29.290  1.00  0.00     0.039 A 
ATOM     28  C   UNL A   1      34.127  33.123  30.366  1.00  0.00     0.014 A 
ATOM     29  C   UNL A   1      35.642  34.401  28.989  1.00  0.00     0.014 A 
ATOM     30  C   UNL A   1      35.215  32.612  31.081  1.00  0.00     0.010 A 
ATOM     31  C   UNL A   1      36.728  33.813  29.632  1.00  0.00     0.010 A 
ATOM     32  C   UNL A   1      36.529  32.914  30.689  1.00  0.00    -0.014 A 
BRANCH  32  33
ATOM     33  C   UNL A   1      37.706  32.311  31.371  1.00  0.00     0.031 A 
ATOM     34  C   UNL A   1      38.445  31.165  30.731  1.00  0.00     0.074 A 
ATOM     35  C   UNL A   1      38.062  32.744  32.597  1.00  0.00     0.049 A 
ATOM     36  N   UNL A   1      39.420  30.436  31.212  1.00  0.00    -0.248 NA
ATOM     37  C   UNL A   1      38.005  30.765  29.386  1.00  0.00     0.031 C 
ATOM     38  C   UNL A   1      37.401  33.821  33.339  1.00  0.00     0.029 A 
ATOM     39  N   UNL A   1      39.058  32.326  33.445  1.00  0.00    -0.354 N 
ATOM     40  C   UNL A   1      39.697  29.482  30.238  1.00  0.00     0.074 A 
ATOM     41  C   UNL A   1      38.743  29.686  29.170  1.00  0.00     0.031 C 
ATOM     42  C   UNL A   1      38.026  33.996  34.513  1.00  0.00     0.029 A 
ATOM     43  C   UNL A   1      39.093  33.009  34.638  1.00  0.00     0.049 A 
ATOM     44  H   UNL A   1      39.689  31.604  33.219  1.00  0.00     0.167 HD
ATOM     45  C   UNL A   1      40.674  28.540  30.225  1.00  0.00     0.034 A 
ATOM     46  C   UNL A   1      39.881  32.848  35.721  1.00  0.00     0.034 A 
ATOM     47  C   UNL A   1      41.626  28.359  31.292  1.00  0.00     0.049 A 
ATOM     48  C   UNL A   1      40.937  31.771  35.698  1.00  0.00     0.074 A 
ATOM     49  C   UNL A   1      42.690  27.475  31.359  1.00  0.00     0.029 A 
ATOM     50  N   UNL A   1      41.628  29.070  32.488  1.00  0.00    -0.354 N 
ATOM     51  N   UNL A   1      41.217  30.908  34.748  1.00  0.00    -0.248 NA
ATOM     52  C   UNL A   1      41.786  31.651  36.889  1.00  0.00     0.031 C 
ATOM     53  C   UNL A   1      43.284  27.597  32.620  1.00  0.00     0.029 A 
ATOM     54  C   UNL A   1      42.650  28.617  33.309  1.00  0.00     0.049 A 
ATOM     55  H   UNL A   1      40.996  29.788  32.718  1.00  0.00     0.167 HD
ATOM     56  C   UNL A   1      42.297  30.166  35.216  1.00  0.00     0.074 A 
ATOM     57  C   UNL A   1      42.626  30.694  36.525  1.00  0.00     0.031 C 
ATOM     58  C   UNL A   1      42.962  29.145  34.616  1.00  0.00     0.034 A 
BRANCH  45  59
ATOM     59  C   UNL A   1      40.738  27.618  29.028  1.00  0.00     0.023 A 
ATOM     60  C   UNL A   1      41.680  27.805  28.000  1.00  0.00     0.031 A 
ATOM     61  C   UNL A   1      39.830  26.552  28.899  1.00  0.00     0.131 A 
ATOM     62  C   UNL A   1      41.641  26.991  26.858  1.00  0.00     0.055 A 
ATOM     63  C   UNL A   1      39.855  25.691  27.799  1.00  0.00     0.041 A 
ATOM     64  F   UNL A   1      38.893  26.335  29.836  1.00  0.00    -0.206 F 
ATOM     65  C   UNL A   1      40.754  25.918  26.762  1.00  0.00     0.022 A 
BRANCH  62  66
ATOM     66  S   UNL A   1      42.665  27.454  25.434  1.00  0.00     0.124 S 
ATOM     67  O   UNL A   1      42.629  26.231  24.635  1.00  0.00    -0.237 OA
ATOM     68  O   UNL A   1      41.944  28.596  24.885  1.00  0.00    -0.237 OA
ATOM     69  O   UNL A   1      43.963  27.762  26.030  1.00  0.00    -0.744 OA
ENDBRANCH  62  66
ENDBRANCH  45  59
BRANCH  46  70
ATOM     70  C   UNL A   1      39.699  33.711  36.925  1.00  0.00     0.023 A 
ATOM     71  C   UNL A   1      39.038  33.229  38.066  1.00  0.00     0.031 A 
ATOM     72  C   UNL A   1      40.144  35.045  36.937  1.00  0.00     0.131 A 
ATOM     73  C   UNL A   1      38.796  34.087  39.150  1.00  0.00     0.055 A 
ATOM     74  C   UNL A   1      39.954  35.878  38.041  1.00  0.00     0.041 A 
ATOM     75  F   UNL A   1      40.787  35.556  35.875  1.00  0.00    -0.206 F 
ATOM     76  C   UNL A   1      39.262  35.403  39.152  1.00  0.00     0.022 A 
BRANCH  73  77
ATOM     77  S   UNL A   1      37.776  33.484  40.524  1.00  0.00     0.124 S 
ATOM     78  O   UNL A   1      37.519  34.714  41.263  1.00  0.00    -0.237 OA
ATOM     79  O   UNL A   1      36.636  32.905  39.822  1.00  0.00    -0.237 OA
ATOM     80  O   UNL A   1      38.647  32.521  41.195  1.00  0.00    -0.744 OA
ENDBRANCH  73  77
ENDBRANCH  46  70
BRANCH  58  81
ATOM     81  C   UNL A   1      44.145  28.566  35.355  1.00  0.00     0.023 A 
ATOM     82  C   UNL A   1      44.000  27.526  36.291  1.00  0.00     0.031 A 
ATOM     83  C   UNL A   1      45.437  29.069  35.122  1.00  0.00     0.131 A 
ATOM     84  C   UNL A   1      45.120  27.062  36.998  1.00  0.00     0.055 A 
ATOM     85  C   UNL A   1      46.557  28.557  35.779  1.00  0.00     0.041 A 
ATOM     86  F   UNL A   1      45.635  30.065  34.242  1.00  0.00    -0.206 F 
ATOM     87  C   UNL A   1      46.399  27.557  36.733  1.00  0.00     0.022 A 
BRANCH  84  88
ATOM     88  S   UNL A   1      44.869  25.865  38.338  1.00  0.00     0.124 S 
ATOM     89  O   UNL A   1      43.610  26.321  38.918  1.00  0.00    -0.237 OA
ATOM     90  O   UNL A   1      44.818  24.597  37.619  1.00  0.00    -0.237 OA
ATOM     91  O   UNL A   1      46.045  26.049  39.187  1.00  0.00    -0.744 OA
ENDBRANCH  84  88
ENDBRANCH  58  81
ENDBRANCH  32  33
ENDBRANCH  24  27
ENDBRANCH  22  23
ENDBRANCH   1  22
TORSDOF 16
ENDMDL
MODEL 3
REMARK VINA RESULT:     -11.6      1.088      7.700
REMARK SMILES CC(C)(C)c1csc(C[NH+]2CC(C(=O)NCCCNC(=O)c3ccc(-c4c5nc(c(-c6cc(S(=O)(=O)[O-])ccc6F)c6ccc([nH]6)c(-c6cc(S(=O)(=O)[O-])ccc6F)c6nc(c(-c7cc(S(=O)(=O)[O-])ccc7F)c7ccc4[nH]7)C=C6)C=C5)cc3)C2)n1
REMARK SMILES IDX 17 1 16 2 15 3 13 4 14 5 12 7 10 8 11 9 85 10 9 12 8 13 5 14
REMARK SMILES IDX 6 15 86 16 7 17 2 18 1 19 3 20 4 21 18 22 19 23 20 24 21 26
REMARK SMILES IDX 22 27 23 28 84 29 24 30 83 31 25 32 26 33 27 34 77 35 28 36
REMARK SMILES IDX 82 37 76 38 78 39 29 40 81 41 75 42 74 43 30 45 62 46 42 47
REMARK SMILES IDX 61 48 43 49 46 50 60 51 79 52 44 53 45 54 59 56 80 57 47 58
REMARK SMILES IDX 31 59 32 60 40 61 33 62 39 63 41 64 38 65 34 66 35 67 36 68
REMARK SMILES IDX 37 69 63 70 64 71 72 72 65 73 71 74 73 75 70 76 66 77 67 78
REMARK SMILES IDX 68 79 69 80 48 81 49 82 57 83 50 84 56 85 58 86 55 87 51 88
REMARK SMILES IDX 52 89 53 90 54 91
REMARK H PARENT 15 6 10 11 19 25 78 44 46 55
REMARK Flexibility Score: inf
ROOT
ATOM      1  C   UNL A   1      31.395  30.304  25.434  1.00  0.00     0.042 C 
ENDROOT
BRANCH   1   2
ATOM      2  C   UNL A   1      31.488  28.815  25.135  1.00  0.00     0.117 C 
BRANCH   2   3
ATOM      3  N   UNL A   1      30.960  28.484  23.828  1.00  0.00    -0.355 N 
ATOM      4  C   UNL A   1      31.201  27.418  22.997  1.00  0.00     0.234 C 
ATOM      5  O   UNL A   1      30.576  27.439  21.923  1.00  0.00    -0.274 OA
ATOM      6  H   UNL A   1      30.314  29.138  23.472  1.00  0.00     0.163 HD
BRANCH   4   7
ATOM      7  C   UNL A   1      32.155  26.276  23.339  1.00  0.00     0.188 C 
ATOM      8  N   UNL A   1      32.593  24.263  23.677  1.00  0.00    -0.327 N 
ATOM      9  C   UNL A   1      32.328  25.026  22.441  1.00  0.00     0.282 C 
ATOM     10  C   UNL A   1      31.853  25.267  24.467  1.00  0.00     0.282 C 
ATOM     11  H   UNL A   1      33.550  24.019  23.932  1.00  0.00     0.348 HD
BRANCH   8  12
ATOM     12  C   UNL A   1      32.048  22.897  23.709  1.00  0.00     0.331 C 
BRANCH  12  13
ATOM     13  C   UNL A   1      32.890  21.732  24.181  1.00  0.00     0.147 A 
ATOM     14  C   UNL A   1      33.565  19.622  24.496  1.00  0.00     0.057 A 
ATOM     15  C   UNL A   1      34.702  20.294  24.908  1.00  0.00     0.091 A 
ATOM     16  N   UNL A   1      32.514  20.467  24.135  1.00  0.00    -0.240 NA
ATOM     17  S   UNL A   1      34.525  21.979  24.667  1.00  0.00    -0.121 S 
BRANCH  14  18
ATOM     18  C   UNL A   1      33.408  18.119  24.292  1.00  0.00     0.005 C 
ATOM     19  C   UNL A   1      32.768  17.800  22.927  1.00  0.00     0.017 C 
ATOM     20  C   UNL A   1      32.538  17.463  25.384  1.00  0.00     0.017 C 
ATOM     21  C   UNL A   1      34.812  17.477  24.343  1.00  0.00     0.017 C 
ENDBRANCH  14  18
ENDBRANCH  12  13
ENDBRANCH   8  12
ENDBRANCH   4   7
ENDBRANCH   2   3
ENDBRANCH   1   2
BRANCH   1  22
ATOM     22  C   UNL A   1      32.038  30.708  26.752  1.00  0.00     0.118 C 
BRANCH  22  23
ATOM     23  N   UNL A   1      32.258  32.147  26.838  1.00  0.00    -0.352 N 
ATOM     24  C   UNL A   1      33.210  32.872  27.509  1.00  0.00     0.251 C 
ATOM     25  H   UNL A   1      31.615  32.691  26.327  1.00  0.00     0.163 HD
ATOM     26  O   UNL A   1      33.040  34.087  27.647  1.00  0.00    -0.269 OA
BRANCH  24  27
ATOM     27  C   UNL A   1      34.410  32.225  28.086  1.00  0.00     0.039 A 
ATOM     28  C   UNL A   1      35.545  33.001  28.337  1.00  0.00     0.014 A 
ATOM     29  C   UNL A   1      34.442  30.854  28.349  1.00  0.00     0.014 A 
ATOM     30  C   UNL A   1      36.674  32.419  28.922  1.00  0.00     0.010 A 
ATOM     31  C   UNL A   1      35.526  30.298  29.025  1.00  0.00     0.010 A 
ATOM     32  C   UNL A   1      36.658  31.071  29.316  1.00  0.00    -0.014 A 
BRANCH  32  33
ATOM     33  C   UNL A   1      37.809  30.450  30.025  1.00  0.00     0.031 A 
ATOM     34  C   UNL A   1      38.096  30.807  31.460  1.00  0.00     0.074 A 
ATOM     35  C   UNL A   1      38.638  29.623  29.356  1.00  0.00     0.049 A 
ATOM     36  N   UNL A   1      39.108  30.460  32.213  1.00  0.00    -0.248 NA
ATOM     37  C   UNL A   1      37.133  31.701  32.122  1.00  0.00     0.031 C 
ATOM     38  C   UNL A   1      38.489  29.229  27.953  1.00  0.00     0.029 A 
ATOM     39  N   UNL A   1      39.778  28.973  29.759  1.00  0.00    -0.354 N 
ATOM     40  C   UNL A   1      38.913  31.106  33.431  1.00  0.00     0.074 A 
ATOM     41  C   UNL A   1      37.723  31.917  33.288  1.00  0.00     0.031 C 
ATOM     42  C   UNL A   1      39.480  28.388  27.623  1.00  0.00     0.029 A 
ATOM     43  C   UNL A   1      40.369  28.225  28.767  1.00  0.00     0.049 A 
ATOM     44  H   UNL A   1      40.140  29.037  30.673  1.00  0.00     0.167 HD
ATOM     45  C   UNL A   1      39.647  31.013  34.569  1.00  0.00     0.034 A 
ATOM     46  C   UNL A   1      41.510  27.504  28.771  1.00  0.00     0.034 A 
ATOM     47  C   UNL A   1      40.824  30.189  34.698  1.00  0.00     0.049 A 
ATOM     48  C   UNL A   1      42.328  27.444  30.037  1.00  0.00     0.074 A 
ATOM     49  C   UNL A   1      41.609  29.976  35.818  1.00  0.00     0.029 A 
ATOM     50  N   UNL A   1      41.393  29.447  33.670  1.00  0.00    -0.354 N 
ATOM     51  N   UNL A   1      42.103  28.023  31.194  1.00  0.00    -0.248 NA
ATOM     52  C   UNL A   1      43.546  26.626  30.000  1.00  0.00     0.031 C 
ATOM     53  C   UNL A   1      42.692  29.171  35.449  1.00  0.00     0.029 A 
ATOM     54  C   UNL A   1      42.538  28.807  34.122  1.00  0.00     0.049 A 
ATOM     55  H   UNL A   1      41.037  29.385  32.754  1.00  0.00     0.167 HD
ATOM     56  C   UNL A   1      43.136  27.611  32.031  1.00  0.00     0.074 A 
ATOM     57  C   UNL A   1      43.974  26.723  31.249  1.00  0.00     0.031 C 
ATOM     58  C   UNL A   1      43.370  27.932  33.330  1.00  0.00     0.034 A 
BRANCH  45  59
ATOM     59  C   UNL A   1      39.207  31.845  35.752  1.00  0.00     0.023 A 
ATOM     60  C   UNL A   1      38.490  31.285  36.825  1.00  0.00     0.031 A 
ATOM     61  C   UNL A   1      39.486  33.222  35.799  1.00  0.00     0.131 A 
ATOM     62  C   UNL A   1      38.011  32.109  37.855  1.00  0.00     0.055 A 
ATOM     63  C   UNL A   1      39.083  34.021  36.872  1.00  0.00     0.041 A 
ATOM     64  F   UNL A   1      40.148  33.821  34.795  1.00  0.00    -0.206 F 
ATOM     65  C   UNL A   1      38.326  33.468  37.900  1.00  0.00     0.022 A 
BRANCH  62  66
ATOM     66  S   UNL A   1      36.843  31.405  39.050  1.00  0.00     0.124 S 
ATOM     67  O   UNL A   1      35.776  32.404  39.042  1.00  0.00    -0.237 OA
ATOM     68  O   UNL A   1      36.516  30.117  38.451  1.00  0.00    -0.237 OA
ATOM     69  O   UNL A   1      37.616  31.341  40.288  1.00  0.00    -0.744 OA
ENDBRANCH  62  66
ENDBRANCH  45  59
BRANCH  46  70
ATOM     70  C   UNL A   1      41.960  26.794  27.538  1.00  0.00     0.023 A 
ATOM     71  C   UNL A   1      41.776  25.410  27.394  1.00  0.00     0.031 A 
ATOM     72  C   UNL A   1      42.622  27.481  26.505  1.00  0.00     0.131 A 
ATOM     73  C   UNL A   1      42.292  24.748  26.269  1.00  0.00     0.055 A 
ATOM     74  C   UNL A   1      43.081  26.829  25.359  1.00  0.00     0.041 A 
ATOM     75  F   UNL A   1      42.822  28.806  26.588  1.00  0.00    -0.206 F 
ATOM     76  C   UNL A   1      42.929  25.450  25.244  1.00  0.00     0.022 A 
BRANCH  73  77
ATOM     77  S   UNL A   1      42.199  22.937  26.208  1.00  0.00     0.124 S 
ATOM     78  O   UNL A   1      40.761  22.712  26.300  1.00  0.00    -0.237 OA
ATOM     79  O   UNL A   1      42.814  22.647  24.917  1.00  0.00    -0.237 OA
ATOM     80  O   UNL A   1      42.974  22.519  27.374  1.00  0.00    -0.744 OA
ENDBRANCH  73  77
ENDBRANCH  46  70
BRANCH  58  81
ATOM     81  C   UNL A   1      44.555  27.277  33.998  1.00  0.00     0.023 A 
ATOM     82  C   UNL A   1      44.490  25.969  34.511  1.00  0.00     0.031 A 
ATOM     83  C   UNL A   1      45.767  27.978  34.128  1.00  0.00     0.131 A 
ATOM     84  C   UNL A   1      45.598  25.425  35.179  1.00  0.00     0.055 A 
ATOM     85  C   UNL A   1      46.887  27.406  34.734  1.00  0.00     0.041 A 
ATOM     86  F   UNL A   1      45.885  29.232  33.661  1.00  0.00    -0.206 F 
ATOM     87  C   UNL A   1      46.801  26.128  35.275  1.00  0.00     0.022 A 
BRANCH  84  88
ATOM     88  S   UNL A   1      45.416  23.820  36.003  1.00  0.00     0.124 S 
ATOM     89  O   UNL A   1      46.557  23.078  35.478  1.00  0.00    -0.237 OA
ATOM     90  O   UNL A   1      45.487  24.183  37.414  1.00  0.00    -0.237 OA
ATOM     91  O   UNL A   1      44.107  23.348  35.550  1.00  0.00    -0.744 OA
ENDBRANCH  84  88
ENDBRANCH  58  81
ENDBRANCH  32  33
ENDBRANCH  24  27
ENDBRANCH  22  23
ENDBRANCH   1  22
TORSDOF 16
ENDMDL
