MODEL 1
REMARK VINA RESULT:     -11.9      0.000      0.000
REMARK SMILES CCn1cnc(S(=O)(=O)NC[C@H]2CC[C@@H](C(=O)NCCCNC(=O)c3ccc(-c4c5nc(c(-c6cc(S(=O)(=O)[O-])ccc6F)c6ccc([nH]6)c(-c6cc(S(=O)(=O)[O-])ccc6F)c6nc(c(-c7cc(S(=O)(=O)[O-])ccc7F)c7ccc4[nH]7)C=C6)C=C5)cc3)O2)c1
REMARK SMILES IDX 19 1 18 2 16 3 17 4 15 6 12 7 13 8 88 9 14 10 11 11 10 12
REMARK SMILES IDX 7 14 8 15 9 16 6 17 3 18 4 19 89 20 5 21 2 22 1 23 20 24
REMARK SMILES IDX 21 25 22 26 23 27 24 29 25 30 26 31 87 32 27 33 86 34 28 35
REMARK SMILES IDX 29 36 30 37 80 38 31 39 85 40 79 41 81 42 32 43 84 44 78 45
REMARK SMILES IDX 77 46 33 48 65 49 45 50 64 51 46 52 49 53 63 54 82 55 47 56
REMARK SMILES IDX 48 57 62 59 83 60 50 61 34 62 35 63 43 64 36 65 42 66 44 67
REMARK SMILES IDX 41 68 37 69 38 70 39 71 40 72 66 73 67 74 75 75 68 76 74 77
REMARK SMILES IDX 76 78 73 79 69 80 70 81 71 82 72 83 51 84 52 85 60 86 53 87
REMARK SMILES IDX 59 88 61 89 58 90 54 91 55 92 56 93 57 94
REMARK H PARENT 18 5 10 13 22 28 81 47 49 58
REMARK Flexibility Score: inf
ROOT
ATOM      1  C   UNL A   1      38.961  31.346  32.018  1.00  0.00     0.117 C 
ENDROOT
BRANCH   1   2
ATOM      2  N   UNL A   1      39.070  32.800  32.069  1.00  0.00    -0.354 N 
ATOM      3  C   UNL A   1      38.361  33.708  32.802  1.00  0.00     0.249 C 
ATOM      4  O   UNL A   1      38.702  34.892  32.740  1.00  0.00    -0.272 OA
ATOM      5  H   UNL A   1      39.762  33.186  31.485  1.00  0.00     0.163 HD
BRANCH   3   6
ATOM      6  C   UNL A   1      37.132  33.260  33.617  1.00  0.00     0.207 C 
ATOM      7  C   UNL A   1      35.154  34.360  34.277  1.00  0.00     0.134 C 
ATOM      8  C   UNL A   1      34.769  33.095  33.530  1.00  0.00     0.037 C 
ATOM      9  O   UNL A   1      36.572  34.276  34.453  1.00  0.00    -0.364 OA
ATOM     10  C   UNL A   1      35.997  32.796  32.709  1.00  0.00     0.045 C 
BRANCH   7  11
ATOM     11  C   UNL A   1      34.848  35.657  33.511  1.00  0.00     0.131 C 
BRANCH  11  12
ATOM     12  N   UNL A   1      33.444  36.112  33.653  1.00  0.00    -0.207 NA
ATOM     13  H   UNL A   1      32.894  35.287  33.890  1.00  0.00     0.141 HD
BRANCH  12  14
ATOM     14  S   UNL A   1      32.642  36.873  32.366  1.00  0.00     0.259 S 
ATOM     15  O   UNL A   1      32.970  38.283  32.393  1.00  0.00    -0.205 OA
ATOM     16  O   UNL A   1      31.271  36.426  32.467  1.00  0.00    -0.205 OA
BRANCH  14  17
ATOM     17  C   UNL A   1      33.197  36.267  30.830  1.00  0.00     0.188 A 
ATOM     18  N   UNL A   1      34.006  34.992  29.250  1.00  0.00    -0.336 N 
ATOM     19  C   UNL A   1      33.536  36.156  28.711  1.00  0.00     0.201 A 
ATOM     20  C   UNL A   1      33.764  35.028  30.595  1.00  0.00     0.129 A 
ATOM     21  N   UNL A   1      33.061  36.960  29.637  1.00  0.00    -0.224 NA
BRANCH  18  22
ATOM     22  C   UNL A   1      34.605  33.886  28.529  1.00  0.00     0.120 C 
ATOM     23  C   UNL A   1      34.515  32.554  29.256  1.00  0.00     0.027 C 
ENDBRANCH  18  22
ENDBRANCH  14  17
ENDBRANCH  12  14
ENDBRANCH  11  12
ENDBRANCH   7  11
ENDBRANCH   3   6
ENDBRANCH   1   2
BRANCH   1  24
ATOM     24  C   UNL A   1      38.265  30.833  30.759  1.00  0.00     0.042 C 
BRANCH  24  25
ATOM     25  C   UNL A   1      37.213  29.781  31.057  1.00  0.00     0.118 C 
BRANCH  25  26
ATOM     26  N   UNL A   1      36.241  29.589  29.974  1.00  0.00    -0.352 N 
ATOM     27  C   UNL A   1      36.504  29.321  28.640  1.00  0.00     0.251 C 
ATOM     28  H   UNL A   1      35.292  29.659  30.225  1.00  0.00     0.163 HD
ATOM     29  O   UNL A   1      35.639  29.477  27.787  1.00  0.00    -0.269 OA
BRANCH  27  30
ATOM     30  C   UNL A   1      37.855  28.850  28.276  1.00  0.00     0.039 A 
ATOM     31  C   UNL A   1      38.664  29.528  27.361  1.00  0.00     0.014 A 
ATOM     32  C   UNL A   1      38.335  27.730  28.944  1.00  0.00     0.014 A 
ATOM     33  C   UNL A   1      39.990  29.115  27.205  1.00  0.00     0.010 A 
ATOM     34  C   UNL A   1      39.676  27.463  28.947  1.00  0.00     0.010 A 
ATOM     35  C   UNL A   1      40.500  28.095  28.025  1.00  0.00    -0.014 A 
BRANCH  35  36
ATOM     36  C   UNL A   1      41.914  27.723  28.011  1.00  0.00     0.031 A 
ATOM     37  C   UNL A   1      42.212  26.441  27.315  1.00  0.00     0.074 A 
ATOM     38  C   UNL A   1      42.900  28.568  28.394  1.00  0.00     0.049 A 
ATOM     39  N   UNL A   1      42.641  25.343  27.840  1.00  0.00    -0.248 NA
ATOM     40  C   UNL A   1      41.856  26.310  25.892  1.00  0.00     0.031 C 
ATOM     41  C   UNL A   1      42.795  29.970  28.823  1.00  0.00     0.029 A 
ATOM     42  N   UNL A   1      44.247  28.379  28.371  1.00  0.00    -0.354 N 
ATOM     43  C   UNL A   1      42.832  24.450  26.789  1.00  0.00     0.074 A 
ATOM     44  C   UNL A   1      42.155  25.030  25.659  1.00  0.00     0.031 C 
ATOM     45  C   UNL A   1      44.010  30.561  28.772  1.00  0.00     0.029 A 
ATOM     46  C   UNL A   1      45.006  29.543  28.502  1.00  0.00     0.049 A 
ATOM     47  H   UNL A   1      44.655  27.489  28.271  1.00  0.00     0.167 HD
ATOM     48  C   UNL A   1      43.718  23.421  26.893  1.00  0.00     0.034 A 
ATOM     49  C   UNL A   1      46.357  29.667  28.393  1.00  0.00     0.034 A 
ATOM     50  C   UNL A   1      44.091  23.205  28.274  1.00  0.00     0.049 A 
ATOM     51  C   UNL A   1      46.914  28.315  28.647  1.00  0.00     0.074 A 
ATOM     52  C   UNL A   1      43.391  22.884  29.422  1.00  0.00     0.029 A 
ATOM     53  N   UNL A   1      45.290  23.727  28.709  1.00  0.00    -0.354 N 
ATOM     54  N   UNL A   1      46.798  27.701  29.795  1.00  0.00    -0.248 NA
ATOM     55  C   UNL A   1      47.134  27.448  27.499  1.00  0.00     0.031 C 
ATOM     56  C   UNL A   1      43.964  23.709  30.436  1.00  0.00     0.029 A 
ATOM     57  C   UNL A   1      45.039  24.404  29.878  1.00  0.00     0.049 A 
ATOM     58  H   UNL A   1      46.163  23.632  28.264  1.00  0.00     0.167 HD
ATOM     59  C   UNL A   1      46.490  26.388  29.469  1.00  0.00     0.074 A 
ATOM     60  C   UNL A   1      46.797  26.273  28.042  1.00  0.00     0.031 C 
ATOM     61  C   UNL A   1      45.750  25.598  30.302  1.00  0.00     0.034 A 
BRANCH  48  62
ATOM     62  C   UNL A   1      44.524  22.831  25.755  1.00  0.00     0.023 A 
ATOM     63  C   UNL A   1      44.486  21.431  25.593  1.00  0.00     0.031 A 
ATOM     64  C   UNL A   1      45.527  23.503  25.021  1.00  0.00     0.131 A 
ATOM     65  C   UNL A   1      45.464  20.759  24.840  1.00  0.00     0.055 A 
ATOM     66  C   UNL A   1      46.458  22.835  24.219  1.00  0.00     0.041 A 
ATOM     67  F   UNL A   1      45.728  24.822  25.107  1.00  0.00    -0.206 F 
ATOM     68  C   UNL A   1      46.453  21.454  24.152  1.00  0.00     0.022 A 
BRANCH  65  69
ATOM     69  S   UNL A   1      45.531  18.951  24.934  1.00  0.00     0.124 S 
ATOM     70  O   UNL A   1      44.345  18.652  25.728  1.00  0.00    -0.237 OA
ATOM     71  O   UNL A   1      45.476  18.576  23.525  1.00  0.00    -0.237 OA
ATOM     72  O   UNL A   1      46.807  18.694  25.597  1.00  0.00    -0.744 OA
ENDBRANCH  65  69
ENDBRANCH  48  62
BRANCH  49  73
ATOM     73  C   UNL A   1      47.113  30.772  27.732  1.00  0.00     0.023 A 
ATOM     74  C   UNL A   1      46.492  31.865  27.084  1.00  0.00     0.031 A 
ATOM     75  C   UNL A   1      48.506  30.881  27.953  1.00  0.00     0.131 A 
ATOM     76  C   UNL A   1      47.257  32.994  26.694  1.00  0.00     0.055 A 
ATOM     77  C   UNL A   1      49.253  31.998  27.570  1.00  0.00     0.041 A 
ATOM     78  F   UNL A   1      49.176  29.935  28.630  1.00  0.00    -0.206 F 
ATOM     79  C   UNL A   1      48.629  33.066  26.945  1.00  0.00     0.022 A 
BRANCH  76  80
ATOM     80  S   UNL A   1      46.461  34.437  25.908  1.00  0.00     0.124 S 
ATOM     81  O   UNL A   1      47.594  35.125  25.300  1.00  0.00    -0.237 OA
ATOM     82  O   UNL A   1      45.512  33.813  24.994  1.00  0.00    -0.237 OA
ATOM     83  O   UNL A   1      45.847  35.145  27.034  1.00  0.00    -0.744 OA
ENDBRANCH  76  80
ENDBRANCH  49  73
BRANCH  61  84
ATOM     84  C   UNL A   1      45.486  26.069  31.720  1.00  0.00     0.023 A 
ATOM     85  C   UNL A   1      44.281  26.652  32.182  1.00  0.00     0.031 A 
ATOM     86  C   UNL A   1      46.466  25.755  32.679  1.00  0.00     0.131 A 
ATOM     87  C   UNL A   1      44.098  26.889  33.562  1.00  0.00     0.055 A 
ATOM     88  C   UNL A   1      46.272  25.969  34.042  1.00  0.00     0.041 A 
ATOM     89  F   UNL A   1      47.622  25.180  32.305  1.00  0.00    -0.206 F 
ATOM     90  C   UNL A   1      45.086  26.540  34.489  1.00  0.00     0.022 A 
BRANCH  87  91
ATOM     91  S   UNL A   1      42.569  27.665  34.190  1.00  0.00     0.124 S 
ATOM     92  O   UNL A   1      41.993  28.288  33.004  1.00  0.00    -0.237 OA
ATOM     93  O   UNL A   1      41.834  26.527  34.737  1.00  0.00    -0.237 OA
ATOM     94  O   UNL A   1      43.054  28.611  35.197  1.00  0.00    -0.744 OA
ENDBRANCH  87  91
ENDBRANCH  61  84
ENDBRANCH  35  36
ENDBRANCH  27  30
ENDBRANCH  25  26
ENDBRANCH  24  25
ENDBRANCH   1  24
TORSDOF 18
ENDMDL
MODEL 2
REMARK VINA RESULT:     -11.9      4.737     10.204
REMARK SMILES CCn1cnc(S(=O)(=O)NC[C@H]2CC[C@@H](C(=O)NCCCNC(=O)c3ccc(-c4c5nc(c(-c6cc(S(=O)(=O)[O-])ccc6F)c6ccc([nH]6)c(-c6cc(S(=O)(=O)[O-])ccc6F)c6nc(c(-c7cc(S(=O)(=O)[O-])ccc7F)c7ccc4[nH]7)C=C6)C=C5)cc3)O2)c1
REMARK SMILES IDX 19 1 18 2 16 3 17 4 15 6 12 7 13 8 88 9 14 10 11 11 10 12
REMARK SMILES IDX 7 14 8 15 9 16 6 17 3 18 4 19 89 20 5 21 2 22 1 23 20 24
REMARK SMILES IDX 21 25 22 26 23 27 24 29 25 30 26 31 87 32 27 33 86 34 28 35
REMARK SMILES IDX 29 36 30 37 80 38 31 39 85 40 79 41 81 42 32 43 84 44 78 45
REMARK SMILES IDX 77 46 33 48 65 49 45 50 64 51 46 52 49 53 63 54 82 55 47 56
REMARK SMILES IDX 48 57 62 59 83 60 50 61 34 62 35 63 43 64 36 65 42 66 44 67
REMARK SMILES IDX 41 68 37 69 38 70 39 71 40 72 66 73 67 74 75 75 68 76 74 77
REMARK SMILES IDX 76 78 73 79 69 80 70 81 71 82 72 83 51 84 52 85 60 86 53 87
REMARK SMILES IDX 59 88 61 89 58 90 54 91 55 92 56 93 57 94
REMARK H PARENT 18 5 10 13 22 28 81 47 49 58
REMARK Flexibility Score: inf
ROOT
ATOM      1  C   UNL A   1      36.076  20.117  25.000  1.00  0.00     0.117 C 
ENDROOT
BRANCH   1   2
ATOM      2  N   UNL A   1      35.531  20.939  26.074  1.00  0.00    -0.354 N 
ATOM      3  C   UNL A   1      34.304  21.526  26.194  1.00  0.00     0.249 C 
ATOM      4  O   UNL A   1      34.043  22.107  27.251  1.00  0.00    -0.272 OA
ATOM      5  H   UNL A   1      36.142  21.095  26.830  1.00  0.00     0.163 HD
BRANCH   3   6
ATOM      6  C   UNL A   1      33.318  21.517  25.010  1.00  0.00     0.207 C 
ATOM      7  C   UNL A   1      31.373  22.760  24.527  1.00  0.00     0.134 C 
ATOM      8  C   UNL A   1      32.335  22.908  23.362  1.00  0.00     0.037 C 
ATOM      9  O   UNL A   1      31.955  21.760  25.370  1.00  0.00    -0.364 OA
ATOM     10  C   UNL A   1      33.671  22.583  23.978  1.00  0.00     0.045 C 
BRANCH   7  11
ATOM     11  C   UNL A   1      31.199  24.039  25.363  1.00  0.00     0.131 C 
BRANCH  11  12
ATOM     12  N   UNL A   1      30.130  24.934  24.859  1.00  0.00    -0.207 NA
ATOM     13  H   UNL A   1      29.663  24.433  24.103  1.00  0.00     0.141 HD
BRANCH  12  14
ATOM     14  S   UNL A   1      30.499  26.477  24.259  1.00  0.00     0.259 S 
ATOM     15  O   UNL A   1      29.276  27.087  23.781  1.00  0.00    -0.205 OA
ATOM     16  O   UNL A   1      31.623  26.272  23.372  1.00  0.00    -0.205 OA
BRANCH  14  17
ATOM     17  C   UNL A   1      31.109  27.515  25.518  1.00  0.00     0.188 A 
ATOM     18  N   UNL A   1      31.894  29.229  26.624  1.00  0.00    -0.336 N 
ATOM     19  C   UNL A   1      31.614  28.208  27.489  1.00  0.00     0.201 A 
ATOM     20  C   UNL A   1      31.542  28.818  25.367  1.00  0.00     0.129 A 
ATOM     21  N   UNL A   1      31.160  27.150  26.855  1.00  0.00    -0.224 NA
BRANCH  18  22
ATOM     22  C   UNL A   1      32.416  30.536  26.969  1.00  0.00     0.120 C 
ATOM     23  C   UNL A   1      31.514  31.690  26.560  1.00  0.00     0.027 C 
ENDBRANCH  18  22
ENDBRANCH  14  17
ENDBRANCH  12  14
ENDBRANCH  11  12
ENDBRANCH   7  11
ENDBRANCH   3   6
ENDBRANCH   1   2
BRANCH   1  24
ATOM     24  C   UNL A   1      37.355  20.685  24.389  1.00  0.00     0.042 C 
BRANCH  24  25
ATOM     25  C   UNL A   1      38.470  20.845  25.405  1.00  0.00     0.118 C 
BRANCH  25  26
ATOM     26  N   UNL A   1      39.321  19.658  25.548  1.00  0.00    -0.352 N 
ATOM     27  C   UNL A   1      40.660  19.617  25.900  1.00  0.00     0.251 C 
ATOM     28  H   UNL A   1      38.889  18.792  25.373  1.00  0.00     0.163 HD
ATOM     29  O   UNL A   1      41.331  18.611  25.698  1.00  0.00    -0.269 OA
BRANCH  27  30
ATOM     30  C   UNL A   1      41.257  20.817  26.519  1.00  0.00     0.039 A 
ATOM     31  C   UNL A   1      41.896  21.808  25.770  1.00  0.00     0.014 A 
ATOM     32  C   UNL A   1      41.093  20.968  27.892  1.00  0.00     0.014 A 
ATOM     33  C   UNL A   1      42.278  22.989  26.410  1.00  0.00     0.010 A 
ATOM     34  C   UNL A   1      41.274  22.196  28.466  1.00  0.00     0.010 A 
ATOM     35  C   UNL A   1      41.937  23.189  27.759  1.00  0.00    -0.014 A 
BRANCH  35  36
ATOM     36  C   UNL A   1      42.176  24.462  28.438  1.00  0.00     0.031 A 
ATOM     37  C   UNL A   1      41.143  25.504  28.187  1.00  0.00     0.074 A 
ATOM     38  C   UNL A   1      43.124  24.620  29.391  1.00  0.00     0.049 A 
ATOM     39  N   UNL A   1      41.285  26.613  27.543  1.00  0.00    -0.248 NA
ATOM     40  C   UNL A   1      39.748  25.220  28.565  1.00  0.00     0.031 C 
ATOM     41  C   UNL A   1      44.028  23.612  29.966  1.00  0.00     0.029 A 
ATOM     42  N   UNL A   1      43.409  25.718  30.143  1.00  0.00    -0.354 N 
ATOM     43  C   UNL A   1      40.065  27.279  27.628  1.00  0.00     0.074 A 
ATOM     44  C   UNL A   1      39.119  26.300  28.093  1.00  0.00     0.031 C 
ATOM     45  C   UNL A   1      44.560  24.075  31.119  1.00  0.00     0.029 A 
ATOM     46  C   UNL A   1      44.200  25.472  31.266  1.00  0.00     0.049 A 
ATOM     47  H   UNL A   1      43.082  26.617  29.912  1.00  0.00     0.167 HD
ATOM     48  C   UNL A   1      39.996  28.635  27.518  1.00  0.00     0.034 A 
ATOM     49  C   UNL A   1      44.535  26.349  32.251  1.00  0.00     0.034 A 
ATOM     50  C   UNL A   1      41.221  29.166  26.961  1.00  0.00     0.049 A 
ATOM     51  C   UNL A   1      44.375  27.703  31.665  1.00  0.00     0.074 A 
ATOM     52  C   UNL A   1      41.899  28.978  25.770  1.00  0.00     0.029 A 
ATOM     53  N   UNL A   1      42.146  29.704  27.828  1.00  0.00    -0.354 N 
ATOM     54  N   UNL A   1      45.100  28.138  30.668  1.00  0.00    -0.248 NA
ATOM     55  C   UNL A   1      43.090  28.365  31.832  1.00  0.00     0.031 C 
ATOM     56  C   UNL A   1      43.273  28.905  26.146  1.00  0.00     0.029 A 
ATOM     57  C   UNL A   1      43.365  29.153  27.518  1.00  0.00     0.049 A 
ATOM     58  H   UNL A   1      41.966  30.361  28.540  1.00  0.00     0.167 HD
ATOM     59  C   UNL A   1      44.207  28.794  29.835  1.00  0.00     0.074 A 
ATOM     60  C   UNL A   1      43.002  28.978  30.646  1.00  0.00     0.031 C 
ATOM     61  C   UNL A   1      44.412  28.876  28.487  1.00  0.00     0.034 A 
BRANCH  48  62
ATOM     62  C   UNL A   1      38.995  29.528  28.221  1.00  0.00     0.023 A 
ATOM     63  C   UNL A   1      39.122  29.667  29.618  1.00  0.00     0.031 A 
ATOM     64  C   UNL A   1      37.785  30.004  27.668  1.00  0.00     0.131 A 
ATOM     65  C   UNL A   1      38.056  30.142  30.402  1.00  0.00     0.055 A 
ATOM     66  C   UNL A   1      36.752  30.539  28.445  1.00  0.00     0.041 A 
ATOM     67  F   UNL A   1      37.489  29.897  26.369  1.00  0.00    -0.206 F 
ATOM     68  C   UNL A   1      36.869  30.578  29.823  1.00  0.00     0.022 A 
BRANCH  65  69
ATOM     69  S   UNL A   1      38.182  30.000  32.203  1.00  0.00     0.124 S 
ATOM     70  O   UNL A   1      39.359  29.152  32.352  1.00  0.00    -0.237 OA
ATOM     71  O   UNL A   1      38.337  31.395  32.603  1.00  0.00    -0.237 OA
ATOM     72  O   UNL A   1      36.915  29.381  32.583  1.00  0.00    -0.744 OA
ENDBRANCH  65  69
ENDBRANCH  48  62
BRANCH  49  73
ATOM     73  C   UNL A   1      44.610  26.076  33.717  1.00  0.00     0.023 A 
ATOM     74  C   UNL A   1      43.541  26.313  34.611  1.00  0.00     0.031 A 
ATOM     75  C   UNL A   1      45.698  25.327  34.224  1.00  0.00     0.131 A 
ATOM     76  C   UNL A   1      43.590  25.809  35.936  1.00  0.00     0.055 A 
ATOM     77  C   UNL A   1      45.738  24.830  35.529  1.00  0.00     0.041 A 
ATOM     78  F   UNL A   1      46.727  24.980  33.434  1.00  0.00    -0.206 F 
ATOM     79  C   UNL A   1      44.679  25.061  36.390  1.00  0.00     0.022 A 
BRANCH  76  80
ATOM     80  S   UNL A   1      42.192  26.057  37.085  1.00  0.00     0.124 S 
ATOM     81  O   UNL A   1      41.480  24.789  36.988  1.00  0.00    -0.237 OA
ATOM     82  O   UNL A   1      42.869  26.329  38.348  1.00  0.00    -0.237 OA
ATOM     83  O   UNL A   1      41.480  27.204  36.516  1.00  0.00    -0.744 OA
ENDBRANCH  76  80
ENDBRANCH  49  73
BRANCH  61  84
ATOM     84  C   UNL A   1      45.763  28.477  27.923  1.00  0.00     0.023 A 
ATOM     85  C   UNL A   1      46.109  27.188  27.452  1.00  0.00     0.031 A 
ATOM     86  C   UNL A   1      46.686  29.517  27.711  1.00  0.00     0.131 A 
ATOM     87  C   UNL A   1      47.341  26.988  26.792  1.00  0.00     0.055 A 
ATOM     88  C   UNL A   1      47.890  29.320  27.039  1.00  0.00     0.041 A 
ATOM     89  F   UNL A   1      46.405  30.767  28.116  1.00  0.00    -0.206 F 
ATOM     90  C   UNL A   1      48.223  28.052  26.577  1.00  0.00     0.022 A 
BRANCH  87  91
ATOM     91  S   UNL A   1      47.833  25.333  26.196  1.00  0.00     0.124 S 
ATOM     92  O   UNL A   1      46.562  24.701  25.862  1.00  0.00    -0.237 OA
ATOM     93  O   UNL A   1      48.709  25.645  25.070  1.00  0.00    -0.237 OA
ATOM     94  O   UNL A   1      48.518  24.744  27.349  1.00  0.00    -0.744 OA
ENDBRANCH  87  91
ENDBRANCH  61  84
ENDBRANCH  35  36
ENDBRANCH  27  30
ENDBRANCH  25  26
ENDBRANCH  24  25
ENDBRANCH   1  24
TORSDOF 18
ENDMDL
MODEL 3
REMARK VINA RESULT:     -11.8      4.193     12.433
REMARK SMILES CCn1cnc(S(=O)(=O)NC[C@H]2CC[C@@H](C(=O)NCCCNC(=O)c3ccc(-c4c5nc(c(-c6cc(S(=O)(=O)[O-])ccc6F)c6ccc([nH]6)c(-c6cc(S(=O)(=O)[O-])ccc6F)c6nc(c(-c7cc(S(=O)(=O)[O-])ccc7F)c7ccc4[nH]7)C=C6)C=C5)cc3)O2)c1
REMARK SMILES IDX 19 1 18 2 16 3 17 4 15 6 12 7 13 8 88 9 14 10 11 11 10 12
REMARK SMILES IDX 7 14 8 15 9 16 6 17 3 18 4 19 89 20 5 21 2 22 1 23 20 24
REMARK SMILES IDX 21 25 22 26 23 27 24 29 25 30 26 31 87 32 27 33 86 34 28 35
REMARK SMILES IDX 29 36 30 37 80 38 31 39 85 40 79 41 81 42 32 43 84 44 78 45
REMARK SMILES IDX 77 46 33 48 65 49 45 50 64 51 46 52 49 53 63 54 82 55 47 56
REMARK SMILES IDX 48 57 62 59 83 60 50 61 34 62 35 63 43 64 36 65 42 66 44 67
REMARK SMILES IDX 41 68 37 69 38 70 39 71 40 72 66 73 67 74 75 75 68 76 74 77
REMARK SMILES IDX 76 78 73 79 69 80 70 81 71 82 72 83 51 84 52 85 60 86 53 87
REMARK SMILES IDX 59 88 61 89 58 90 54 91 55 92 56 93 57 94
REMARK H PARENT 18 5 10 13 22 28 81 47 49 58
REMARK Flexibility Score: inf
ROOT
ATOM      1  C   UNL A   1      44.205  24.451  27.097  1.00  0.00     0.117 C 
ENDROOT
BRANCH   1   2
ATOM      2  N   UNL A   1      44.078  23.725  25.838  1.00  0.00    -0.354 N 
ATOM      3  C   UNL A   1      43.393  22.579  25.551  1.00  0.00     0.249 C 
ATOM      4  O   UNL A   1      43.363  22.204  24.376  1.00  0.00    -0.272 OA
ATOM      5  H   UNL A   1      44.559  24.124  25.077  1.00  0.00     0.163 HD
BRANCH   3   6
ATOM      6  C   UNL A   1      42.748  21.754  26.681  1.00  0.00     0.207 C 
ATOM      7  C   UNL A   1      40.549  20.994  27.063  1.00  0.00     0.134 C 
ATOM      8  C   UNL A   1      41.481  19.795  27.102  1.00  0.00     0.037 C 
ATOM      9  O   UNL A   1      41.410  22.138  27.006  1.00  0.00    -0.364 OA
ATOM     10  C   UNL A   1      42.682  20.272  26.327  1.00  0.00     0.045 C 
BRANCH   7  11
ATOM     11  C   UNL A   1      39.628  21.034  25.834  1.00  0.00     0.131 C 
BRANCH  11  12
ATOM     12  N   UNL A   1      38.377  21.798  26.055  1.00  0.00    -0.207 NA
ATOM     13  H   UNL A   1      38.105  21.637  27.025  1.00  0.00     0.141 HD
BRANCH  12  14
ATOM     14  S   UNL A   1      36.998  21.503  25.112  1.00  0.00     0.259 S 
ATOM     15  O   UNL A   1      36.748  20.077  25.103  1.00  0.00    -0.205 OA
ATOM     16  O   UNL A   1      37.230  22.224  23.880  1.00  0.00    -0.205 OA
BRANCH  14  17
ATOM     17  C   UNL A   1      35.587  22.248  25.808  1.00  0.00     0.188 A 
ATOM     18  N   UNL A   1      33.885  23.567  26.186  1.00  0.00    -0.336 N 
ATOM     19  C   UNL A   1      33.871  22.526  27.071  1.00  0.00     0.201 A 
ATOM     20  C   UNL A   1      34.951  23.386  25.348  1.00  0.00     0.129 A 
ATOM     21  N   UNL A   1      34.895  21.722  26.888  1.00  0.00    -0.224 NA
BRANCH  18  22
ATOM     22  C   UNL A   1      32.919  24.644  26.103  1.00  0.00     0.120 C 
ATOM     23  C   UNL A   1      33.538  26.012  25.861  1.00  0.00     0.027 C 
ENDBRANCH  18  22
ENDBRANCH  14  17
ENDBRANCH  12  14
ENDBRANCH  11  12
ENDBRANCH   7  11
ENDBRANCH   3   6
ENDBRANCH   1   2
BRANCH   1  24
ATOM     24  C   UNL A   1      42.957  25.250  27.465  1.00  0.00     0.042 C 
BRANCH  24  25
ATOM     25  C   UNL A   1      42.288  25.884  26.259  1.00  0.00     0.118 C 
BRANCH  25  26
ATOM     26  N   UNL A   1      41.017  25.254  25.885  1.00  0.00    -0.352 N 
ATOM     27  C   UNL A   1      39.811  25.315  26.566  1.00  0.00     0.251 C 
ATOM     28  H   UNL A   1      41.021  24.728  25.054  1.00  0.00     0.163 HD
ATOM     29  O   UNL A   1      38.913  24.517  26.324  1.00  0.00    -0.269 OA
BRANCH  27  30
ATOM     30  C   UNL A   1      39.642  26.361  27.595  1.00  0.00     0.039 A 
ATOM     31  C   UNL A   1      39.393  26.060  28.936  1.00  0.00     0.014 A 
ATOM     32  C   UNL A   1      39.818  27.679  27.189  1.00  0.00     0.014 A 
ATOM     33  C   UNL A   1      39.420  27.098  29.871  1.00  0.00     0.010 A 
ATOM     34  C   UNL A   1      40.051  28.651  28.123  1.00  0.00     0.010 A 
ATOM     35  C   UNL A   1      39.779  28.393  29.460  1.00  0.00    -0.014 A 
BRANCH  35  36
ATOM     36  C   UNL A   1      39.970  29.485  30.414  1.00  0.00     0.031 A 
ATOM     37  C   UNL A   1      38.752  30.302  30.674  1.00  0.00     0.074 A 
ATOM     38  C   UNL A   1      41.084  29.614  31.171  1.00  0.00     0.049 A 
ATOM     39  N   UNL A   1      38.552  31.536  30.357  1.00  0.00    -0.248 NA
ATOM     40  C   UNL A   1      37.557  29.635  31.218  1.00  0.00     0.031 C 
ATOM     41  C   UNL A   1      42.251  28.722  31.250  1.00  0.00     0.029 A 
ATOM     42  N   UNL A   1      41.364  30.533  32.134  1.00  0.00    -0.354 N 
ATOM     43  C   UNL A   1      37.300  31.876  30.863  1.00  0.00     0.074 A 
ATOM     44  C   UNL A   1      36.666  30.630  31.203  1.00  0.00     0.031 C 
ATOM     45  C   UNL A   1      42.969  28.999  32.361  1.00  0.00     0.029 A 
ATOM     46  C   UNL A   1      42.436  30.204  32.966  1.00  0.00     0.049 A 
ATOM     47  H   UNL A   1      40.851  31.366  32.237  1.00  0.00     0.167 HD
ATOM     48  C   UNL A   1      36.989  33.169  31.160  1.00  0.00     0.034 A 
ATOM     49  C   UNL A   1      42.857  30.869  34.076  1.00  0.00     0.034 A 
ATOM     50  C   UNL A   1      37.938  34.075  30.550  1.00  0.00     0.049 A 
ATOM     51  C   UNL A   1      42.343  32.255  33.942  1.00  0.00     0.074 A 
ATOM     52  C   UNL A   1      38.324  34.335  29.249  1.00  0.00     0.029 A 
ATOM     53  N   UNL A   1      38.949  34.579  31.340  1.00  0.00    -0.354 N 
ATOM     54  N   UNL A   1      42.721  33.066  32.989  1.00  0.00    -0.248 NA
ATOM     55  C   UNL A   1      41.049  32.556  34.535  1.00  0.00     0.031 C 
ATOM     56  C   UNL A   1      39.742  34.478  29.315  1.00  0.00     0.029 A 
ATOM     57  C   UNL A   1      40.127  34.402  30.655  1.00  0.00     0.049 A 
ATOM     58  H   UNL A   1      38.846  34.989  32.230  1.00  0.00     0.167 HD
ATOM     59  C   UNL A   1      41.558  33.690  32.567  1.00  0.00     0.074 A 
ATOM     60  C   UNL A   1      40.575  33.402  33.613  1.00  0.00     0.031 C 
ATOM     61  C   UNL A   1      41.410  34.138  31.285  1.00  0.00     0.034 A 
BRANCH  48  62
ATOM     62  C   UNL A   1      36.061  33.622  32.266  1.00  0.00     0.023 A 
ATOM     63  C   UNL A   1      35.032  34.523  31.919  1.00  0.00     0.031 A 
ATOM     64  C   UNL A   1      36.289  33.462  33.651  1.00  0.00     0.131 A 
ATOM     65  C   UNL A   1      34.373  35.287  32.898  1.00  0.00     0.055 A 
ATOM     66  C   UNL A   1      35.584  34.175  34.626  1.00  0.00     0.041 A 
ATOM     67  F   UNL A   1      37.261  32.686  34.141  1.00  0.00    -0.206 F 
ATOM     68  C   UNL A   1      34.644  35.119  34.252  1.00  0.00     0.022 A 
BRANCH  65  69
ATOM     69  S   UNL A   1      33.293  36.636  32.355  1.00  0.00     0.124 S 
ATOM     70  O   UNL A   1      31.978  36.131  32.731  1.00  0.00    -0.237 OA
ATOM     71  O   UNL A   1      33.801  37.759  33.135  1.00  0.00    -0.237 OA
ATOM     72  O   UNL A   1      33.544  36.712  30.918  1.00  0.00    -0.744 OA
ENDBRANCH  65  69
ENDBRANCH  48  62
BRANCH  49  73
ATOM     73  C   UNL A   1      43.332  30.275  35.361  1.00  0.00     0.023 A 
ATOM     74  C   UNL A   1      43.040  28.952  35.764  1.00  0.00     0.031 A 
ATOM     75  C   UNL A   1      44.316  30.958  36.113  1.00  0.00     0.131 A 
ATOM     76  C   UNL A   1      43.718  28.374  36.868  1.00  0.00     0.055 A 
ATOM     77  C   UNL A   1      44.984  30.381  37.196  1.00  0.00     0.041 A 
ATOM     78  F   UNL A   1      44.724  32.189  35.764  1.00  0.00    -0.206 F 
ATOM     79  C   UNL A   1      44.693  29.081  37.574  1.00  0.00     0.022 A 
BRANCH  76  80
ATOM     80  S   UNL A   1      43.393  26.647  37.367  1.00  0.00     0.124 S 
ATOM     81  O   UNL A   1      41.936  26.602  37.404  1.00  0.00    -0.237 OA
ATOM     82  O   UNL A   1      44.040  25.887  36.304  1.00  0.00    -0.237 OA
ATOM     83  O   UNL A   1      44.041  26.541  38.676  1.00  0.00    -0.744 OA
ENDBRANCH  76  80
ENDBRANCH  49  73
BRANCH  61  84
ATOM     84  C   UNL A   1      42.627  34.195  30.380  1.00  0.00     0.023 A 
ATOM     85  C   UNL A   1      42.991  33.213  29.429  1.00  0.00     0.031 A 
ATOM     86  C   UNL A   1      43.358  35.397  30.387  1.00  0.00     0.131 A 
ATOM     87  C   UNL A   1      44.049  33.464  28.529  1.00  0.00     0.055 A 
ATOM     88  C   UNL A   1      44.385  35.650  29.482  1.00  0.00     0.041 A 
ATOM     89  F   UNL A   1      43.045  36.377  31.253  1.00  0.00    -0.206 F 
ATOM     90  C   UNL A   1      44.737  34.682  28.549  1.00  0.00     0.022 A 
BRANCH  87  91
ATOM     91  S   UNL A   1      44.565  32.209  27.306  1.00  0.00     0.124 S 
ATOM     92  O   UNL A   1      43.813  31.023  27.700  1.00  0.00    -0.237 OA
ATOM     93  O   UNL A   1      44.179  32.820  26.037  1.00  0.00    -0.237 OA
ATOM     94  O   UNL A   1      46.011  32.105  27.512  1.00  0.00    -0.744 OA
ENDBRANCH  87  91
ENDBRANCH  61  84
ENDBRANCH  35  36
ENDBRANCH  27  30
ENDBRANCH  25  26
ENDBRANCH  24  25
ENDBRANCH   1  24
TORSDOF 18
ENDMDL
