MODEL 1
REMARK VINA RESULT:     -13.8      0.000      0.000
REMARK SMILES O=C(NCCCNC(=O)c1ccc(-c2c3nc(c(-c4cc(S(=O)(=O)[O-])ccc4F)c4ccc([nH]4)c(-c4cc(S(=O)(=O)[O-])ccc4F)c4nc(c(-c5cc(S(=O)(=O)[O-])ccc5F)c5ccc2[nH]5)C=C4)C=C3)cc1)C1=Cc2cc(Cl)cc(-c3ccc(Cl)cc3)c2O[C@@H]1C(F)(F)F
REMARK SMILES IDX 6 1 5 2 4 3 3 4 1 5 2 6 73 8 74 9 90 10 75 11 89 12 76 13
REMARK SMILES IDX 88 14 77 15 80 16 78 17 79 18 91 19 92 20 93 21 94 22 81 23
REMARK SMILES IDX 82 24 87 25 83 26 86 27 84 28 85 29 7 30 8 31 9 33 10 34
REMARK SMILES IDX 11 35 72 36 12 37 71 38 13 39 14 40 15 41 65 42 16 43 70 44
REMARK SMILES IDX 64 45 66 46 17 47 69 48 63 49 62 50 18 52 50 53 30 54 49 55
REMARK SMILES IDX 31 56 34 57 48 58 67 59 32 60 33 61 47 63 68 64 35 65 19 66
REMARK SMILES IDX 20 67 28 68 21 69 27 70 29 71 26 72 22 73 23 74 24 75 25 76
REMARK SMILES IDX 51 77 52 78 60 79 53 80 59 81 61 82 58 83 54 84 55 85 56 86
REMARK SMILES IDX 57 87 36 88 37 89 45 90 38 91 44 92 46 93 43 94 39 95 40 96
REMARK SMILES IDX 41 97 42 98
REMARK H PARENT 3 7 7 32 66 51 34 62
REMARK Flexibility Score: inf
ROOT
ATOM      1  C   UNL A   1      32.895  29.919  26.145  1.00  0.00     0.118 C 
ENDROOT
BRANCH   1   2
ATOM      2  C   UNL A   1      31.983  28.796  26.635  1.00  0.00     0.042 C 
BRANCH   2   3
ATOM      3  C   UNL A   1      32.302  27.445  25.991  1.00  0.00     0.118 C 
BRANCH   3   4
ATOM      4  N   UNL A   1      31.671  26.318  26.688  1.00  0.00    -0.352 N 
ATOM      5  O   UNL A   1      31.471  24.174  27.414  1.00  0.00    -0.270 OA
ATOM      6  C   UNL A   1      31.931  24.973  26.611  1.00  0.00     0.251 C 
ATOM      7  H   UNL A   1      30.947  26.566  27.308  1.00  0.00     0.163 HD
BRANCH   6   8
ATOM      8  C   UNL A   1      32.852  24.542  25.552  1.00  0.00     0.067 C 
ATOM      9  C   UNL A   1      34.156  24.781  25.729  1.00  0.00     0.025 C 
ATOM     10  C   UNL A   1      32.337  23.569  24.542  1.00  0.00     0.314 C 
ATOM     11  C   UNL A   1      35.036  23.702  25.273  1.00  0.00     0.019 A 
ATOM     12  O   UNL A   1      33.129  22.356  24.538  1.00  0.00    -0.475 OA
ATOM     13  C   UNL A   1      36.387  23.770  25.617  1.00  0.00     0.032 A 
ATOM     14  C   UNL A   1      34.458  22.473  24.884  1.00  0.00     0.135 A 
ATOM     15  C   UNL A   1      37.133  22.599  25.677  1.00  0.00     0.042 A 
ATOM     16  C   UNL A   1      35.193  21.282  25.008  1.00  0.00     0.026 A 
ATOM     17  Cl  UNL A   1      38.757  22.662  26.240  1.00  0.00    -0.084 Cl
ATOM     18  C   UNL A   1      36.540  21.366  25.406  1.00  0.00     0.033 A 
BRANCH  10  19
ATOM     19  C   UNL A   1      32.225  24.196  23.141  1.00  0.00     0.429 C 
ATOM     20  F   UNL A   1      33.159  23.685  22.299  1.00  0.00    -0.167 F 
ATOM     21  F   UNL A   1      31.020  23.948  22.573  1.00  0.00    -0.167 F 
ATOM     22  F   UNL A   1      32.393  25.540  23.150  1.00  0.00    -0.167 F 
ENDBRANCH  10  19
BRANCH  16  23
ATOM     23  C   UNL A   1      34.555  19.958  24.939  1.00  0.00    -0.015 A 
ATOM     24  C   UNL A   1      33.247  19.785  25.427  1.00  0.00     0.010 A 
ATOM     25  C   UNL A   1      35.235  18.834  24.459  1.00  0.00     0.010 A 
ATOM     26  C   UNL A   1      32.652  18.525  25.492  1.00  0.00     0.021 A 
ATOM     27  C   UNL A   1      34.637  17.568  24.509  1.00  0.00     0.021 A 
ATOM     28  C   UNL A   1      33.355  17.418  25.040  1.00  0.00     0.041 A 
ATOM     29  Cl  UNL A   1      32.646  15.854  25.149  1.00  0.00    -0.084 Cl
ENDBRANCH  16  23
ENDBRANCH   6   8
ENDBRANCH   3   4
ENDBRANCH   2   3
ENDBRANCH   1   2
BRANCH   1  30
ATOM     30  N   UNL A   1      32.752  31.184  26.848  1.00  0.00    -0.352 N 
ATOM     31  C   UNL A   1      33.684  31.874  27.602  1.00  0.00     0.251 C 
ATOM     32  H   UNL A   1      31.867  31.609  26.778  1.00  0.00     0.163 HD
ATOM     33  O   UNL A   1      33.366  32.952  28.105  1.00  0.00    -0.269 OA
BRANCH  31  34
ATOM     34  C   UNL A   1      35.003  31.268  27.912  1.00  0.00     0.039 A 
ATOM     35  C   UNL A   1      36.092  32.127  28.101  1.00  0.00     0.014 A 
ATOM     36  C   UNL A   1      35.156  29.905  28.151  1.00  0.00     0.014 A 
ATOM     37  C   UNL A   1      37.265  31.647  28.689  1.00  0.00     0.010 A 
ATOM     38  C   UNL A   1      36.278  29.448  28.835  1.00  0.00     0.010 A 
ATOM     39  C   UNL A   1      37.323  30.326  29.155  1.00  0.00    -0.014 A 
BRANCH  39  40
ATOM     40  C   UNL A   1      38.417  29.856  30.049  1.00  0.00     0.031 A 
ATOM     41  C   UNL A   1      38.546  30.407  31.440  1.00  0.00     0.074 A 
ATOM     42  C   UNL A   1      39.368  29.038  29.550  1.00  0.00     0.049 A 
ATOM     43  N   UNL A   1      39.522  30.270  32.301  1.00  0.00    -0.248 NA
ATOM     44  C   UNL A   1      37.454  31.276  31.902  1.00  0.00     0.031 C 
ATOM     45  C   UNL A   1      39.393  28.497  28.186  1.00  0.00     0.029 A 
ATOM     46  N   UNL A   1      40.506  28.526  30.121  1.00  0.00    -0.354 N 
ATOM     47  C   UNL A   1      39.179  31.063  33.392  1.00  0.00     0.074 A 
ATOM     48  C   UNL A   1      37.938  31.726  33.049  1.00  0.00     0.031 C 
ATOM     49  C   UNL A   1      40.466  27.704  28.042  1.00  0.00     0.029 A 
ATOM     50  C   UNL A   1      41.237  27.719  29.278  1.00  0.00     0.049 A 
ATOM     51  H   UNL A   1      40.775  28.720  31.048  1.00  0.00     0.167 HD
ATOM     52  C   UNL A   1      39.827  31.205  34.575  1.00  0.00     0.034 A 
ATOM     53  C   UNL A   1      42.401  27.071  29.476  1.00  0.00     0.034 A 
ATOM     54  C   UNL A   1      41.044  30.505  34.906  1.00  0.00     0.049 A 
ATOM     55  C   UNL A   1      43.079  27.206  30.814  1.00  0.00     0.074 A 
ATOM     56  C   UNL A   1      41.764  30.526  36.088  1.00  0.00     0.029 A 
ATOM     57  N   UNL A   1      41.720  29.645  34.047  1.00  0.00    -0.354 N 
ATOM     58  N   UNL A   1      42.723  27.933  31.848  1.00  0.00    -0.248 NA
ATOM     59  C   UNL A   1      44.309  26.430  31.014  1.00  0.00     0.031 C 
ATOM     60  C   UNL A   1      42.893  29.712  35.930  1.00  0.00     0.029 A 
ATOM     61  C   UNL A   1      42.849  29.138  34.670  1.00  0.00     0.049 A 
ATOM     62  H   UNL A   1      41.437  29.427  33.130  1.00  0.00     0.167 HD
ATOM     63  C   UNL A   1      43.671  27.679  32.832  1.00  0.00     0.074 A 
ATOM     64  C   UNL A   1      44.606  26.723  32.271  1.00  0.00     0.031 C 
ATOM     65  C   UNL A   1      43.766  28.188  34.087  1.00  0.00     0.034 A 
BRANCH  52  66
ATOM     66  C   UNL A   1      39.227  32.164  35.576  1.00  0.00     0.023 A 
ATOM     67  C   UNL A   1      39.621  33.513  35.625  1.00  0.00     0.031 A 
ATOM     68  C   UNL A   1      38.303  31.716  36.536  1.00  0.00     0.131 A 
ATOM     69  C   UNL A   1      39.180  34.335  36.674  1.00  0.00     0.055 A 
ATOM     70  C   UNL A   1      37.793  32.566  37.522  1.00  0.00     0.041 A 
ATOM     71  F   UNL A   1      37.899  30.435  36.553  1.00  0.00    -0.206 F 
ATOM     72  C   UNL A   1      38.248  33.879  37.608  1.00  0.00     0.022 A 
BRANCH  69  73
ATOM     73  S   UNL A   1      39.981  35.947  36.896  1.00  0.00     0.124 S 
ATOM     74  O   UNL A   1      41.372  35.555  37.112  1.00  0.00    -0.237 OA
ATOM     75  O   UNL A   1      39.695  36.619  35.635  1.00  0.00    -0.237 OA
ATOM     76  O   UNL A   1      39.309  36.505  38.069  1.00  0.00    -0.744 OA
ENDBRANCH  69  73
ENDBRANCH  52  66
BRANCH  53  77
ATOM     77  C   UNL A   1      42.997  26.232  28.397  1.00  0.00     0.023 A 
ATOM     78  C   UNL A   1      44.051  26.721  27.609  1.00  0.00     0.031 A 
ATOM     79  C   UNL A   1      42.506  24.945  28.117  1.00  0.00     0.131 A 
ATOM     80  C   UNL A   1      44.551  25.949  26.549  1.00  0.00     0.055 A 
ATOM     81  C   UNL A   1      43.037  24.161  27.091  1.00  0.00     0.041 A 
ATOM     82  F   UNL A   1      41.508  24.426  28.849  1.00  0.00    -0.206 F 
ATOM     83  C   UNL A   1      44.057  24.668  26.291  1.00  0.00     0.022 A 
BRANCH  80  84
ATOM     84  S   UNL A   1      45.805  26.677  25.461  1.00  0.00     0.124 S 
ATOM     85  O   UNL A   1      46.836  27.070  26.415  1.00  0.00    -0.237 OA
ATOM     86  O   UNL A   1      46.132  25.557  24.585  1.00  0.00    -0.237 OA
ATOM     87  O   UNL A   1      45.096  27.782  24.818  1.00  0.00    -0.744 OA
ENDBRANCH  80  84
ENDBRANCH  53  77
BRANCH  65  88
ATOM     88  C   UNL A   1      44.894  27.674  34.941  1.00  0.00     0.023 A 
ATOM     89  C   UNL A   1      44.760  26.510  35.716  1.00  0.00     0.031 A 
ATOM     90  C   UNL A   1      46.114  28.370  34.987  1.00  0.00     0.131 A 
ATOM     91  C   UNL A   1      45.813  26.101  36.545  1.00  0.00     0.055 A 
ATOM     92  C   UNL A   1      47.177  27.930  35.776  1.00  0.00     0.041 A 
ATOM     93  F   UNL A   1      46.290  29.488  34.266  1.00  0.00    -0.206 F 
ATOM     94  C   UNL A   1      47.026  26.796  36.570  1.00  0.00     0.022 A 
BRANCH  91  95
ATOM     95  S   UNL A   1      45.554  24.685  37.649  1.00  0.00     0.124 S 
ATOM     96  O   UNL A   1      44.562  25.208  38.583  1.00  0.00    -0.237 OA
ATOM     97  O   UNL A   1      45.083  23.655  36.729  1.00  0.00    -0.237 OA
ATOM     98  O   UNL A   1      46.879  24.447  38.219  1.00  0.00    -0.744 OA
ENDBRANCH  91  95
ENDBRANCH  65  88
ENDBRANCH  39  40
ENDBRANCH  31  34
ENDBRANCH   1  30
TORSDOF 15
ENDMDL
MODEL 2
REMARK VINA RESULT:     -13.7      1.467      7.433
REMARK SMILES O=C(NCCCNC(=O)c1ccc(-c2c3nc(c(-c4cc(S(=O)(=O)[O-])ccc4F)c4ccc([nH]4)c(-c4cc(S(=O)(=O)[O-])ccc4F)c4nc(c(-c5cc(S(=O)(=O)[O-])ccc5F)c5ccc2[nH]5)C=C4)C=C3)cc1)C1=Cc2cc(Cl)cc(-c3ccc(Cl)cc3)c2O[C@@H]1C(F)(F)F
REMARK SMILES IDX 6 1 5 2 4 3 3 4 1 5 2 6 73 8 74 9 90 10 75 11 89 12 76 13
REMARK SMILES IDX 88 14 77 15 80 16 78 17 79 18 91 19 92 20 93 21 94 22 81 23
REMARK SMILES IDX 82 24 87 25 83 26 86 27 84 28 85 29 7 30 8 31 9 33 10 34
REMARK SMILES IDX 11 35 72 36 12 37 71 38 13 39 14 40 15 41 65 42 16 43 70 44
REMARK SMILES IDX 64 45 66 46 17 47 69 48 63 49 62 50 18 52 50 53 30 54 49 55
REMARK SMILES IDX 31 56 34 57 48 58 67 59 32 60 33 61 47 63 68 64 35 65 19 66
REMARK SMILES IDX 20 67 28 68 21 69 27 70 29 71 26 72 22 73 23 74 24 75 25 76
REMARK SMILES IDX 51 77 52 78 60 79 53 80 59 81 61 82 58 83 54 84 55 85 56 86
REMARK SMILES IDX 57 87 36 88 37 89 45 90 38 91 44 92 46 93 43 94 39 95 40 96
REMARK SMILES IDX 41 97 42 98
REMARK H PARENT 3 7 7 32 66 51 34 62
REMARK Flexibility Score: inf
ROOT
ATOM      1  C   UNL A   1      32.572  29.323  26.284  1.00  0.00     0.118 C 
ENDROOT
BRANCH   1   2
ATOM      2  C   UNL A   1      31.904  28.166  27.026  1.00  0.00     0.042 C 
BRANCH   2   3
ATOM      3  C   UNL A   1      31.610  26.969  26.121  1.00  0.00     0.118 C 
BRANCH   3   4
ATOM      4  N   UNL A   1      31.129  25.797  26.864  1.00  0.00    -0.352 N 
ATOM      5  O   UNL A   1      31.177  23.657  27.626  1.00  0.00    -0.270 OA
ATOM      6  C   UNL A   1      31.515  24.483  26.790  1.00  0.00     0.251 C 
ATOM      7  H   UNL A   1      30.416  25.985  27.517  1.00  0.00     0.163 HD
BRANCH   6   8
ATOM      8  C   UNL A   1      32.420  24.125  25.690  1.00  0.00     0.067 C 
ATOM      9  C   UNL A   1      33.713  24.439  25.824  1.00  0.00     0.025 C 
ATOM     10  C   UNL A   1      31.926  23.140  24.681  1.00  0.00     0.314 C 
ATOM     11  C   UNL A   1      34.637  23.423  25.315  1.00  0.00     0.019 A 
ATOM     12  O   UNL A   1      32.787  21.977  24.626  1.00  0.00    -0.475 OA
ATOM     13  C   UNL A   1      35.995  23.566  25.611  1.00  0.00     0.032 A 
ATOM     14  C   UNL A   1      34.119  22.168  24.925  1.00  0.00     0.135 A 
ATOM     15  C   UNL A   1      36.810  22.440  25.622  1.00  0.00     0.042 A 
ATOM     16  C   UNL A   1      34.927  21.021  25.000  1.00  0.00     0.026 A 
ATOM     17  Cl  UNL A   1      38.447  22.591  26.126  1.00  0.00    -0.084 Cl
ATOM     18  C   UNL A   1      36.281  21.179  25.350  1.00  0.00     0.033 A 
BRANCH  10  19
ATOM     19  C   UNL A   1      31.724  23.782  23.297  1.00  0.00     0.429 C 
ATOM     20  F   UNL A   1      32.530  23.208  22.369  1.00  0.00    -0.167 F 
ATOM     21  F   UNL A   1      30.454  23.628  22.851  1.00  0.00    -0.167 F 
ATOM     22  F   UNL A   1      31.992  25.110  23.289  1.00  0.00    -0.167 F 
ENDBRANCH  10  19
BRANCH  16  23
ATOM     23  C   UNL A   1      34.367  19.662  24.929  1.00  0.00    -0.015 A 
ATOM     24  C   UNL A   1      33.055  19.422  25.377  1.00  0.00     0.010 A 
ATOM     25  C   UNL A   1      35.124  18.572  24.489  1.00  0.00     0.010 A 
ATOM     26  C   UNL A   1      32.529  18.133  25.441  1.00  0.00     0.021 A 
ATOM     27  C   UNL A   1      34.596  17.276  24.537  1.00  0.00     0.021 A 
ATOM     28  C   UNL A   1      33.308  17.061  25.029  1.00  0.00     0.041 A 
ATOM     29  Cl  UNL A   1      32.683  15.461  25.137  1.00  0.00    -0.084 Cl
ENDBRANCH  16  23
ENDBRANCH   6   8
ENDBRANCH   3   4
ENDBRANCH   2   3
ENDBRANCH   1   2
BRANCH   1  30
ATOM     30  N   UNL A   1      32.301  30.645  26.827  1.00  0.00    -0.352 N 
ATOM     31  C   UNL A   1      33.182  31.565  27.365  1.00  0.00     0.251 C 
ATOM     32  H   UNL A   1      31.358  30.924  26.807  1.00  0.00     0.163 HD
ATOM     33  O   UNL A   1      32.750  32.649  27.756  1.00  0.00    -0.269 OA
BRANCH  31  34
ATOM     34  C   UNL A   1      34.604  31.206  27.593  1.00  0.00     0.039 A 
ATOM     35  C   UNL A   1      35.512  32.242  27.840  1.00  0.00     0.014 A 
ATOM     36  C   UNL A   1      35.028  29.884  27.700  1.00  0.00     0.014 A 
ATOM     37  C   UNL A   1      36.776  31.952  28.359  1.00  0.00     0.010 A 
ATOM     38  C   UNL A   1      36.242  29.599  28.317  1.00  0.00     0.010 A 
ATOM     39  C   UNL A   1      37.108  30.633  28.698  1.00  0.00    -0.014 A 
BRANCH  39  40
ATOM     40  C   UNL A   1      38.305  30.312  29.522  1.00  0.00     0.031 A 
ATOM     41  C   UNL A   1      39.341  29.353  29.010  1.00  0.00     0.074 A 
ATOM     42  C   UNL A   1      38.378  30.783  30.785  1.00  0.00     0.049 A 
ATOM     43  N   UNL A   1      40.350  28.805  29.639  1.00  0.00    -0.248 NA
ATOM     44  C   UNL A   1      39.188  28.908  27.618  1.00  0.00     0.031 C 
ATOM     45  C   UNL A   1      37.390  31.661  31.423  1.00  0.00     0.029 A 
ATOM     46  N   UNL A   1      39.313  30.580  31.769  1.00  0.00    -0.354 N 
ATOM     47  C   UNL A   1      40.929  27.925  28.732  1.00  0.00     0.074 A 
ATOM     48  C   UNL A   1      40.116  27.968  27.534  1.00  0.00     0.031 C 
ATOM     49  C   UNL A   1      37.792  31.949  32.670  1.00  0.00     0.029 A 
ATOM     50  C   UNL A   1      39.033  31.238  32.946  1.00  0.00     0.049 A 
ATOM     51  H   UNL A   1      40.110  30.015  31.645  1.00  0.00     0.167 HD
ATOM     52  C   UNL A   1      42.047  27.170  28.876  1.00  0.00     0.034 A 
ATOM     53  C   UNL A   1      39.697  31.258  34.118  1.00  0.00     0.034 A 
ATOM     54  C   UNL A   1      42.861  27.172  30.067  1.00  0.00     0.049 A 
ATOM     55  C   UNL A   1      40.961  30.449  34.241  1.00  0.00     0.074 A 
ATOM     56  C   UNL A   1      44.041  26.492  30.313  1.00  0.00     0.029 A 
ATOM     57  N   UNL A   1      42.578  27.903  31.217  1.00  0.00    -0.354 N 
ATOM     58  N   UNL A   1      41.515  29.648  33.360  1.00  0.00    -0.248 NA
ATOM     59  C   UNL A   1      41.692  30.552  35.510  1.00  0.00     0.031 C 
ATOM     60  C   UNL A   1      44.450  26.780  31.622  1.00  0.00     0.029 A 
ATOM     61  C   UNL A   1      43.555  27.683  32.174  1.00  0.00     0.049 A 
ATOM     62  H   UNL A   1      41.798  28.490  31.333  1.00  0.00     0.167 HD
ATOM     63  C   UNL A   1      42.676  29.173  33.960  1.00  0.00     0.074 A 
ATOM     64  C   UNL A   1      42.747  29.787  35.271  1.00  0.00     0.031 C 
ATOM     65  C   UNL A   1      43.602  28.307  33.474  1.00  0.00     0.034 A 
BRANCH  52  66
ATOM     66  C   UNL A   1      42.430  26.279  27.718  1.00  0.00     0.023 A 
ATOM     67  C   UNL A   1      42.037  24.930  27.670  1.00  0.00     0.031 A 
ATOM     68  C   UNL A   1      43.250  26.760  26.682  1.00  0.00     0.131 A 
ATOM     69  C   UNL A   1      42.552  24.084  26.676  1.00  0.00     0.055 A 
ATOM     70  C   UNL A   1      43.682  25.934  25.640  1.00  0.00     0.041 A 
ATOM     71  F   UNL A   1      43.672  28.035  26.679  1.00  0.00    -0.206 F 
ATOM     72  C   UNL A   1      43.351  24.582  25.645  1.00  0.00     0.022 A 
BRANCH  69  73
ATOM     73  S   UNL A   1      42.304  22.297  26.856  1.00  0.00     0.124 S 
ATOM     74  O   UNL A   1      43.673  21.833  27.075  1.00  0.00    -0.237 OA
ATOM     75  O   UNL A   1      41.411  22.215  28.004  1.00  0.00    -0.237 OA
ATOM     76  O   UNL A   1      41.717  21.901  25.576  1.00  0.00    -0.744 OA
ENDBRANCH  69  73
ENDBRANCH  52  66
BRANCH  53  77
ATOM     77  C   UNL A   1      39.195  32.071  35.263  1.00  0.00     0.023 A 
ATOM     78  C   UNL A   1      39.661  33.378  35.472  1.00  0.00     0.031 A 
ATOM     79  C   UNL A   1      38.267  31.547  36.179  1.00  0.00     0.131 A 
ATOM     80  C   UNL A   1      39.236  34.103  36.597  1.00  0.00     0.055 A 
ATOM     81  C   UNL A   1      37.810  32.288  37.271  1.00  0.00     0.041 A 
ATOM     82  F   UNL A   1      37.779  30.306  36.018  1.00  0.00    -0.206 F 
ATOM     83  C   UNL A   1      38.306  33.570  37.492  1.00  0.00     0.022 A 
BRANCH  80  84
ATOM     84  S   UNL A   1      39.978  35.727  36.914  1.00  0.00     0.124 S 
ATOM     85  O   UNL A   1      41.382  35.382  37.103  1.00  0.00    -0.237 OA
ATOM     86  O   UNL A   1      39.653  36.451  35.689  1.00  0.00    -0.237 OA
ATOM     87  O   UNL A   1      39.281  36.190  38.113  1.00  0.00    -0.744 OA
ENDBRANCH  80  84
ENDBRANCH  53  77
BRANCH  65  88
ATOM     88  C   UNL A   1      44.788  28.023  34.356  1.00  0.00     0.023 A 
ATOM     89  C   UNL A   1      44.787  26.957  35.272  1.00  0.00     0.031 A 
ATOM     90  C   UNL A   1      45.929  28.841  34.286  1.00  0.00     0.131 A 
ATOM     91  C   UNL A   1      45.888  26.765  36.118  1.00  0.00     0.055 A 
ATOM     92  C   UNL A   1      47.042  28.614  35.096  1.00  0.00     0.041 A 
ATOM     93  F   UNL A   1      45.978  29.872  33.428  1.00  0.00    -0.206 F 
ATOM     94  C   UNL A   1      47.021  27.578  36.026  1.00  0.00     0.022 A 
BRANCH  91  95
ATOM     95  S   UNL A   1      45.792  25.479  37.393  1.00  0.00     0.124 S 
ATOM     96  O   UNL A   1      46.884  24.590  37.009  1.00  0.00    -0.237 OA
ATOM     97  O   UNL A   1      45.992  26.241  38.621  1.00  0.00    -0.237 OA
ATOM     98  O   UNL A   1      44.451  24.924  37.221  1.00  0.00    -0.744 OA
ENDBRANCH  91  95
ENDBRANCH  65  88
ENDBRANCH  39  40
ENDBRANCH  31  34
ENDBRANCH   1  30
TORSDOF 15
ENDMDL
MODEL 3
REMARK VINA RESULT:     -13.7      4.986     10.350
REMARK SMILES O=C(NCCCNC(=O)c1ccc(-c2c3nc(c(-c4cc(S(=O)(=O)[O-])ccc4F)c4ccc([nH]4)c(-c4cc(S(=O)(=O)[O-])ccc4F)c4nc(c(-c5cc(S(=O)(=O)[O-])ccc5F)c5ccc2[nH]5)C=C4)C=C3)cc1)C1=Cc2cc(Cl)cc(-c3ccc(Cl)cc3)c2O[C@@H]1C(F)(F)F
REMARK SMILES IDX 6 1 5 2 4 3 3 4 1 5 2 6 73 8 74 9 90 10 75 11 89 12 76 13
REMARK SMILES IDX 88 14 77 15 80 16 78 17 79 18 91 19 92 20 93 21 94 22 81 23
REMARK SMILES IDX 82 24 87 25 83 26 86 27 84 28 85 29 7 30 8 31 9 33 10 34
REMARK SMILES IDX 11 35 72 36 12 37 71 38 13 39 14 40 15 41 65 42 16 43 70 44
REMARK SMILES IDX 64 45 66 46 17 47 69 48 63 49 62 50 18 52 50 53 30 54 49 55
REMARK SMILES IDX 31 56 34 57 48 58 67 59 32 60 33 61 47 63 68 64 35 65 19 66
REMARK SMILES IDX 20 67 28 68 21 69 27 70 29 71 26 72 22 73 23 74 24 75 25 76
REMARK SMILES IDX 51 77 52 78 60 79 53 80 59 81 61 82 58 83 54 84 55 85 56 86
REMARK SMILES IDX 57 87 36 88 37 89 45 90 38 91 44 92 46 93 43 94 39 95 40 96
REMARK SMILES IDX 41 97 42 98
REMARK H PARENT 3 7 7 32 66 51 34 62
REMARK Flexibility Score: inf
ROOT
ATOM      1  C   UNL A   1      36.999  22.037  25.102  1.00  0.00     0.118 C 
ENDROOT
BRANCH   1   2
ATOM      2  C   UNL A   1      35.612  21.395  25.100  1.00  0.00     0.042 C 
BRANCH   2   3
ATOM      3  C   UNL A   1      34.480  22.423  25.041  1.00  0.00     0.118 C 
BRANCH   3   4
ATOM      4  N   UNL A   1      34.447  23.163  23.774  1.00  0.00    -0.352 N 
ATOM      5  O   UNL A   1      34.243  24.993  22.442  1.00  0.00    -0.270 OA
ATOM      6  C   UNL A   1      34.007  24.434  23.504  1.00  0.00     0.251 C 
ATOM      7  H   UNL A   1      34.796  22.670  22.996  1.00  0.00     0.163 HD
BRANCH   6   8
ATOM      8  C   UNL A   1      33.290  25.124  24.584  1.00  0.00     0.067 C 
ATOM      9  C   UNL A   1      34.012  25.862  25.434  1.00  0.00     0.025 C 
ATOM     10  C   UNL A   1      31.807  25.253  24.457  1.00  0.00     0.314 C 
ATOM     11  C   UNL A   1      33.374  27.117  25.836  1.00  0.00     0.019 A 
ATOM     12  O   UNL A   1      31.404  26.645  24.463  1.00  0.00    -0.475 OA
ATOM     13  C   UNL A   1      34.143  28.046  26.542  1.00  0.00     0.032 A 
ATOM     14  C   UNL A   1      32.194  27.523  25.174  1.00  0.00     0.135 A 
ATOM     15  C   UNL A   1      33.796  29.391  26.497  1.00  0.00     0.042 A 
ATOM     16  C   UNL A   1      31.881  28.889  25.073  1.00  0.00     0.026 A 
ATOM     17  Cl  UNL A   1      34.822  30.551  27.243  1.00  0.00    -0.084 Cl
ATOM     18  C   UNL A   1      32.697  29.814  25.749  1.00  0.00     0.033 A 
BRANCH  10  19
ATOM     19  C   UNL A   1      31.062  24.426  25.519  1.00  0.00     0.429 C 
ATOM     20  F   UNL A   1      31.858  24.169  26.587  1.00  0.00    -0.167 F 
ATOM     21  F   UNL A   1      29.977  25.082  25.998  1.00  0.00    -0.167 F 
ATOM     22  F   UNL A   1      30.630  23.232  25.049  1.00  0.00    -0.167 F 
ENDBRANCH  10  19
BRANCH  16  23
ATOM     23  C   UNL A   1      30.868  29.393  24.132  1.00  0.00    -0.015 A 
ATOM     24  C   UNL A   1      30.804  28.871  22.826  1.00  0.00     0.010 A 
ATOM     25  C   UNL A   1      29.995  30.432  24.470  1.00  0.00     0.010 A 
ATOM     26  C   UNL A   1      29.943  29.403  21.868  1.00  0.00     0.021 A 
ATOM     27  C   UNL A   1      29.118  30.960  23.516  1.00  0.00     0.021 A 
ATOM     28  C   UNL A   1      29.108  30.455  22.215  1.00  0.00     0.041 A 
ATOM     29  Cl  UNL A   1      28.067  31.144  21.031  1.00  0.00    -0.084 Cl
ENDBRANCH  16  23
ENDBRANCH   6   8
ENDBRANCH   3   4
ENDBRANCH   2   3
ENDBRANCH   1   2
BRANCH   1  30
ATOM     30  N   UNL A   1      38.108  21.111  25.265  1.00  0.00    -0.352 N 
ATOM     31  C   UNL A   1      39.245  21.240  26.041  1.00  0.00     0.251 C 
ATOM     32  H   UNL A   1      38.040  20.275  24.751  1.00  0.00     0.163 HD
ATOM     33  O   UNL A   1      40.066  20.322  26.057  1.00  0.00    -0.269 OA
BRANCH  31  34
ATOM     34  C   UNL A   1      39.542  22.514  26.742  1.00  0.00     0.039 A 
ATOM     35  C   UNL A   1      40.648  22.551  27.600  1.00  0.00     0.014 A 
ATOM     36  C   UNL A   1      38.847  23.690  26.471  1.00  0.00     0.014 A 
ATOM     37  C   UNL A   1      41.151  23.778  28.037  1.00  0.00     0.010 A 
ATOM     38  C   UNL A   1      39.408  24.916  26.814  1.00  0.00     0.010 A 
ATOM     39  C   UNL A   1      40.594  24.973  27.559  1.00  0.00    -0.014 A 
BRANCH  39  40
ATOM     40  C   UNL A   1      41.271  26.285  27.747  1.00  0.00     0.031 A 
ATOM     41  C   UNL A   1      42.674  26.490  27.251  1.00  0.00     0.074 A 
ATOM     42  C   UNL A   1      40.664  27.238  28.486  1.00  0.00     0.049 A 
ATOM     43  N   UNL A   1      43.497  27.483  27.473  1.00  0.00    -0.248 NA
ATOM     44  C   UNL A   1      43.244  25.406  26.440  1.00  0.00     0.031 C 
ATOM     45  C   UNL A   1      39.331  27.124  29.089  1.00  0.00     0.029 A 
ATOM     46  N   UNL A   1      41.089  28.484  28.874  1.00  0.00    -0.354 N 
ATOM     47  C   UNL A   1      44.694  27.125  26.862  1.00  0.00     0.074 A 
ATOM     48  C   UNL A   1      44.503  25.797  26.317  1.00  0.00     0.031 C 
ATOM     49  C   UNL A   1      39.036  28.264  29.733  1.00  0.00     0.029 A 
ATOM     50  C   UNL A   1      40.174  29.170  29.641  1.00  0.00     0.049 A 
ATOM     51  H   UNL A   1      41.969  28.852  28.627  1.00  0.00     0.167 HD
ATOM     52  C   UNL A   1      45.837  27.848  26.746  1.00  0.00     0.034 A 
ATOM     53  C   UNL A   1      40.247  30.388  30.211  1.00  0.00     0.034 A 
ATOM     54  C   UNL A   1      45.990  29.184  27.266  1.00  0.00     0.049 A 
ATOM     55  C   UNL A   1      41.507  31.191  30.030  1.00  0.00     0.074 A 
ATOM     56  C   UNL A   1      47.078  30.035  27.167  1.00  0.00     0.029 A 
ATOM     57  N   UNL A   1      45.016  29.871  27.982  1.00  0.00    -0.354 N 
ATOM     58  N   UNL A   1      42.619  30.853  29.418  1.00  0.00    -0.248 NA
ATOM     59  C   UNL A   1      41.521  32.541  30.608  1.00  0.00     0.031 C 
ATOM     60  C   UNL A   1      46.776  31.217  27.854  1.00  0.00     0.029 A 
ATOM     61  C   UNL A   1      45.480  31.127  28.336  1.00  0.00     0.049 A 
ATOM     62  H   UNL A   1      44.125  29.516  28.205  1.00  0.00     0.167 HD
ATOM     63  C   UNL A   1      43.454  31.960  29.514  1.00  0.00     0.074 A 
ATOM     64  C   UNL A   1      42.714  32.979  30.232  1.00  0.00     0.031 C 
ATOM     65  C   UNL A   1      44.720  32.124  29.053  1.00  0.00     0.034 A 
BRANCH  52  66
ATOM     66  C   UNL A   1      46.999  27.188  26.041  1.00  0.00     0.023 A 
ATOM     67  C   UNL A   1      47.960  26.445  26.749  1.00  0.00     0.031 A 
ATOM     68  C   UNL A   1      47.189  27.355  24.658  1.00  0.00     0.131 A 
ATOM     69  C   UNL A   1      49.118  25.994  26.098  1.00  0.00     0.055 A 
ATOM     70  C   UNL A   1      48.298  26.820  23.996  1.00  0.00     0.041 A 
ATOM     71  F   UNL A   1      46.315  28.067  23.927  1.00  0.00    -0.206 F 
ATOM     72  C   UNL A   1      49.282  26.153  24.721  1.00  0.00     0.022 A 
BRANCH  69  73
ATOM     73  S   UNL A   1      50.480  25.357  27.112  1.00  0.00     0.124 S 
ATOM     74  O   UNL A   1      49.828  24.256  27.818  1.00  0.00    -0.237 OA
ATOM     75  O   UNL A   1      51.468  24.977  26.111  1.00  0.00    -0.237 OA
ATOM     76  O   UNL A   1      50.846  26.497  27.951  1.00  0.00    -0.744 OA
ENDBRANCH  69  73
ENDBRANCH  52  66
BRANCH  53  77
ATOM     77  C   UNL A   1      39.100  30.930  30.996  1.00  0.00     0.023 A 
ATOM     78  C   UNL A   1      38.063  31.628  30.359  1.00  0.00     0.031 A 
ATOM     79  C   UNL A   1      39.038  30.785  32.393  1.00  0.00     0.131 A 
ATOM     80  C   UNL A   1      37.029  32.197  31.120  1.00  0.00     0.055 A 
ATOM     81  C   UNL A   1      37.984  31.313  33.141  1.00  0.00     0.041 A 
ATOM     82  F   UNL A   1      39.998  30.116  33.049  1.00  0.00    -0.206 F 
ATOM     83  C   UNL A   1      36.978  32.035  32.506  1.00  0.00     0.022 A 
BRANCH  80  84
ATOM     84  S   UNL A   1      35.792  33.220  30.276  1.00  0.00     0.124 S 
ATOM     85  O   UNL A   1      35.692  34.367  31.172  1.00  0.00    -0.237 OA
ATOM     86  O   UNL A   1      36.431  33.464  28.988  1.00  0.00    -0.237 OA
ATOM     87  O   UNL A   1      34.612  32.358  30.232  1.00  0.00    -0.744 OA
ENDBRANCH  80  84
ENDBRANCH  53  77
BRANCH  65  88
ATOM     88  C   UNL A   1      45.351  33.473  29.275  1.00  0.00     0.023 A 
ATOM     89  C   UNL A   1      45.173  34.528  28.364  1.00  0.00     0.031 A 
ATOM     90  C   UNL A   1      46.151  33.697  30.408  1.00  0.00     0.131 A 
ATOM     91  C   UNL A   1      45.828  35.748  28.577  1.00  0.00     0.055 A 
ATOM     92  C   UNL A   1      46.760  34.931  30.640  1.00  0.00     0.041 A 
ATOM     93  F   UNL A   1      46.352  32.720  31.306  1.00  0.00    -0.206 F 
ATOM     94  C   UNL A   1      46.609  35.961  29.716  1.00  0.00     0.022 A 
BRANCH  91  95
ATOM     95  S   UNL A   1      45.704  37.036  27.306  1.00  0.00     0.124 S 
ATOM     96  O   UNL A   1      46.150  38.222  28.031  1.00  0.00    -0.237 OA
ATOM     97  O   UNL A   1      46.608  36.543  26.272  1.00  0.00    -0.237 OA
ATOM     98  O   UNL A   1      44.288  37.027  26.945  1.00  0.00    -0.744 OA
ENDBRANCH  91  95
ENDBRANCH  65  88
ENDBRANCH  39  40
ENDBRANCH  31  34
ENDBRANCH   1  30
TORSDOF 15
ENDMDL
