MODEL 1
REMARK VINA RESULT:     -11.0      0.000      0.000
REMARK SMILES C[C@H](Nc1ccc(F)cc1Br)[C@@H](C)C(=O)NCCCNC(=O)c1ccc(-c2c3nc(c(-c4cc(S(=O)(=O)[O-])ccc4F)c4ccc([nH]4)c(-c4cc(S(=O)(=O)[O-])ccc4F)c4nc(c(-c5cc(S(=O)(=O)[O-])ccc5F)c5ccc2[nH]5)C=C4)C=C3)cc1
REMARK SMILES IDX 18 1 17 2 16 3 14 4 15 5 12 7 13 8 2 9 1 10 3 11 4 13 5 14
REMARK SMILES IDX 10 15 6 16 9 17 11 18 7 19 8 20 19 21 20 22 21 23 22 25
REMARK SMILES IDX 23 26 24 27 85 28 25 29 84 30 26 31 27 32 28 33 78 34 29 35
REMARK SMILES IDX 83 36 77 37 79 38 30 39 82 40 76 41 75 42 31 44 63 45 43 46
REMARK SMILES IDX 62 47 44 48 47 49 61 50 80 51 45 52 46 53 60 55 81 56 48 57
REMARK SMILES IDX 32 58 33 59 41 60 34 61 40 62 42 63 39 64 35 65 36 66 37 67
REMARK SMILES IDX 38 68 64 69 65 70 73 71 66 72 72 73 74 74 71 75 67 76 68 77
REMARK SMILES IDX 69 78 70 79 49 80 50 81 58 82 51 83 57 84 59 85 56 86 52 87
REMARK SMILES IDX 53 88 54 89 55 90
REMARK H PARENT 16 6 3 12 20 24 79 43 47 54
REMARK Flexibility Score: inf
ROOT
ATOM      1  C   UNL A   1      33.239  28.206  27.116  1.00  0.00     0.042 C 
ENDROOT
BRANCH   1   2
ATOM      2  C   UNL A   1      31.743  28.335  27.379  1.00  0.00     0.117 C 
BRANCH   2   3
ATOM      3  N   UNL A   1      31.040  27.072  27.225  1.00  0.00    -0.356 N 
ATOM      4  C   UNL A   1      30.651  26.381  26.121  1.00  0.00     0.224 C 
ATOM      5  O   UNL A   1      30.081  25.301  26.302  1.00  0.00    -0.275 OA
ATOM      6  H   UNL A   1      30.804  26.637  28.075  1.00  0.00     0.163 HD
BRANCH   4   7
ATOM      7  C   UNL A   1      30.896  26.886  24.703  1.00  0.00     0.097 C 
ATOM      8  C   UNL A   1      29.608  26.805  23.878  1.00  0.00     0.020 C 
BRANCH   7   9
ATOM      9  C   UNL A   1      32.158  26.251  24.075  1.00  0.00     0.088 C 
ATOM     10  C   UNL A   1      32.036  26.243  22.540  1.00  0.00     0.031 C 
BRANCH   9  11
ATOM     11  N   UNL A   1      32.332  24.876  24.555  1.00  0.00    -0.381 N 
ATOM     12  H   UNL A   1      31.540  24.377  24.860  1.00  0.00     0.160 HD
BRANCH  11  13
ATOM     13  C   UNL A   1      33.576  24.247  24.596  1.00  0.00     0.049 A 
ATOM     14  C   UNL A   1      34.668  24.798  25.284  1.00  0.00     0.030 A 
ATOM     15  C   UNL A   1      33.793  23.054  23.872  1.00  0.00     0.044 A 
ATOM     16  C   UNL A   1      35.936  24.216  25.207  1.00  0.00     0.041 A 
ATOM     17  C   UNL A   1      35.058  22.471  23.789  1.00  0.00     0.057 A 
ATOM     18  Br  UNL A   1      32.370  22.219  22.922  1.00  0.00    -0.048 Br
ATOM     19  C   UNL A   1      36.121  23.067  24.451  1.00  0.00     0.124 A 
ATOM     20  F   UNL A   1      37.343  22.528  24.354  1.00  0.00    -0.207 F 
ENDBRANCH  11  13
ENDBRANCH   9  11
ENDBRANCH   7   9
ENDBRANCH   4   7
ENDBRANCH   2   3
ENDBRANCH   1   2
BRANCH   1  21
ATOM     21  C   UNL A   1      33.793  29.247  26.153  1.00  0.00     0.118 C 
BRANCH  21  22
ATOM     22  N   UNL A   1      33.767  30.591  26.713  1.00  0.00    -0.352 N 
ATOM     23  C   UNL A   1      34.548  31.162  27.685  1.00  0.00     0.251 C 
ATOM     24  H   UNL A   1      33.079  31.185  26.333  1.00  0.00     0.163 HD
ATOM     25  O   UNL A   1      34.201  32.241  28.169  1.00  0.00    -0.269 OA
BRANCH  23  26
ATOM     26  C   UNL A   1      35.774  30.491  28.165  1.00  0.00     0.039 A 
ATOM     27  C   UNL A   1      36.958  30.636  27.435  1.00  0.00     0.014 A 
ATOM     28  C   UNL A   1      35.762  29.696  29.315  1.00  0.00     0.014 A 
ATOM     29  C   UNL A   1      38.135  30.043  27.895  1.00  0.00     0.010 A 
ATOM     30  C   UNL A   1      36.952  29.187  29.822  1.00  0.00     0.010 A 
ATOM     31  C   UNL A   1      38.153  29.346  29.115  1.00  0.00    -0.014 A 
BRANCH  31  32
ATOM     32  C   UNL A   1      39.412  28.772  29.659  1.00  0.00     0.031 A 
ATOM     33  C   UNL A   1      40.095  29.423  30.831  1.00  0.00     0.074 A 
ATOM     34  C   UNL A   1      39.974  27.708  29.054  1.00  0.00     0.049 A 
ATOM     35  N   UNL A   1      41.233  29.119  31.401  1.00  0.00    -0.248 NA
ATOM     36  C   UNL A   1      39.424  30.592  31.419  1.00  0.00     0.031 C 
ATOM     37  C   UNL A   1      39.431  27.021  27.880  1.00  0.00     0.029 A 
ATOM     38  N   UNL A   1      41.129  27.022  29.333  1.00  0.00    -0.354 N 
ATOM     39  C   UNL A   1      41.423  30.068  32.402  1.00  0.00     0.074 A 
ATOM     40  C   UNL A   1      40.316  30.995  32.310  1.00  0.00     0.031 C 
ATOM     41  C   UNL A   1      40.236  25.997  27.558  1.00  0.00     0.029 A 
ATOM     42  C   UNL A   1      41.378  25.983  28.466  1.00  0.00     0.049 A 
ATOM     43  H   UNL A   1      41.723  27.252  30.083  1.00  0.00     0.167 HD
ATOM     44  C   UNL A   1      42.415  30.142  33.325  1.00  0.00     0.034 A 
ATOM     45  C   UNL A   1      42.416  25.125  28.399  1.00  0.00     0.034 A 
ATOM     46  C   UNL A   1      43.506  29.201  33.402  1.00  0.00     0.049 A 
ATOM     47  C   UNL A   1      43.521  25.240  29.417  1.00  0.00     0.074 A 
ATOM     48  C   UNL A   1      44.528  29.142  34.333  1.00  0.00     0.029 A 
ATOM     49  N   UNL A   1      43.727  28.162  32.506  1.00  0.00    -0.354 N 
ATOM     50  N   UNL A   1      43.654  26.105  30.397  1.00  0.00    -0.248 NA
ATOM     51  C   UNL A   1      44.605  24.255  29.329  1.00  0.00     0.031 C 
ATOM     52  C   UNL A   1      45.409  28.122  33.953  1.00  0.00     0.029 A 
ATOM     53  C   UNL A   1      44.891  27.483  32.838  1.00  0.00     0.049 A 
ATOM     54  H   UNL A   1      43.143  27.940  31.745  1.00  0.00     0.167 HD
ATOM     55  C   UNL A   1      44.828  25.750  31.059  1.00  0.00     0.074 A 
ATOM     56  C   UNL A   1      45.349  24.584  30.375  1.00  0.00     0.031 C 
ATOM     57  C   UNL A   1      45.414  26.331  32.136  1.00  0.00     0.034 A 
BRANCH  44  58
ATOM     58  C   UNL A   1      42.374  31.302  34.295  1.00  0.00     0.023 A 
ATOM     59  C   UNL A   1      41.387  31.399  35.294  1.00  0.00     0.031 A 
ATOM     60  C   UNL A   1      43.306  32.351  34.193  1.00  0.00     0.131 A 
ATOM     61  C   UNL A   1      41.296  32.557  36.082  1.00  0.00     0.055 A 
ATOM     62  C   UNL A   1      43.269  33.457  35.047  1.00  0.00     0.041 A 
ATOM     63  F   UNL A   1      44.259  32.330  33.250  1.00  0.00    -0.206 F 
ATOM     64  C   UNL A   1      42.247  33.574  35.984  1.00  0.00     0.022 A 
BRANCH  61  65
ATOM     65  S   UNL A   1      39.817  32.790  37.106  1.00  0.00     0.124 S 
ATOM     66  O   UNL A   1      39.280  31.432  37.162  1.00  0.00    -0.237 OA
ATOM     67  O   UNL A   1      40.373  33.309  38.350  1.00  0.00    -0.237 OA
ATOM     68  O   UNL A   1      39.013  33.738  36.336  1.00  0.00    -0.744 OA
ENDBRANCH  61  65
ENDBRANCH  44  58
BRANCH  45  69
ATOM     69  C   UNL A   1      42.466  24.094  27.324  1.00  0.00     0.023 A 
ATOM     70  C   UNL A   1      41.658  22.948  27.379  1.00  0.00     0.031 A 
ATOM     71  C   UNL A   1      43.337  24.234  26.228  1.00  0.00     0.131 A 
ATOM     72  C   UNL A   1      41.764  21.968  26.379  1.00  0.00     0.055 A 
ATOM     73  C   UNL A   1      43.401  23.283  25.208  1.00  0.00     0.041 A 
ATOM     74  F   UNL A   1      44.126  25.315  26.123  1.00  0.00    -0.206 F 
ATOM     75  C   UNL A   1      42.618  22.135  25.287  1.00  0.00     0.022 A 
BRANCH  72  76
ATOM     76  S   UNL A   1      40.815  20.433  26.560  1.00  0.00     0.124 S 
ATOM     77  O   UNL A   1      40.867  20.220  28.002  1.00  0.00    -0.237 OA
ATOM     78  O   UNL A   1      39.516  20.814  26.014  1.00  0.00    -0.237 OA
ATOM     79  O   UNL A   1      41.567  19.471  25.758  1.00  0.00    -0.744 OA
ENDBRANCH  72  76
ENDBRANCH  45  69
BRANCH  57  80
ATOM     80  C   UNL A   1      46.672  25.684  32.666  1.00  0.00     0.023 A 
ATOM     81  C   UNL A   1      47.926  25.898  32.068  1.00  0.00     0.031 A 
ATOM     82  C   UNL A   1      46.611  24.830  33.782  1.00  0.00     0.131 A 
ATOM     83  C   UNL A   1      49.056  25.220  32.550  1.00  0.00     0.055 A 
ATOM     84  C   UNL A   1      47.749  24.212  34.300  1.00  0.00     0.041 A 
ATOM     85  F   UNL A   1      45.440  24.584  34.391  1.00  0.00    -0.206 F 
ATOM     86  C   UNL A   1      48.980  24.395  33.675  1.00  0.00     0.022 A 
BRANCH  83  87
ATOM     87  S   UNL A   1      50.611  25.348  31.624  1.00  0.00     0.124 S 
ATOM     88  O   UNL A   1      50.145  25.292  30.242  1.00  0.00    -0.237 OA
ATOM     89  O   UNL A   1      51.134  26.636  32.069  1.00  0.00    -0.237 OA
ATOM     90  O   UNL A   1      51.374  24.183  32.070  1.00  0.00    -0.744 OA
ENDBRANCH  83  87
ENDBRANCH  57  80
ENDBRANCH  31  32
ENDBRANCH  23  26
ENDBRANCH  21  22
ENDBRANCH   1  21
TORSDOF 16
ENDMDL
MODEL 2
REMARK VINA RESULT:     -11.0      2.146      2.509
REMARK SMILES C[C@H](Nc1ccc(F)cc1Br)[C@@H](C)C(=O)NCCCNC(=O)c1ccc(-c2c3nc(c(-c4cc(S(=O)(=O)[O-])ccc4F)c4ccc([nH]4)c(-c4cc(S(=O)(=O)[O-])ccc4F)c4nc(c(-c5cc(S(=O)(=O)[O-])ccc5F)c5ccc2[nH]5)C=C4)C=C3)cc1
REMARK SMILES IDX 18 1 17 2 16 3 14 4 15 5 12 7 13 8 2 9 1 10 3 11 4 13 5 14
REMARK SMILES IDX 10 15 6 16 9 17 11 18 7 19 8 20 19 21 20 22 21 23 22 25
REMARK SMILES IDX 23 26 24 27 85 28 25 29 84 30 26 31 27 32 28 33 78 34 29 35
REMARK SMILES IDX 83 36 77 37 79 38 30 39 82 40 76 41 75 42 31 44 63 45 43 46
REMARK SMILES IDX 62 47 44 48 47 49 61 50 80 51 45 52 46 53 60 55 81 56 48 57
REMARK SMILES IDX 32 58 33 59 41 60 34 61 40 62 42 63 39 64 35 65 36 66 37 67
REMARK SMILES IDX 38 68 64 69 65 70 73 71 66 72 72 73 74 74 71 75 67 76 68 77
REMARK SMILES IDX 69 78 70 79 49 80 50 81 58 82 51 83 57 84 59 85 56 86 52 87
REMARK SMILES IDX 53 88 54 89 55 90
REMARK H PARENT 16 6 3 12 20 24 79 43 47 54
REMARK Flexibility Score: inf
ROOT
ATOM      1  C   UNL A   1      31.940  28.803  26.795  1.00  0.00     0.042 C 
ENDROOT
BRANCH   1   2
ATOM      2  C   UNL A   1      31.509  27.627  25.926  1.00  0.00     0.117 C 
BRANCH   2   3
ATOM      3  N   UNL A   1      31.330  26.405  26.693  1.00  0.00    -0.356 N 
ATOM      4  C   UNL A   1      31.502  25.097  26.365  1.00  0.00     0.224 C 
ATOM      5  O   UNL A   1      31.293  24.261  27.249  1.00  0.00    -0.275 OA
ATOM      6  H   UNL A   1      31.031  26.552  27.619  1.00  0.00     0.163 HD
BRANCH   4   7
ATOM      7  C   UNL A   1      31.938  24.645  24.975  1.00  0.00     0.097 C 
ATOM      8  C   UNL A   1      31.026  23.524  24.469  1.00  0.00     0.020 C 
BRANCH   7   9
ATOM      9  C   UNL A   1      33.460  24.381  24.906  1.00  0.00     0.088 C 
ATOM     10  C   UNL A   1      33.855  23.950  23.482  1.00  0.00     0.031 C 
BRANCH   9  11
ATOM     11  N   UNL A   1      33.840  23.329  25.856  1.00  0.00    -0.381 N 
ATOM     12  H   UNL A   1      33.298  23.205  26.667  1.00  0.00     0.160 HD
BRANCH  11  13
ATOM     13  C   UNL A   1      34.941  22.497  25.652  1.00  0.00     0.049 A 
ATOM     14  C   UNL A   1      36.257  22.982  25.678  1.00  0.00     0.030 A 
ATOM     15  C   UNL A   1      34.752  21.133  25.336  1.00  0.00     0.044 A 
ATOM     16  C   UNL A   1      37.336  22.158  25.348  1.00  0.00     0.041 A 
ATOM     17  C   UNL A   1      35.825  20.307  25.001  1.00  0.00     0.057 A 
ATOM     18  Br  UNL A   1      33.005  20.376  25.293  1.00  0.00    -0.048 Br
ATOM     19  C   UNL A   1      37.108  20.834  25.001  1.00  0.00     0.124 A 
ATOM     20  F   UNL A   1      38.140  20.053  24.655  1.00  0.00    -0.207 F 
ENDBRANCH  11  13
ENDBRANCH   9  11
ENDBRANCH   7   9
ENDBRANCH   4   7
ENDBRANCH   2   3
ENDBRANCH   1   2
BRANCH   1  21
ATOM     21  C   UNL A   1      33.137  29.572  26.250  1.00  0.00     0.118 C 
BRANCH  21  22
ATOM     22  N   UNL A   1      33.109  30.980  26.622  1.00  0.00    -0.352 N 
ATOM     23  C   UNL A   1      33.898  31.681  27.498  1.00  0.00     0.251 C 
ATOM     24  H   UNL A   1      32.413  31.513  26.174  1.00  0.00     0.163 HD
ATOM     25  O   UNL A   1      33.551  32.814  27.836  1.00  0.00    -0.269 OA
BRANCH  23  26
ATOM     26  C   UNL A   1      35.134  31.086  28.049  1.00  0.00     0.039 A 
ATOM     27  C   UNL A   1      36.321  31.824  28.004  1.00  0.00     0.014 A 
ATOM     28  C   UNL A   1      35.141  29.796  28.585  1.00  0.00     0.014 A 
ATOM     29  C   UNL A   1      37.490  31.296  28.556  1.00  0.00     0.010 A 
ATOM     30  C   UNL A   1      36.280  29.311  29.219  1.00  0.00     0.010 A 
ATOM     31  C   UNL A   1      37.471  30.051  29.205  1.00  0.00    -0.014 A 
BRANCH  31  32
ATOM     32  C   UNL A   1      38.686  29.505  29.865  1.00  0.00     0.031 A 
ATOM     33  C   UNL A   1      39.117  30.028  31.209  1.00  0.00     0.074 A 
ATOM     34  C   UNL A   1      39.438  28.589  29.224  1.00  0.00     0.049 A 
ATOM     35  N   UNL A   1      40.183  29.735  31.910  1.00  0.00    -0.248 NA
ATOM     36  C   UNL A   1      38.252  31.041  31.830  1.00  0.00     0.031 C 
ATOM     37  C   UNL A   1      39.149  28.042  27.896  1.00  0.00     0.029 A 
ATOM     38  N   UNL A   1      40.602  27.964  29.592  1.00  0.00    -0.354 N 
ATOM     39  C   UNL A   1      40.124  30.538  33.045  1.00  0.00     0.074 A 
ATOM     40  C   UNL A   1      38.954  31.379  32.899  1.00  0.00     0.031 C 
ATOM     41  C   UNL A   1      40.093  27.143  27.576  1.00  0.00     0.029 A 
ATOM     42  C   UNL A   1      41.082  27.087  28.647  1.00  0.00     0.049 A 
ATOM     43  H   UNL A   1      41.051  28.127  30.453  1.00  0.00     0.167 HD
ATOM     44  C   UNL A   1      40.954  30.555  34.118  1.00  0.00     0.034 A 
ATOM     45  C   UNL A   1      42.199  26.333  28.636  1.00  0.00     0.034 A 
ATOM     46  C   UNL A   1      42.111  29.702  34.246  1.00  0.00     0.049 A 
ATOM     47  C   UNL A   1      43.122  26.384  29.826  1.00  0.00     0.074 A 
ATOM     48  C   UNL A   1      42.984  29.588  35.314  1.00  0.00     0.029 A 
ATOM     49  N   UNL A   1      42.568  28.827  33.267  1.00  0.00    -0.354 N 
ATOM     50  N   UNL A   1      43.020  27.104  30.920  1.00  0.00    -0.248 NA
ATOM     51  C   UNL A   1      44.302  25.512  29.785  1.00  0.00     0.031 C 
ATOM     52  C   UNL A   1      44.010  28.709  34.950  1.00  0.00     0.029 A 
ATOM     53  C   UNL A   1      43.732  28.201  33.691  1.00  0.00     0.049 A 
ATOM     54  H   UNL A   1      42.129  28.674  32.399  1.00  0.00     0.167 HD
ATOM     55  C   UNL A   1      44.111  26.750  31.710  1.00  0.00     0.074 A 
ATOM     56  C   UNL A   1      44.845  25.742  30.972  1.00  0.00     0.031 C 
ATOM     57  C   UNL A   1      44.468  27.211  32.936  1.00  0.00     0.034 A 
BRANCH  44  58
ATOM     58  C   UNL A   1      40.651  31.553  35.214  1.00  0.00     0.023 A 
ATOM     59  C   UNL A   1      39.643  31.322  36.170  1.00  0.00     0.031 A 
ATOM     60  C   UNL A   1      41.347  32.773  35.281  1.00  0.00     0.131 A 
ATOM     61  C   UNL A   1      39.297  32.330  37.083  1.00  0.00     0.055 A 
ATOM     62  C   UNL A   1      41.062  33.734  36.255  1.00  0.00     0.041 A 
ATOM     63  F   UNL A   1      42.305  33.064  34.388  1.00  0.00    -0.206 F 
ATOM     64  C   UNL A   1      40.017  33.524  37.150  1.00  0.00     0.022 A 
BRANCH  61  65
ATOM     65  S   UNL A   1      37.778  32.128  38.055  1.00  0.00     0.124 S 
ATOM     66  O   UNL A   1      36.918  33.158  37.476  1.00  0.00    -0.237 OA
ATOM     67  O   UNL A   1      37.403  30.748  37.771  1.00  0.00    -0.237 OA
ATOM     68  O   UNL A   1      38.212  32.389  39.426  1.00  0.00    -0.744 OA
ENDBRANCH  61  65
ENDBRANCH  44  58
BRANCH  45  69
ATOM     69  C   UNL A   1      42.513  25.479  27.456  1.00  0.00     0.023 A 
ATOM     70  C   UNL A   1      42.104  24.137  27.401  1.00  0.00     0.031 A 
ATOM     71  C   UNL A   1      43.244  25.989  26.367  1.00  0.00     0.131 A 
ATOM     72  C   UNL A   1      42.459  23.341  26.300  1.00  0.00     0.055 A 
ATOM     73  C   UNL A   1      43.550  25.209  25.250  1.00  0.00     0.041 A 
ATOM     74  F   UNL A   1      43.654  27.268  26.366  1.00  0.00    -0.206 F 
ATOM     75  C   UNL A   1      43.165  23.873  25.218  1.00  0.00     0.022 A 
BRANCH  72  76
ATOM     76  S   UNL A   1      42.042  21.577  26.330  1.00  0.00     0.124 S 
ATOM     77  O   UNL A   1      42.280  21.239  27.729  1.00  0.00    -0.237 OA
ATOM     78  O   UNL A   1      40.647  21.588  25.902  1.00  0.00    -0.237 OA
ATOM     79  O   UNL A   1      42.979  20.989  25.377  1.00  0.00    -0.744 OA
ENDBRANCH  72  76
ENDBRANCH  45  69
BRANCH  57  80
ATOM     80  C   UNL A   1      45.692  26.594  33.572  1.00  0.00     0.023 A 
ATOM     81  C   UNL A   1      45.600  25.520  34.474  1.00  0.00     0.031 A 
ATOM     82  C   UNL A   1      46.972  27.099  33.277  1.00  0.00     0.131 A 
ATOM     83  C   UNL A   1      46.757  25.026  35.094  1.00  0.00     0.055 A 
ATOM     84  C   UNL A   1      48.126  26.559  33.844  1.00  0.00     0.041 A 
ATOM     85  F   UNL A   1      47.121  28.128  32.426  1.00  0.00    -0.206 F 
ATOM     86  C   UNL A   1      48.022  25.524  34.769  1.00  0.00     0.022 A 
BRANCH  83  87
ATOM     87  S   UNL A   1      46.582  23.790  36.410  1.00  0.00     0.124 S 
ATOM     88  O   UNL A   1      45.378  23.076  35.996  1.00  0.00    -0.237 OA
ATOM     89  O   UNL A   1      47.832  23.045  36.308  1.00  0.00    -0.237 OA
ATOM     90  O   UNL A   1      46.438  24.596  37.622  1.00  0.00    -0.744 OA
ENDBRANCH  83  87
ENDBRANCH  57  80
ENDBRANCH  31  32
ENDBRANCH  23  26
ENDBRANCH  21  22
ENDBRANCH   1  21
TORSDOF 16
ENDMDL
MODEL 3
REMARK VINA RESULT:     -10.8      1.872      2.175
REMARK SMILES C[C@H](Nc1ccc(F)cc1Br)[C@@H](C)C(=O)NCCCNC(=O)c1ccc(-c2c3nc(c(-c4cc(S(=O)(=O)[O-])ccc4F)c4ccc([nH]4)c(-c4cc(S(=O)(=O)[O-])ccc4F)c4nc(c(-c5cc(S(=O)(=O)[O-])ccc5F)c5ccc2[nH]5)C=C4)C=C3)cc1
REMARK SMILES IDX 18 1 17 2 16 3 14 4 15 5 12 7 13 8 2 9 1 10 3 11 4 13 5 14
REMARK SMILES IDX 10 15 6 16 9 17 11 18 7 19 8 20 19 21 20 22 21 23 22 25
REMARK SMILES IDX 23 26 24 27 85 28 25 29 84 30 26 31 27 32 28 33 78 34 29 35
REMARK SMILES IDX 83 36 77 37 79 38 30 39 82 40 76 41 75 42 31 44 63 45 43 46
REMARK SMILES IDX 62 47 44 48 47 49 61 50 80 51 45 52 46 53 60 55 81 56 48 57
REMARK SMILES IDX 32 58 33 59 41 60 34 61 40 62 42 63 39 64 35 65 36 66 37 67
REMARK SMILES IDX 38 68 64 69 65 70 73 71 66 72 72 73 74 74 71 75 67 76 68 77
REMARK SMILES IDX 69 78 70 79 49 80 50 81 58 82 51 83 57 84 59 85 56 86 52 87
REMARK SMILES IDX 53 88 54 89 55 90
REMARK H PARENT 16 6 3 12 20 24 79 43 47 54
REMARK Flexibility Score: inf
ROOT
ATOM      1  C   UNL A   1      33.151  28.314  27.063  1.00  0.00     0.042 C 
ENDROOT
BRANCH   1   2
ATOM      2  C   UNL A   1      31.640  28.351  27.262  1.00  0.00     0.117 C 
BRANCH   2   3
ATOM      3  N   UNL A   1      31.033  27.034  27.161  1.00  0.00    -0.356 N 
ATOM      4  C   UNL A   1      30.595  26.319  26.091  1.00  0.00     0.224 C 
ATOM      5  O   UNL A   1      30.138  25.194  26.313  1.00  0.00    -0.275 OA
ATOM      6  H   UNL A   1      30.919  26.577  28.025  1.00  0.00     0.163 HD
BRANCH   4   7
ATOM      7  C   UNL A   1      30.655  26.850  24.663  1.00  0.00     0.097 C 
ATOM      8  C   UNL A   1      29.300  26.675  23.972  1.00  0.00     0.020 C 
BRANCH   7   9
ATOM      9  C   UNL A   1      31.892  26.319  23.902  1.00  0.00     0.088 C 
ATOM     10  C   UNL A   1      31.745  26.600  22.395  1.00  0.00     0.031 C 
BRANCH   9  11
ATOM     11  N   UNL A   1      32.042  24.875  24.114  1.00  0.00    -0.381 N 
ATOM     12  H   UNL A   1      31.255  24.295  23.998  1.00  0.00     0.160 HD
BRANCH  11  13
ATOM     13  C   UNL A   1      33.256  24.292  24.475  1.00  0.00     0.049 A 
ATOM     14  C   UNL A   1      34.156  24.922  25.349  1.00  0.00     0.030 A 
ATOM     15  C   UNL A   1      33.652  23.063  23.902  1.00  0.00     0.044 A 
ATOM     16  C   UNL A   1      35.419  24.378  25.598  1.00  0.00     0.041 A 
ATOM     17  C   UNL A   1      34.914  22.518  24.144  1.00  0.00     0.057 A 
ATOM     18  Br  UNL A   1      32.494  22.122  22.719  1.00  0.00    -0.048 Br
ATOM     19  C   UNL A   1      35.790  23.190  24.983  1.00  0.00     0.124 A 
ATOM     20  F   UNL A   1      37.012  22.687  25.199  1.00  0.00    -0.207 F 
ENDBRANCH  11  13
ENDBRANCH   9  11
ENDBRANCH   7   9
ENDBRANCH   4   7
ENDBRANCH   2   3
ENDBRANCH   1   2
BRANCH   1  21
ATOM     21  C   UNL A   1      33.686  29.420  26.163  1.00  0.00     0.118 C 
BRANCH  21  22
ATOM     22  N   UNL A   1      33.606  30.733  26.788  1.00  0.00    -0.352 N 
ATOM     23  C   UNL A   1      34.343  31.274  27.811  1.00  0.00     0.251 C 
ATOM     24  H   UNL A   1      32.913  31.326  26.419  1.00  0.00     0.163 HD
ATOM     25  O   UNL A   1      33.953  32.318  28.338  1.00  0.00    -0.269 OA
BRANCH  23  26
ATOM     26  C   UNL A   1      35.574  30.613  28.292  1.00  0.00     0.039 A 
ATOM     27  C   UNL A   1      36.781  30.858  27.628  1.00  0.00     0.014 A 
ATOM     28  C   UNL A   1      35.546  29.731  29.376  1.00  0.00     0.014 A 
ATOM     29  C   UNL A   1      37.961  30.275  28.094  1.00  0.00     0.010 A 
ATOM     30  C   UNL A   1      36.734  29.228  29.895  1.00  0.00     0.010 A 
ATOM     31  C   UNL A   1      37.956  29.486  29.256  1.00  0.00    -0.014 A 
BRANCH  31  32
ATOM     32  C   UNL A   1      39.213  28.918  29.810  1.00  0.00     0.031 A 
ATOM     33  C   UNL A   1      39.859  29.544  31.016  1.00  0.00     0.074 A 
ATOM     34  C   UNL A   1      39.808  27.883  29.186  1.00  0.00     0.049 A 
ATOM     35  N   UNL A   1      40.990  29.243  31.602  1.00  0.00    -0.248 NA
ATOM     36  C   UNL A   1      39.155  30.683  31.624  1.00  0.00     0.031 C 
ATOM     37  C   UNL A   1      39.303  27.223  27.979  1.00  0.00     0.029 A 
ATOM     38  N   UNL A   1      40.969  27.209  29.469  1.00  0.00    -0.354 N 
ATOM     39  C   UNL A   1      41.141  30.164  32.635  1.00  0.00     0.074 A 
ATOM     40  C   UNL A   1      40.019  31.074  32.546  1.00  0.00     0.031 C 
ATOM     41  C   UNL A   1      40.133  26.223  27.645  1.00  0.00     0.029 A 
ATOM     42  C   UNL A   1      41.255  26.202  28.577  1.00  0.00     0.049 A 
ATOM     43  H   UNL A   1      41.542  27.426  30.239  1.00  0.00     0.167 HD
ATOM     44  C   UNL A   1      42.111  30.228  33.581  1.00  0.00     0.034 A 
ATOM     45  C   UNL A   1      42.310  25.365  28.506  1.00  0.00     0.034 A 
ATOM     46  C   UNL A   1      43.218  29.304  33.654  1.00  0.00     0.049 A 
ATOM     47  C   UNL A   1      43.390  25.468  29.552  1.00  0.00     0.074 A 
ATOM     48  C   UNL A   1      44.221  29.234  34.605  1.00  0.00     0.029 A 
ATOM     49  N   UNL A   1      43.476  28.296  32.732  1.00  0.00    -0.354 N 
ATOM     50  N   UNL A   1      43.487  26.305  30.560  1.00  0.00    -0.248 NA
ATOM     51  C   UNL A   1      44.494  24.505  29.458  1.00  0.00     0.031 C 
ATOM     52  C   UNL A   1      45.128  28.242  34.213  1.00  0.00     0.029 A 
ATOM     53  C   UNL A   1      44.645  27.628  33.069  1.00  0.00     0.049 A 
ATOM     54  H   UNL A   1      42.913  28.088  31.952  1.00  0.00     0.167 HD
ATOM     55  C   UNL A   1      44.652  25.951  31.236  1.00  0.00     0.074 A 
ATOM     56  C   UNL A   1      45.210  24.815  30.529  1.00  0.00     0.031 C 
ATOM     57  C   UNL A   1      45.205  26.509  32.344  1.00  0.00     0.034 A 
BRANCH  44  58
ATOM     58  C   UNL A   1      42.028  31.356  34.585  1.00  0.00     0.023 A 
ATOM     59  C   UNL A   1      42.596  32.619  34.330  1.00  0.00     0.031 A 
ATOM     60  C   UNL A   1      41.413  31.157  35.834  1.00  0.00     0.131 A 
ATOM     61  C   UNL A   1      42.623  33.593  35.340  1.00  0.00     0.055 A 
ATOM     62  C   UNL A   1      41.358  32.165  36.799  1.00  0.00     0.041 A 
ATOM     63  F   UNL A   1      40.870  29.970  36.147  1.00  0.00    -0.206 F 
ATOM     64  C   UNL A   1      41.984  33.385  36.563  1.00  0.00     0.022 A 
BRANCH  61  65
ATOM     65  S   UNL A   1      43.660  35.062  35.093  1.00  0.00     0.124 S 
ATOM     66  O   UNL A   1      43.055  35.654  33.902  1.00  0.00    -0.237 OA
ATOM     67  O   UNL A   1      43.468  35.795  36.339  1.00  0.00    -0.237 OA
ATOM     68  O   UNL A   1      44.998  34.507  34.893  1.00  0.00    -0.744 OA
ENDBRANCH  61  65
ENDBRANCH  44  58
BRANCH  45  69
ATOM     69  C   UNL A   1      42.401  24.369  27.402  1.00  0.00     0.023 A 
ATOM     70  C   UNL A   1      41.656  23.180  27.432  1.00  0.00     0.031 A 
ATOM     71  C   UNL A   1      43.252  24.584  26.302  1.00  0.00     0.131 A 
ATOM     72  C   UNL A   1      41.801  22.235  26.403  1.00  0.00     0.055 A 
ATOM     73  C   UNL A   1      43.354  23.667  25.255  1.00  0.00     0.041 A 
ATOM     74  F   UNL A   1      43.983  25.708  26.220  1.00  0.00    -0.206 F 
ATOM     75  C   UNL A   1      42.634  22.478  25.308  1.00  0.00     0.022 A 
BRANCH  72  76
ATOM     76  S   UNL A   1      40.936  20.649  26.549  1.00  0.00     0.124 S 
ATOM     77  O   UNL A   1      41.866  19.741  25.887  1.00  0.00    -0.237 OA
ATOM     78  O   UNL A   1      40.816  20.501  27.996  1.00  0.00    -0.237 OA
ATOM     79  O   UNL A   1      39.679  20.880  25.843  1.00  0.00    -0.744 OA
ENDBRANCH  72  76
ENDBRANCH  45  69
BRANCH  57  80
ATOM     80  C   UNL A   1      46.463  25.867  32.881  1.00  0.00     0.023 A 
ATOM     81  C   UNL A   1      46.422  24.836  33.835  1.00  0.00     0.031 A 
ATOM     82  C   UNL A   1      47.724  26.305  32.436  1.00  0.00     0.131 A 
ATOM     83  C   UNL A   1      47.617  24.319  34.358  1.00  0.00     0.055 A 
ATOM     84  C   UNL A   1      48.908  25.740  32.909  1.00  0.00     0.041 A 
ATOM     85  F   UNL A   1      47.825  27.290  31.529  1.00  0.00    -0.206 F 
ATOM     86  C   UNL A   1      48.859  24.749  33.886  1.00  0.00     0.022 A 
BRANCH  83  87
ATOM     87  S   UNL A   1      47.529  23.148  35.741  1.00  0.00     0.124 S 
ATOM     88  O   UNL A   1      48.315  23.830  36.764  1.00  0.00    -0.237 OA
ATOM     89  O   UNL A   1      46.094  23.065  35.989  1.00  0.00    -0.237 OA
ATOM     90  O   UNL A   1      48.136  21.932  35.201  1.00  0.00    -0.744 OA
ENDBRANCH  83  87
ENDBRANCH  57  80
ENDBRANCH  31  32
ENDBRANCH  23  26
ENDBRANCH  21  22
ENDBRANCH   1  21
TORSDOF 16
ENDMDL
