MODEL 1
REMARK VINA RESULT:     -12.1      0.000      0.000
REMARK SMILES C[C@H](Oc1ccnc2c(F)cc(F)cc12)C(=O)NCCCNC(=O)c1ccc(-c2c3nc(c(-c4cc(S(=O)(=O)[O-])ccc4F)c4ccc([nH]4)c(-c4cc(S(=O)(=O)[O-])ccc4F)c4nc(c(-c5cc(S(=O)(=O)[O-])ccc5F)c5ccc2[nH]5)C=C4)C=C3)cc1
REMARK SMILES IDX 20 1 19 2 18 3 16 4 17 5 2 7 1 8 3 9 4 10 5 11 15 12 6 13
REMARK SMILES IDX 8 14 14 15 7 16 9 17 12 18 10 19 11 20 13 21 21 22 22 23
REMARK SMILES IDX 23 24 24 26 25 27 26 28 87 29 27 30 86 31 28 32 29 33 30 34
REMARK SMILES IDX 80 35 31 36 85 37 79 38 81 39 32 40 84 41 78 42 77 43 33 45
REMARK SMILES IDX 65 46 45 47 64 48 46 49 49 50 63 51 82 52 47 53 48 54 62 56
REMARK SMILES IDX 83 57 50 58 34 59 35 60 43 61 36 62 42 63 44 64 41 65 37 66
REMARK SMILES IDX 38 67 39 68 40 69 66 70 67 71 75 72 68 73 74 74 76 75 73 76
REMARK SMILES IDX 69 77 70 78 71 79 72 80 51 81 52 82 60 83 53 84 59 85 61 86
REMARK SMILES IDX 58 87 54 88 55 89 56 90 57 91
REMARK H PARENT 18 6 22 25 81 44 49 55
REMARK Flexibility Score: inf
ROOT
ATOM      1  C   UNL A   1      31.624  31.910  26.738  1.00  0.00     0.042 C 
ENDROOT
BRANCH   1   2
ATOM      2  C   UNL A   1      31.837  30.460  26.323  1.00  0.00     0.118 C 
BRANCH   2   3
ATOM      3  N   UNL A   1      31.244  30.147  25.035  1.00  0.00    -0.353 N 
ATOM      4  C   UNL A   1      31.531  29.149  24.153  1.00  0.00     0.260 C 
ATOM      5  O   UNL A   1      30.884  29.102  23.102  1.00  0.00    -0.271 OA
ATOM      6  H   UNL A   1      30.518  30.752  24.754  1.00  0.00     0.163 HD
BRANCH   4   7
ATOM      7  C   UNL A   1      32.602  28.086  24.460  1.00  0.00     0.258 C 
ATOM      8  C   UNL A   1      33.937  28.463  23.813  1.00  0.00     0.064 C 
BRANCH   7   9
ATOM      9  O   UNL A   1      32.245  26.768  24.060  1.00  0.00    -0.480 OA
BRANCH   9  10
ATOM     10  C   UNL A   1      31.741  25.899  25.001  1.00  0.00     0.131 A 
ATOM     11  C   UNL A   1      30.413  25.868  25.412  1.00  0.00     0.067 A 
ATOM     12  C   UNL A   1      32.669  24.997  25.580  1.00  0.00     0.048 A 
ATOM     13  C   UNL A   1      30.054  24.961  26.389  1.00  0.00     0.115 A 
ATOM     14  C   UNL A   1      32.203  24.103  26.570  1.00  0.00     0.110 A 
ATOM     15  C   UNL A   1      34.028  24.951  25.201  1.00  0.00     0.053 A 
ATOM     16  N   UNL A   1      30.912  24.101  26.968  1.00  0.00    -0.253 NA
ATOM     17  C   UNL A   1      33.121  23.205  27.131  1.00  0.00     0.152 A 
ATOM     18  C   UNL A   1      34.898  24.034  25.779  1.00  0.00     0.127 A 
ATOM     19  F   UNL A   1      32.704  22.351  28.082  1.00  0.00    -0.204 F 
ATOM     20  C   UNL A   1      34.459  23.153  26.747  1.00  0.00     0.080 A 
ATOM     21  F   UNL A   1      36.175  24.015  25.378  1.00  0.00    -0.207 F 
ENDBRANCH   9  10
ENDBRANCH   7   9
ENDBRANCH   4   7
ENDBRANCH   2   3
ENDBRANCH   1   2
BRANCH   1  22
ATOM     22  C   UNL A   1      32.882  32.610  27.240  1.00  0.00     0.118 C 
BRANCH  22  23
ATOM     23  N   UNL A   1      32.648  34.002  27.606  1.00  0.00    -0.352 N 
ATOM     24  C   UNL A   1      33.201  34.749  28.617  1.00  0.00     0.251 C 
ATOM     25  H   UNL A   1      31.997  34.477  27.042  1.00  0.00     0.163 HD
ATOM     26  O   UNL A   1      32.739  35.858  28.878  1.00  0.00    -0.269 OA
BRANCH  24  27
ATOM     27  C   UNL A   1      34.329  34.212  29.404  1.00  0.00     0.039 A 
ATOM     28  C   UNL A   1      34.058  33.446  30.541  1.00  0.00     0.014 A 
ATOM     29  C   UNL A   1      35.650  34.464  29.023  1.00  0.00     0.014 A 
ATOM     30  C   UNL A   1      35.113  32.868  31.251  1.00  0.00     0.010 A 
ATOM     31  C   UNL A   1      36.695  33.835  29.692  1.00  0.00     0.010 A 
ATOM     32  C   UNL A   1      36.437  33.030  30.811  1.00  0.00    -0.014 A 
BRANCH  32  33
ATOM     33  C   UNL A   1      37.559  32.348  31.501  1.00  0.00     0.031 A 
ATOM     34  C   UNL A   1      38.259  31.190  30.850  1.00  0.00     0.074 A 
ATOM     35  C   UNL A   1      37.907  32.739  32.742  1.00  0.00     0.049 A 
ATOM     36  N   UNL A   1      39.262  30.482  31.297  1.00  0.00    -0.248 NA
ATOM     37  C   UNL A   1      37.754  30.758  29.536  1.00  0.00     0.031 C 
ATOM     38  C   UNL A   1      37.253  33.807  33.500  1.00  0.00     0.029 A 
ATOM     39  N   UNL A   1      38.885  32.281  33.587  1.00  0.00    -0.354 N 
ATOM     40  C   UNL A   1      39.512  29.524  30.321  1.00  0.00     0.074 A 
ATOM     41  C   UNL A   1      38.518  29.704  29.286  1.00  0.00     0.031 C 
ATOM     42  C   UNL A   1      37.861  33.935  34.690  1.00  0.00     0.029 A 
ATOM     43  C   UNL A   1      38.933  32.946  34.790  1.00  0.00     0.049 A 
ATOM     44  H   UNL A   1      39.497  31.545  33.355  1.00  0.00     0.167 HD
ATOM     45  C   UNL A   1      40.501  28.601  30.279  1.00  0.00     0.034 A 
ATOM     46  C   UNL A   1      39.749  32.785  35.852  1.00  0.00     0.034 A 
ATOM     47  C   UNL A   1      41.496  28.442  31.305  1.00  0.00     0.049 A 
ATOM     48  C   UNL A   1      40.851  31.759  35.777  1.00  0.00     0.074 A 
ATOM     49  C   UNL A   1      42.580  27.583  31.319  1.00  0.00     0.029 A 
ATOM     50  N   UNL A   1      41.532  29.153  32.496  1.00  0.00    -0.354 N 
ATOM     51  N   UNL A   1      41.149  30.942  34.794  1.00  0.00    -0.248 NA
ATOM     52  C   UNL A   1      41.736  31.638  36.944  1.00  0.00     0.031 C 
ATOM     53  C   UNL A   1      43.249  27.746  32.534  1.00  0.00     0.029 A 
ATOM     54  C   UNL A   1      42.608  28.736  33.261  1.00  0.00     0.049 A 
ATOM     55  H   UNL A   1      40.888  29.850  32.757  1.00  0.00     0.167 HD
ATOM     56  C   UNL A   1      42.267  30.227  35.214  1.00  0.00     0.074 A 
ATOM     57  C   UNL A   1      42.605  30.722  36.533  1.00  0.00     0.031 C 
ATOM     58  C   UNL A   1      42.947  29.247  34.567  1.00  0.00     0.034 A 
BRANCH  45  59
ATOM     59  C   UNL A   1      40.591  27.712  29.068  1.00  0.00     0.023 A 
ATOM     60  C   UNL A   1      41.503  28.000  28.038  1.00  0.00     0.031 A 
ATOM     61  C   UNL A   1      39.699  26.637  28.893  1.00  0.00     0.131 A 
ATOM     62  C   UNL A   1      41.489  27.231  26.867  1.00  0.00     0.055 A 
ATOM     63  C   UNL A   1      39.711  25.856  27.738  1.00  0.00     0.041 A 
ATOM     64  F   UNL A   1      38.814  26.325  29.853  1.00  0.00    -0.206 F 
ATOM     65  C   UNL A   1      40.604  26.158  26.715  1.00  0.00     0.022 A 
BRANCH  62  66
ATOM     66  S   UNL A   1      42.603  27.607  25.486  1.00  0.00     0.124 S 
ATOM     67  O   UNL A   1      41.911  28.715  24.833  1.00  0.00    -0.237 OA
ATOM     68  O   UNL A   1      43.837  27.963  26.180  1.00  0.00    -0.237 OA
ATOM     69  O   UNL A   1      42.642  26.366  24.720  1.00  0.00    -0.744 OA
ENDBRANCH  62  66
ENDBRANCH  45  59
BRANCH  46  70
ATOM     70  C   UNL A   1      39.593  33.684  37.029  1.00  0.00     0.023 A 
ATOM     71  C   UNL A   1      40.436  34.796  37.215  1.00  0.00     0.031 A 
ATOM     72  C   UNL A   1      38.662  33.381  38.037  1.00  0.00     0.131 A 
ATOM     73  C   UNL A   1      40.361  35.533  38.404  1.00  0.00     0.055 A 
ATOM     74  C   UNL A   1      38.554  34.150  39.195  1.00  0.00     0.041 A 
ATOM     75  F   UNL A   1      37.850  32.320  37.908  1.00  0.00    -0.206 F 
ATOM     76  C   UNL A   1      39.416  35.225  39.389  1.00  0.00     0.022 A 
BRANCH  73  77
ATOM     77  S   UNL A   1      41.561  36.846  38.765  1.00  0.00     0.124 S 
ATOM     78  O   UNL A   1      40.695  37.933  39.211  1.00  0.00    -0.237 OA
ATOM     79  O   UNL A   1      42.382  36.227  39.803  1.00  0.00    -0.237 OA
ATOM     80  O   UNL A   1      42.240  37.060  37.491  1.00  0.00    -0.744 OA
ENDBRANCH  73  77
ENDBRANCH  46  70
BRANCH  58  81
ATOM     81  C   UNL A   1      44.133  28.620  35.254  1.00  0.00     0.023 A 
ATOM     82  C   UNL A   1      43.941  27.594  36.199  1.00  0.00     0.031 A 
ATOM     83  C   UNL A   1      45.427  29.143  35.087  1.00  0.00     0.131 A 
ATOM     84  C   UNL A   1      45.021  27.151  36.971  1.00  0.00     0.055 A 
ATOM     85  C   UNL A   1      46.507  28.668  35.831  1.00  0.00     0.041 A 
ATOM     86  F   UNL A   1      45.655  30.127  34.203  1.00  0.00    -0.206 F 
ATOM     87  C   UNL A   1      46.304  27.677  36.787  1.00  0.00     0.022 A 
BRANCH  84  88
ATOM     88  S   UNL A   1      44.789  25.924  38.286  1.00  0.00     0.124 S 
ATOM     89  O   UNL A   1      43.577  26.408  38.945  1.00  0.00    -0.237 OA
ATOM     90  O   UNL A   1      44.634  24.686  37.527  1.00  0.00    -0.237 OA
ATOM     91  O   UNL A   1      46.008  26.025  39.083  1.00  0.00    -0.744 OA
ENDBRANCH  84  88
ENDBRANCH  58  81
ENDBRANCH  32  33
ENDBRANCH  24  27
ENDBRANCH  22  23
ENDBRANCH   1  22
TORSDOF 15
ENDMDL
MODEL 2
REMARK VINA RESULT:     -12.0      1.882      2.449
REMARK SMILES C[C@H](Oc1ccnc2c(F)cc(F)cc12)C(=O)NCCCNC(=O)c1ccc(-c2c3nc(c(-c4cc(S(=O)(=O)[O-])ccc4F)c4ccc([nH]4)c(-c4cc(S(=O)(=O)[O-])ccc4F)c4nc(c(-c5cc(S(=O)(=O)[O-])ccc5F)c5ccc2[nH]5)C=C4)C=C3)cc1
REMARK SMILES IDX 20 1 19 2 18 3 16 4 17 5 2 7 1 8 3 9 4 10 5 11 15 12 6 13
REMARK SMILES IDX 8 14 14 15 7 16 9 17 12 18 10 19 11 20 13 21 21 22 22 23
REMARK SMILES IDX 23 24 24 26 25 27 26 28 87 29 27 30 86 31 28 32 29 33 30 34
REMARK SMILES IDX 80 35 31 36 85 37 79 38 81 39 32 40 84 41 78 42 77 43 33 45
REMARK SMILES IDX 65 46 45 47 64 48 46 49 49 50 63 51 82 52 47 53 48 54 62 56
REMARK SMILES IDX 83 57 50 58 34 59 35 60 43 61 36 62 42 63 44 64 41 65 37 66
REMARK SMILES IDX 38 67 39 68 40 69 66 70 67 71 75 72 68 73 74 74 76 75 73 76
REMARK SMILES IDX 69 77 70 78 71 79 72 80 51 81 52 82 60 83 53 84 59 85 61 86
REMARK SMILES IDX 58 87 54 88 55 89 56 90 57 91
REMARK H PARENT 18 6 22 25 81 44 49 55
REMARK Flexibility Score: inf
ROOT
ATOM      1  C   UNL A   1      31.673  32.384  26.783  1.00  0.00     0.042 C 
ENDROOT
BRANCH   1   2
ATOM      2  C   UNL A   1      31.829  30.907  26.444  1.00  0.00     0.118 C 
BRANCH   2   3
ATOM      3  N   UNL A   1      33.092  30.353  26.898  1.00  0.00    -0.353 N 
ATOM      4  C   UNL A   1      33.584  29.086  26.798  1.00  0.00     0.260 C 
ATOM      5  O   UNL A   1      34.697  28.858  27.283  1.00  0.00    -0.271 OA
ATOM      6  H   UNL A   1      33.689  30.995  27.349  1.00  0.00     0.163 HD
BRANCH   4   7
ATOM      7  C   UNL A   1      32.802  27.973  26.076  1.00  0.00     0.258 C 
ATOM      8  C   UNL A   1      31.708  27.408  26.984  1.00  0.00     0.064 C 
BRANCH   7   9
ATOM      9  O   UNL A   1      33.615  26.905  25.603  1.00  0.00    -0.480 OA
BRANCH   9  10
ATOM     10  C   UNL A   1      33.576  26.580  24.266  1.00  0.00     0.131 A 
ATOM     11  C   UNL A   1      33.598  27.507  23.229  1.00  0.00     0.067 A 
ATOM     12  C   UNL A   1      33.494  25.198  23.960  1.00  0.00     0.048 A 
ATOM     13  C   UNL A   1      33.522  27.038  21.934  1.00  0.00     0.115 A 
ATOM     14  C   UNL A   1      33.426  24.817  22.601  1.00  0.00     0.110 A 
ATOM     15  C   UNL A   1      33.489  24.195  24.954  1.00  0.00     0.053 A 
ATOM     16  N   UNL A   1      33.431  25.735  21.610  1.00  0.00    -0.253 NA
ATOM     17  C   UNL A   1      33.357  23.450  22.303  1.00  0.00     0.152 A 
ATOM     18  C   UNL A   1      33.431  22.849  24.607  1.00  0.00     0.127 A 
ATOM     19  F   UNL A   1      33.282  23.062  21.019  1.00  0.00    -0.204 F 
ATOM     20  C   UNL A   1      33.365  22.461  23.285  1.00  0.00     0.080 A 
ATOM     21  F   UNL A   1      33.446  21.932  25.581  1.00  0.00    -0.207 F 
ENDBRANCH   9  10
ENDBRANCH   7   9
ENDBRANCH   4   7
ENDBRANCH   2   3
ENDBRANCH   1   2
BRANCH   1  22
ATOM     22  C   UNL A   1      32.831  32.969  27.583  1.00  0.00     0.118 C 
BRANCH  22  23
ATOM     23  N   UNL A   1      32.626  34.369  27.936  1.00  0.00    -0.352 N 
ATOM     24  C   UNL A   1      33.218  35.123  28.919  1.00  0.00     0.251 C 
ATOM     25  H   UNL A   1      31.965  34.845  27.384  1.00  0.00     0.163 HD
ATOM     26  O   UNL A   1      32.779  36.242  29.178  1.00  0.00    -0.269 OA
BRANCH  24  27
ATOM     27  C   UNL A   1      34.362  34.582  29.681  1.00  0.00     0.039 A 
ATOM     28  C   UNL A   1      34.136  34.029  30.944  1.00  0.00     0.014 A 
ATOM     29  C   UNL A   1      35.655  34.620  29.150  1.00  0.00     0.014 A 
ATOM     30  C   UNL A   1      35.195  33.445  31.641  1.00  0.00     0.010 A 
ATOM     31  C   UNL A   1      36.696  33.981  29.817  1.00  0.00     0.010 A 
ATOM     32  C   UNL A   1      36.475  33.387  31.068  1.00  0.00    -0.014 A 
BRANCH  32  33
ATOM     33  C   UNL A   1      37.589  32.689  31.758  1.00  0.00     0.031 A 
ATOM     34  C   UNL A   1      38.249  31.500  31.121  1.00  0.00     0.074 A 
ATOM     35  C   UNL A   1      37.964  33.096  32.986  1.00  0.00     0.049 A 
ATOM     36  N   UNL A   1      39.240  30.775  31.570  1.00  0.00    -0.248 NA
ATOM     37  C   UNL A   1      37.716  31.054  29.823  1.00  0.00     0.031 C 
ATOM     38  C   UNL A   1      37.348  34.196  33.729  1.00  0.00     0.029 A 
ATOM     39  N   UNL A   1      38.941  32.630  33.827  1.00  0.00    -0.354 N 
ATOM     40  C   UNL A   1      39.452  29.792  30.611  1.00  0.00     0.074 A 
ATOM     41  C   UNL A   1      38.449  29.976  29.586  1.00  0.00     0.031 C 
ATOM     42  C   UNL A   1      37.976  34.333  34.909  1.00  0.00     0.029 A 
ATOM     43  C   UNL A   1      39.022  33.318  35.015  1.00  0.00     0.049 A 
ATOM     44  H   UNL A   1      39.530  31.874  33.602  1.00  0.00     0.167 HD
ATOM     45  C   UNL A   1      40.415  28.842  30.575  1.00  0.00     0.034 A 
ATOM     46  C   UNL A   1      39.849  33.157  36.069  1.00  0.00     0.034 A 
ATOM     47  C   UNL A   1      41.420  28.678  31.591  1.00  0.00     0.049 A 
ATOM     48  C   UNL A   1      40.923  32.101  36.001  1.00  0.00     0.074 A 
ATOM     49  C   UNL A   1      42.482  27.792  31.608  1.00  0.00     0.029 A 
ATOM     50  N   UNL A   1      41.490  29.412  32.766  1.00  0.00    -0.354 N 
ATOM     51  N   UNL A   1      41.186  31.257  35.031  1.00  0.00    -0.248 NA
ATOM     52  C   UNL A   1      41.820  31.981  37.159  1.00  0.00     0.031 C 
ATOM     53  C   UNL A   1      43.171  27.962  32.811  1.00  0.00     0.029 A 
ATOM     54  C   UNL A   1      42.566  28.983  33.525  1.00  0.00     0.049 A 
ATOM     55  H   UNL A   1      40.869  30.131  33.022  1.00  0.00     0.167 HD
ATOM     56  C   UNL A   1      42.291  30.522  35.452  1.00  0.00     0.074 A 
ATOM     57  C   UNL A   1      42.659  31.035  36.756  1.00  0.00     0.031 C 
ATOM     58  C   UNL A   1      42.935  29.511  34.817  1.00  0.00     0.034 A 
BRANCH  45  59
ATOM     59  C   UNL A   1      40.466  27.926  29.382  1.00  0.00     0.023 A 
ATOM     60  C   UNL A   1      41.342  28.193  28.315  1.00  0.00     0.031 A 
ATOM     61  C   UNL A   1      39.571  26.847  29.261  1.00  0.00     0.131 A 
ATOM     62  C   UNL A   1      41.290  27.398  27.163  1.00  0.00     0.055 A 
ATOM     63  C   UNL A   1      39.545  26.041  28.124  1.00  0.00     0.041 A 
ATOM     64  F   UNL A   1      38.719  26.555  30.257  1.00  0.00    -0.206 F 
ATOM     65  C   UNL A   1      40.402  26.320  27.065  1.00  0.00     0.022 A 
BRANCH  62  66
ATOM     66  S   UNL A   1      42.355  27.743  25.737  1.00  0.00     0.124 S 
ATOM     67  O   UNL A   1      43.687  27.700  26.338  1.00  0.00    -0.237 OA
ATOM     68  O   UNL A   1      42.037  26.633  24.844  1.00  0.00    -0.237 OA
ATOM     69  O   UNL A   1      41.923  29.062  25.288  1.00  0.00    -0.744 OA
ENDBRANCH  62  66
ENDBRANCH  45  59
BRANCH  46  70
ATOM     70  C   UNL A   1      39.733  34.084  37.229  1.00  0.00     0.023 A 
ATOM     71  C   UNL A   1      39.156  33.664  38.443  1.00  0.00     0.031 A 
ATOM     72  C   UNL A   1      40.106  35.432  37.104  1.00  0.00     0.131 A 
ATOM     73  C   UNL A   1      38.927  34.598  39.463  1.00  0.00     0.055 A 
ATOM     74  C   UNL A   1      39.926  36.347  38.141  1.00  0.00     0.041 A 
ATOM     75  F   UNL A   1      40.646  35.879  35.958  1.00  0.00    -0.206 F 
ATOM     76  C   UNL A   1      39.321  35.933  39.324  1.00  0.00     0.022 A 
BRANCH  73  77
ATOM     77  S   UNL A   1      38.008  34.140  40.959  1.00  0.00     0.124 S 
ATOM     78  O   UNL A   1      36.935  33.315  40.415  1.00  0.00    -0.237 OA
ATOM     79  O   UNL A   1      39.024  33.426  41.729  1.00  0.00    -0.237 OA
ATOM     80  O   UNL A   1      37.598  35.422  41.524  1.00  0.00    -0.744 OA
ENDBRANCH  73  77
ENDBRANCH  46  70
BRANCH  58  81
ATOM     81  C   UNL A   1      44.114  28.867  35.501  1.00  0.00     0.023 A 
ATOM     82  C   UNL A   1      43.918  27.776  36.368  1.00  0.00     0.031 A 
ATOM     83  C   UNL A   1      45.399  29.431  35.414  1.00  0.00     0.131 A 
ATOM     84  C   UNL A   1      44.983  27.307  37.146  1.00  0.00     0.055 A 
ATOM     85  C   UNL A   1      46.466  28.933  36.161  1.00  0.00     0.041 A 
ATOM     86  F   UNL A   1      45.630  30.478  34.605  1.00  0.00    -0.206 F 
ATOM     87  C   UNL A   1      46.258  27.875  37.041  1.00  0.00     0.022 A 
BRANCH  84  88
ATOM     88  S   UNL A   1      44.740  25.989  38.368  1.00  0.00     0.124 S 
ATOM     89  O   UNL A   1      46.112  25.710  38.791  1.00  0.00    -0.237 OA
ATOM     90  O   UNL A   1      43.902  26.647  39.365  1.00  0.00    -0.237 OA
ATOM     91  O   UNL A   1      44.097  24.920  37.611  1.00  0.00    -0.744 OA
ENDBRANCH  84  88
ENDBRANCH  58  81
ENDBRANCH  32  33
ENDBRANCH  24  27
ENDBRANCH  22  23
ENDBRANCH   1  22
TORSDOF 15
ENDMDL
MODEL 3
REMARK VINA RESULT:     -11.9      1.175      7.722
REMARK SMILES C[C@H](Oc1ccnc2c(F)cc(F)cc12)C(=O)NCCCNC(=O)c1ccc(-c2c3nc(c(-c4cc(S(=O)(=O)[O-])ccc4F)c4ccc([nH]4)c(-c4cc(S(=O)(=O)[O-])ccc4F)c4nc(c(-c5cc(S(=O)(=O)[O-])ccc5F)c5ccc2[nH]5)C=C4)C=C3)cc1
REMARK SMILES IDX 20 1 19 2 18 3 16 4 17 5 2 7 1 8 3 9 4 10 5 11 15 12 6 13
REMARK SMILES IDX 8 14 14 15 7 16 9 17 12 18 10 19 11 20 13 21 21 22 22 23
REMARK SMILES IDX 23 24 24 26 25 27 26 28 87 29 27 30 86 31 28 32 29 33 30 34
REMARK SMILES IDX 80 35 31 36 85 37 79 38 81 39 32 40 84 41 78 42 77 43 33 45
REMARK SMILES IDX 65 46 45 47 64 48 46 49 49 50 63 51 82 52 47 53 48 54 62 56
REMARK SMILES IDX 83 57 50 58 34 59 35 60 43 61 36 62 42 63 44 64 41 65 37 66
REMARK SMILES IDX 38 67 39 68 40 69 66 70 67 71 75 72 68 73 74 74 76 75 73 76
REMARK SMILES IDX 69 77 70 78 71 79 72 80 51 81 52 82 60 83 53 84 59 85 61 86
REMARK SMILES IDX 58 87 54 88 55 89 56 90 57 91
REMARK H PARENT 18 6 22 25 81 44 49 55
REMARK Flexibility Score: inf
ROOT
ATOM      1  C   UNL A   1      31.611  31.782  26.835  1.00  0.00     0.042 C 
ENDROOT
BRANCH   1   2
ATOM      2  C   UNL A   1      31.859  30.364  26.337  1.00  0.00     0.118 C 
BRANCH   2   3
ATOM      3  N   UNL A   1      31.295  30.121  25.020  1.00  0.00    -0.353 N 
ATOM      4  C   UNL A   1      31.608  29.176  24.090  1.00  0.00     0.260 C 
ATOM      5  O   UNL A   1      30.983  29.185  23.024  1.00  0.00    -0.271 OA
ATOM      6  H   UNL A   1      30.571  30.736  24.759  1.00  0.00     0.163 HD
BRANCH   4   7
ATOM      7  C   UNL A   1      32.680  28.105  24.358  1.00  0.00     0.258 C 
ATOM      8  C   UNL A   1      33.991  28.465  23.655  1.00  0.00     0.064 C 
BRANCH   7   9
ATOM      9  O   UNL A   1      32.294  26.788  23.981  1.00  0.00    -0.480 OA
BRANCH   9  10
ATOM     10  C   UNL A   1      31.797  25.938  24.942  1.00  0.00     0.131 A 
ATOM     11  C   UNL A   1      30.474  25.923  25.372  1.00  0.00     0.067 A 
ATOM     12  C   UNL A   1      32.726  25.038  25.522  1.00  0.00     0.048 A 
ATOM     13  C   UNL A   1      30.123  25.034  26.368  1.00  0.00     0.115 A 
ATOM     14  C   UNL A   1      32.267  24.162  26.532  1.00  0.00     0.110 A 
ATOM     15  C   UNL A   1      34.079  24.975  25.125  1.00  0.00     0.053 A 
ATOM     16  N   UNL A   1      30.981  24.177  26.947  1.00  0.00    -0.253 NA
ATOM     17  C   UNL A   1      33.186  23.266  27.094  1.00  0.00     0.152 A 
ATOM     18  C   UNL A   1      34.951  24.060  25.705  1.00  0.00     0.127 A 
ATOM     19  F   UNL A   1      32.776  22.429  28.063  1.00  0.00    -0.204 F 
ATOM     20  C   UNL A   1      34.518  23.198  26.693  1.00  0.00     0.080 A 
ATOM     21  F   UNL A   1      36.221  24.025  25.286  1.00  0.00    -0.207 F 
ENDBRANCH   9  10
ENDBRANCH   7   9
ENDBRANCH   4   7
ENDBRANCH   2   3
ENDBRANCH   1   2
BRANCH   1  22
ATOM     22  C   UNL A   1      32.872  32.526  27.260  1.00  0.00     0.118 C 
BRANCH  22  23
ATOM     23  N   UNL A   1      32.610  33.904  27.658  1.00  0.00    -0.352 N 
ATOM     24  C   UNL A   1      33.186  34.656  28.652  1.00  0.00     0.251 C 
ATOM     25  H   UNL A   1      31.916  34.364  27.133  1.00  0.00     0.163 HD
ATOM     26  O   UNL A   1      32.700  35.745  28.952  1.00  0.00    -0.269 OA
BRANCH  24  27
ATOM     27  C   UNL A   1      34.368  34.148  29.376  1.00  0.00     0.039 A 
ATOM     28  C   UNL A   1      34.179  33.368  30.520  1.00  0.00     0.014 A 
ATOM     29  C   UNL A   1      35.660  34.440  28.928  1.00  0.00     0.014 A 
ATOM     30  C   UNL A   1      35.285  32.817  31.170  1.00  0.00     0.010 A 
ATOM     31  C   UNL A   1      36.756  33.838  29.538  1.00  0.00     0.010 A 
ATOM     32  C   UNL A   1      36.580  33.020  30.663  1.00  0.00    -0.014 A 
BRANCH  32  33
ATOM     33  C   UNL A   1      37.755  32.366  31.290  1.00  0.00     0.031 A 
ATOM     34  C   UNL A   1      38.316  32.890  32.580  1.00  0.00     0.074 A 
ATOM     35  C   UNL A   1      38.350  31.334  30.661  1.00  0.00     0.049 A 
ATOM     36  N   UNL A   1      39.327  32.442  33.276  1.00  0.00    -0.248 NA
ATOM     37  C   UNL A   1      37.672  34.083  33.154  1.00  0.00     0.031 C 
ATOM     38  C   UNL A   1      37.933  30.785  29.370  1.00  0.00     0.029 A 
ATOM     39  N   UNL A   1      39.434  30.571  31.015  1.00  0.00    -0.354 N 
ATOM     40  C   UNL A   1      39.440  33.292  34.370  1.00  0.00     0.074 A 
ATOM     41  C   UNL A   1      38.433  34.318  34.213  1.00  0.00     0.031 C 
ATOM     42  C   UNL A   1      38.740  29.760  29.049  1.00  0.00     0.029 A 
ATOM     43  C   UNL A   1      39.744  29.593  30.099  1.00  0.00     0.049 A 
ATOM     44  H   UNL A   1      39.943  30.711  31.846  1.00  0.00     0.167 HD
ATOM     45  C   UNL A   1      40.285  33.206  35.422  1.00  0.00     0.034 A 
ATOM     46  C   UNL A   1      40.719  28.662  30.104  1.00  0.00     0.034 A 
ATOM     47  C   UNL A   1      41.273  32.172  35.577  1.00  0.00     0.049 A 
ATOM     48  C   UNL A   1      41.642  28.576  31.293  1.00  0.00     0.074 A 
ATOM     49  C   UNL A   1      42.127  31.958  36.644  1.00  0.00     0.029 A 
ATOM     50  N   UNL A   1      41.538  31.180  34.645  1.00  0.00    -0.354 N 
ATOM     51  N   UNL A   1      41.656  29.315  32.378  1.00  0.00    -0.248 NA
ATOM     52  C   UNL A   1      42.671  27.528  31.271  1.00  0.00     0.031 C 
ATOM     53  C   UNL A   1      42.937  30.862  36.340  1.00  0.00     0.029 A 
ATOM     54  C   UNL A   1      42.559  30.364  35.103  1.00  0.00     0.049 A 
ATOM     55  H   UNL A   1      41.071  31.071  33.786  1.00  0.00     0.167 HD
ATOM     56  C   UNL A   1      42.678  28.808  33.175  1.00  0.00     0.074 A 
ATOM     57  C   UNL A   1      43.246  27.685  32.457  1.00  0.00     0.031 C 
ATOM     58  C   UNL A   1      43.108  29.237  34.388  1.00  0.00     0.034 A 
BRANCH  45  59
ATOM     59  C   UNL A   1      40.162  34.231  36.518  1.00  0.00     0.023 A 
ATOM     60  C   UNL A   1      39.628  33.875  37.769  1.00  0.00     0.031 A 
ATOM     61  C   UNL A   1      40.482  35.581  36.284  1.00  0.00     0.131 A 
ATOM     62  C   UNL A   1      39.411  34.867  38.734  1.00  0.00     0.055 A 
ATOM     63  C   UNL A   1      40.292  36.558  37.260  1.00  0.00     0.041 A 
ATOM     64  F   UNL A   1      40.998  35.964  35.105  1.00  0.00    -0.206 F 
ATOM     65  C   UNL A   1      39.747  36.203  38.490  1.00  0.00     0.022 A 
BRANCH  62  66
ATOM     66  S   UNL A   1      38.665  34.466  40.338  1.00  0.00     0.124 S 
ATOM     67  O   UNL A   1      39.819  33.992  41.098  1.00  0.00    -0.237 OA
ATOM     68  O   UNL A   1      38.129  35.759  40.755  1.00  0.00    -0.237 OA
ATOM     69  O   UNL A   1      37.675  33.443  40.017  1.00  0.00    -0.744 OA
ENDBRANCH  62  66
ENDBRANCH  45  59
BRANCH  46  70
ATOM     70  C   UNL A   1      40.800  27.691  28.978  1.00  0.00     0.023 A 
ATOM     71  C   UNL A   1      41.742  27.850  27.943  1.00  0.00     0.031 A 
ATOM     72  C   UNL A   1      39.868  26.645  28.871  1.00  0.00     0.131 A 
ATOM     73  C   UNL A   1      41.695  27.007  26.825  1.00  0.00     0.055 A 
ATOM     74  C   UNL A   1      39.859  25.773  27.782  1.00  0.00     0.041 A 
ATOM     75  F   UNL A   1      38.943  26.466  29.827  1.00  0.00    -0.206 F 
ATOM     76  C   UNL A   1      40.768  25.961  26.745  1.00  0.00     0.022 A 
BRANCH  73  77
ATOM     77  S   UNL A   1      42.758  27.305  25.385  1.00  0.00     0.124 S 
ATOM     78  O   UNL A   1      42.619  26.058  24.641  1.00  0.00    -0.237 OA
ATOM     79  O   UNL A   1      42.125  28.474  24.780  1.00  0.00    -0.237 OA
ATOM     80  O   UNL A   1      44.074  27.552  25.967  1.00  0.00    -0.744 OA
ENDBRANCH  73  77
ENDBRANCH  46  70
BRANCH  58  81
ATOM     81  C   UNL A   1      44.254  28.510  35.044  1.00  0.00     0.023 A 
ATOM     82  C   UNL A   1      43.999  27.498  35.988  1.00  0.00     0.031 A 
ATOM     83  C   UNL A   1      45.582  28.926  34.850  1.00  0.00     0.131 A 
ATOM     84  C   UNL A   1      45.056  26.962  36.733  1.00  0.00     0.055 A 
ATOM     85  C   UNL A   1      46.636  28.359  35.567  1.00  0.00     0.041 A 
ATOM     86  F   UNL A   1      45.871  29.894  33.966  1.00  0.00    -0.206 F 
ATOM     87  C   UNL A   1      46.374  27.381  36.522  1.00  0.00     0.022 A 
BRANCH  84  88
ATOM     88  S   UNL A   1      44.754  25.749  38.047  1.00  0.00     0.124 S 
ATOM     89  O   UNL A   1      44.057  26.554  39.050  1.00  0.00    -0.237 OA
ATOM     90  O   UNL A   1      43.930  24.756  37.364  1.00  0.00    -0.237 OA
ATOM     91  O   UNL A   1      46.089  25.303  38.431  1.00  0.00    -0.744 OA
ENDBRANCH  84  88
ENDBRANCH  58  81
ENDBRANCH  32  33
ENDBRANCH  24  27
ENDBRANCH  22  23
ENDBRANCH   1  22
TORSDOF 15
ENDMDL
