MODEL 1
REMARK VINA RESULT:     -11.4      0.000      0.000
REMARK SMILES C[C@H](CNC(=O)Cc1ccc(F)c(F)c1)C(=O)NCCCNC(=O)c1ccc(-c2c3nc(c(-c4cc(S(=O)(=O)[O-])ccc4F)c4ccc([nH]4)c(-c4cc(S(=O)(=O)[O-])ccc4F)c4nc(c(-c5cc(S(=O)(=O)[O-])ccc5F)c5ccc2[nH]5)C=C4)C=C3)cc1
REMARK SMILES IDX 19 1 18 2 16 3 17 4 2 6 1 7 3 8 4 9 5 10 6 12 7 13 8 14 9 15
REMARK SMILES IDX 15 16 10 17 13 18 11 19 14 20 12 21 20 22 21 23 22 24 23 25
REMARK SMILES IDX 24 27 25 28 26 29 87 30 27 31 86 32 28 33 29 34 30 35 80 36
REMARK SMILES IDX 31 37 85 38 79 39 81 40 32 41 84 42 78 43 77 44 33 46 65 47
REMARK SMILES IDX 45 48 64 49 46 50 49 51 63 52 82 53 47 54 48 55 62 57 83 58
REMARK SMILES IDX 50 59 34 60 35 61 43 62 36 63 42 64 44 65 41 66 37 67 38 68
REMARK SMILES IDX 39 69 40 70 66 71 67 72 75 73 68 74 74 75 76 76 73 77 69 78
REMARK SMILES IDX 70 79 71 80 72 81 51 82 52 83 60 84 53 85 59 86 61 87 58 88
REMARK SMILES IDX 54 89 55 90 56 91 57 92
REMARK H PARENT 18 5 4 11 22 26 81 45 49 56
REMARK Flexibility Score: inf
ROOT
ATOM      1  C   UNL A   1      31.658  27.853  26.531  1.00  0.00     0.117 C 
ENDROOT
BRANCH   1   2
ATOM      2  N   UNL A   1      31.042  26.574  26.834  1.00  0.00    -0.356 N 
ATOM      3  C   UNL A   1      30.512  25.627  26.020  1.00  0.00     0.224 C 
ATOM      4  O   UNL A   1      29.996  24.641  26.549  1.00  0.00    -0.275 OA
ATOM      5  H   UNL A   1      31.004  26.357  27.793  1.00  0.00     0.163 HD
BRANCH   3   6
ATOM      6  C   UNL A   1      30.557  25.760  24.510  1.00  0.00     0.094 C 
ATOM      7  C   UNL A   1      29.338  26.514  23.968  1.00  0.00     0.020 C 
BRANCH   6   8
ATOM      8  C   UNL A   1      30.859  24.419  23.822  1.00  0.00     0.129 C 
BRANCH   8   9
ATOM      9  N   UNL A   1      31.548  24.647  22.557  1.00  0.00    -0.355 N 
ATOM     10  C   UNL A   1      32.745  24.180  22.104  1.00  0.00     0.224 C 
ATOM     11  H   UNL A   1      31.071  25.233  21.927  1.00  0.00     0.163 HD
ATOM     12  O   UNL A   1      33.241  24.745  21.126  1.00  0.00    -0.275 OA
BRANCH  10  13
ATOM     13  C   UNL A   1      33.378  22.936  22.691  1.00  0.00     0.135 C 
BRANCH  13  14
ATOM     14  C   UNL A   1      34.433  23.089  23.760  1.00  0.00    -0.036 A 
ATOM     15  C   UNL A   1      35.774  23.233  23.355  1.00  0.00     0.007 A 
ATOM     16  C   UNL A   1      34.136  23.147  25.127  1.00  0.00     0.046 A 
ATOM     17  C   UNL A   1      36.799  23.361  24.295  1.00  0.00     0.043 A 
ATOM     18  C   UNL A   1      35.167  23.253  26.062  1.00  0.00     0.159 A 
ATOM     19  C   UNL A   1      36.489  23.352  25.648  1.00  0.00     0.158 A 
ATOM     20  F   UNL A   1      34.867  23.268  27.368  1.00  0.00    -0.204 F 
ATOM     21  F   UNL A   1      37.477  23.464  26.548  1.00  0.00    -0.204 F 
ENDBRANCH  13  14
ENDBRANCH  10  13
ENDBRANCH   8   9
ENDBRANCH   6   8
ENDBRANCH   3   6
ENDBRANCH   1   2
BRANCH   1  22
ATOM     22  C   UNL A   1      33.135  27.856  26.890  1.00  0.00     0.042 C 
BRANCH  22  23
ATOM     23  C   UNL A   1      33.944  28.865  26.088  1.00  0.00     0.118 C 
BRANCH  23  24
ATOM     24  N   UNL A   1      33.731  30.230  26.548  1.00  0.00    -0.352 N 
ATOM     25  C   UNL A   1      34.375  30.934  27.536  1.00  0.00     0.251 C 
ATOM     26  H   UNL A   1      33.018  30.721  26.080  1.00  0.00     0.163 HD
ATOM     27  O   UNL A   1      33.880  31.976  27.952  1.00  0.00    -0.269 OA
BRANCH  25  28
ATOM     28  C   UNL A   1      35.643  30.422  28.096  1.00  0.00     0.039 A 
ATOM     29  C   UNL A   1      35.624  29.742  29.315  1.00  0.00     0.014 A 
ATOM     30  C   UNL A   1      36.852  30.633  27.428  1.00  0.00     0.014 A 
ATOM     31  C   UNL A   1      36.812  29.229  29.836  1.00  0.00     0.010 A 
ATOM     32  C   UNL A   1      38.015  30.034  27.896  1.00  0.00     0.010 A 
ATOM     33  C   UNL A   1      38.013  29.346  29.116  1.00  0.00    -0.014 A 
BRANCH  33  34
ATOM     34  C   UNL A   1      39.287  28.795  29.645  1.00  0.00     0.031 A 
ATOM     35  C   UNL A   1      39.956  29.460  30.819  1.00  0.00     0.074 A 
ATOM     36  C   UNL A   1      39.863  27.738  29.041  1.00  0.00     0.049 A 
ATOM     37  N   UNL A   1      41.102  29.184  31.386  1.00  0.00    -0.248 NA
ATOM     38  C   UNL A   1      39.259  30.613  31.410  1.00  0.00     0.031 C 
ATOM     39  C   UNL A   1      39.328  27.037  27.871  1.00  0.00     0.029 A 
ATOM     40  N   UNL A   1      41.028  27.068  29.323  1.00  0.00    -0.354 N 
ATOM     41  C   UNL A   1      41.268  30.135  32.388  1.00  0.00     0.074 A 
ATOM     42  C   UNL A   1      40.143  31.040  32.297  1.00  0.00     0.031 C 
ATOM     43  C   UNL A   1      40.142  26.017  27.559  1.00  0.00     0.029 A 
ATOM     44  C   UNL A   1      41.283  26.019  28.470  1.00  0.00     0.049 A 
ATOM     45  H   UNL A   1      41.623  27.315  30.066  1.00  0.00     0.167 HD
ATOM     46  C   UNL A   1      42.250  30.226  33.317  1.00  0.00     0.034 A 
ATOM     47  C   UNL A   1      42.324  25.164  28.422  1.00  0.00     0.034 A 
ATOM     48  C   UNL A   1      43.355  29.303  33.400  1.00  0.00     0.049 A 
ATOM     49  C   UNL A   1      43.420  25.301  29.450  1.00  0.00     0.074 A 
ATOM     50  C   UNL A   1      44.382  29.269  34.328  1.00  0.00     0.029 A 
ATOM     51  N   UNL A   1      43.582  28.253  32.519  1.00  0.00    -0.354 N 
ATOM     52  N   UNL A   1      43.537  26.176  30.423  1.00  0.00    -0.248 NA
ATOM     53  C   UNL A   1      44.515  24.326  29.382  1.00  0.00     0.031 C 
ATOM     54  C   UNL A   1      45.266  28.248  33.963  1.00  0.00     0.029 A 
ATOM     55  C   UNL A   1      44.747  27.586  32.863  1.00  0.00     0.049 A 
ATOM     56  H   UNL A   1      43.000  28.017  31.761  1.00  0.00     0.167 HD
ATOM     57  C   UNL A   1      44.701  25.832  31.104  1.00  0.00     0.074 A 
ATOM     58  C   UNL A   1      45.239  24.662  30.440  1.00  0.00     0.031 C 
ATOM     59  C   UNL A   1      45.274  26.423  32.184  1.00  0.00     0.034 A 
BRANCH  46  60
ATOM     60  C   UNL A   1      42.179  31.377  34.295  1.00  0.00     0.023 A 
ATOM     61  C   UNL A   1      41.270  31.381  35.367  1.00  0.00     0.031 A 
ATOM     62  C   UNL A   1      43.008  32.501  34.135  1.00  0.00     0.131 A 
ATOM     63  C   UNL A   1      41.151  32.516  36.183  1.00  0.00     0.055 A 
ATOM     64  C   UNL A   1      42.949  33.591  35.007  1.00  0.00     0.041 A 
ATOM     65  F   UNL A   1      43.882  32.568  33.118  1.00  0.00    -0.206 F 
ATOM     66  C   UNL A   1      42.004  33.610  36.029  1.00  0.00     0.022 A 
BRANCH  63  67
ATOM     67  S   UNL A   1      39.759  32.604  37.345  1.00  0.00     0.124 S 
ATOM     68  O   UNL A   1      38.995  31.414  36.977  1.00  0.00    -0.237 OA
ATOM     69  O   UNL A   1      40.427  32.561  38.640  1.00  0.00    -0.237 OA
ATOM     70  O   UNL A   1      39.117  33.874  37.013  1.00  0.00    -0.744 OA
ENDBRANCH  63  67
ENDBRANCH  46  60
BRANCH  47  71
ATOM     71  C   UNL A   1      42.389  24.107  27.371  1.00  0.00     0.023 A 
ATOM     72  C   UNL A   1      41.742  22.874  27.544  1.00  0.00     0.031 A 
ATOM     73  C   UNL A   1      43.140  24.298  26.197  1.00  0.00     0.131 A 
ATOM     74  C   UNL A   1      41.901  21.859  26.587  1.00  0.00     0.055 A 
ATOM     75  C   UNL A   1      43.245  23.306  25.219  1.00  0.00     0.041 A 
ATOM     76  F   UNL A   1      43.775  25.459  25.977  1.00  0.00    -0.206 F 
ATOM     77  C   UNL A   1      42.636  22.073  25.419  1.00  0.00     0.022 A 
BRANCH  74  78
ATOM     78  S   UNL A   1      41.209  20.219  26.938  1.00  0.00     0.124 S 
ATOM     79  O   UNL A   1      40.892  20.331  28.357  1.00  0.00    -0.237 OA
ATOM     80  O   UNL A   1      40.071  20.169  26.026  1.00  0.00    -0.237 OA
ATOM     81  O   UNL A   1      42.307  19.312  26.613  1.00  0.00    -0.744 OA
ENDBRANCH  74  78
ENDBRANCH  47  71
BRANCH  59  82
ATOM     82  C   UNL A   1      46.517  25.776  32.745  1.00  0.00     0.023 A 
ATOM     83  C   UNL A   1      47.792  26.032  32.212  1.00  0.00     0.031 A 
ATOM     84  C   UNL A   1      46.420  24.883  33.827  1.00  0.00     0.131 A 
ATOM     85  C   UNL A   1      48.910  25.354  32.720  1.00  0.00     0.055 A 
ATOM     86  C   UNL A   1      47.544  24.266  34.374  1.00  0.00     0.041 A 
ATOM     87  F   UNL A   1      45.227  24.599  34.374  1.00  0.00    -0.206 F 
ATOM     88  C   UNL A   1      48.797  24.487  33.810  1.00  0.00     0.022 A 
BRANCH  85  89
ATOM     89  S   UNL A   1      50.502  25.539  31.870  1.00  0.00     0.124 S 
ATOM     90  O   UNL A   1      50.245  26.675  30.990  1.00  0.00    -0.237 OA
ATOM     91  O   UNL A   1      51.420  25.786  32.977  1.00  0.00    -0.237 OA
ATOM     92  O   UNL A   1      50.680  24.256  31.192  1.00  0.00    -0.744 OA
ENDBRANCH  85  89
ENDBRANCH  59  82
ENDBRANCH  33  34
ENDBRANCH  25  28
ENDBRANCH  23  24
ENDBRANCH  22  23
ENDBRANCH   1  22
TORSDOF 17
ENDMDL
MODEL 2
REMARK VINA RESULT:     -11.4      5.059     11.118
REMARK SMILES C[C@H](CNC(=O)Cc1ccc(F)c(F)c1)C(=O)NCCCNC(=O)c1ccc(-c2c3nc(c(-c4cc(S(=O)(=O)[O-])ccc4F)c4ccc([nH]4)c(-c4cc(S(=O)(=O)[O-])ccc4F)c4nc(c(-c5cc(S(=O)(=O)[O-])ccc5F)c5ccc2[nH]5)C=C4)C=C3)cc1
REMARK SMILES IDX 19 1 18 2 16 3 17 4 2 6 1 7 3 8 4 9 5 10 6 12 7 13 8 14 9 15
REMARK SMILES IDX 15 16 10 17 13 18 11 19 14 20 12 21 20 22 21 23 22 24 23 25
REMARK SMILES IDX 24 27 25 28 26 29 87 30 27 31 86 32 28 33 29 34 30 35 80 36
REMARK SMILES IDX 31 37 85 38 79 39 81 40 32 41 84 42 78 43 77 44 33 46 65 47
REMARK SMILES IDX 45 48 64 49 46 50 49 51 63 52 82 53 47 54 48 55 62 57 83 58
REMARK SMILES IDX 50 59 34 60 35 61 43 62 36 63 42 64 44 65 41 66 37 67 38 68
REMARK SMILES IDX 39 69 40 70 66 71 67 72 75 73 68 74 74 75 76 76 73 77 69 78
REMARK SMILES IDX 70 79 71 80 72 81 51 82 52 83 60 84 53 85 59 86 61 87 58 88
REMARK SMILES IDX 54 89 55 90 56 91 57 92
REMARK H PARENT 18 5 4 11 22 26 81 45 49 56
REMARK Flexibility Score: inf
ROOT
ATOM      1  C   UNL A   1      42.350  19.382  25.947  1.00  0.00     0.117 C 
ENDROOT
BRANCH   1   2
ATOM      2  N   UNL A   1      43.622  18.686  26.007  1.00  0.00    -0.356 N 
ATOM      3  C   UNL A   1      44.728  18.787  25.228  1.00  0.00     0.224 C 
ATOM      4  O   UNL A   1      45.668  18.028  25.468  1.00  0.00    -0.275 OA
ATOM      5  H   UNL A   1      43.694  18.030  26.736  1.00  0.00     0.163 HD
BRANCH   3   6
ATOM      6  C   UNL A   1      44.822  19.804  24.107  1.00  0.00     0.094 C 
ATOM      7  C   UNL A   1      44.896  19.130  22.732  1.00  0.00     0.020 C 
BRANCH   6   8
ATOM      8  C   UNL A   1      45.902  20.862  24.377  1.00  0.00     0.129 C 
BRANCH   8   9
ATOM      9  N   UNL A   1      45.399  22.191  24.046  1.00  0.00    -0.355 N 
ATOM     10  C   UNL A   1      45.414  23.348  24.763  1.00  0.00     0.224 C 
ATOM     11  H   UNL A   1      44.980  22.264  23.158  1.00  0.00     0.163 HD
ATOM     12  O   UNL A   1      44.671  24.259  24.388  1.00  0.00    -0.275 OA
BRANCH  10  13
ATOM     13  C   UNL A   1      46.396  23.560  25.896  1.00  0.00     0.135 C 
BRANCH  13  14
ATOM     14  C   UNL A   1      45.865  23.880  27.273  1.00  0.00    -0.036 A 
ATOM     15  C   UNL A   1      46.645  24.699  28.112  1.00  0.00     0.007 A 
ATOM     16  C   UNL A   1      44.616  23.446  27.733  1.00  0.00     0.046 A 
ATOM     17  C   UNL A   1      46.218  25.017  29.403  1.00  0.00     0.043 A 
ATOM     18  C   UNL A   1      44.205  23.751  29.031  1.00  0.00     0.159 A 
ATOM     19  C   UNL A   1      45.005  24.524  29.862  1.00  0.00     0.158 A 
ATOM     20  F   UNL A   1      43.023  23.294  29.468  1.00  0.00    -0.204 F 
ATOM     21  F   UNL A   1      44.604  24.823  31.106  1.00  0.00    -0.204 F 
ENDBRANCH  13  14
ENDBRANCH  10  13
ENDBRANCH   8   9
ENDBRANCH   6   8
ENDBRANCH   3   6
ENDBRANCH   1   2
BRANCH   1  22
ATOM     22  C   UNL A   1      42.470  20.803  26.474  1.00  0.00     0.042 C 
BRANCH  22  23
ATOM     23  C   UNL A   1      41.276  21.233  27.315  1.00  0.00     0.118 C 
BRANCH  23  24
ATOM     24  N   UNL A   1      40.069  21.387  26.515  1.00  0.00    -0.352 N 
ATOM     25  C   UNL A   1      39.249  22.478  26.366  1.00  0.00     0.251 C 
ATOM     26  H   UNL A   1      39.801  20.589  26.006  1.00  0.00     0.163 HD
ATOM     27  O   UNL A   1      38.141  22.334  25.860  1.00  0.00    -0.269 OA
BRANCH  25  28
ATOM     28  C   UNL A   1      39.701  23.807  26.829  1.00  0.00     0.039 A 
ATOM     29  C   UNL A   1      40.142  24.741  25.889  1.00  0.00     0.014 A 
ATOM     30  C   UNL A   1      39.709  24.122  28.190  1.00  0.00     0.014 A 
ATOM     31  C   UNL A   1      40.541  26.009  26.314  1.00  0.00     0.010 A 
ATOM     32  C   UNL A   1      40.009  25.415  28.599  1.00  0.00     0.010 A 
ATOM     33  C   UNL A   1      40.451  26.366  27.670  1.00  0.00    -0.014 A 
BRANCH  33  34
ATOM     34  C   UNL A   1      40.858  27.714  28.142  1.00  0.00     0.031 A 
ATOM     35  C   UNL A   1      42.319  28.075  28.196  1.00  0.00     0.074 A 
ATOM     36  C   UNL A   1      39.923  28.586  28.566  1.00  0.00     0.049 A 
ATOM     37  N   UNL A   1      42.887  29.165  28.642  1.00  0.00    -0.248 NA
ATOM     38  C   UNL A   1      43.269  27.057  27.720  1.00  0.00     0.031 C 
ATOM     39  C   UNL A   1      38.481  28.332  28.597  1.00  0.00     0.029 A 
ATOM     40  N   UNL A   1      40.044  29.862  29.057  1.00  0.00    -0.354 N 
ATOM     41  C   UNL A   1      44.256  28.959  28.512  1.00  0.00     0.074 A 
ATOM     42  C   UNL A   1      44.432  27.610  28.021  1.00  0.00     0.031 C 
ATOM     43  C   UNL A   1      37.850  29.428  29.047  1.00  0.00     0.029 A 
ATOM     44  C   UNL A   1      38.842  30.445  29.386  1.00  0.00     0.049 A 
ATOM     45  H   UNL A   1      40.910  30.317  29.163  1.00  0.00     0.167 HD
ATOM     46  C   UNL A   1      45.272  29.824  28.751  1.00  0.00     0.034 A 
ATOM     47  C   UNL A   1      38.571  31.657  29.910  1.00  0.00     0.034 A 
ATOM     48  C   UNL A   1      45.074  31.171  29.226  1.00  0.00     0.049 A 
ATOM     49  C   UNL A   1      39.719  32.595  30.193  1.00  0.00     0.074 A 
ATOM     50  C   UNL A   1      46.022  32.153  29.457  1.00  0.00     0.029 A 
ATOM     51  N   UNL A   1      43.842  31.728  29.549  1.00  0.00    -0.354 N 
ATOM     52  N   UNL A   1      41.007  32.402  30.019  1.00  0.00    -0.248 NA
ATOM     53  C   UNL A   1      39.375  33.917  30.730  1.00  0.00     0.031 C 
ATOM     54  C   UNL A   1      45.373  33.271  29.990  1.00  0.00     0.029 A 
ATOM     55  C   UNL A   1      44.010  33.025  30.007  1.00  0.00     0.049 A 
ATOM     56  H   UNL A   1      42.976  31.267  29.465  1.00  0.00     0.167 HD
ATOM     57  C   UNL A   1      41.622  33.595  30.390  1.00  0.00     0.074 A 
ATOM     58  C   UNL A   1      40.563  34.502  30.782  1.00  0.00     0.031 C 
ATOM     59  C   UNL A   1      42.941  33.915  30.401  1.00  0.00     0.034 A 
BRANCH  46  60
ATOM     60  C   UNL A   1      46.680  29.326  28.524  1.00  0.00     0.023 A 
ATOM     61  C   UNL A   1      47.171  29.057  27.234  1.00  0.00     0.031 A 
ATOM     62  C   UNL A   1      47.536  29.083  29.613  1.00  0.00     0.131 A 
ATOM     63  C   UNL A   1      48.441  28.484  27.070  1.00  0.00     0.055 A 
ATOM     64  C   UNL A   1      48.834  28.598  29.437  1.00  0.00     0.041 A 
ATOM     65  F   UNL A   1      47.120  29.298  30.871  1.00  0.00    -0.206 F 
ATOM     66  C   UNL A   1      49.288  28.279  28.161  1.00  0.00     0.022 A 
BRANCH  63  67
ATOM     67  S   UNL A   1      48.905  27.864  25.429  1.00  0.00     0.124 S 
ATOM     68  O   UNL A   1      48.912  26.420  25.652  1.00  0.00    -0.237 OA
ATOM     69  O   UNL A   1      47.832  28.376  24.584  1.00  0.00    -0.237 OA
ATOM     70  O   UNL A   1      50.220  28.458  25.199  1.00  0.00    -0.744 OA
ENDBRANCH  63  67
ENDBRANCH  46  60
BRANCH  47  71
ATOM     71  C   UNL A   1      37.165  32.059  30.206  1.00  0.00     0.023 A 
ATOM     72  C   UNL A   1      36.366  32.669  29.227  1.00  0.00     0.031 A 
ATOM     73  C   UNL A   1      36.615  31.880  31.488  1.00  0.00     0.131 A 
ATOM     74  C   UNL A   1      35.081  33.128  29.558  1.00  0.00     0.055 A 
ATOM     75  C   UNL A   1      35.314  32.285  31.796  1.00  0.00     0.041 A 
ATOM     76  F   UNL A   1      37.332  31.298  32.461  1.00  0.00    -0.206 F 
ATOM     77  C   UNL A   1      34.545  32.927  30.831  1.00  0.00     0.022 A 
BRANCH  74  78
ATOM     78  S   UNL A   1      34.155  34.081  28.322  1.00  0.00     0.124 S 
ATOM     79  O   UNL A   1      33.143  33.117  27.905  1.00  0.00    -0.237 OA
ATOM     80  O   UNL A   1      33.680  35.214  29.108  1.00  0.00    -0.237 OA
ATOM     81  O   UNL A   1      35.165  34.402  27.316  1.00  0.00    -0.744 OA
ENDBRANCH  74  78
ENDBRANCH  47  71
BRANCH  59  82
ATOM     82  C   UNL A   1      43.303  35.326  30.801  1.00  0.00     0.023 A 
ATOM     83  C   UNL A   1      43.409  35.712  32.147  1.00  0.00     0.031 A 
ATOM     84  C   UNL A   1      43.538  36.299  29.812  1.00  0.00     0.131 A 
ATOM     85  C   UNL A   1      43.680  37.050  32.471  1.00  0.00     0.055 A 
ATOM     86  C   UNL A   1      43.876  37.612  30.140  1.00  0.00     0.041 A 
ATOM     87  F   UNL A   1      43.448  35.987  28.510  1.00  0.00    -0.206 F 
ATOM     88  C   UNL A   1      43.932  37.999  31.475  1.00  0.00     0.022 A 
BRANCH  85  89
ATOM     89  S   UNL A   1      43.592  37.562  34.209  1.00  0.00     0.124 S 
ATOM     90  O   UNL A   1      44.821  36.992  34.754  1.00  0.00    -0.237 OA
ATOM     91  O   UNL A   1      43.557  39.017  34.103  1.00  0.00    -0.237 OA
ATOM     92  O   UNL A   1      42.357  36.945  34.687  1.00  0.00    -0.744 OA
ENDBRANCH  85  89
ENDBRANCH  59  82
ENDBRANCH  33  34
ENDBRANCH  25  28
ENDBRANCH  23  24
ENDBRANCH  22  23
ENDBRANCH   1  22
TORSDOF 17
ENDMDL
MODEL 3
REMARK VINA RESULT:     -11.3      1.404      1.657
REMARK SMILES C[C@H](CNC(=O)Cc1ccc(F)c(F)c1)C(=O)NCCCNC(=O)c1ccc(-c2c3nc(c(-c4cc(S(=O)(=O)[O-])ccc4F)c4ccc([nH]4)c(-c4cc(S(=O)(=O)[O-])ccc4F)c4nc(c(-c5cc(S(=O)(=O)[O-])ccc5F)c5ccc2[nH]5)C=C4)C=C3)cc1
REMARK SMILES IDX 19 1 18 2 16 3 17 4 2 6 1 7 3 8 4 9 5 10 6 12 7 13 8 14 9 15
REMARK SMILES IDX 15 16 10 17 13 18 11 19 14 20 12 21 20 22 21 23 22 24 23 25
REMARK SMILES IDX 24 27 25 28 26 29 87 30 27 31 86 32 28 33 29 34 30 35 80 36
REMARK SMILES IDX 31 37 85 38 79 39 81 40 32 41 84 42 78 43 77 44 33 46 65 47
REMARK SMILES IDX 45 48 64 49 46 50 49 51 63 52 82 53 47 54 48 55 62 57 83 58
REMARK SMILES IDX 50 59 34 60 35 61 43 62 36 63 42 64 44 65 41 66 37 67 38 68
REMARK SMILES IDX 39 69 40 70 66 71 67 72 75 73 68 74 74 75 76 76 73 77 69 78
REMARK SMILES IDX 70 79 71 80 72 81 51 82 52 83 60 84 53 85 59 86 61 87 58 88
REMARK SMILES IDX 54 89 55 90 56 91 57 92
REMARK H PARENT 18 5 4 11 22 26 81 45 49 56
REMARK Flexibility Score: inf
ROOT
ATOM      1  C   UNL A   1      31.762  28.025  26.254  1.00  0.00     0.117 C 
ENDROOT
BRANCH   1   2
ATOM      2  N   UNL A   1      31.088  26.790  26.611  1.00  0.00    -0.356 N 
ATOM      3  C   UNL A   1      30.441  25.878  25.844  1.00  0.00     0.224 C 
ATOM      4  O   UNL A   1      29.900  24.929  26.416  1.00  0.00    -0.275 OA
ATOM      5  H   UNL A   1      31.103  26.579  27.572  1.00  0.00     0.163 HD
BRANCH   3   6
ATOM      6  C   UNL A   1      30.387  26.001  24.334  1.00  0.00     0.094 C 
ATOM      7  C   UNL A   1      29.042  26.561  23.855  1.00  0.00     0.020 C 
BRANCH   6   8
ATOM      8  C   UNL A   1      30.848  24.714  23.633  1.00  0.00     0.129 C 
BRANCH   8   9
ATOM      9  N   UNL A   1      31.806  25.030  22.579  1.00  0.00    -0.355 N 
ATOM     10  C   UNL A   1      32.988  25.704  22.630  1.00  0.00     0.224 C 
ATOM     11  H   UNL A   1      31.557  24.702  21.684  1.00  0.00     0.163 HD
ATOM     12  O   UNL A   1      33.468  26.090  21.561  1.00  0.00    -0.275 OA
BRANCH  10  13
ATOM     13  C   UNL A   1      33.752  25.858  23.928  1.00  0.00     0.135 C 
BRANCH  13  14
ATOM     14  C   UNL A   1      34.300  24.625  24.604  1.00  0.00    -0.036 A 
ATOM     15  C   UNL A   1      35.099  23.750  23.843  1.00  0.00     0.007 A 
ATOM     16  C   UNL A   1      34.096  24.338  25.959  1.00  0.00     0.046 A 
ATOM     17  C   UNL A   1      35.622  22.583  24.404  1.00  0.00     0.043 A 
ATOM     18  C   UNL A   1      34.604  23.160  26.508  1.00  0.00     0.159 A 
ATOM     19  C   UNL A   1      35.355  22.286  25.734  1.00  0.00     0.158 A 
ATOM     20  F   UNL A   1      34.366  22.883  27.798  1.00  0.00    -0.204 F 
ATOM     21  F   UNL A   1      35.849  21.159  26.266  1.00  0.00    -0.204 F 
ENDBRANCH  13  14
ENDBRANCH  10  13
ENDBRANCH   8   9
ENDBRANCH   6   8
ENDBRANCH   3   6
ENDBRANCH   1   2
BRANCH   1  22
ATOM     22  C   UNL A   1      33.175  28.066  26.812  1.00  0.00     0.042 C 
BRANCH  22  23
ATOM     23  C   UNL A   1      34.045  29.133  26.163  1.00  0.00     0.118 C 
BRANCH  23  24
ATOM     24  N   UNL A   1      33.797  30.456  26.718  1.00  0.00    -0.352 N 
ATOM     25  C   UNL A   1      34.424  31.104  27.754  1.00  0.00     0.251 C 
ATOM     26  H   UNL A   1      33.071  30.960  26.286  1.00  0.00     0.163 HD
ATOM     27  O   UNL A   1      33.904  32.101  28.243  1.00  0.00    -0.269 OA
BRANCH  25  28
ATOM     28  C   UNL A   1      35.706  30.587  28.277  1.00  0.00     0.039 A 
ATOM     29  C   UNL A   1      35.698  29.754  29.397  1.00  0.00     0.014 A 
ATOM     30  C   UNL A   1      36.916  30.942  27.674  1.00  0.00     0.014 A 
ATOM     31  C   UNL A   1      36.901  29.236  29.878  1.00  0.00     0.010 A 
ATOM     32  C   UNL A   1      38.099  30.346  28.091  1.00  0.00     0.010 A 
ATOM     33  C   UNL A   1      38.109  29.505  29.211  1.00  0.00    -0.014 A 
BRANCH  33  34
ATOM     34  C   UNL A   1      39.399  28.954  29.699  1.00  0.00     0.031 A 
ATOM     35  C   UNL A   1      40.111  29.624  30.844  1.00  0.00     0.074 A 
ATOM     36  C   UNL A   1      39.950  27.890  29.082  1.00  0.00     0.049 A 
ATOM     37  N   UNL A   1      41.275  29.347  31.372  1.00  0.00    -0.248 NA
ATOM     38  C   UNL A   1      39.439  30.783  31.451  1.00  0.00     0.031 C 
ATOM     39  C   UNL A   1      39.371  27.183  27.937  1.00  0.00     0.029 A 
ATOM     40  N   UNL A   1      41.121  27.218  29.327  1.00  0.00    -0.354 N 
ATOM     41  C   UNL A   1      41.480  30.304  32.361  1.00  0.00     0.074 A 
ATOM     42  C   UNL A   1      40.356  31.212  32.304  1.00  0.00     0.031 C 
ATOM     43  C   UNL A   1      40.170  26.158  27.603  1.00  0.00     0.029 A 
ATOM     44  C   UNL A   1      41.343  26.163  28.472  1.00  0.00     0.049 A 
ATOM     45  H   UNL A   1      41.743  27.468  30.046  1.00  0.00     0.167 HD
ATOM     46  C   UNL A   1      42.495  30.399  33.254  1.00  0.00     0.034 A 
ATOM     47  C   UNL A   1      42.378  25.304  28.393  1.00  0.00     0.034 A 
ATOM     48  C   UNL A   1      43.599  29.472  33.304  1.00  0.00     0.049 A 
ATOM     49  C   UNL A   1      43.511  25.443  29.381  1.00  0.00     0.074 A 
ATOM     50  C   UNL A   1      44.658  29.440  34.195  1.00  0.00     0.029 A 
ATOM     51  N   UNL A   1      43.791  28.415  32.422  1.00  0.00    -0.354 N 
ATOM     52  N   UNL A   1      43.666  26.325  30.343  1.00  0.00    -0.248 NA
ATOM     53  C   UNL A   1      44.600  24.464  29.280  1.00  0.00     0.031 C 
ATOM     54  C   UNL A   1      45.526  28.415  33.806  1.00  0.00     0.029 A 
ATOM     55  C   UNL A   1      44.966  27.747  32.729  1.00  0.00     0.049 A 
ATOM     56  H   UNL A   1      43.182  28.177  31.687  1.00  0.00     0.167 HD
ATOM     57  C   UNL A   1      44.852  25.981  30.985  1.00  0.00     0.074 A 
ATOM     58  C   UNL A   1      45.362  24.805  30.309  1.00  0.00     0.031 C 
ATOM     59  C   UNL A   1      45.464  26.578  32.039  1.00  0.00     0.034 A 
BRANCH  46  60
ATOM     60  C   UNL A   1      42.463  31.556  34.225  1.00  0.00     0.023 A 
ATOM     61  C   UNL A   1      41.680  31.520  35.393  1.00  0.00     0.031 A 
ATOM     62  C   UNL A   1      43.198  32.726  33.966  1.00  0.00     0.131 A 
ATOM     63  C   UNL A   1      41.583  32.656  36.210  1.00  0.00     0.055 A 
ATOM     64  C   UNL A   1      43.168  33.822  34.832  1.00  0.00     0.041 A 
ATOM     65  F   UNL A   1      43.947  32.832  32.857  1.00  0.00    -0.206 F 
ATOM     66  C   UNL A   1      42.344  33.798  35.953  1.00  0.00     0.022 A 
BRANCH  63  67
ATOM     67  S   UNL A   1      40.327  32.675  37.519  1.00  0.00     0.124 S 
ATOM     68  O   UNL A   1      41.110  32.269  38.683  1.00  0.00    -0.237 OA
ATOM     69  O   UNL A   1      39.875  34.061  37.502  1.00  0.00    -0.237 OA
ATOM     70  O   UNL A   1      39.345  31.691  37.065  1.00  0.00    -0.744 OA
ENDBRANCH  63  67
ENDBRANCH  46  60
BRANCH  47  71
ATOM     71  C   UNL A   1      42.403  24.239  27.348  1.00  0.00     0.023 A 
ATOM     72  C   UNL A   1      41.746  23.016  27.546  1.00  0.00     0.031 A 
ATOM     73  C   UNL A   1      43.125  24.414  26.153  1.00  0.00     0.131 A 
ATOM     74  C   UNL A   1      41.866  21.993  26.591  1.00  0.00     0.055 A 
ATOM     75  C   UNL A   1      43.192  23.415  25.179  1.00  0.00     0.041 A 
ATOM     76  F   UNL A   1      43.768  25.566  25.909  1.00  0.00    -0.206 F 
ATOM     77  C   UNL A   1      42.573  22.190  25.403  1.00  0.00     0.022 A 
BRANCH  74  78
ATOM     78  S   UNL A   1      41.163  20.364  26.971  1.00  0.00     0.124 S 
ATOM     79  O   UNL A   1      40.814  20.515  28.378  1.00  0.00    -0.237 OA
ATOM     80  O   UNL A   1      40.047  20.291  26.035  1.00  0.00    -0.237 OA
ATOM     81  O   UNL A   1      42.267  19.447  26.696  1.00  0.00    -0.744 OA
ENDBRANCH  74  78
ENDBRANCH  47  71
BRANCH  59  82
ATOM     82  C   UNL A   1      46.725  25.930  32.560  1.00  0.00     0.023 A 
ATOM     83  C   UNL A   1      46.694  24.935  33.551  1.00  0.00     0.031 A 
ATOM     84  C   UNL A   1      47.978  26.325  32.058  1.00  0.00     0.131 A 
ATOM     85  C   UNL A   1      47.895  24.412  34.054  1.00  0.00     0.055 A 
ATOM     86  C   UNL A   1      49.166  25.751  32.512  1.00  0.00     0.041 A 
ATOM     87  F   UNL A   1      48.068  27.274  31.112  1.00  0.00    -0.206 F 
ATOM     88  C   UNL A   1      49.130  24.800  33.527  1.00  0.00     0.022 A 
BRANCH  85  89
ATOM     89  S   UNL A   1      47.829  23.294  35.481  1.00  0.00     0.124 S 
ATOM     90  O   UNL A   1      46.948  24.019  36.392  1.00  0.00    -0.237 OA
ATOM     91  O   UNL A   1      47.277  22.076  34.896  1.00  0.00    -0.237 OA
ATOM     92  O   UNL A   1      49.223  23.201  35.909  1.00  0.00    -0.744 OA
ENDBRANCH  85  89
ENDBRANCH  59  82
ENDBRANCH  33  34
ENDBRANCH  25  28
ENDBRANCH  23  24
ENDBRANCH  22  23
ENDBRANCH   1  22
TORSDOF 17
ENDMDL
