MODEL 1
REMARK VINA RESULT:     -12.8      0.000      0.000
REMARK SMILES O=C(NCCCNC(=O)c1ccc2c(=O)[nH]c(N3CC[NH2+]CC3)nc2c1)c1ccc(-c2c3nc(c(-c4cc(S(=O)(=O)[O-])ccc4F)c4ccc([nH]4)c(-c4cc(S(=O)(=O)[O-])ccc4F)c4nc(c(-c5cc(S(=O)(=O)[O-])ccc5F)c5ccc2[nH]5)C=C4)C=C3)cc1
REMARK SMILES IDX 4 1 3 2 1 3 2 4 27 6 28 7 89 8 29 9 88 10 30 11 31 12 32 13
REMARK SMILES IDX 82 14 33 15 87 16 81 17 83 18 34 19 86 20 80 21 79 22 35 24
REMARK SMILES IDX 67 25 47 26 66 27 48 28 51 29 65 30 84 31 49 32 50 33 64 35
REMARK SMILES IDX 85 36 52 37 36 38 37 39 45 40 38 41 44 42 46 43 43 44 39 45
REMARK SMILES IDX 40 46 41 47 42 48 68 49 69 50 77 51 70 52 76 53 78 54 75 55
REMARK SMILES IDX 71 56 72 57 73 58 74 59 53 60 54 61 62 62 55 63 61 64 63 65
REMARK SMILES IDX 60 66 56 67 57 68 58 69 59 70 5 71 6 72 7 73 8 74 9 76 10 77
REMARK SMILES IDX 11 78 26 79 12 80 25 81 13 82 24 83 14 84 17 85 15 86 16 87
REMARK SMILES IDX 18 89 19 90 23 91 20 92 22 93 21 94
REMARK H PARENT 3 5 83 23 51 34 7 75 16 88 21 95 21 96
REMARK Flexibility Score: inf
ROOT
ATOM      1  C   UNL A   1      34.034  29.024  26.180  1.00  0.00     0.118 C 
ENDROOT
BRANCH   1   2
ATOM      2  N   UNL A   1      33.939  30.392  26.673  1.00  0.00    -0.352 N 
ATOM      3  O   UNL A   1      34.271  32.135  28.046  1.00  0.00    -0.269 OA
ATOM      4  C   UNL A   1      34.664  31.044  27.639  1.00  0.00     0.251 C 
ATOM      5  H   UNL A   1      33.242  30.937  26.243  1.00  0.00     0.163 HD
BRANCH   4   6
ATOM      6  C   UNL A   1      35.896  30.446  28.200  1.00  0.00     0.039 A 
ATOM      7  C   UNL A   1      35.870  29.712  29.388  1.00  0.00     0.014 A 
ATOM      8  C   UNL A   1      37.092  30.574  27.486  1.00  0.00     0.014 A 
ATOM      9  C   UNL A   1      37.055  29.223  29.932  1.00  0.00     0.010 A 
ATOM     10  C   UNL A   1      38.266  30.012  27.993  1.00  0.00     0.010 A 
ATOM     11  C   UNL A   1      38.263  29.355  29.235  1.00  0.00    -0.014 A 
BRANCH  11  12
ATOM     12  C   UNL A   1      39.514  28.772  29.782  1.00  0.00     0.031 A 
ATOM     13  C   UNL A   1      40.216  29.425  30.939  1.00  0.00     0.074 A 
ATOM     14  C   UNL A   1      40.034  27.670  29.209  1.00  0.00     0.049 A 
ATOM     15  N   UNL A   1      41.370  29.133  31.481  1.00  0.00    -0.248 NA
ATOM     16  C   UNL A   1      39.532  30.570  31.556  1.00  0.00     0.031 C 
ATOM     17  C   UNL A   1      39.438  26.946  28.085  1.00  0.00     0.029 A 
ATOM     18  N   UNL A   1      41.186  26.976  29.481  1.00  0.00    -0.354 N 
ATOM     19  C   UNL A   1      41.565  30.069  32.490  1.00  0.00     0.074 A 
ATOM     20  C   UNL A   1      40.423  30.961  32.455  1.00  0.00     0.031 C 
ATOM     21  C   UNL A   1      40.226  25.911  27.764  1.00  0.00     0.029 A 
ATOM     22  C   UNL A   1      41.415  25.938  28.609  1.00  0.00     0.049 A 
ATOM     23  H   UNL A   1      41.790  27.199  30.226  1.00  0.00     0.167 HD
ATOM     24  C   UNL A   1      42.598  30.168  33.365  1.00  0.00     0.034 A 
ATOM     25  C   UNL A   1      42.481  25.125  28.471  1.00  0.00     0.034 A 
ATOM     26  C   UNL A   1      43.730  29.270  33.372  1.00  0.00     0.049 A 
ATOM     27  C   UNL A   1      43.648  25.289  29.404  1.00  0.00     0.074 A 
ATOM     28  C   UNL A   1      44.814  29.254  34.232  1.00  0.00     0.029 A 
ATOM     29  N   UNL A   1      43.934  28.239  32.463  1.00  0.00    -0.354 N 
ATOM     30  N   UNL A   1      43.816  26.169  30.365  1.00  0.00    -0.248 NA
ATOM     31  C   UNL A   1      44.766  24.352  29.242  1.00  0.00     0.031 C 
ATOM     32  C   UNL A   1      45.708  28.268  33.797  1.00  0.00     0.029 A 
ATOM     33  C   UNL A   1      45.142  27.607  32.718  1.00  0.00     0.049 A 
ATOM     34  H   UNL A   1      43.312  27.992  31.741  1.00  0.00     0.167 HD
ATOM     35  C   UNL A   1      45.047  25.871  30.941  1.00  0.00     0.074 A 
ATOM     36  C   UNL A   1      45.579  24.734  30.218  1.00  0.00     0.031 C 
ATOM     37  C   UNL A   1      45.669  26.477  31.984  1.00  0.00     0.034 A 
BRANCH  24  38
ATOM     38  C   UNL A   1      42.570  31.324  34.340  1.00  0.00     0.023 A 
ATOM     39  C   UNL A   1      41.693  31.347  35.438  1.00  0.00     0.031 A 
ATOM     40  C   UNL A   1      43.392  32.448  34.136  1.00  0.00     0.131 A 
ATOM     41  C   UNL A   1      41.584  32.504  36.226  1.00  0.00     0.055 A 
ATOM     42  C   UNL A   1      43.347  33.559  34.981  1.00  0.00     0.041 A 
ATOM     43  F   UNL A   1      44.238  32.497  33.095  1.00  0.00    -0.206 F 
ATOM     44  C   UNL A   1      42.423  33.601  36.021  1.00  0.00     0.022 A 
BRANCH  41  45
ATOM     45  S   UNL A   1      40.202  32.625  37.398  1.00  0.00     0.124 S 
ATOM     46  O   UNL A   1      40.877  32.410  38.676  1.00  0.00    -0.237 OA
ATOM     47  O   UNL A   1      39.702  33.973  37.158  1.00  0.00    -0.237 OA
ATOM     48  O   UNL A   1      39.310  31.543  36.986  1.00  0.00    -0.744 OA
ENDBRANCH  41  45
ENDBRANCH  24  38
BRANCH  25  49
ATOM     49  C   UNL A   1      42.499  24.124  27.369  1.00  0.00     0.023 A 
ATOM     50  C   UNL A   1      41.718  22.961  27.426  1.00  0.00     0.031 A 
ATOM     51  C   UNL A   1      43.287  24.339  26.222  1.00  0.00     0.131 A 
ATOM     52  C   UNL A   1      41.754  22.047  26.362  1.00  0.00     0.055 A 
ATOM     53  C   UNL A   1      43.284  23.451  25.148  1.00  0.00     0.041 A 
ATOM     54  F   UNL A   1      44.043  25.444  26.117  1.00  0.00    -0.206 F 
ATOM     55  C   UNL A   1      42.519  22.291  25.217  1.00  0.00     0.022 A 
BRANCH  52  56
ATOM     56  S   UNL A   1      40.813  20.505  26.509  1.00  0.00     0.124 S 
ATOM     57  O   UNL A   1      40.930  20.220  27.935  1.00  0.00    -0.237 OA
ATOM     58  O   UNL A   1      39.491  20.908  26.041  1.00  0.00    -0.237 OA
ATOM     59  O   UNL A   1      41.528  19.583  25.628  1.00  0.00    -0.744 OA
ENDBRANCH  52  56
ENDBRANCH  25  49
BRANCH  37  60
ATOM     60  C   UNL A   1      46.973  25.881  32.452  1.00  0.00     0.023 A 
ATOM     61  C   UNL A   1      48.202  26.204  31.851  1.00  0.00     0.031 A 
ATOM     62  C   UNL A   1      46.980  24.990  33.541  1.00  0.00     0.131 A 
ATOM     63  C   UNL A   1      49.385  25.615  32.327  1.00  0.00     0.055 A 
ATOM     64  C   UNL A   1      48.164  24.449  34.041  1.00  0.00     0.041 A 
ATOM     65  F   UNL A   1      45.833  24.646  34.148  1.00  0.00    -0.206 F 
ATOM     66  C   UNL A   1      49.376  24.756  33.429  1.00  0.00     0.022 A 
BRANCH  63  67
ATOM     67  S   UNL A   1      50.942  25.946  31.454  1.00  0.00     0.124 S 
ATOM     68  O   UNL A   1      51.875  25.077  32.162  1.00  0.00    -0.237 OA
ATOM     69  O   UNL A   1      50.621  25.558  30.084  1.00  0.00    -0.237 OA
ATOM     70  O   UNL A   1      51.152  27.378  31.658  1.00  0.00    -0.744 OA
ENDBRANCH  63  67
ENDBRANCH  37  60
ENDBRANCH  11  12
ENDBRANCH   4   6
ENDBRANCH   1   2
BRANCH   1  71
ATOM     71  C   UNL A   1      33.450  28.866  24.782  1.00  0.00     0.042 C 
BRANCH  71  72
ATOM     72  C   UNL A   1      31.966  29.190  24.688  1.00  0.00     0.118 C 
BRANCH  72  73
ATOM     73  N   UNL A   1      31.391  28.813  23.404  1.00  0.00    -0.352 N 
ATOM     74  C   UNL A   1      30.955  27.587  22.968  1.00  0.00     0.251 C 
ATOM     75  H   UNL A   1      31.303  29.546  22.752  1.00  0.00     0.163 HD
ATOM     76  O   UNL A   1      30.647  27.415  21.793  1.00  0.00    -0.269 OA
BRANCH  74  77
ATOM     77  C   UNL A   1      30.847  26.470  23.923  1.00  0.00     0.041 A 
ATOM     78  C   UNL A   1      29.756  26.399  24.800  1.00  0.00     0.015 A 
ATOM     79  C   UNL A   1      31.830  25.472  23.917  1.00  0.00     0.043 A 
ATOM     80  C   UNL A   1      29.691  25.371  25.732  1.00  0.00     0.017 A 
ATOM     81  C   UNL A   1      31.762  24.424  24.836  1.00  0.00     0.081 A 
ATOM     82  C   UNL A   1      30.695  24.399  25.741  1.00  0.00     0.066 A 
ATOM     83  N   UNL A   1      32.754  23.427  24.815  1.00  0.00    -0.214 NA
ATOM     84  C   UNL A   1      30.652  23.294  26.704  1.00  0.00     0.260 A 
ATOM     85  C   UNL A   1      32.652  22.432  25.641  1.00  0.00     0.206 A 
ATOM     86  O   UNL A   1      29.788  23.209  27.567  1.00  0.00    -0.269 OA
ATOM     87  N   UNL A   1      31.642  22.363  26.562  1.00  0.00    -0.292 N 
ATOM     88  H   UNL A   1      31.628  21.585  27.165  1.00  0.00     0.173 HD
BRANCH  85  89
ATOM     89  N   UNL A   1      33.546  21.399  25.679  1.00  0.00    -0.331 N 
ATOM     90  C   UNL A   1      33.114  20.004  25.568  1.00  0.00     0.181 C 
ATOM     91  C   UNL A   1      34.937  21.569  26.099  1.00  0.00     0.181 C 
ATOM     92  C   UNL A   1      34.088  19.248  24.631  1.00  0.00     0.282 C 
ATOM     93  C   UNL A   1      35.870  20.787  25.158  1.00  0.00     0.282 C 
ATOM     94  N   UNL A   1      35.512  19.359  25.034  1.00  0.00    -0.343 N 
ATOM     95  H   UNL A   1      36.102  18.919  24.327  1.00  0.00     0.346 HD
ATOM     96  H   UNL A   1      35.653  18.891  25.929  1.00  0.00     0.346 HD
ENDBRANCH  85  89
ENDBRANCH  74  77
ENDBRANCH  72  73
ENDBRANCH  71  72
ENDBRANCH   1  71
TORSDOF 14
ENDMDL
MODEL 2
REMARK VINA RESULT:     -12.8      2.965      8.192
REMARK SMILES O=C(NCCCNC(=O)c1ccc2c(=O)[nH]c(N3CC[NH2+]CC3)nc2c1)c1ccc(-c2c3nc(c(-c4cc(S(=O)(=O)[O-])ccc4F)c4ccc([nH]4)c(-c4cc(S(=O)(=O)[O-])ccc4F)c4nc(c(-c5cc(S(=O)(=O)[O-])ccc5F)c5ccc2[nH]5)C=C4)C=C3)cc1
REMARK SMILES IDX 4 1 3 2 1 3 2 4 27 6 28 7 89 8 29 9 88 10 30 11 31 12 32 13
REMARK SMILES IDX 82 14 33 15 87 16 81 17 83 18 34 19 86 20 80 21 79 22 35 24
REMARK SMILES IDX 67 25 47 26 66 27 48 28 51 29 65 30 84 31 49 32 50 33 64 35
REMARK SMILES IDX 85 36 52 37 36 38 37 39 45 40 38 41 44 42 46 43 43 44 39 45
REMARK SMILES IDX 40 46 41 47 42 48 68 49 69 50 77 51 70 52 76 53 78 54 75 55
REMARK SMILES IDX 71 56 72 57 73 58 74 59 53 60 54 61 62 62 55 63 61 64 63 65
REMARK SMILES IDX 60 66 56 67 57 68 58 69 59 70 5 71 6 72 7 73 8 74 9 76 10 77
REMARK SMILES IDX 11 78 26 79 12 80 25 81 13 82 24 83 14 84 17 85 15 86 16 87
REMARK SMILES IDX 18 89 19 90 23 91 20 92 22 93 21 94
REMARK H PARENT 3 5 83 23 51 34 7 75 16 88 21 95 21 96
REMARK Flexibility Score: inf
ROOT
ATOM      1  C   UNL A   1      33.000  29.093  25.368  1.00  0.00     0.118 C 
ENDROOT
BRANCH   1   2
ATOM      2  N   UNL A   1      32.533  30.408  25.787  1.00  0.00    -0.352 N 
ATOM      3  O   UNL A   1      32.253  32.185  27.127  1.00  0.00    -0.269 OA
ATOM      4  C   UNL A   1      32.934  31.206  26.829  1.00  0.00     0.251 C 
ATOM      5  H   UNL A   1      31.813  30.784  25.233  1.00  0.00     0.163 HD
BRANCH   4   6
ATOM      6  C   UNL A   1      34.160  30.896  27.597  1.00  0.00     0.039 A 
ATOM      7  C   UNL A   1      34.406  29.609  28.081  1.00  0.00     0.014 A 
ATOM      8  C   UNL A   1      35.111  31.904  27.784  1.00  0.00     0.014 A 
ATOM      9  C   UNL A   1      35.531  29.362  28.864  1.00  0.00     0.010 A 
ATOM     10  C   UNL A   1      36.279  31.633  28.500  1.00  0.00     0.010 A 
ATOM     11  C   UNL A   1      36.487  30.366  29.070  1.00  0.00    -0.014 A 
BRANCH  11  12
ATOM     12  C   UNL A   1      37.721  30.082  29.846  1.00  0.00     0.031 A 
ATOM     13  C   UNL A   1      38.777  29.170  29.289  1.00  0.00     0.074 A 
ATOM     14  C   UNL A   1      37.870  30.621  31.070  1.00  0.00     0.049 A 
ATOM     15  N   UNL A   1      39.863  28.715  29.857  1.00  0.00    -0.248 NA
ATOM     16  C   UNL A   1      38.573  28.698  27.912  1.00  0.00     0.031 C 
ATOM     17  C   UNL A   1      36.913  31.526  31.712  1.00  0.00     0.029 A 
ATOM     18  N   UNL A   1      38.868  30.478  31.999  1.00  0.00    -0.354 N 
ATOM     19  C   UNL A   1      40.465  27.883  28.919  1.00  0.00     0.074 A 
ATOM     20  C   UNL A   1      39.596  27.871  27.758  1.00  0.00     0.031 C 
ATOM     21  C   UNL A   1      37.372  31.857  32.927  1.00  0.00     0.029 A 
ATOM     22  C   UNL A   1      38.615  31.136  33.179  1.00  0.00     0.049 A 
ATOM     23  H   UNL A   1      39.687  29.955  31.837  1.00  0.00     0.167 HD
ATOM     24  C   UNL A   1      41.634  27.201  29.018  1.00  0.00     0.034 A 
ATOM     25  C   UNL A   1      39.279  31.126  34.351  1.00  0.00     0.034 A 
ATOM     26  C   UNL A   1      42.476  27.223  30.192  1.00  0.00     0.049 A 
ATOM     27  C   UNL A   1      40.537  30.312  34.469  1.00  0.00     0.074 A 
ATOM     28  C   UNL A   1      43.696  26.600  30.392  1.00  0.00     0.029 A 
ATOM     29  N   UNL A   1      42.177  27.889  31.374  1.00  0.00    -0.354 N 
ATOM     30  N   UNL A   1      41.105  29.540  33.570  1.00  0.00    -0.248 NA
ATOM     31  C   UNL A   1      41.248  30.368  35.752  1.00  0.00     0.031 C 
ATOM     32  C   UNL A   1      44.095  26.824  31.714  1.00  0.00     0.029 A 
ATOM     33  C   UNL A   1      43.169  27.661  32.317  1.00  0.00     0.049 A 
ATOM     34  H   UNL A   1      41.377  28.443  31.523  1.00  0.00     0.167 HD
ATOM     35  C   UNL A   1      42.257  29.043  34.171  1.00  0.00     0.074 A 
ATOM     36  C   UNL A   1      42.301  29.599  35.509  1.00  0.00     0.031 C 
ATOM     37  C   UNL A   1      43.199  28.214  33.653  1.00  0.00     0.034 A 
BRANCH  24  38
ATOM     38  C   UNL A   1      42.028  26.330  27.846  1.00  0.00     0.023 A 
ATOM     39  C   UNL A   1      41.546  25.017  27.702  1.00  0.00     0.031 A 
ATOM     40  C   UNL A   1      42.945  26.798  26.887  1.00  0.00     0.131 A 
ATOM     41  C   UNL A   1      42.057  24.188  26.691  1.00  0.00     0.055 A 
ATOM     42  C   UNL A   1      43.379  25.998  25.827  1.00  0.00     0.041 A 
ATOM     43  F   UNL A   1      43.458  28.036  26.978  1.00  0.00    -0.206 F 
ATOM     44  C   UNL A   1      42.951  24.678  25.737  1.00  0.00     0.022 A 
BRANCH  41  45
ATOM     45  S   UNL A   1      41.682  22.413  26.758  1.00  0.00     0.124 S 
ATOM     46  O   UNL A   1      40.231  22.422  26.939  1.00  0.00    -0.237 OA
ATOM     47  O   UNL A   1      42.160  21.941  25.464  1.00  0.00    -0.237 OA
ATOM     48  O   UNL A   1      42.442  21.946  27.915  1.00  0.00    -0.744 OA
ENDBRANCH  41  45
ENDBRANCH  24  38
BRANCH  25  49
ATOM     49  C   UNL A   1      38.725  31.876  35.512  1.00  0.00     0.023 A 
ATOM     50  C   UNL A   1      38.149  31.211  36.603  1.00  0.00     0.031 A 
ATOM     51  C   UNL A   1      38.793  33.281  35.552  1.00  0.00     0.131 A 
ATOM     52  C   UNL A   1      37.647  31.953  37.684  1.00  0.00     0.055 A 
ATOM     53  C   UNL A   1      38.336  34.012  36.648  1.00  0.00     0.041 A 
ATOM     54  F   UNL A   1      39.346  33.962  34.535  1.00  0.00    -0.206 F 
ATOM     55  C   UNL A   1      37.751  33.347  37.721  1.00  0.00     0.022 A 
BRANCH  52  56
ATOM     56  S   UNL A   1      36.816  31.072  39.033  1.00  0.00     0.124 S 
ATOM     57  O   UNL A   1      37.783  31.207  40.117  1.00  0.00    -0.237 OA
ATOM     58  O   UNL A   1      35.579  31.832  39.178  1.00  0.00    -0.237 OA
ATOM     59  O   UNL A   1      36.654  29.718  38.506  1.00  0.00    -0.744 OA
ENDBRANCH  52  56
ENDBRANCH  25  49
BRANCH  37  60
ATOM     60  C   UNL A   1      44.397  27.905  34.516  1.00  0.00     0.023 A 
ATOM     61  C   UNL A   1      44.437  26.792  35.372  1.00  0.00     0.031 A 
ATOM     62  C   UNL A   1      45.532  28.735  34.453  1.00  0.00     0.131 A 
ATOM     63  C   UNL A   1      45.579  26.555  36.154  1.00  0.00     0.055 A 
ATOM     64  C   UNL A   1      46.682  28.467  35.195  1.00  0.00     0.041 A 
ATOM     65  F   UNL A   1      45.544  29.815  33.654  1.00  0.00    -0.206 F 
ATOM     66  C   UNL A   1      46.707  27.374  36.057  1.00  0.00     0.022 A 
BRANCH  63  67
ATOM     67  S   UNL A   1      45.557  25.188  37.347  1.00  0.00     0.124 S 
ATOM     68  O   UNL A   1      46.112  25.819  38.540  1.00  0.00    -0.237 OA
ATOM     69  O   UNL A   1      44.140  24.845  37.406  1.00  0.00    -0.237 OA
ATOM     70  O   UNL A   1      46.411  24.178  36.726  1.00  0.00    -0.744 OA
ENDBRANCH  63  67
ENDBRANCH  37  60
ENDBRANCH  11  12
ENDBRANCH   4   6
ENDBRANCH   1   2
BRANCH   1  71
ATOM     71  C   UNL A   1      31.901  28.040  25.416  1.00  0.00     0.042 C 
BRANCH  71  72
ATOM     72  C   UNL A   1      32.347  26.655  24.968  1.00  0.00     0.118 C 
BRANCH  72  73
ATOM     73  N   UNL A   1      32.609  26.588  23.536  1.00  0.00    -0.352 N 
ATOM     74  C   UNL A   1      33.423  25.735  22.836  1.00  0.00     0.251 C 
ATOM     75  H   UNL A   1      32.130  27.255  22.990  1.00  0.00     0.163 HD
ATOM     76  O   UNL A   1      33.652  25.924  21.646  1.00  0.00    -0.269 OA
BRANCH  74  77
ATOM     77  C   UNL A   1      34.023  24.574  23.520  1.00  0.00     0.041 A 
ATOM     78  C   UNL A   1      35.170  24.739  24.307  1.00  0.00     0.015 A 
ATOM     79  C   UNL A   1      33.411  23.321  23.394  1.00  0.00     0.043 A 
ATOM     80  C   UNL A   1      35.757  23.631  24.904  1.00  0.00     0.017 A 
ATOM     81  C   UNL A   1      33.982  22.204  24.008  1.00  0.00     0.081 A 
ATOM     82  C   UNL A   1      35.159  22.378  24.745  1.00  0.00     0.066 A 
ATOM     83  N   UNL A   1      33.354  20.953  23.878  1.00  0.00    -0.214 NA
ATOM     84  C   UNL A   1      35.745  21.188  25.371  1.00  0.00     0.260 A 
ATOM     85  C   UNL A   1      33.867  19.933  24.494  1.00  0.00     0.206 A 
ATOM     86  O   UNL A   1      36.798  21.227  25.994  1.00  0.00    -0.269 OA
ATOM     87  N   UNL A   1      35.026  20.037  25.213  1.00  0.00    -0.292 N 
ATOM     88  H   UNL A   1      35.367  19.222  25.649  1.00  0.00     0.173 HD
BRANCH  85  89
ATOM     89  N   UNL A   1      33.317  18.683  24.455  1.00  0.00    -0.331 N 
ATOM     90  C   UNL A   1      33.242  17.913  23.211  1.00  0.00     0.181 C 
ATOM     91  C   UNL A   1      32.528  18.130  25.556  1.00  0.00     0.181 C 
ATOM     92  C   UNL A   1      33.628  16.443  23.505  1.00  0.00     0.282 C 
ATOM     93  C   UNL A   1      32.925  16.663  25.802  1.00  0.00     0.282 C 
ATOM     94  N   UNL A   1      32.832  15.821  24.592  1.00  0.00    -0.343 N 
ATOM     95  H   UNL A   1      33.198  14.890  24.794  1.00  0.00     0.346 HD
ATOM     96  H   UNL A   1      31.856  15.744  24.302  1.00  0.00     0.346 HD
ENDBRANCH  85  89
ENDBRANCH  74  77
ENDBRANCH  72  73
ENDBRANCH  71  72
ENDBRANCH   1  71
TORSDOF 14
ENDMDL
MODEL 3
REMARK VINA RESULT:     -12.8      3.530      8.643
REMARK SMILES O=C(NCCCNC(=O)c1ccc2c(=O)[nH]c(N3CC[NH2+]CC3)nc2c1)c1ccc(-c2c3nc(c(-c4cc(S(=O)(=O)[O-])ccc4F)c4ccc([nH]4)c(-c4cc(S(=O)(=O)[O-])ccc4F)c4nc(c(-c5cc(S(=O)(=O)[O-])ccc5F)c5ccc2[nH]5)C=C4)C=C3)cc1
REMARK SMILES IDX 4 1 3 2 1 3 2 4 27 6 28 7 89 8 29 9 88 10 30 11 31 12 32 13
REMARK SMILES IDX 82 14 33 15 87 16 81 17 83 18 34 19 86 20 80 21 79 22 35 24
REMARK SMILES IDX 67 25 47 26 66 27 48 28 51 29 65 30 84 31 49 32 50 33 64 35
REMARK SMILES IDX 85 36 52 37 36 38 37 39 45 40 38 41 44 42 46 43 43 44 39 45
REMARK SMILES IDX 40 46 41 47 42 48 68 49 69 50 77 51 70 52 76 53 78 54 75 55
REMARK SMILES IDX 71 56 72 57 73 58 74 59 53 60 54 61 62 62 55 63 61 64 63 65
REMARK SMILES IDX 60 66 56 67 57 68 58 69 59 70 5 71 6 72 7 73 8 74 9 76 10 77
REMARK SMILES IDX 11 78 26 79 12 80 25 81 13 82 24 83 14 84 17 85 15 86 16 87
REMARK SMILES IDX 18 89 19 90 23 91 20 92 22 93 21 94
REMARK H PARENT 3 5 83 23 51 34 7 75 16 88 21 95 21 96
REMARK Flexibility Score: inf
ROOT
ATOM      1  C   UNL A   1      32.810  32.266  27.113  1.00  0.00     0.118 C 
ENDROOT
BRANCH   1   2
ATOM      2  N   UNL A   1      32.623  33.649  27.534  1.00  0.00    -0.352 N 
ATOM      3  O   UNL A   1      32.772  35.461  28.848  1.00  0.00    -0.269 OA
ATOM      4  C   UNL A   1      33.238  34.370  28.526  1.00  0.00     0.251 C 
ATOM      5  H   UNL A   1      31.945  34.146  27.023  1.00  0.00     0.163 HD
BRANCH   4   6
ATOM      6  C   UNL A   1      34.439  33.847  29.214  1.00  0.00     0.039 A 
ATOM      7  C   UNL A   1      35.720  34.282  28.867  1.00  0.00     0.014 A 
ATOM      8  C   UNL A   1      34.272  32.946  30.271  1.00  0.00     0.014 A 
ATOM      9  C   UNL A   1      36.838  33.720  29.479  1.00  0.00     0.010 A 
ATOM     10  C   UNL A   1      35.391  32.444  30.939  1.00  0.00     0.010 A 
ATOM     11  C   UNL A   1      36.685  32.806  30.531  1.00  0.00    -0.014 A 
BRANCH  11  12
ATOM     12  C   UNL A   1      37.876  32.260  31.230  1.00  0.00     0.031 A 
ATOM     13  C   UNL A   1      38.673  31.143  30.618  1.00  0.00     0.074 A 
ATOM     14  C   UNL A   1      38.217  32.752  32.436  1.00  0.00     0.049 A 
ATOM     15  N   UNL A   1      39.670  30.462  31.122  1.00  0.00    -0.248 NA
ATOM     16  C   UNL A   1      38.284  30.729  29.263  1.00  0.00     0.031 C 
ATOM     17  C   UNL A   1      37.521  33.839  33.127  1.00  0.00     0.029 A 
ATOM     18  N   UNL A   1      39.218  32.393  33.301  1.00  0.00    -0.354 N 
ATOM     19  C   UNL A   1      40.016  29.522  30.157  1.00  0.00     0.074 A 
ATOM     20  C   UNL A   1      39.092  29.701  29.054  1.00  0.00     0.031 C 
ATOM     21  C   UNL A   1      38.117  34.061  34.307  1.00  0.00     0.029 A 
ATOM     22  C   UNL A   1      39.189  33.088  34.488  1.00  0.00     0.049 A 
ATOM     23  H   UNL A   1      39.893  31.706  33.094  1.00  0.00     0.167 HD
ATOM     24  C   UNL A   1      41.015  28.603  30.190  1.00  0.00     0.034 A 
ATOM     25  C   UNL A   1      39.910  32.932  35.615  1.00  0.00     0.034 A 
ATOM     26  C   UNL A   1      41.916  28.441  31.307  1.00  0.00     0.049 A 
ATOM     27  C   UNL A   1      40.968  31.866  35.662  1.00  0.00     0.074 A 
ATOM     28  C   UNL A   1      42.983  27.568  31.436  1.00  0.00     0.029 A 
ATOM     29  N   UNL A   1      41.844  29.153  32.498  1.00  0.00    -0.354 N 
ATOM     30  N   UNL A   1      41.297  30.991  34.738  1.00  0.00    -0.248 NA
ATOM     31  C   UNL A   1      41.756  31.764  36.897  1.00  0.00     0.031 C 
ATOM     32  C   UNL A   1      43.505  27.698  32.728  1.00  0.00     0.029 A 
ATOM     33  C   UNL A   1      42.823  28.714  33.379  1.00  0.00     0.049 A 
ATOM     34  H   UNL A   1      41.193  29.866  32.691  1.00  0.00     0.167 HD
ATOM     35  C   UNL A   1      42.351  30.256  35.270  1.00  0.00     0.074 A 
ATOM     36  C   UNL A   1      42.600  30.786  36.596  1.00  0.00     0.031 C 
ATOM     37  C   UNL A   1      43.057  29.245  34.704  1.00  0.00     0.034 A 
BRANCH  24  38
ATOM     38  C   UNL A   1      41.135  27.671  29.005  1.00  0.00     0.023 A 
ATOM     39  C   UNL A   1      42.133  27.837  28.028  1.00  0.00     0.031 A 
ATOM     40  C   UNL A   1      40.203  26.634  28.817  1.00  0.00     0.131 A 
ATOM     41  C   UNL A   1      42.115  27.052  26.865  1.00  0.00     0.055 A 
ATOM     42  C   UNL A   1      40.247  25.794  27.701  1.00  0.00     0.041 A 
ATOM     43  F   UNL A   1      39.213  26.435  29.702  1.00  0.00    -0.206 F 
ATOM     44  C   UNL A   1      41.194  26.014  26.706  1.00  0.00     0.022 A 
BRANCH  41  45
ATOM     45  S   UNL A   1      43.190  27.531  25.483  1.00  0.00     0.124 S 
ATOM     46  O   UNL A   1      43.657  26.232  25.005  1.00  0.00    -0.237 OA
ATOM     47  O   UNL A   1      42.271  28.243  24.602  1.00  0.00    -0.237 OA
ATOM     48  O   UNL A   1      44.215  28.357  26.117  1.00  0.00    -0.744 OA
ENDBRANCH  41  45
ENDBRANCH  24  38
BRANCH  25  49
ATOM     49  C   UNL A   1      39.606  33.782  36.800  1.00  0.00     0.023 A 
ATOM     50  C   UNL A   1      38.952  33.259  37.924  1.00  0.00     0.031 A 
ATOM     51  C   UNL A   1      39.999  35.133  36.828  1.00  0.00     0.131 A 
ATOM     52  C   UNL A   1      38.694  34.090  39.026  1.00  0.00     0.055 A 
ATOM     53  C   UNL A   1      39.782  35.942  37.943  1.00  0.00     0.041 A 
ATOM     54  F   UNL A   1      40.638  35.676  35.779  1.00  0.00    -0.206 F 
ATOM     55  C   UNL A   1      39.118  35.422  39.050  1.00  0.00     0.022 A 
BRANCH  52  56
ATOM     56  S   UNL A   1      37.756  33.414  40.423  1.00  0.00     0.124 S 
ATOM     57  O   UNL A   1      37.624  34.582  41.286  1.00  0.00    -0.237 OA
ATOM     58  O   UNL A   1      36.533  32.953  39.774  1.00  0.00    -0.237 OA
ATOM     59  O   UNL A   1      38.624  32.354  40.934  1.00  0.00    -0.744 OA
ENDBRANCH  52  56
ENDBRANCH  25  49
BRANCH  37  60
ATOM     60  C   UNL A   1      44.214  28.682  35.492  1.00  0.00     0.023 A 
ATOM     61  C   UNL A   1      44.049  27.647  36.428  1.00  0.00     0.031 A 
ATOM     62  C   UNL A   1      45.511  29.182  35.276  1.00  0.00     0.131 A 
ATOM     63  C   UNL A   1      45.163  27.165  37.135  1.00  0.00     0.055 A 
ATOM     64  C   UNL A   1      46.620  28.664  35.944  1.00  0.00     0.041 A 
ATOM     65  F   UNL A   1      45.722  30.174  34.396  1.00  0.00    -0.206 F 
ATOM     66  C   UNL A   1      46.448  27.653  36.886  1.00  0.00     0.022 A 
BRANCH  63  67
ATOM     67  S   UNL A   1      44.907  25.920  38.431  1.00  0.00     0.124 S 
ATOM     68  O   UNL A   1      46.273  25.501  38.721  1.00  0.00    -0.237 OA
ATOM     69  O   UNL A   1      44.237  26.687  39.476  1.00  0.00    -0.237 OA
ATOM     70  O   UNL A   1      44.075  24.911  37.777  1.00  0.00    -0.744 OA
ENDBRANCH  63  67
ENDBRANCH  37  60
ENDBRANCH  11  12
ENDBRANCH   4   6
ENDBRANCH   1   2
BRANCH   1  71
ATOM     71  C   UNL A   1      31.543  31.659  26.523  1.00  0.00     0.042 C 
BRANCH  71  72
ATOM     72  C   UNL A   1      31.664  30.181  26.182  1.00  0.00     0.118 C 
BRANCH  72  73
ATOM     73  N   UNL A   1      32.435  29.948  24.968  1.00  0.00    -0.352 N 
ATOM     74  C   UNL A   1      32.874  28.767  24.426  1.00  0.00     0.251 C 
ATOM     75  H   UNL A   1      32.678  30.758  24.463  1.00  0.00     0.163 HD
ATOM     76  O   UNL A   1      33.655  28.765  23.479  1.00  0.00    -0.269 OA
BRANCH  74  77
ATOM     77  C   UNL A   1      32.396  27.487  24.981  1.00  0.00     0.041 A 
ATOM     78  C   UNL A   1      31.108  27.396  25.523  1.00  0.00     0.015 A 
ATOM     79  C   UNL A   1      33.236  26.367  24.929  1.00  0.00     0.043 A 
ATOM     80  C   UNL A   1      30.686  26.200  26.091  1.00  0.00     0.017 A 
ATOM     81  C   UNL A   1      32.813  25.156  25.480  1.00  0.00     0.081 A 
ATOM     82  C   UNL A   1      31.544  25.097  26.066  1.00  0.00     0.066 A 
ATOM     83  N   UNL A   1      33.664  24.039  25.416  1.00  0.00    -0.214 NA
ATOM     84  C   UNL A   1      31.127  23.817  26.646  1.00  0.00     0.260 A 
ATOM     85  C   UNL A   1      33.240  22.907  25.885  1.00  0.00     0.206 A 
ATOM     86  O   UNL A   1      30.057  23.676  27.224  1.00  0.00    -0.269 OA
ATOM     87  N   UNL A   1      32.017  22.792  26.488  1.00  0.00    -0.292 N 
ATOM     88  H   UNL A   1      31.759  21.905  26.831  1.00  0.00     0.173 HD
BRANCH  85  89
ATOM     89  N   UNL A   1      33.978  21.757  25.844  1.00  0.00    -0.331 N 
ATOM     90  C   UNL A   1      33.345  20.439  25.763  1.00  0.00     0.181 C 
ATOM     91  C   UNL A   1      35.409  21.723  26.148  1.00  0.00     0.181 C 
ATOM     92  C   UNL A   1      34.121  19.569  24.744  1.00  0.00     0.282 C 
ATOM     93  C   UNL A   1      36.141  20.832  25.128  1.00  0.00     0.282 C 
ATOM     94  N   UNL A   1      35.575  19.471  25.027  1.00  0.00    -0.343 N 
ATOM     95  H   UNL A   1      36.036  18.964  24.272  1.00  0.00     0.346 HD
ATOM     96  H   UNL A   1      35.721  18.973  25.906  1.00  0.00     0.346 HD
ENDBRANCH  85  89
ENDBRANCH  74  77
ENDBRANCH  72  73
ENDBRANCH  71  72
ENDBRANCH   1  71
TORSDOF 14
ENDMDL
