MODEL 1
REMARK VINA RESULT:     -13.9      0.000      0.000
REMARK SMILES COc1ccc(C2=NN(C(=O)CCC(=O)NCCCNC(=O)c3ccc(-c4c5nc(c(-c6cc(S(=O)(=O)[O-])ccc6F)c6ccc([nH]6)c(-c6cc(S(=O)(=O)[O-])ccc6F)c6nc(c(-c7cc(S(=O)(=O)[O-])ccc7F)c7ccc4[nH]7)C=C6)C=C5)cc3)[C@H](c3ccc(Cl)cc3Cl)C2)cc1
REMARK SMILES IDX 17 1 16 2 14 3 15 4 13 6 12 7 10 8 11 9 9 10 7 11 8 12 95 13
REMARK SMILES IDX 86 14 6 15 3 16 4 17 97 18 5 19 96 20 2 21 1 22 87 23 88 24
REMARK SMILES IDX 93 25 89 26 92 27 94 28 90 29 91 30 18 31 19 32 20 33 21 34
REMARK SMILES IDX 22 36 23 37 24 38 85 39 25 40 84 41 26 42 27 43 28 44 78 45
REMARK SMILES IDX 29 46 83 47 77 48 79 49 30 50 82 51 76 52 75 53 31 55 63 56
REMARK SMILES IDX 43 57 62 58 44 59 47 60 61 61 80 62 45 63 46 64 60 66 81 67
REMARK SMILES IDX 48 68 32 69 33 70 41 71 34 72 40 73 42 74 39 75 35 76 36 77
REMARK SMILES IDX 37 78 38 79 64 80 65 81 73 82 66 83 72 84 74 85 71 86 67 87
REMARK SMILES IDX 68 88 69 89 70 90 49 91 50 92 58 93 51 94 57 95 59 96 56 97
REMARK SMILES IDX 52 98 53 99 54 100 55 101
REMARK H PARENT 16 5 20 35 79 54 47 65
REMARK Flexibility Score: inf
ROOT
ATOM      1  C   UNL A   1      32.740  26.286  26.203  1.00  0.00     0.117 C 
ENDROOT
BRANCH   1   2
ATOM      2  N   UNL A   1      33.323  25.919  24.785  1.00  0.00    -0.356 N 
ATOM      3  C   UNL A   1      34.131  24.946  24.263  1.00  0.00     0.220 C 
ATOM      4  O   UNL A   1      34.270  24.979  23.034  1.00  0.00    -0.275 OA
ATOM      5  H   UNL A   1      33.028  26.557  24.095  1.00  0.00     0.163 HD
BRANCH   3   6
ATOM      6  C   UNL A   1      34.808  23.828  25.050  1.00  0.00     0.110 C 
BRANCH   6   7
ATOM      7  C   UNL A   1      36.020  24.156  25.905  1.00  0.00     0.112 C 
BRANCH   7   8
ATOM      8  C   UNL A   1      37.193  23.676  25.141  1.00  0.00     0.243 C 
ATOM      9  O   UNL A   1      37.109  23.245  23.998  1.00  0.00    -0.273 OA
BRANCH   8  10
ATOM     10  N   UNL A   1      38.307  23.621  25.937  1.00  0.00    -0.225 N 
ATOM     11  C   UNL A   1      40.316  21.868  27.153  1.00  0.00     0.071 C 
ATOM     12  N   UNL A   1      39.086  21.868  26.122  1.00  0.00    -0.174 NA
ATOM     13  C   UNL A   1      40.488  23.578  28.121  1.00  0.00     0.091 C 
ATOM     14  C   UNL A   1      39.245  24.814  27.208  1.00  0.00     0.149 C 
BRANCH  11  15
ATOM     15  C   UNL A   1      41.611  21.132  26.936  1.00  0.00    -0.002 A 
ATOM     16  C   UNL A   1      44.228  19.150  25.440  1.00  0.00     0.118 A 
ATOM     17  C   UNL A   1      44.178  21.161  25.231  1.00  0.00     0.047 A 
ATOM     18  C   UNL A   1      42.892  18.383  26.376  1.00  0.00     0.047 A 
ATOM     19  C   UNL A   1      42.883  22.059  26.089  1.00  0.00     0.014 A 
ATOM     20  C   UNL A   1      41.633  19.388  27.064  1.00  0.00     0.014 A 
BRANCH  16  21
ATOM     21  O   UNL A   1      45.244  18.229  25.128  1.00  0.00    -0.497 OA
ATOM     22  C   UNL A   1      46.560  18.562  25.540  1.00  0.00     0.278 C 
ENDBRANCH  16  21
ENDBRANCH  11  15
BRANCH  14  23
ATOM     23  C   UNL A   1      39.943  26.192  26.878  1.00  0.00    -0.004 A 
ATOM     24  C   UNL A   1      40.950  26.256  25.883  1.00  0.00     0.009 A 
ATOM     25  C   UNL A   1      39.912  27.281  27.785  1.00  0.00     0.047 A 
ATOM     26  C   UNL A   1      41.884  27.301  25.819  1.00  0.00     0.021 A 
ATOM     27  C   UNL A   1      40.817  28.353  27.686  1.00  0.00     0.041 A 
ATOM     28  Cl  UNL A   1      38.931  27.327  29.207  1.00  0.00    -0.084 Cl
ATOM     29  C   UNL A   1      41.814  28.345  26.724  1.00  0.00     0.042 A 
ATOM     30  Cl  UNL A   1      43.001  29.587  26.703  1.00  0.00    -0.084 Cl
ENDBRANCH  14  23
ENDBRANCH   8  10
ENDBRANCH   7   8
ENDBRANCH   6   7
ENDBRANCH   3   6
ENDBRANCH   1   2
BRANCH   1  31
ATOM     31  C   UNL A   1      31.688  28.070  27.035  1.00  0.00     0.042 C 
BRANCH  31  32
ATOM     32  C   UNL A   1      32.503  29.732  27.363  1.00  0.00     0.118 C 
BRANCH  32  33
ATOM     33  N   UNL A   1      33.986  30.009  27.093  1.00  0.00    -0.352 N 
ATOM     34  C   UNL A   1      35.152  30.347  27.784  1.00  0.00     0.251 C 
ATOM     35  H   UNL A   1      34.176  29.922  26.132  1.00  0.00     0.163 HD
ATOM     36  O   UNL A   1      36.239  30.049  27.283  1.00  0.00    -0.269 OA
BRANCH  34  37
ATOM     37  C   UNL A   1      35.190  31.266  29.038  1.00  0.00     0.039 A 
ATOM     38  C   UNL A   1      36.454  30.400  29.972  1.00  0.00     0.014 A 
ATOM     39  C   UNL A   1      34.634  33.107  29.684  1.00  0.00     0.014 A 
ATOM     40  C   UNL A   1      37.223  31.203  31.310  1.00  0.00     0.010 A 
ATOM     41  C   UNL A   1      35.579  33.837  31.063  1.00  0.00     0.010 A 
ATOM     42  C   UNL A   1      36.915  32.890  31.793  1.00  0.00    -0.014 A 
BRANCH  42  43
ATOM     43  C   UNL A   1      38.171  33.568  32.383  1.00  0.00     0.031 A 
ATOM     44  C   UNL A   1      39.330  33.955  31.503  1.00  0.00     0.074 A 
ATOM     45  C   UNL A   1      38.349  33.720  33.732  1.00  0.00     0.049 A 
ATOM     46  N   UNL A   1      40.502  34.441  31.842  1.00  0.00    -0.248 NA
ATOM     47  C   UNL A   1      39.192  33.683  30.071  1.00  0.00     0.031 C 
ATOM     48  C   UNL A   1      37.466  33.245  34.809  1.00  0.00     0.029 A 
ATOM     49  N   UNL A   1      39.361  34.333  34.458  1.00  0.00    -0.354 N 
ATOM     50  C   UNL A   1      41.247  34.489  30.670  1.00  0.00     0.074 A 
ATOM     51  C   UNL A   1      40.432  33.863  29.647  1.00  0.00     0.031 C 
ATOM     52  C   UNL A   1      37.891  33.669  36.002  1.00  0.00     0.029 A 
ATOM     53  C   UNL A   1      39.144  34.368  35.827  1.00  0.00     0.049 A 
ATOM     54  H   UNL A   1      40.166  34.710  34.036  1.00  0.00     0.167 HD
ATOM     55  C   UNL A   1      42.457  35.062  30.436  1.00  0.00     0.034 A 
ATOM     56  C   UNL A   1      39.847  34.883  36.858  1.00  0.00     0.034 A 
ATOM     57  C   UNL A   1      43.241  35.755  31.430  1.00  0.00     0.049 A 
ATOM     58  C   UNL A   1      41.149  35.573  36.576  1.00  0.00     0.074 A 
ATOM     59  C   UNL A   1      44.419  36.464  31.258  1.00  0.00     0.029 A 
ATOM     60  N   UNL A   1      42.926  35.839  32.779  1.00  0.00    -0.354 N 
ATOM     61  N   UNL A   1      41.766  35.715  35.429  1.00  0.00    -0.248 NA
ATOM     62  C   UNL A   1      41.843  36.182  37.718  1.00  0.00     0.031 C 
ATOM     63  C   UNL A   1      44.835  36.944  32.505  1.00  0.00     0.029 A 
ATOM     64  C   UNL A   1      43.889  36.583  33.447  1.00  0.00     0.049 A 
ATOM     65  H   UNL A   1      42.135  35.431  33.201  1.00  0.00     0.167 HD
ATOM     66  C   UNL A   1      42.895  36.477  35.708  1.00  0.00     0.074 A 
ATOM     67  C   UNL A   1      42.871  36.768  37.124  1.00  0.00     0.031 C 
ATOM     68  C   UNL A   1      43.860  36.898  34.855  1.00  0.00     0.034 A 
BRANCH  55  69
ATOM     69  C   UNL A   1      42.977  35.001  29.017  1.00  0.00     0.023 A 
ATOM     70  C   UNL A   1      43.733  33.902  28.577  1.00  0.00     0.031 A 
ATOM     71  C   UNL A   1      42.774  36.061  28.117  1.00  0.00     0.131 A 
ATOM     72  C   UNL A   1      44.374  33.944  27.334  1.00  0.00     0.055 A 
ATOM     73  C   UNL A   1      43.321  36.044  26.832  1.00  0.00     0.041 A 
ATOM     74  F   UNL A   1      42.063  37.141  28.477  1.00  0.00    -0.206 F 
ATOM     75  C   UNL A   1      44.150  34.993  26.442  1.00  0.00     0.022 A 
BRANCH  72  76
ATOM     76  S   UNL A   1      45.652  32.705  26.993  1.00  0.00     0.124 S 
ATOM     77  O   UNL A   1      45.590  31.884  28.202  1.00  0.00    -0.237 OA
ATOM     78  O   UNL A   1      45.169  32.076  25.770  1.00  0.00    -0.237 OA
ATOM     79  O   UNL A   1      46.869  33.500  26.851  1.00  0.00    -0.744 OA
ENDBRANCH  72  76
ENDBRANCH  55  69
BRANCH  56  80
ATOM     80  C   UNL A   1      39.344  34.795  38.267  1.00  0.00     0.023 A 
ATOM     81  C   UNL A   1      39.073  33.548  38.853  1.00  0.00     0.031 A 
ATOM     82  C   UNL A   1      39.055  35.948  39.019  1.00  0.00     0.131 A 
ATOM     83  C   UNL A   1      38.457  33.480  40.114  1.00  0.00     0.055 A 
ATOM     84  C   UNL A   1      38.501  35.875  40.300  1.00  0.00     0.041 A 
ATOM     85  F   UNL A   1      39.308  37.168  38.518  1.00  0.00    -0.206 F 
ATOM     86  C   UNL A   1      38.178  34.635  40.846  1.00  0.00     0.022 A 
BRANCH  83  87
ATOM     87  S   UNL A   1      37.910  31.861  40.725  1.00  0.00     0.124 S 
ATOM     88  O   UNL A   1      36.772  32.230  41.559  1.00  0.00    -0.237 OA
ATOM     89  O   UNL A   1      37.597  31.159  39.485  1.00  0.00    -0.237 OA
ATOM     90  O   UNL A   1      39.076  31.359  41.449  1.00  0.00    -0.744 OA
ENDBRANCH  83  87
ENDBRANCH  56  80
BRANCH  68  91
ATOM     91  C   UNL A   1      44.928  37.797  35.418  1.00  0.00     0.023 A 
ATOM     92  C   UNL A   1      44.765  39.190  35.496  1.00  0.00     0.031 A 
ATOM     93  C   UNL A   1      46.138  37.243  35.874  1.00  0.00     0.131 A 
ATOM     94  C   UNL A   1      45.813  39.990  35.977  1.00  0.00     0.055 A 
ATOM     95  C   UNL A   1      47.155  38.038  36.404  1.00  0.00     0.041 A 
ATOM     96  F   UNL A   1      46.349  35.918  35.814  1.00  0.00    -0.206 F 
ATOM     97  C   UNL A   1      47.000  39.421  36.447  1.00  0.00     0.022 A 
BRANCH  94  98
ATOM     98  S   UNL A   1      45.634  41.793  35.914  1.00  0.00     0.124 S 
ATOM     99  O   UNL A   1      44.332  41.990  36.542  1.00  0.00    -0.237 OA
ATOM    100  O   UNL A   1      46.788  42.248  36.683  1.00  0.00    -0.237 OA
ATOM    101  O   UNL A   1      45.686  42.094  34.485  1.00  0.00    -0.744 OA
ENDBRANCH  94  98
ENDBRANCH  68  91
ENDBRANCH  42  43
ENDBRANCH  34  37
ENDBRANCH  32  33
ENDBRANCH  31  32
ENDBRANCH   1  31
TORSDOF 19
ENDMDL
MODEL 2
REMARK VINA RESULT:     -13.9      4.729      7.901
REMARK SMILES COc1ccc(C2=NN(C(=O)CCC(=O)NCCCNC(=O)c3ccc(-c4c5nc(c(-c6cc(S(=O)(=O)[O-])ccc6F)c6ccc([nH]6)c(-c6cc(S(=O)(=O)[O-])ccc6F)c6nc(c(-c7cc(S(=O)(=O)[O-])ccc7F)c7ccc4[nH]7)C=C6)C=C5)cc3)[C@H](c3ccc(Cl)cc3Cl)C2)cc1
REMARK SMILES IDX 17 1 16 2 14 3 15 4 13 6 12 7 10 8 11 9 9 10 7 11 8 12 95 13
REMARK SMILES IDX 86 14 6 15 3 16 4 17 97 18 5 19 96 20 2 21 1 22 87 23 88 24
REMARK SMILES IDX 93 25 89 26 92 27 94 28 90 29 91 30 18 31 19 32 20 33 21 34
REMARK SMILES IDX 22 36 23 37 24 38 85 39 25 40 84 41 26 42 27 43 28 44 78 45
REMARK SMILES IDX 29 46 83 47 77 48 79 49 30 50 82 51 76 52 75 53 31 55 63 56
REMARK SMILES IDX 43 57 62 58 44 59 47 60 61 61 80 62 45 63 46 64 60 66 81 67
REMARK SMILES IDX 48 68 32 69 33 70 41 71 34 72 40 73 42 74 39 75 35 76 36 77
REMARK SMILES IDX 37 78 38 79 64 80 65 81 73 82 66 83 72 84 74 85 71 86 67 87
REMARK SMILES IDX 68 88 69 89 70 90 49 91 50 92 58 93 51 94 57 95 59 96 56 97
REMARK SMILES IDX 52 98 53 99 54 100 55 101
REMARK H PARENT 16 5 20 35 79 54 47 65
REMARK Flexibility Score: inf
ROOT
ATOM      1  C   UNL A   1      33.384  26.778  25.497  1.00  0.00     0.117 C 
ENDROOT
BRANCH   1   2
ATOM      2  N   UNL A   1      33.835  25.928  24.248  1.00  0.00    -0.356 N 
ATOM      3  C   UNL A   1      34.447  24.724  24.033  1.00  0.00     0.220 C 
ATOM      4  O   UNL A   1      34.535  24.380  22.847  1.00  0.00    -0.275 OA
ATOM      5  H   UNL A   1      33.618  26.383  23.402  1.00  0.00     0.163 HD
BRANCH   3   6
ATOM      6  C   UNL A   1      34.966  23.779  25.113  1.00  0.00     0.110 C 
BRANCH   6   7
ATOM      7  C   UNL A   1      36.255  24.123  25.839  1.00  0.00     0.112 C 
BRANCH   7   8
ATOM      8  C   UNL A   1      37.306  23.295  25.208  1.00  0.00     0.243 C 
ATOM      9  O   UNL A   1      37.096  22.590  24.229  1.00  0.00    -0.273 OA
BRANCH   8  10
ATOM     10  N   UNL A   1      38.452  23.299  25.960  1.00  0.00    -0.225 N 
ATOM     11  C   UNL A   1      40.616  21.661  27.062  1.00  0.00     0.071 C 
ATOM     12  N   UNL A   1      39.351  21.599  26.077  1.00  0.00    -0.174 NA
ATOM     13  C   UNL A   1      40.712  23.359  28.061  1.00  0.00     0.091 C 
ATOM     14  C   UNL A   1      39.356  24.527  27.221  1.00  0.00     0.149 C 
BRANCH  11  15
ATOM     15  C   UNL A   1      41.948  21.018  26.781  1.00  0.00    -0.002 A 
ATOM     16  C   UNL A   1      44.647  19.285  25.128  1.00  0.00     0.118 A 
ATOM     17  C   UNL A   1      44.475  21.299  25.040  1.00  0.00     0.047 A 
ATOM     18  C   UNL A   1      43.377  18.387  26.038  1.00  0.00     0.047 A 
ATOM     19  C   UNL A   1      43.146  22.067  25.970  1.00  0.00     0.014 A 
ATOM     20  C   UNL A   1      42.075  19.273  26.805  1.00  0.00     0.014 A 
BRANCH  16  21
ATOM     21  O   UNL A   1      45.709  18.447  24.745  1.00  0.00    -0.497 OA
ATOM     22  C   UNL A   1      46.846  18.425  25.592  1.00  0.00     0.278 C 
ENDBRANCH  16  21
ENDBRANCH  11  15
BRANCH  14  23
ATOM     23  C   UNL A   1      39.949  25.955  26.897  1.00  0.00    -0.004 A 
ATOM     24  C   UNL A   1      40.893  26.110  25.852  1.00  0.00     0.009 A 
ATOM     25  C   UNL A   1      39.901  27.015  27.837  1.00  0.00     0.047 A 
ATOM     26  C   UNL A   1      41.756  27.213  25.770  1.00  0.00     0.021 A 
ATOM     27  C   UNL A   1      40.732  28.144  27.722  1.00  0.00     0.041 A 
ATOM     28  Cl  UNL A   1      38.999  26.960  29.310  1.00  0.00    -0.084 Cl
ATOM     29  C   UNL A   1      41.673  28.225  26.708  1.00  0.00     0.042 A 
ATOM     30  Cl  UNL A   1      42.778  29.540  26.661  1.00  0.00    -0.084 Cl
ENDBRANCH  14  23
ENDBRANCH   8  10
ENDBRANCH   7   8
ENDBRANCH   6   7
ENDBRANCH   3   6
ENDBRANCH   1   2
BRANCH   1  31
ATOM     31  C   UNL A   1      34.133  28.651  26.452  1.00  0.00     0.042 C 
BRANCH  31  32
ATOM     32  C   UNL A   1      33.091  29.792  27.522  1.00  0.00     0.118 C 
BRANCH  32  33
ATOM     33  N   UNL A   1      33.347  31.299  27.642  1.00  0.00    -0.352 N 
ATOM     34  C   UNL A   1      34.363  32.183  28.012  1.00  0.00     0.251 C 
ATOM     35  H   UNL A   1      32.544  31.800  27.375  1.00  0.00     0.163 HD
ATOM     36  O   UNL A   1      34.341  33.328  27.555  1.00  0.00    -0.269 OA
BRANCH  34  37
ATOM     37  C   UNL A   1      35.405  31.899  29.131  1.00  0.00     0.039 A 
ATOM     38  C   UNL A   1      36.549  30.888  28.190  1.00  0.00     0.014 A 
ATOM     39  C   UNL A   1      36.005  32.555  30.955  1.00  0.00     0.014 A 
ATOM     40  C   UNL A   1      38.147  30.604  28.815  1.00  0.00     0.010 A 
ATOM     41  C   UNL A   1      37.732  32.227  31.441  1.00  0.00     0.010 A 
ATOM     42  C   UNL A   1      38.792  31.323  30.312  1.00  0.00    -0.014 A 
BRANCH  42  43
ATOM     43  C   UNL A   1      40.312  31.588  30.227  1.00  0.00     0.031 A 
ATOM     44  C   UNL A   1      41.307  30.540  30.651  1.00  0.00     0.074 A 
ATOM     45  C   UNL A   1      40.817  32.817  29.900  1.00  0.00     0.049 A 
ATOM     46  N   UNL A   1      42.615  30.628  30.740  1.00  0.00    -0.248 NA
ATOM     47  C   UNL A   1      40.765  29.263  31.116  1.00  0.00     0.031 C 
ATOM     48  C   UNL A   1      40.063  34.054  29.643  1.00  0.00     0.029 A 
ATOM     49  N   UNL A   1      42.124  33.252  29.721  1.00  0.00    -0.354 N 
ATOM     50  C   UNL A   1      43.038  29.433  31.311  1.00  0.00     0.074 A 
ATOM     51  C   UNL A   1      41.834  28.704  31.659  1.00  0.00     0.031 C 
ATOM     52  C   UNL A   1      40.874  35.037  29.239  1.00  0.00     0.029 A 
ATOM     53  C   UNL A   1      42.239  34.566  29.296  1.00  0.00     0.049 A 
ATOM     54  H   UNL A   1      42.904  32.674  29.884  1.00  0.00     0.167 HD
ATOM     55  C   UNL A   1      44.296  28.946  31.466  1.00  0.00     0.034 A 
ATOM     56  C   UNL A   1      43.297  35.344  28.985  1.00  0.00     0.034 A 
ATOM     57  C   UNL A   1      45.497  29.632  31.052  1.00  0.00     0.049 A 
ATOM     58  C   UNL A   1      44.678  34.770  29.097  1.00  0.00     0.074 A 
ATOM     59  C   UNL A   1      46.802  29.167  31.063  1.00  0.00     0.029 A 
ATOM     60  N   UNL A   1      45.544  30.922  30.542  1.00  0.00    -0.354 N 
ATOM     61  N   UNL A   1      45.037  33.583  29.520  1.00  0.00    -0.248 NA
ATOM     62  C   UNL A   1      45.794  35.628  28.678  1.00  0.00     0.031 C 
ATOM     63  C   UNL A   1      47.641  30.186  30.596  1.00  0.00     0.029 A 
ATOM     64  C   UNL A   1      46.854  31.267  30.241  1.00  0.00     0.049 A 
ATOM     65  H   UNL A   1      44.763  31.506  30.412  1.00  0.00     0.167 HD
ATOM     66  C   UNL A   1      46.418  33.537  29.367  1.00  0.00     0.074 A 
ATOM     67  C   UNL A   1      46.825  34.808  28.810  1.00  0.00     0.031 C 
ATOM     68  C   UNL A   1      47.266  32.523  29.662  1.00  0.00     0.034 A 
BRANCH  55  69
ATOM     69  C   UNL A   1      44.423  27.566  32.071  1.00  0.00     0.023 A 
ATOM     70  C   UNL A   1      44.554  27.402  33.461  1.00  0.00     0.031 A 
ATOM     71  C   UNL A   1      44.473  26.415  31.267  1.00  0.00     0.131 A 
ATOM     72  C   UNL A   1      44.868  26.146  33.991  1.00  0.00     0.055 A 
ATOM     73  C   UNL A   1      44.671  25.146  31.816  1.00  0.00     0.041 A 
ATOM     74  F   UNL A   1      44.357  26.505  29.932  1.00  0.00    -0.206 F 
ATOM     75  C   UNL A   1      44.898  25.009  33.184  1.00  0.00     0.022 A 
BRANCH  72  76
ATOM     76  S   UNL A   1      45.429  26.066  35.713  1.00  0.00     0.124 S 
ATOM     77  O   UNL A   1      45.759  24.648  35.846  1.00  0.00    -0.237 OA
ATOM     78  O   UNL A   1      46.559  26.987  35.723  1.00  0.00    -0.237 OA
ATOM     79  O   UNL A   1      44.260  26.500  36.474  1.00  0.00    -0.744 OA
ENDBRANCH  72  76
ENDBRANCH  55  69
BRANCH  56  80
ATOM     80  C   UNL A   1      43.117  36.756  28.516  1.00  0.00     0.023 A 
ATOM     81  C   UNL A   1      43.307  37.833  29.399  1.00  0.00     0.031 A 
ATOM     82  C   UNL A   1      42.680  37.049  27.212  1.00  0.00     0.131 A 
ATOM     83  C   UNL A   1      42.985  39.139  28.996  1.00  0.00     0.055 A 
ATOM     84  C   UNL A   1      42.424  38.358  26.795  1.00  0.00     0.041 A 
ATOM     85  F   UNL A   1      42.497  36.063  26.319  1.00  0.00    -0.206 F 
ATOM     86  C   UNL A   1      42.555  39.410  27.696  1.00  0.00     0.022 A 
BRANCH  83  87
ATOM     87  S   UNL A   1      43.018  40.462  30.238  1.00  0.00     0.124 S 
ATOM     88  O   UNL A   1      44.060  41.336  29.712  1.00  0.00    -0.237 OA
ATOM     89  O   UNL A   1      41.654  40.975  30.170  1.00  0.00    -0.237 OA
ATOM     90  O   UNL A   1      43.359  39.759  31.474  1.00  0.00    -0.744 OA
ENDBRANCH  83  87
ENDBRANCH  56  80
BRANCH  68  91
ATOM     91  C   UNL A   1      48.716  32.714  29.304  1.00  0.00     0.023 A 
ATOM     92  C   UNL A   1      49.228  32.349  28.048  1.00  0.00     0.031 A 
ATOM     93  C   UNL A   1      49.602  33.264  30.248  1.00  0.00     0.131 A 
ATOM     94  C   UNL A   1      50.598  32.495  27.782  1.00  0.00     0.055 A 
ATOM     95  C   UNL A   1      50.953  33.460  29.958  1.00  0.00     0.041 A 
ATOM     96  F   UNL A   1      49.167  33.622  31.466  1.00  0.00    -0.206 F 
ATOM     97  C   UNL A   1      51.459  33.065  28.724  1.00  0.00     0.022 A 
BRANCH  94  98
ATOM     98  S   UNL A   1      51.255  31.866  26.214  1.00  0.00     0.124 S 
ATOM     99  O   UNL A   1      52.692  31.870  26.463  1.00  0.00    -0.237 OA
ATOM    100  O   UNL A   1      50.628  30.552  26.118  1.00  0.00    -0.237 OA
ATOM    101  O   UNL A   1      50.792  32.844  25.231  1.00  0.00    -0.744 OA
ENDBRANCH  94  98
ENDBRANCH  68  91
ENDBRANCH  42  43
ENDBRANCH  34  37
ENDBRANCH  32  33
ENDBRANCH  31  32
ENDBRANCH   1  31
TORSDOF 19
ENDMDL
MODEL 3
REMARK VINA RESULT:     -13.5      5.315     11.412
REMARK SMILES COc1ccc(C2=NN(C(=O)CCC(=O)NCCCNC(=O)c3ccc(-c4c5nc(c(-c6cc(S(=O)(=O)[O-])ccc6F)c6ccc([nH]6)c(-c6cc(S(=O)(=O)[O-])ccc6F)c6nc(c(-c7cc(S(=O)(=O)[O-])ccc7F)c7ccc4[nH]7)C=C6)C=C5)cc3)[C@H](c3ccc(Cl)cc3Cl)C2)cc1
REMARK SMILES IDX 17 1 16 2 14 3 15 4 13 6 12 7 10 8 11 9 9 10 7 11 8 12 95 13
REMARK SMILES IDX 86 14 6 15 3 16 4 17 97 18 5 19 96 20 2 21 1 22 87 23 88 24
REMARK SMILES IDX 93 25 89 26 92 27 94 28 90 29 91 30 18 31 19 32 20 33 21 34
REMARK SMILES IDX 22 36 23 37 24 38 85 39 25 40 84 41 26 42 27 43 28 44 78 45
REMARK SMILES IDX 29 46 83 47 77 48 79 49 30 50 82 51 76 52 75 53 31 55 63 56
REMARK SMILES IDX 43 57 62 58 44 59 47 60 61 61 80 62 45 63 46 64 60 66 81 67
REMARK SMILES IDX 48 68 32 69 33 70 41 71 34 72 40 73 42 74 39 75 35 76 36 77
REMARK SMILES IDX 37 78 38 79 64 80 65 81 73 82 66 83 72 84 74 85 71 86 67 87
REMARK SMILES IDX 68 88 69 89 70 90 49 91 50 92 58 93 51 94 57 95 59 96 56 97
REMARK SMILES IDX 52 98 53 99 54 100 55 101
REMARK H PARENT 16 5 20 35 79 54 47 65
REMARK Flexibility Score: inf
ROOT
ATOM      1  C   UNL A   1      47.238  33.866  26.211  1.00  0.00     0.117 C 
ENDROOT
BRANCH   1   2
ATOM      2  N   UNL A   1      45.838  33.480  25.598  1.00  0.00    -0.356 N 
ATOM      3  C   UNL A   1      44.781  32.688  25.953  1.00  0.00     0.220 C 
ATOM      4  O   UNL A   1      43.803  32.741  25.196  1.00  0.00    -0.275 OA
ATOM      5  H   UNL A   1      45.684  33.926  24.733  1.00  0.00     0.163 HD
BRANCH   3   6
ATOM      6  C   UNL A   1      44.698  31.812  27.200  1.00  0.00     0.110 C 
BRANCH   6   7
ATOM      7  C   UNL A   1      43.342  31.552  27.831  1.00  0.00     0.112 C 
BRANCH   7   8
ATOM      8  C   UNL A   1      43.476  30.271  28.559  1.00  0.00     0.243 C 
ATOM      9  O   UNL A   1      44.174  30.147  29.558  1.00  0.00    -0.273 OA
BRANCH   8  10
ATOM     10  N   UNL A   1      42.872  29.250  27.873  1.00  0.00    -0.225 N 
ATOM     11  C   UNL A   1      43.300  26.762  26.387  1.00  0.00     0.071 C 
ATOM     12  N   UNL A   1      44.064  27.859  27.274  1.00  0.00    -0.174 NA
ATOM     13  C   UNL A   1      41.455  27.299  25.947  1.00  0.00     0.091 C 
ATOM     14  C   UNL A   1      41.102  28.892  27.063  1.00  0.00     0.149 C 
BRANCH  11  15
ATOM     15  C   UNL A   1      43.516  25.275  26.496  1.00  0.00    -0.002 A 
ATOM     16  C   UNL A   1      42.960  21.711  26.464  1.00  0.00     0.118 A 
ATOM     17  C   UNL A   1      43.605  22.693  24.818  1.00  0.00     0.047 A 
ATOM     18  C   UNL A   1      42.639  22.694  27.940  1.00  0.00     0.047 A 
ATOM     19  C   UNL A   1      43.934  24.451  24.967  1.00  0.00     0.014 A 
ATOM     20  C   UNL A   1      42.905  24.426  27.898  1.00  0.00     0.014 A 
BRANCH  16  21
ATOM     21  O   UNL A   1      42.881  20.332  26.727  1.00  0.00    -0.497 OA
ATOM     22  C   UNL A   1      42.709  19.475  25.609  1.00  0.00     0.278 C 
ENDBRANCH  16  21
ENDBRANCH  11  15
BRANCH  14  23
ATOM     23  C   UNL A   1      39.720  28.773  27.817  1.00  0.00    -0.004 A 
ATOM     24  C   UNL A   1      38.636  29.607  27.446  1.00  0.00     0.009 A 
ATOM     25  C   UNL A   1      39.615  28.170  29.096  1.00  0.00     0.047 A 
ATOM     26  C   UNL A   1      37.551  29.860  28.299  1.00  0.00     0.021 A 
ATOM     27  C   UNL A   1      38.501  28.385  29.927  1.00  0.00     0.041 A 
ATOM     28  Cl  UNL A   1      40.896  27.296  29.859  1.00  0.00    -0.084 Cl
ATOM     29  C   UNL A   1      37.490  29.248  29.538  1.00  0.00     0.042 A 
ATOM     30  Cl  UNL A   1      36.206  29.614  30.620  1.00  0.00    -0.084 Cl
ENDBRANCH  14  23
ENDBRANCH   8  10
ENDBRANCH   7   8
ENDBRANCH   6   7
ENDBRANCH   3   6
ENDBRANCH   1   2
BRANCH   1  31
ATOM     31  C   UNL A   1      48.271  35.801  26.625  1.00  0.00     0.042 C 
BRANCH  31  32
ATOM     32  C   UNL A   1      48.241  37.292  25.481  1.00  0.00     0.118 C 
BRANCH  32  33
ATOM     33  N   UNL A   1      47.010  38.186  25.298  1.00  0.00    -0.352 N 
ATOM     34  C   UNL A   1      46.063  38.870  26.064  1.00  0.00     0.251 C 
ATOM     35  H   UNL A   1      46.829  38.319  24.340  1.00  0.00     0.163 HD
ATOM     36  O   UNL A   1      45.490  39.840  25.561  1.00  0.00    -0.269 OA
BRANCH  34  37
ATOM     37  C   UNL A   1      45.517  38.370  27.431  1.00  0.00     0.039 A 
ATOM     38  C   UNL A   1      44.512  37.006  26.841  1.00  0.00     0.014 A 
ATOM     39  C   UNL A   1      45.854  38.499  29.428  1.00  0.00     0.014 A 
ATOM     40  C   UNL A   1      43.966  35.801  27.970  1.00  0.00     0.010 A 
ATOM     41  C   UNL A   1      45.267  37.124  30.471  1.00  0.00     0.010 A 
ATOM     42  C   UNL A   1      44.402  35.757  29.696  1.00  0.00    -0.014 A 
BRANCH  42  43
ATOM     43  C   UNL A   1      44.498  34.314  30.240  1.00  0.00     0.031 A 
ATOM     44  C   UNL A   1      43.333  33.671  30.943  1.00  0.00     0.074 A 
ATOM     45  C   UNL A   1      45.674  33.613  30.232  1.00  0.00     0.049 A 
ATOM     46  N   UNL A   1      43.271  32.507  31.549  1.00  0.00    -0.248 NA
ATOM     47  C   UNL A   1      42.110  34.466  31.058  1.00  0.00     0.031 C 
ATOM     48  C   UNL A   1      46.995  34.086  29.792  1.00  0.00     0.029 A 
ATOM     49  N   UNL A   1      45.965  32.311  30.619  1.00  0.00    -0.354 N 
ATOM     50  C   UNL A   1      42.018  32.457  32.149  1.00  0.00     0.074 A 
ATOM     51  C   UNL A   1      41.417  33.760  31.937  1.00  0.00     0.031 C 
ATOM     52  C   UNL A   1      47.894  33.097  29.816  1.00  0.00     0.029 A 
ATOM     53  C   UNL A   1      47.271  31.918  30.374  1.00  0.00     0.049 A 
ATOM     54  H   UNL A   1      45.299  31.717  31.034  1.00  0.00     0.167 HD
ATOM     55  C   UNL A   1      41.388  31.416  32.754  1.00  0.00     0.034 A 
ATOM     56  C   UNL A   1      47.936  30.760  30.567  1.00  0.00     0.034 A 
ATOM     57  C   UNL A   1      41.949  30.094  32.901  1.00  0.00     0.049 A 
ATOM     58  C   UNL A   1      47.208  29.597  31.173  1.00  0.00     0.074 A 
ATOM     59  C   UNL A   1      41.341  28.950  33.393  1.00  0.00     0.029 A 
ATOM     60  N   UNL A   1      43.242  29.732  32.550  1.00  0.00    -0.354 N 
ATOM     61  N   UNL A   1      45.975  29.545  31.614  1.00  0.00    -0.248 NA
ATOM     62  C   UNL A   1      47.949  28.335  31.295  1.00  0.00     0.031 C 
ATOM     63  C   UNL A   1      42.274  27.908  33.374  1.00  0.00     0.029 A 
ATOM     64  C   UNL A   1      43.448  28.385  32.819  1.00  0.00     0.049 A 
ATOM     65  H   UNL A   1      43.914  30.339  32.165  1.00  0.00     0.167 HD
ATOM     66  C   UNL A   1      45.780  28.229  32.017  1.00  0.00     0.074 A 
ATOM     67  C   UNL A   1      47.015  27.521  31.763  1.00  0.00     0.031 C 
ATOM     68  C   UNL A   1      44.668  27.665  32.547  1.00  0.00     0.034 A 
BRANCH  55  69
ATOM     69  C   UNL A   1      39.984  31.667  33.254  1.00  0.00     0.023 A 
ATOM     70  C   UNL A   1      39.733  31.852  34.624  1.00  0.00     0.031 A 
ATOM     71  C   UNL A   1      38.884  31.665  32.380  1.00  0.00     0.131 A 
ATOM     72  C   UNL A   1      38.417  31.884  35.098  1.00  0.00     0.055 A 
ATOM     73  C   UNL A   1      37.576  31.815  32.849  1.00  0.00     0.041 A 
ATOM     74  F   UNL A   1      39.056  31.490  31.060  1.00  0.00    -0.206 F 
ATOM     75  C   UNL A   1      37.334  31.899  34.219  1.00  0.00     0.022 A 
BRANCH  72  76
ATOM     76  S   UNL A   1      38.151  31.707  36.882  1.00  0.00     0.124 S 
ATOM     77  O   UNL A   1      37.083  32.678  37.114  1.00  0.00    -0.237 OA
ATOM     78  O   UNL A   1      37.775  30.304  37.011  1.00  0.00    -0.237 OA
ATOM     79  O   UNL A   1      39.444  32.065  37.458  1.00  0.00    -0.744 OA
ENDBRANCH  72  76
ENDBRANCH  55  69
BRANCH  56  80
ATOM     80  C   UNL A   1      49.374  30.609  30.172  1.00  0.00     0.023 A 
ATOM     81  C   UNL A   1      49.720  30.179  28.880  1.00  0.00     0.031 A 
ATOM     82  C   UNL A   1      50.416  30.816  31.093  1.00  0.00     0.131 A 
ATOM     83  C   UNL A   1      51.059  29.892  28.567  1.00  0.00     0.055 A 
ATOM     84  C   UNL A   1      51.755  30.592  30.758  1.00  0.00     0.041 A 
ATOM     85  F   UNL A   1      50.149  31.244  32.337  1.00  0.00    -0.206 F 
ATOM     86  C   UNL A   1      52.080  30.105  29.495  1.00  0.00     0.022 A 
BRANCH  83  87
ATOM     87  S   UNL A   1      51.429  29.114  26.969  1.00  0.00     0.124 S 
ATOM     88  O   UNL A   1      50.526  29.830  26.077  1.00  0.00    -0.237 OA
ATOM     89  O   UNL A   1      52.850  29.403  26.814  1.00  0.00    -0.237 OA
ATOM     90  O   UNL A   1      51.100  27.707  27.192  1.00  0.00    -0.744 OA
ENDBRANCH  83  87
ENDBRANCH  56  80
BRANCH  68  91
ATOM     91  C   UNL A   1      44.708  26.183  32.807  1.00  0.00     0.023 A 
ATOM     92  C   UNL A   1      45.116  25.654  34.043  1.00  0.00     0.031 A 
ATOM     93  C   UNL A   1      44.341  25.285  31.788  1.00  0.00     0.131 A 
ATOM     94  C   UNL A   1      45.190  24.264  34.217  1.00  0.00     0.055 A 
ATOM     95  C   UNL A   1      44.362  23.904  31.986  1.00  0.00     0.041 A 
ATOM     96  F   UNL A   1      43.952  25.738  30.586  1.00  0.00    -0.206 F 
ATOM     97  C   UNL A   1      44.798  23.386  33.202  1.00  0.00     0.022 A 
BRANCH  94  98
ATOM     98  S   UNL A   1      45.872  23.613  35.766  1.00  0.00     0.124 S 
ATOM     99  O   UNL A   1      44.920  22.558  36.097  1.00  0.00    -0.237 OA
ATOM    100  O   UNL A   1      47.201  23.168  35.359  1.00  0.00    -0.237 OA
ATOM    101  O   UNL A   1      45.854  24.769  36.660  1.00  0.00    -0.744 OA
ENDBRANCH  94  98
ENDBRANCH  68  91
ENDBRANCH  42  43
ENDBRANCH  34  37
ENDBRANCH  32  33
ENDBRANCH  31  32
ENDBRANCH   1  31
TORSDOF 19
ENDMDL
