MODEL 1
REMARK VINA RESULT:     -13.7      0.000      0.000
REMARK SMILES O=C(NCCCNC(=O)[C@@H](Cc1ccccc1)/N=C1\C(=O)c2ccccc2C(=O)[C@H]1Cl)c1ccc(-c2c3nc(c(-c4cc(S(=O)(=O)[O-])ccc4F)c4ccc([nH]4)c(-c4cc(S(=O)(=O)[O-])ccc4F)c4nc(c(-c5cc(S(=O)(=O)[O-])ccc5F)c5ccc2[nH]5)C=C4)C=C3)cc1
REMARK SMILES IDX 4 1 3 2 1 3 2 4 32 6 33 7 94 8 34 9 93 10 35 11 36 12 37 13
REMARK SMILES IDX 87 14 38 15 92 16 86 17 88 18 39 19 91 20 85 21 84 22 40 24
REMARK SMILES IDX 72 25 52 26 71 27 53 28 56 29 70 30 89 31 54 32 55 33 69 35
REMARK SMILES IDX 90 36 57 37 41 38 42 39 50 40 43 41 49 42 51 43 48 44 44 45
REMARK SMILES IDX 45 46 46 47 47 48 73 49 74 50 82 51 75 52 81 53 83 54 80 55
REMARK SMILES IDX 76 56 77 57 78 58 79 59 58 60 59 61 67 62 60 63 66 64 68 65
REMARK SMILES IDX 65 66 61 67 62 68 63 69 64 70 5 71 6 72 7 73 8 74 9 76 10 77
REMARK SMILES IDX 11 78 12 79 13 80 17 81 14 82 16 83 15 84 18 85 19 86 20 87
REMARK SMILES IDX 30 88 21 89 22 90 28 91 31 92 23 93 27 94 29 95 24 96 26 97
REMARK SMILES IDX 25 98
REMARK H PARENT 3 5 88 23 56 34 7 75
REMARK Flexibility Score: inf
ROOT
ATOM      1  C   UNL A   1      32.461  29.433  25.715  1.00  0.00     0.118 C 
ENDROOT
BRANCH   1   2
ATOM      2  N   UNL A   1      32.268  30.766  26.277  1.00  0.00    -0.352 N 
ATOM      3  O   UNL A   1      32.463  32.721  27.278  1.00  0.00    -0.269 OA
ATOM      4  C   UNL A   1      32.997  31.629  27.056  1.00  0.00     0.251 C 
ATOM      5  H   UNL A   1      31.390  31.141  26.037  1.00  0.00     0.163 HD
BRANCH   4   6
ATOM      6  C   UNL A   1      34.337  31.358  27.660  1.00  0.00     0.039 A 
ATOM      7  C   UNL A   1      35.337  32.305  27.863  1.00  0.00     0.014 A 
ATOM      8  C   UNL A   1      34.598  30.036  28.079  1.00  0.00     0.014 A 
ATOM      9  C   UNL A   1      36.567  31.942  28.426  1.00  0.00     0.010 A 
ATOM     10  C   UNL A   1      35.806  29.680  28.698  1.00  0.00     0.010 A 
ATOM     11  C   UNL A   1      36.810  30.636  28.874  1.00  0.00    -0.014 A 
BRANCH  11  12
ATOM     12  C   UNL A   1      38.073  30.349  29.607  1.00  0.00     0.031 A 
ATOM     13  C   UNL A   1      38.298  30.817  31.016  1.00  0.00     0.074 A 
ATOM     14  C   UNL A   1      39.011  29.601  28.992  1.00  0.00     0.049 A 
ATOM     15  N   UNL A   1      39.262  30.499  31.845  1.00  0.00    -0.248 NA
ATOM     16  C   UNL A   1      37.331  31.779  31.560  1.00  0.00     0.031 C 
ATOM     17  C   UNL A   1      38.936  29.138  27.603  1.00  0.00     0.029 A 
ATOM     18  N   UNL A   1      40.185  29.064  29.456  1.00  0.00    -0.354 N 
ATOM     19  C   UNL A   1      39.023  31.221  33.009  1.00  0.00     0.074 A 
ATOM     20  C   UNL A   1      37.843  32.025  32.760  1.00  0.00     0.031 C 
ATOM     21  C   UNL A   1      39.975  28.329  27.353  1.00  0.00     0.029 A 
ATOM     22  C   UNL A   1      40.808  28.239  28.547  1.00  0.00     0.049 A 
ATOM     23  H   UNL A   1      40.546  29.250  30.353  1.00  0.00     0.167 HD
ATOM     24  C   UNL A   1      39.719  31.206  34.175  1.00  0.00     0.034 A 
ATOM     25  C   UNL A   1      41.911  27.475  28.666  1.00  0.00     0.034 A 
ATOM     26  C   UNL A   1      40.896  30.400  34.409  1.00  0.00     0.049 A 
ATOM     27  C   UNL A   1      42.641  27.444  29.981  1.00  0.00     0.074 A 
ATOM     28  C   UNL A   1      41.640  30.273  35.571  1.00  0.00     0.029 A 
ATOM     29  N   UNL A   1      41.510  29.593  33.460  1.00  0.00    -0.354 N 
ATOM     30  N   UNL A   1      42.359  28.079  31.095  1.00  0.00    -0.248 NA
ATOM     31  C   UNL A   1      43.828  26.585  30.056  1.00  0.00     0.031 C 
ATOM     32  C   UNL A   1      42.733  29.436  35.308  1.00  0.00     0.029 A 
ATOM     33  C   UNL A   1      42.638  28.990  33.999  1.00  0.00     0.049 A 
ATOM     34  H   UNL A   1      41.192  29.467  32.537  1.00  0.00     0.167 HD
ATOM     35  C   UNL A   1      43.332  27.684  32.008  1.00  0.00     0.074 A 
ATOM     36  C   UNL A   1      44.188  26.738  31.322  1.00  0.00     0.031 C 
ATOM     37  C   UNL A   1      43.502  28.071  33.298  1.00  0.00     0.034 A 
BRANCH  24  38
ATOM     38  C   UNL A   1      39.239  32.120  35.279  1.00  0.00     0.023 A 
ATOM     39  C   UNL A   1      39.661  33.458  35.366  1.00  0.00     0.031 A 
ATOM     40  C   UNL A   1      38.361  31.641  36.268  1.00  0.00     0.131 A 
ATOM     41  C   UNL A   1      39.263  34.249  36.455  1.00  0.00     0.055 A 
ATOM     42  C   UNL A   1      37.911  32.456  37.310  1.00  0.00     0.041 A 
ATOM     43  F   UNL A   1      37.936  30.368  36.247  1.00  0.00    -0.206 F 
ATOM     44  C   UNL A   1      38.373  33.763  37.416  1.00  0.00     0.022 A 
BRANCH  41  45
ATOM     45  S   UNL A   1      40.038  35.875  36.673  1.00  0.00     0.124 S 
ATOM     46  O   UNL A   1      39.659  36.552  35.434  1.00  0.00    -0.237 OA
ATOM     47  O   UNL A   1      39.401  36.365  37.889  1.00  0.00    -0.237 OA
ATOM     48  O   UNL A   1      41.460  35.563  36.793  1.00  0.00    -0.744 OA
ENDBRANCH  41  45
ENDBRANCH  24  38
BRANCH  25  49
ATOM     49  C   UNL A   1      42.382  26.659  27.514  1.00  0.00     0.023 A 
ATOM     50  C   UNL A   1      42.039  25.302  27.400  1.00  0.00     0.031 A 
ATOM     51  C   UNL A   1      43.195  27.224  26.516  1.00  0.00     0.131 A 
ATOM     52  C   UNL A   1      42.534  24.546  26.327  1.00  0.00     0.055 A 
ATOM     53  C   UNL A   1      43.651  26.477  25.428  1.00  0.00     0.041 A 
ATOM     54  F   UNL A   1      43.541  28.520  26.576  1.00  0.00    -0.206 F 
ATOM     55  C   UNL A   1      43.329  25.127  25.336  1.00  0.00     0.022 A 
BRANCH  52  56
ATOM     56  S   UNL A   1      42.172  22.770  26.275  1.00  0.00     0.124 S 
ATOM     57  O   UNL A   1      42.905  22.281  27.438  1.00  0.00    -0.237 OA
ATOM     58  O   UNL A   1      40.716  22.755  26.382  1.00  0.00    -0.237 OA
ATOM     59  O   UNL A   1      42.703  22.351  24.980  1.00  0.00    -0.744 OA
ENDBRANCH  52  56
ENDBRANCH  25  49
BRANCH  37  60
ATOM     60  C   UNL A   1      44.656  27.447  34.042  1.00  0.00     0.023 A 
ATOM     61  C   UNL A   1      44.493  26.276  34.803  1.00  0.00     0.031 A 
ATOM     62  C   UNL A   1      45.923  28.055  34.023  1.00  0.00     0.131 A 
ATOM     63  C   UNL A   1      45.562  25.783  35.565  1.00  0.00     0.055 A 
ATOM     64  C   UNL A   1      46.999  27.530  34.743  1.00  0.00     0.041 A 
ATOM     65  F   UNL A   1      46.133  29.176  33.314  1.00  0.00    -0.206 F 
ATOM     66  C   UNL A   1      46.818  26.396  35.530  1.00  0.00     0.022 A 
BRANCH  63  67
ATOM     67  S   UNL A   1      45.265  24.384  36.682  1.00  0.00     0.124 S 
ATOM     68  O   UNL A   1      46.602  23.816  36.822  1.00  0.00    -0.237 OA
ATOM     69  O   UNL A   1      44.724  25.041  37.866  1.00  0.00    -0.237 OA
ATOM     70  O   UNL A   1      44.314  23.554  35.945  1.00  0.00    -0.744 OA
ENDBRANCH  63  67
ENDBRANCH  37  60
ENDBRANCH  11  12
ENDBRANCH   4   6
ENDBRANCH   1   2
BRANCH   1  71
ATOM     71  C   UNL A   1      31.412  28.396  26.120  1.00  0.00     0.042 C 
BRANCH  71  72
ATOM     72  C   UNL A   1      31.983  27.015  26.391  1.00  0.00     0.117 C 
BRANCH  72  73
ATOM     73  N   UNL A   1      31.101  25.996  26.883  1.00  0.00    -0.354 N 
ATOM     74  C   UNL A   1      31.062  24.696  26.463  1.00  0.00     0.245 C 
ATOM     75  H   UNL A   1      30.466  26.257  27.588  1.00  0.00     0.163 HD
ATOM     76  O   UNL A   1      30.585  23.899  27.287  1.00  0.00    -0.273 OA
BRANCH  74  77
ATOM     77  C   UNL A   1      31.500  24.182  25.053  1.00  0.00     0.199 C 
BRANCH  77  78
ATOM     78  C   UNL A   1      30.703  24.503  23.769  1.00  0.00     0.073 C 
BRANCH  78  79
ATOM     79  C   UNL A   1      30.266  25.909  23.449  1.00  0.00    -0.045 A 
ATOM     80  C   UNL A   1      31.122  26.771  22.747  1.00  0.00     0.004 A 
ATOM     81  C   UNL A   1      29.020  26.397  23.870  1.00  0.00     0.004 A 
ATOM     82  C   UNL A   1      30.705  28.049  22.380  1.00  0.00     0.000 A 
ATOM     83  C   UNL A   1      28.606  27.682  23.511  1.00  0.00     0.000 A 
ATOM     84  C   UNL A   1      29.442  28.500  22.751  1.00  0.00     0.000 A 
ENDBRANCH  78  79
ENDBRANCH  77  78
BRANCH  77  85
ATOM     85  N   UNL A   1      32.902  23.737  24.900  1.00  0.00    -0.270 NA
ATOM     86  C   UNL A   1      33.452  22.590  24.734  1.00  0.00     0.109 C 
ATOM     87  C   UNL A   1      32.773  21.260  24.593  1.00  0.00     0.209 C 
ATOM     88  C   UNL A   1      34.958  22.522  24.676  1.00  0.00     0.205 C 
ATOM     89  O   UNL A   1      31.575  21.143  24.758  1.00  0.00    -0.287 OA
ATOM     90  C   UNL A   1      33.535  20.038  24.366  1.00  0.00     0.035 A 
ATOM     91  C   UNL A   1      35.569  21.217  25.132  1.00  0.00     0.187 C 
ATOM     92  Cl  UNL A   1      35.458  22.794  22.981  1.00  0.00    -0.107 Cl
ATOM     93  C   UNL A   1      32.868  18.897  23.906  1.00  0.00     0.013 A 
ATOM     94  C   UNL A   1      34.864  19.974  24.758  1.00  0.00     0.031 A 
ATOM     95  O   UNL A   1      36.652  21.153  25.707  1.00  0.00    -0.292 OA
ATOM     96  C   UNL A   1      33.523  17.670  23.893  1.00  0.00     0.001 A 
ATOM     97  C   UNL A   1      35.509  18.734  24.786  1.00  0.00     0.012 A 
ATOM     98  C   UNL A   1      34.833  17.583  24.361  1.00  0.00     0.001 A 
ENDBRANCH  77  85
ENDBRANCH  74  77
ENDBRANCH  72  73
ENDBRANCH  71  72
ENDBRANCH   1  71
TORSDOF 16
ENDMDL
MODEL 2
REMARK VINA RESULT:     -13.7      1.295      1.645
REMARK SMILES O=C(NCCCNC(=O)[C@@H](Cc1ccccc1)/N=C1\C(=O)c2ccccc2C(=O)[C@H]1Cl)c1ccc(-c2c3nc(c(-c4cc(S(=O)(=O)[O-])ccc4F)c4ccc([nH]4)c(-c4cc(S(=O)(=O)[O-])ccc4F)c4nc(c(-c5cc(S(=O)(=O)[O-])ccc5F)c5ccc2[nH]5)C=C4)C=C3)cc1
REMARK SMILES IDX 4 1 3 2 1 3 2 4 32 6 33 7 94 8 34 9 93 10 35 11 36 12 37 13
REMARK SMILES IDX 87 14 38 15 92 16 86 17 88 18 39 19 91 20 85 21 84 22 40 24
REMARK SMILES IDX 72 25 52 26 71 27 53 28 56 29 70 30 89 31 54 32 55 33 69 35
REMARK SMILES IDX 90 36 57 37 41 38 42 39 50 40 43 41 49 42 51 43 48 44 44 45
REMARK SMILES IDX 45 46 46 47 47 48 73 49 74 50 82 51 75 52 81 53 83 54 80 55
REMARK SMILES IDX 76 56 77 57 78 58 79 59 58 60 59 61 67 62 60 63 66 64 68 65
REMARK SMILES IDX 65 66 61 67 62 68 63 69 64 70 5 71 6 72 7 73 8 74 9 76 10 77
REMARK SMILES IDX 11 78 12 79 13 80 17 81 14 82 16 83 15 84 18 85 19 86 20 87
REMARK SMILES IDX 30 88 21 89 22 90 28 91 31 92 23 93 27 94 29 95 24 96 26 97
REMARK SMILES IDX 25 98
REMARK H PARENT 3 5 88 23 56 34 7 75
REMARK Flexibility Score: inf
ROOT
ATOM      1  C   UNL A   1      32.621  29.425  25.628  1.00  0.00     0.118 C 
ENDROOT
BRANCH   1   2
ATOM      2  N   UNL A   1      32.393  30.710  26.282  1.00  0.00    -0.352 N 
ATOM      3  O   UNL A   1      32.536  32.592  27.421  1.00  0.00    -0.269 OA
ATOM      4  C   UNL A   1      33.096  31.530  27.128  1.00  0.00     0.251 C 
ATOM      5  H   UNL A   1      31.510  31.082  26.059  1.00  0.00     0.163 HD
BRANCH   4   6
ATOM      6  C   UNL A   1      34.436  31.245  27.726  1.00  0.00     0.039 A 
ATOM      7  C   UNL A   1      35.423  32.193  27.981  1.00  0.00     0.014 A 
ATOM      8  C   UNL A   1      34.710  29.907  28.080  1.00  0.00     0.014 A 
ATOM      9  C   UNL A   1      36.655  31.817  28.532  1.00  0.00     0.010 A 
ATOM     10  C   UNL A   1      35.920  29.535  28.688  1.00  0.00     0.010 A 
ATOM     11  C   UNL A   1      36.910  30.492  28.917  1.00  0.00    -0.014 A 
BRANCH  11  12
ATOM     12  C   UNL A   1      38.173  30.184  29.643  1.00  0.00     0.031 A 
ATOM     13  C   UNL A   1      38.417  30.653  31.049  1.00  0.00     0.074 A 
ATOM     14  C   UNL A   1      39.093  29.417  29.024  1.00  0.00     0.049 A 
ATOM     15  N   UNL A   1      39.380  30.319  31.872  1.00  0.00    -0.248 NA
ATOM     16  C   UNL A   1      37.471  31.634  31.596  1.00  0.00     0.031 C 
ATOM     17  C   UNL A   1      38.999  28.952  27.637  1.00  0.00     0.029 A 
ATOM     18  N   UNL A   1      40.260  28.860  29.481  1.00  0.00    -0.354 N 
ATOM     19  C   UNL A   1      39.163  31.048  33.035  1.00  0.00     0.074 A 
ATOM     20  C   UNL A   1      37.996  31.873  32.791  1.00  0.00     0.031 C 
ATOM     21  C   UNL A   1      40.022  28.123  27.382  1.00  0.00     0.029 A 
ATOM     22  C   UNL A   1      40.861  28.021  28.570  1.00  0.00     0.049 A 
ATOM     23  H   UNL A   1      40.631  29.042  30.375  1.00  0.00     0.167 HD
ATOM     24  C   UNL A   1      39.865  31.024  34.197  1.00  0.00     0.034 A 
ATOM     25  C   UNL A   1      41.950  27.236  28.684  1.00  0.00     0.034 A 
ATOM     26  C   UNL A   1      41.029  30.198  34.425  1.00  0.00     0.049 A 
ATOM     27  C   UNL A   1      42.689  27.197  29.994  1.00  0.00     0.074 A 
ATOM     28  C   UNL A   1      41.779  30.060  35.582  1.00  0.00     0.029 A 
ATOM     29  N   UNL A   1      41.622  29.376  33.474  1.00  0.00    -0.354 N 
ATOM     30  N   UNL A   1      42.427  27.840  31.109  1.00  0.00    -0.248 NA
ATOM     31  C   UNL A   1      43.860  26.315  30.064  1.00  0.00     0.031 C 
ATOM     32  C   UNL A   1      42.855  29.202  35.314  1.00  0.00     0.029 A 
ATOM     33  C   UNL A   1      42.742  28.754  34.008  1.00  0.00     0.049 A 
ATOM     34  H   UNL A   1      41.295  29.253  32.554  1.00  0.00     0.167 HD
ATOM     35  C   UNL A   1      43.398  27.430  32.016  1.00  0.00     0.074 A 
ATOM     36  C   UNL A   1      44.231  26.466  31.327  1.00  0.00     0.031 C 
ATOM     37  C   UNL A   1      43.584  27.817  33.304  1.00  0.00     0.034 A 
BRANCH  24  38
ATOM     38  C   UNL A   1      39.410  31.950  35.301  1.00  0.00     0.023 A 
ATOM     39  C   UNL A   1      38.733  31.470  36.436  1.00  0.00     0.031 A 
ATOM     40  C   UNL A   1      39.640  33.334  35.209  1.00  0.00     0.131 A 
ATOM     41  C   UNL A   1      38.248  32.371  37.396  1.00  0.00     0.055 A 
ATOM     42  C   UNL A   1      39.219  34.219  36.205  1.00  0.00     0.041 A 
ATOM     43  F   UNL A   1      40.267  33.853  34.141  1.00  0.00    -0.206 F 
ATOM     44  C   UNL A   1      38.506  33.741  37.299  1.00  0.00     0.022 A 
BRANCH  41  45
ATOM     45  S   UNL A   1      37.156  31.742  38.700  1.00  0.00     0.124 S 
ATOM     46  O   UNL A   1      35.988  32.609  38.553  1.00  0.00    -0.237 OA
ATOM     47  O   UNL A   1      36.971  30.350  38.310  1.00  0.00    -0.237 OA
ATOM     48  O   UNL A   1      37.926  31.951  39.924  1.00  0.00    -0.744 OA
ENDBRANCH  41  45
ENDBRANCH  24  38
BRANCH  25  49
ATOM     49  C   UNL A   1      42.398  26.409  27.531  1.00  0.00     0.023 A 
ATOM     50  C   UNL A   1      42.016  25.063  27.415  1.00  0.00     0.031 A 
ATOM     51  C   UNL A   1      43.229  26.951  26.535  1.00  0.00     0.131 A 
ATOM     52  C   UNL A   1      42.490  24.293  26.342  1.00  0.00     0.055 A 
ATOM     53  C   UNL A   1      43.663  26.193  25.447  1.00  0.00     0.041 A 
ATOM     54  F   UNL A   1      43.612  28.236  26.597  1.00  0.00    -0.206 F 
ATOM     55  C   UNL A   1      43.302  24.852  25.353  1.00  0.00     0.022 A 
BRANCH  52  56
ATOM     56  S   UNL A   1      42.076  22.529  26.288  1.00  0.00     0.124 S 
ATOM     57  O   UNL A   1      42.652  22.126  25.010  1.00  0.00    -0.237 OA
ATOM     58  O   UNL A   1      42.746  22.024  27.482  1.00  0.00    -0.237 OA
ATOM     59  O   UNL A   1      40.616  22.520  26.346  1.00  0.00    -0.744 OA
ENDBRANCH  52  56
ENDBRANCH  25  49
BRANCH  37  60
ATOM     60  C   UNL A   1      44.732  27.174  34.041  1.00  0.00     0.023 A 
ATOM     61  C   UNL A   1      44.572  25.961  34.735  1.00  0.00     0.031 A 
ATOM     62  C   UNL A   1      45.987  27.804  34.086  1.00  0.00     0.131 A 
ATOM     63  C   UNL A   1      45.632  25.446  35.496  1.00  0.00     0.055 A 
ATOM     64  C   UNL A   1      47.055  27.260  34.804  1.00  0.00     0.041 A 
ATOM     65  F   UNL A   1      46.193  28.964  33.444  1.00  0.00    -0.206 F 
ATOM     66  C   UNL A   1      46.876  26.082  35.525  1.00  0.00     0.022 A 
BRANCH  63  67
ATOM     67  S   UNL A   1      45.334  23.984  36.529  1.00  0.00     0.124 S 
ATOM     68  O   UNL A   1      44.991  24.584  37.814  1.00  0.00    -0.237 OA
ATOM     69  O   UNL A   1      44.243  23.322  35.823  1.00  0.00    -0.237 OA
ATOM     70  O   UNL A   1      46.612  23.276  36.497  1.00  0.00    -0.744 OA
ENDBRANCH  63  67
ENDBRANCH  37  60
ENDBRANCH  11  12
ENDBRANCH   4   6
ENDBRANCH   1   2
BRANCH   1  71
ATOM     71  C   UNL A   1      31.553  28.362  25.890  1.00  0.00     0.042 C 
BRANCH  71  72
ATOM     72  C   UNL A   1      32.106  27.049  26.417  1.00  0.00     0.117 C 
BRANCH  72  73
ATOM     73  N   UNL A   1      31.181  26.055  26.880  1.00  0.00    -0.354 N 
ATOM     74  C   UNL A   1      31.108  24.762  26.446  1.00  0.00     0.245 C 
ATOM     75  H   UNL A   1      30.541  26.331  27.575  1.00  0.00     0.163 HD
ATOM     76  O   UNL A   1      30.587  23.973  27.251  1.00  0.00    -0.273 OA
BRANCH  74  77
ATOM     77  C   UNL A   1      31.557  24.247  25.040  1.00  0.00     0.199 C 
BRANCH  77  78
ATOM     78  C   UNL A   1      30.737  24.515  23.758  1.00  0.00     0.073 C 
BRANCH  78  79
ATOM     79  C   UNL A   1      30.287  25.905  23.392  1.00  0.00    -0.045 A 
ATOM     80  C   UNL A   1      29.013  26.356  23.771  1.00  0.00     0.004 A 
ATOM     81  C   UNL A   1      31.106  26.761  22.640  1.00  0.00     0.004 A 
ATOM     82  C   UNL A   1      28.609  27.663  23.503  1.00  0.00     0.000 A 
ATOM     83  C   UNL A   1      30.696  28.068  22.363  1.00  0.00     0.000 A 
ATOM     84  C   UNL A   1      29.457  28.523  22.811  1.00  0.00     0.000 A 
ENDBRANCH  78  79
ENDBRANCH  77  78
BRANCH  77  85
ATOM     85  N   UNL A   1      32.976  23.862  24.882  1.00  0.00    -0.270 NA
ATOM     86  C   UNL A   1      33.578  22.734  24.766  1.00  0.00     0.109 C 
ATOM     87  C   UNL A   1      32.962  21.368  24.711  1.00  0.00     0.209 C 
ATOM     88  C   UNL A   1      35.085  22.736  24.681  1.00  0.00     0.205 C 
ATOM     89  O   UNL A   1      31.774  21.203  24.908  1.00  0.00    -0.287 OA
ATOM     90  C   UNL A   1      33.779  20.173  24.535  1.00  0.00     0.035 A 
ATOM     91  C   UNL A   1      35.766  21.488  25.193  1.00  0.00     0.187 C 
ATOM     92  Cl  UNL A   1      35.539  22.937  22.963  1.00  0.00    -0.107 Cl
ATOM     93  C   UNL A   1      33.159  18.978  24.151  1.00  0.00     0.013 A 
ATOM     94  C   UNL A   1      35.115  20.194  24.901  1.00  0.00     0.031 A 
ATOM     95  O   UNL A   1      36.862  21.507  25.748  1.00  0.00    -0.292 OA
ATOM     96  C   UNL A   1      33.873  17.784  24.190  1.00  0.00     0.001 A 
ATOM     97  C   UNL A   1      35.821  18.990  24.983  1.00  0.00     0.012 A 
ATOM     98  C   UNL A   1      35.194  17.786  24.635  1.00  0.00     0.001 A 
ENDBRANCH  77  85
ENDBRANCH  74  77
ENDBRANCH  72  73
ENDBRANCH  71  72
ENDBRANCH   1  71
TORSDOF 16
ENDMDL
MODEL 3
REMARK VINA RESULT:     -13.3      1.434      2.326
REMARK SMILES O=C(NCCCNC(=O)[C@@H](Cc1ccccc1)/N=C1\C(=O)c2ccccc2C(=O)[C@H]1Cl)c1ccc(-c2c3nc(c(-c4cc(S(=O)(=O)[O-])ccc4F)c4ccc([nH]4)c(-c4cc(S(=O)(=O)[O-])ccc4F)c4nc(c(-c5cc(S(=O)(=O)[O-])ccc5F)c5ccc2[nH]5)C=C4)C=C3)cc1
REMARK SMILES IDX 4 1 3 2 1 3 2 4 32 6 33 7 94 8 34 9 93 10 35 11 36 12 37 13
REMARK SMILES IDX 87 14 38 15 92 16 86 17 88 18 39 19 91 20 85 21 84 22 40 24
REMARK SMILES IDX 72 25 52 26 71 27 53 28 56 29 70 30 89 31 54 32 55 33 69 35
REMARK SMILES IDX 90 36 57 37 41 38 42 39 50 40 43 41 49 42 51 43 48 44 44 45
REMARK SMILES IDX 45 46 46 47 47 48 73 49 74 50 82 51 75 52 81 53 83 54 80 55
REMARK SMILES IDX 76 56 77 57 78 58 79 59 58 60 59 61 67 62 60 63 66 64 68 65
REMARK SMILES IDX 65 66 61 67 62 68 63 69 64 70 5 71 6 72 7 73 8 74 9 76 10 77
REMARK SMILES IDX 11 78 12 79 13 80 17 81 14 82 16 83 15 84 18 85 19 86 20 87
REMARK SMILES IDX 30 88 21 89 22 90 28 91 31 92 23 93 27 94 29 95 24 96 26 97
REMARK SMILES IDX 25 98
REMARK H PARENT 3 5 88 23 56 34 7 75
REMARK Flexibility Score: inf
ROOT
ATOM      1  C   UNL A   1      33.471  28.918  24.804  1.00  0.00     0.118 C 
ENDROOT
BRANCH   1   2
ATOM      2  N   UNL A   1      32.929  30.066  25.523  1.00  0.00    -0.352 N 
ATOM      3  O   UNL A   1      32.549  31.768  26.873  1.00  0.00    -0.269 OA
ATOM      4  C   UNL A   1      33.293  30.816  26.613  1.00  0.00     0.251 C 
ATOM      5  H   UNL A   1      32.087  30.383  25.123  1.00  0.00     0.163 HD
BRANCH   4   6
ATOM      6  C   UNL A   1      34.471  30.573  27.500  1.00  0.00     0.039 A 
ATOM      7  C   UNL A   1      34.729  29.392  28.191  1.00  0.00     0.014 A 
ATOM      8  C   UNL A   1      35.407  31.620  27.627  1.00  0.00     0.014 A 
ATOM      9  C   UNL A   1      35.859  29.272  29.011  1.00  0.00     0.010 A 
ATOM     10  C   UNL A   1      36.572  31.483  28.400  1.00  0.00     0.010 A 
ATOM     11  C   UNL A   1      36.806  30.301  29.106  1.00  0.00    -0.014 A 
BRANCH  11  12
ATOM     12  C   UNL A   1      38.063  30.055  29.865  1.00  0.00     0.031 A 
ATOM     13  C   UNL A   1      38.272  30.592  31.252  1.00  0.00     0.074 A 
ATOM     14  C   UNL A   1      39.010  29.281  29.297  1.00  0.00     0.049 A 
ATOM     15  N   UNL A   1      39.229  30.318  32.105  1.00  0.00    -0.248 NA
ATOM     16  C   UNL A   1      37.296  31.575  31.739  1.00  0.00     0.031 C 
ATOM     17  C   UNL A   1      38.950  28.752  27.931  1.00  0.00     0.029 A 
ATOM     18  N   UNL A   1      40.181  28.771  29.798  1.00  0.00    -0.354 N 
ATOM     19  C   UNL A   1      38.975  31.094  33.230  1.00  0.00     0.074 A 
ATOM     20  C   UNL A   1      37.795  31.881  32.930  1.00  0.00     0.031 C 
ATOM     21  C   UNL A   1      39.995  27.935  27.732  1.00  0.00     0.029 A 
ATOM     22  C   UNL A   1      40.815  27.906  28.937  1.00  0.00     0.049 A 
ATOM     23  H   UNL A   1      40.532  29.002  30.689  1.00  0.00     0.167 HD
ATOM     24  C   UNL A   1      39.659  31.139  34.403  1.00  0.00     0.034 A 
ATOM     25  C   UNL A   1      41.919  27.152  29.104  1.00  0.00     0.034 A 
ATOM     26  C   UNL A   1      40.836  30.350  34.687  1.00  0.00     0.049 A 
ATOM     27  C   UNL A   1      42.635  27.188  30.426  1.00  0.00     0.074 A 
ATOM     28  C   UNL A   1      41.569  30.281  35.861  1.00  0.00     0.029 A 
ATOM     29  N   UNL A   1      41.462  29.500  33.785  1.00  0.00    -0.354 N 
ATOM     30  N   UNL A   1      42.341  27.875  31.505  1.00  0.00    -0.248 NA
ATOM     31  C   UNL A   1      43.824  26.338  30.555  1.00  0.00     0.031 C 
ATOM     32  C   UNL A   1      42.667  29.437  35.650  1.00  0.00     0.029 A 
ATOM     33  C   UNL A   1      42.587  28.928  34.364  1.00  0.00     0.049 A 
ATOM     34  H   UNL A   1      41.154  29.327  32.866  1.00  0.00     0.167 HD
ATOM     35  C   UNL A   1      43.305  27.529  32.446  1.00  0.00     0.074 A 
ATOM     36  C   UNL A   1      44.171  26.554  31.815  1.00  0.00     0.031 C 
ATOM     37  C   UNL A   1      43.460  27.978  33.718  1.00  0.00     0.034 A 
BRANCH  24  38
ATOM     38  C   UNL A   1      39.164  32.104  35.456  1.00  0.00     0.023 A 
ATOM     39  C   UNL A   1      39.619  33.433  35.511  1.00  0.00     0.031 A 
ATOM     40  C   UNL A   1      38.241  31.683  36.429  1.00  0.00     0.131 A 
ATOM     41  C   UNL A   1      39.204  34.272  36.557  1.00  0.00     0.055 A 
ATOM     42  C   UNL A   1      37.775  32.545  37.424  1.00  0.00     0.041 A 
ATOM     43  F   UNL A   1      37.784  30.421  36.437  1.00  0.00    -0.206 F 
ATOM     44  C   UNL A   1      38.268  33.844  37.501  1.00  0.00     0.022 A 
BRANCH  41  45
ATOM     45  S   UNL A   1      40.012  35.885  36.745  1.00  0.00     0.124 S 
ATOM     46  O   UNL A   1      41.414  35.499  36.890  1.00  0.00    -0.237 OA
ATOM     47  O   UNL A   1      39.661  36.559  35.501  1.00  0.00    -0.237 OA
ATOM     48  O   UNL A   1      39.399  36.437  37.950  1.00  0.00    -0.744 OA
ENDBRANCH  41  45
ENDBRANCH  24  38
BRANCH  25  49
ATOM     49  C   UNL A   1      42.404  26.283  27.998  1.00  0.00     0.023 A 
ATOM     50  C   UNL A   1      41.928  24.971  27.846  1.00  0.00     0.031 A 
ATOM     51  C   UNL A   1      43.365  26.750  27.083  1.00  0.00     0.131 A 
ATOM     52  C   UNL A   1      42.436  24.159  26.821  1.00  0.00     0.055 A 
ATOM     53  C   UNL A   1      43.836  25.952  26.040  1.00  0.00     0.041 A 
ATOM     54  F   UNL A   1      43.843  28.001  27.181  1.00  0.00    -0.206 F 
ATOM     55  C   UNL A   1      43.379  24.644  25.912  1.00  0.00     0.022 A 
BRANCH  52  56
ATOM     56  S   UNL A   1      41.889  22.433  26.728  1.00  0.00     0.124 S 
ATOM     57  O   UNL A   1      42.285  22.067  25.373  1.00  0.00    -0.237 OA
ATOM     58  O   UNL A   1      42.651  21.815  27.809  1.00  0.00    -0.237 OA
ATOM     59  O   UNL A   1      40.448  22.520  26.955  1.00  0.00    -0.744 OA
ENDBRANCH  52  56
ENDBRANCH  25  49
BRANCH  37  60
ATOM     60  C   UNL A   1      44.609  27.395  34.502  1.00  0.00     0.023 A 
ATOM     61  C   UNL A   1      44.458  26.223  35.264  1.00  0.00     0.031 A 
ATOM     62  C   UNL A   1      45.855  28.044  34.522  1.00  0.00     0.131 A 
ATOM     63  C   UNL A   1      45.517  25.768  36.064  1.00  0.00     0.055 A 
ATOM     64  C   UNL A   1      46.923  27.558  35.280  1.00  0.00     0.041 A 
ATOM     65  F   UNL A   1      46.052  29.168  33.816  1.00  0.00    -0.206 F 
ATOM     66  C   UNL A   1      46.753  26.422  36.067  1.00  0.00     0.022 A 
BRANCH  63  67
ATOM     67  S   UNL A   1      45.228  24.365  37.177  1.00  0.00     0.124 S 
ATOM     68  O   UNL A   1      44.157  24.868  38.030  1.00  0.00    -0.237 OA
ATOM     69  O   UNL A   1      44.859  23.302  36.248  1.00  0.00    -0.237 OA
ATOM     70  O   UNL A   1      46.517  24.184  37.843  1.00  0.00    -0.744 OA
ENDBRANCH  63  67
ENDBRANCH  37  60
ENDBRANCH  11  12
ENDBRANCH   4   6
ENDBRANCH   1   2
BRANCH   1  71
ATOM     71  C   UNL A   1      33.376  28.999  23.279  1.00  0.00     0.042 C 
BRANCH  71  72
ATOM     72  C   UNL A   1      33.918  27.774  22.561  1.00  0.00     0.117 C 
BRANCH  72  73
ATOM     73  N   UNL A   1      33.044  27.058  21.678  1.00  0.00    -0.354 N 
ATOM     74  C   UNL A   1      31.811  26.561  21.996  1.00  0.00     0.245 C 
ATOM     75  H   UNL A   1      33.361  26.912  20.757  1.00  0.00     0.163 HD
ATOM     76  O   UNL A   1      31.053  26.395  21.027  1.00  0.00    -0.273 OA
BRANCH  74  77
ATOM     77  C   UNL A   1      31.339  26.146  23.427  1.00  0.00     0.199 C 
BRANCH  77  78
ATOM     78  C   UNL A   1      30.541  27.098  24.346  1.00  0.00     0.073 C 
BRANCH  78  79
ATOM     79  C   UNL A   1      29.550  28.083  23.782  1.00  0.00    -0.045 A 
ATOM     80  C   UNL A   1      28.236  27.678  23.502  1.00  0.00     0.004 A 
ATOM     81  C   UNL A   1      29.921  29.404  23.494  1.00  0.00     0.004 A 
ATOM     82  C   UNL A   1      27.287  28.593  23.050  1.00  0.00     0.000 A 
ATOM     83  C   UNL A   1      28.972  30.320  23.030  1.00  0.00     0.000 A 
ATOM     84  C   UNL A   1      27.653  29.917  22.826  1.00  0.00     0.000 A 
ENDBRANCH  78  79
ENDBRANCH  77  78
BRANCH  77  85
ATOM     85  N   UNL A   1      31.300  24.700  23.734  1.00  0.00    -0.270 NA
ATOM     86  C   UNL A   1      32.185  23.853  24.116  1.00  0.00     0.109 C 
ATOM     87  C   UNL A   1      33.628  24.115  24.430  1.00  0.00     0.209 C 
ATOM     88  C   UNL A   1      31.771  22.411  24.275  1.00  0.00     0.205 C 
ATOM     89  O   UNL A   1      34.134  25.198  24.214  1.00  0.00    -0.287 OA
ATOM     90  C   UNL A   1      34.510  23.051  24.896  1.00  0.00     0.035 A 
ATOM     91  C   UNL A   1      32.870  21.393  24.074  1.00  0.00     0.187 C 
ATOM     92  Cl  UNL A   1      31.130  22.199  25.931  1.00  0.00    -0.107 Cl
ATOM     93  C   UNL A   1      35.728  23.392  25.494  1.00  0.00     0.013 A 
ATOM     94  C   UNL A   1      34.208  21.730  24.601  1.00  0.00     0.031 A 
ATOM     95  O   UNL A   1      32.670  20.285  23.583  1.00  0.00    -0.292 OA
ATOM     96  C   UNL A   1      36.676  22.405  25.745  1.00  0.00     0.001 A 
ATOM     97  C   UNL A   1      35.177  20.744  24.812  1.00  0.00     0.012 A 
ATOM     98  C   UNL A   1      36.413  21.087  25.376  1.00  0.00     0.001 A 
ENDBRANCH  77  85
ENDBRANCH  74  77
ENDBRANCH  72  73
ENDBRANCH  71  72
ENDBRANCH   1  71
TORSDOF 16
ENDMDL
