MODEL 1
REMARK VINA RESULT:      -9.5      0.000      0.000
REMARK SMILES CC[C@H](Nc1cccc(C(F)(F)F)c1)C(=O)NCCCNC(=O)c1ccc(-c2c3nc(c(-c4cc(S(=O)(=O)[O-])ccc4F)c4ccc([nH]4)c(-c4cc(S(=O)(=O)[O-])ccc4F)c4nc(c(-c5cc(S(=O)(=O)[O-])ccc5F)c5ccc2[nH]5)C=C4)C=C3)cc1
REMARK SMILES IDX 19 1 18 2 17 3 15 4 16 5 3 7 2 8 1 9 4 10 5 12 6 13 14 14
REMARK SMILES IDX 7 15 9 16 8 17 10 18 11 19 12 20 13 21 20 22 21 23 22 24
REMARK SMILES IDX 23 26 24 27 25 28 86 29 26 30 85 31 27 32 28 33 29 34 79 35
REMARK SMILES IDX 30 36 84 37 78 38 80 39 31 40 83 41 77 42 76 43 32 45 64 46
REMARK SMILES IDX 44 47 63 48 45 49 48 50 62 51 81 52 46 53 47 54 61 56 82 57
REMARK SMILES IDX 49 58 33 59 34 60 42 61 35 62 41 63 43 64 40 65 36 66 37 67
REMARK SMILES IDX 38 68 39 69 65 70 66 71 74 72 67 73 73 74 75 75 72 76 68 77
REMARK SMILES IDX 69 78 70 79 71 80 50 81 51 82 59 83 52 84 58 85 60 86 57 87
REMARK SMILES IDX 53 88 54 89 55 90 56 91
REMARK H PARENT 17 6 4 11 21 25 80 44 48 55
REMARK Flexibility Score: inf
ROOT
ATOM      1  C   UNL A   1      42.232  20.207  25.715  1.00  0.00     0.042 C 
ENDROOT
BRANCH   1   2
ATOM      2  C   UNL A   1      43.438  19.558  26.385  1.00  0.00     0.117 C 
BRANCH   2   3
ATOM      3  N   UNL A   1      44.653  19.699  25.597  1.00  0.00    -0.354 N 
ATOM      4  C   UNL A   1      45.398  20.802  25.281  1.00  0.00     0.242 C 
ATOM      5  O   UNL A   1      46.432  20.622  24.630  1.00  0.00    -0.273 OA
ATOM      6  H   UNL A   1      44.999  18.855  25.227  1.00  0.00     0.163 HD
BRANCH   4   7
ATOM      7  C   UNL A   1      44.991  22.221  25.748  1.00  0.00     0.168 C 
BRANCH   7   8
ATOM      8  C   UNL A   1      44.358  22.989  24.575  1.00  0.00     0.031 C 
ATOM      9  C   UNL A   1      43.252  23.935  25.016  1.00  0.00     0.006 C 
ENDBRANCH   7   8
BRANCH   7  10
ATOM     10  N   UNL A   1      46.154  22.942  26.275  1.00  0.00    -0.374 N 
ATOM     11  H   UNL A   1      47.020  22.782  25.833  1.00  0.00     0.161 HD
BRANCH  10  12
ATOM     12  C   UNL A   1      46.143  23.826  27.337  1.00  0.00     0.035 A 
ATOM     13  C   UNL A   1      47.275  24.631  27.520  1.00  0.00     0.026 A 
ATOM     14  C   UNL A   1      45.156  23.838  28.323  1.00  0.00     0.038 A 
ATOM     15  C   UNL A   1      47.408  25.457  28.634  1.00  0.00     0.003 A 
ATOM     16  C   UNL A   1      45.281  24.652  29.465  1.00  0.00     0.058 A 
ATOM     17  C   UNL A   1      46.414  25.467  29.605  1.00  0.00     0.013 A 
BRANCH  16  18
ATOM     18  C   UNL A   1      44.239  24.636  30.555  1.00  0.00     0.416 C 
ATOM     19  F   UNL A   1      43.319  25.631  30.412  1.00  0.00    -0.166 F 
ATOM     20  F   UNL A   1      43.528  23.475  30.576  1.00  0.00    -0.166 F 
ATOM     21  F   UNL A   1      44.751  24.779  31.809  1.00  0.00    -0.166 F 
ENDBRANCH  16  18
ENDBRANCH  10  12
ENDBRANCH   7  10
ENDBRANCH   4   7
ENDBRANCH   2   3
ENDBRANCH   1   2
BRANCH   1  22
ATOM     22  C   UNL A   1      41.410  21.090  26.643  1.00  0.00     0.118 C 
BRANCH  22  23
ATOM     23  N   UNL A   1      40.027  21.203  26.210  1.00  0.00    -0.352 N 
ATOM     24  C   UNL A   1      39.135  22.235  26.356  1.00  0.00     0.251 C 
ATOM     25  H   UNL A   1      39.674  20.413  25.739  1.00  0.00     0.163 HD
ATOM     26  O   UNL A   1      37.945  22.022  26.119  1.00  0.00    -0.269 OA
BRANCH  24  27
ATOM     27  C   UNL A   1      39.578  23.575  26.800  1.00  0.00     0.039 A 
ATOM     28  C   UNL A   1      39.693  24.594  25.850  1.00  0.00     0.014 A 
ATOM     29  C   UNL A   1      39.935  23.826  28.128  1.00  0.00     0.014 A 
ATOM     30  C   UNL A   1      40.131  25.863  26.236  1.00  0.00     0.010 A 
ATOM     31  C   UNL A   1      40.279  25.114  28.530  1.00  0.00     0.010 A 
ATOM     32  C   UNL A   1      40.408  26.142  27.584  1.00  0.00    -0.014 A 
BRANCH  32  33
ATOM     33  C   UNL A   1      40.896  27.480  28.009  1.00  0.00     0.031 A 
ATOM     34  C   UNL A   1      42.347  27.842  27.828  1.00  0.00     0.074 A 
ATOM     35  C   UNL A   1      40.047  28.350  28.590  1.00  0.00     0.049 A 
ATOM     36  N   UNL A   1      42.982  28.932  28.179  1.00  0.00    -0.248 NA
ATOM     37  C   UNL A   1      43.205  26.827  27.199  1.00  0.00     0.031 C 
ATOM     38  C   UNL A   1      38.632  28.096  28.864  1.00  0.00     0.029 A 
ATOM     39  N   UNL A   1      40.252  29.624  29.059  1.00  0.00    -0.354 N 
ATOM     40  C   UNL A   1      44.312  28.725  27.828  1.00  0.00     0.074 A 
ATOM     41  C   UNL A   1      44.403  27.377  27.310  1.00  0.00     0.031 C 
ATOM     42  C   UNL A   1      38.091  29.187  29.431  1.00  0.00     0.029 A 
ATOM     43  C   UNL A   1      39.125  30.203  29.594  1.00  0.00     0.049 A 
ATOM     44  H   UNL A   1      41.123  30.080  29.017  1.00  0.00     0.167 HD
ATOM     45  C   UNL A   1      45.357  29.589  27.899  1.00  0.00     0.034 A 
ATOM     46  C   UNL A   1      38.947  31.415  30.156  1.00  0.00     0.034 A 
ATOM     47  C   UNL A   1      45.244  30.936  28.405  1.00  0.00     0.049 A 
ATOM     48  C   UNL A   1      40.116  32.365  30.219  1.00  0.00     0.074 A 
ATOM     49  C   UNL A   1      46.223  31.911  28.493  1.00  0.00     0.029 A 
ATOM     50  N   UNL A   1      44.078  31.499  28.911  1.00  0.00    -0.354 N 
ATOM     51  N   UNL A   1      41.360  32.171  29.842  1.00  0.00    -0.248 NA
ATOM     52  C   UNL A   1      39.853  33.702  30.762  1.00  0.00     0.031 C 
ATOM     53  C   UNL A   1      45.664  33.040  29.104  1.00  0.00     0.029 A 
ATOM     54  C   UNL A   1      44.317  32.800  29.328  1.00  0.00     0.049 A 
ATOM     55  H   UNL A   1      43.208  31.041  28.965  1.00  0.00     0.167 HD
ATOM     56  C   UNL A   1      42.019  33.375  30.074  1.00  0.00     0.074 A 
ATOM     57  C   UNL A   1      41.030  34.290  30.606  1.00  0.00     0.031 C 
ATOM     58  C   UNL A   1      43.321  33.698  29.865  1.00  0.00     0.034 A 
BRANCH  45  59
ATOM     59  C   UNL A   1      46.703  29.085  27.433  1.00  0.00     0.023 A 
ATOM     60  C   UNL A   1      46.906  28.633  26.116  1.00  0.00     0.031 A 
ATOM     61  C   UNL A   1      47.788  29.006  28.324  1.00  0.00     0.131 A 
ATOM     62  C   UNL A   1      48.123  28.038  25.755  1.00  0.00     0.055 A 
ATOM     63  C   UNL A   1      49.029  28.498  27.932  1.00  0.00     0.041 A 
ATOM     64  F   UNL A   1      47.656  29.403  29.599  1.00  0.00    -0.206 F 
ATOM     65  C   UNL A   1      49.197  27.992  26.647  1.00  0.00     0.022 A 
BRANCH  62  66
ATOM     66  S   UNL A   1      48.227  27.177  24.162  1.00  0.00     0.124 S 
ATOM     67  O   UNL A   1      47.946  28.260  23.224  1.00  0.00    -0.237 OA
ATOM     68  O   UNL A   1      49.594  26.670  24.164  1.00  0.00    -0.237 OA
ATOM     69  O   UNL A   1      47.183  26.157  24.255  1.00  0.00    -0.744 OA
ENDBRANCH  62  66
ENDBRANCH  45  59
BRANCH  46  70
ATOM     70  C   UNL A   1      37.615  31.804  30.700  1.00  0.00     0.023 A 
ATOM     71  C   UNL A   1      36.667  32.462  29.900  1.00  0.00     0.031 A 
ATOM     72  C   UNL A   1      37.281  31.547  32.041  1.00  0.00     0.131 A 
ATOM     73  C   UNL A   1      35.450  32.882  30.460  1.00  0.00     0.055 A 
ATOM     74  C   UNL A   1      36.049  31.922  32.580  1.00  0.00     0.041 A 
ATOM     75  F   UNL A   1      38.148  30.911  32.846  1.00  0.00    -0.206 F 
ATOM     76  C   UNL A   1      35.130  32.604  31.792  1.00  0.00     0.022 A 
BRANCH  73  77
ATOM     77  S   UNL A   1      34.318  33.865  29.441  1.00  0.00     0.124 S 
ATOM     78  O   UNL A   1      35.241  34.747  28.736  1.00  0.00    -0.237 OA
ATOM     79  O   UNL A   1      33.668  32.837  28.633  1.00  0.00    -0.237 OA
ATOM     80  O   UNL A   1      33.456  34.519  30.424  1.00  0.00    -0.744 OA
ENDBRANCH  73  77
ENDBRANCH  46  70
BRANCH  58  81
ATOM     81  C   UNL A   1      43.730  35.119  30.167  1.00  0.00     0.023 A 
ATOM     82  C   UNL A   1      43.604  36.145  29.215  1.00  0.00     0.031 A 
ATOM     83  C   UNL A   1      44.273  35.445  31.422  1.00  0.00     0.131 A 
ATOM     84  C   UNL A   1      44.078  37.433  29.507  1.00  0.00     0.055 A 
ATOM     85  C   UNL A   1      44.684  36.743  31.731  1.00  0.00     0.041 A 
ATOM     86  F   UNL A   1      44.417  34.506  32.371  1.00  0.00    -0.206 F 
ATOM     87  C   UNL A   1      44.602  37.742  30.766  1.00  0.00     0.022 A 
BRANCH  84  88
ATOM     88  S   UNL A   1      44.104  38.673  28.184  1.00  0.00     0.124 S 
ATOM     89  O   UNL A   1      45.245  39.499  28.564  1.00  0.00    -0.237 OA
ATOM     90  O   UNL A   1      44.281  37.852  26.991  1.00  0.00    -0.237 OA
ATOM     91  O   UNL A   1      42.801  39.325  28.300  1.00  0.00    -0.744 OA
ENDBRANCH  84  88
ENDBRANCH  58  81
ENDBRANCH  32  33
ENDBRANCH  24  27
ENDBRANCH  22  23
ENDBRANCH   1  22
TORSDOF 17
ENDMDL
MODEL 2
REMARK VINA RESULT:      -9.4      5.638     11.355
REMARK SMILES CC[C@H](Nc1cccc(C(F)(F)F)c1)C(=O)NCCCNC(=O)c1ccc(-c2c3nc(c(-c4cc(S(=O)(=O)[O-])ccc4F)c4ccc([nH]4)c(-c4cc(S(=O)(=O)[O-])ccc4F)c4nc(c(-c5cc(S(=O)(=O)[O-])ccc5F)c5ccc2[nH]5)C=C4)C=C3)cc1
REMARK SMILES IDX 19 1 18 2 17 3 15 4 16 5 3 7 2 8 1 9 4 10 5 12 6 13 14 14
REMARK SMILES IDX 7 15 9 16 8 17 10 18 11 19 12 20 13 21 20 22 21 23 22 24
REMARK SMILES IDX 23 26 24 27 25 28 86 29 26 30 85 31 27 32 28 33 29 34 79 35
REMARK SMILES IDX 30 36 84 37 78 38 80 39 31 40 83 41 77 42 76 43 32 45 64 46
REMARK SMILES IDX 44 47 63 48 45 49 48 50 62 51 81 52 46 53 47 54 61 56 82 57
REMARK SMILES IDX 49 58 33 59 34 60 42 61 35 62 41 63 43 64 40 65 36 66 37 67
REMARK SMILES IDX 38 68 39 69 65 70 66 71 74 72 67 73 73 74 75 75 72 76 68 77
REMARK SMILES IDX 69 78 70 79 71 80 50 81 51 82 59 83 52 84 58 85 60 86 57 87
REMARK SMILES IDX 53 88 54 89 55 90 56 91
REMARK H PARENT 17 6 4 11 21 25 80 44 48 55
REMARK Flexibility Score: inf
ROOT
ATOM      1  C   UNL A   1      33.176  27.846  26.659  1.00  0.00     0.042 C 
ENDROOT
BRANCH   1   2
ATOM      2  C   UNL A   1      31.772  27.604  26.116  1.00  0.00     0.117 C 
BRANCH   2   3
ATOM      3  N   UNL A   1      31.148  26.424  26.697  1.00  0.00    -0.354 N 
ATOM      4  C   UNL A   1      31.064  25.136  26.246  1.00  0.00     0.242 C 
ATOM      5  O   UNL A   1      30.513  24.311  26.982  1.00  0.00    -0.273 OA
ATOM      6  H   UNL A   1      30.711  26.582  27.565  1.00  0.00     0.163 HD
BRANCH   4   7
ATOM      7  C   UNL A   1      31.665  24.708  24.886  1.00  0.00     0.168 C 
BRANCH   7   8
ATOM      8  C   UNL A   1      30.857  25.342  23.741  1.00  0.00     0.031 C 
ATOM      9  C   UNL A   1      31.716  25.703  22.539  1.00  0.00     0.006 C 
ENDBRANCH   7   8
BRANCH   7  10
ATOM     10  N   UNL A   1      31.679  23.246  24.766  1.00  0.00    -0.374 N 
ATOM     11  H   UNL A   1      30.806  22.791  24.740  1.00  0.00     0.161 HD
BRANCH  10  12
ATOM     12  C   UNL A   1      32.807  22.453  24.686  1.00  0.00     0.035 A 
ATOM     13  C   UNL A   1      32.731  21.165  25.232  1.00  0.00     0.026 A 
ATOM     14  C   UNL A   1      34.050  22.918  24.254  1.00  0.00     0.038 A 
ATOM     15  C   UNL A   1      33.853  20.343  25.313  1.00  0.00     0.003 A 
ATOM     16  C   UNL A   1      35.199  22.108  24.346  1.00  0.00     0.058 A 
ATOM     17  C   UNL A   1      35.084  20.813  24.872  1.00  0.00     0.013 A 
BRANCH  16  18
ATOM     18  C   UNL A   1      36.552  22.620  23.922  1.00  0.00     0.416 C 
ATOM     19  F   UNL A   1      36.703  22.637  22.568  1.00  0.00    -0.166 F 
ATOM     20  F   UNL A   1      36.776  23.898  24.336  1.00  0.00    -0.166 F 
ATOM     21  F   UNL A   1      37.594  21.887  24.404  1.00  0.00    -0.166 F 
ENDBRANCH  16  18
ENDBRANCH  10  12
ENDBRANCH   7  10
ENDBRANCH   4   7
ENDBRANCH   2   3
ENDBRANCH   1   2
BRANCH   1  22
ATOM     22  C   UNL A   1      33.939  28.943  25.931  1.00  0.00     0.118 C 
BRANCH  22  23
ATOM     23  N   UNL A   1      33.763  30.243  26.558  1.00  0.00    -0.352 N 
ATOM     24  C   UNL A   1      34.452  30.830  27.588  1.00  0.00     0.251 C 
ATOM     25  H   UNL A   1      33.032  30.788  26.184  1.00  0.00     0.163 HD
ATOM     26  O   UNL A   1      33.980  31.840  28.112  1.00  0.00    -0.269 OA
BRANCH  24  27
ATOM     27  C   UNL A   1      35.729  30.264  28.078  1.00  0.00     0.039 A 
ATOM     28  C   UNL A   1      35.737  29.582  29.298  1.00  0.00     0.014 A 
ATOM     29  C   UNL A   1      36.927  30.447  27.380  1.00  0.00     0.014 A 
ATOM     30  C   UNL A   1      36.932  29.057  29.797  1.00  0.00     0.010 A 
ATOM     31  C   UNL A   1      38.098  29.841  27.829  1.00  0.00     0.010 A 
ATOM     32  C   UNL A   1      38.121  29.164  29.057  1.00  0.00    -0.014 A 
BRANCH  32  33
ATOM     33  C   UNL A   1      39.405  28.630  29.582  1.00  0.00     0.031 A 
ATOM     34  C   UNL A   1      40.031  29.251  30.804  1.00  0.00     0.074 A 
ATOM     35  C   UNL A   1      40.025  27.620  28.943  1.00  0.00     0.049 A 
ATOM     36  N   UNL A   1      41.169  28.971  31.389  1.00  0.00    -0.248 NA
ATOM     37  C   UNL A   1      39.294  30.359  31.430  1.00  0.00     0.031 C 
ATOM     38  C   UNL A   1      39.543  26.970  27.722  1.00  0.00     0.029 A 
ATOM     39  N   UNL A   1      41.197  26.964  29.226  1.00  0.00    -0.354 N 
ATOM     40  C   UNL A   1      41.288  29.876  32.438  1.00  0.00     0.074 A 
ATOM     41  C   UNL A   1      40.146  30.762  32.359  1.00  0.00     0.031 C 
ATOM     42  C   UNL A   1      40.398  25.994  27.377  1.00  0.00     0.029 A 
ATOM     43  C   UNL A   1      41.506  25.972  28.326  1.00  0.00     0.049 A 
ATOM     44  H   UNL A   1      41.762  27.184  30.001  1.00  0.00     0.167 HD
ATOM     45  C   UNL A   1      42.243  29.945  33.401  1.00  0.00     0.034 A 
ATOM     46  C   UNL A   1      42.565  25.140  28.270  1.00  0.00     0.034 A 
ATOM     47  C   UNL A   1      43.368  29.044  33.473  1.00  0.00     0.049 A 
ATOM     48  C   UNL A   1      43.612  25.225  29.351  1.00  0.00     0.074 A 
ATOM     49  C   UNL A   1      44.377  28.994  34.419  1.00  0.00     0.029 A 
ATOM     50  N   UNL A   1      43.632  28.029  32.560  1.00  0.00    -0.354 N 
ATOM     51  N   UNL A   1      43.689  26.058  30.364  1.00  0.00    -0.248 NA
ATOM     52  C   UNL A   1      44.701  24.244  29.296  1.00  0.00     0.031 C 
ATOM     53  C   UNL A   1      45.280  27.991  34.047  1.00  0.00     0.029 A 
ATOM     54  C   UNL A   1      44.796  27.362  32.910  1.00  0.00     0.049 A 
ATOM     55  H   UNL A   1      43.074  27.816  31.777  1.00  0.00     0.167 HD
ATOM     56  C   UNL A   1      44.819  25.679  31.083  1.00  0.00     0.074 A 
ATOM     57  C   UNL A   1      45.379  24.532  30.396  1.00  0.00     0.031 C 
ATOM     58  C   UNL A   1      45.347  26.225  32.209  1.00  0.00     0.034 A 
BRANCH  45  59
ATOM     59  C   UNL A   1      42.108  31.043  34.431  1.00  0.00     0.023 A 
ATOM     60  C   UNL A   1      42.690  32.309  34.238  1.00  0.00     0.031 A 
ATOM     61  C   UNL A   1      41.435  30.812  35.644  1.00  0.00     0.131 A 
ATOM     62  C   UNL A   1      42.671  33.258  35.271  1.00  0.00     0.055 A 
ATOM     63  C   UNL A   1      41.339  31.794  36.633  1.00  0.00     0.041 A 
ATOM     64  F   UNL A   1      40.876  29.618  35.898  1.00  0.00    -0.206 F 
ATOM     65  C   UNL A   1      41.976  33.018  36.458  1.00  0.00     0.022 A 
BRANCH  62  66
ATOM     66  S   UNL A   1      43.707  34.737  35.106  1.00  0.00     0.124 S 
ATOM     67  O   UNL A   1      42.714  35.757  34.777  1.00  0.00    -0.237 OA
ATOM     68  O   UNL A   1      44.320  34.843  36.424  1.00  0.00    -0.237 OA
ATOM     69  O   UNL A   1      44.621  34.396  34.018  1.00  0.00    -0.744 OA
ENDBRANCH  62  66
ENDBRANCH  45  59
BRANCH  46  70
ATOM     70  C   UNL A   1      42.691  24.155  27.159  1.00  0.00     0.023 A 
ATOM     71  C   UNL A   1      42.089  22.889  27.237  1.00  0.00     0.031 A 
ATOM     72  C   UNL A   1      43.442  24.458  26.009  1.00  0.00     0.131 A 
ATOM     73  C   UNL A   1      42.287  21.955  26.207  1.00  0.00     0.055 A 
ATOM     74  C   UNL A   1      43.594  23.544  24.965  1.00  0.00     0.041 A 
ATOM     75  F   UNL A   1      44.030  25.659  25.879  1.00  0.00    -0.206 F 
ATOM     76  C   UNL A   1      43.024  22.280  25.066  1.00  0.00     0.022 A 
BRANCH  73  77
ATOM     77  S   UNL A   1      41.626  20.280  26.415  1.00  0.00     0.124 S 
ATOM     78  O   UNL A   1      42.083  19.944  27.758  1.00  0.00    -0.237 OA
ATOM     79  O   UNL A   1      40.191  20.500  26.262  1.00  0.00    -0.237 OA
ATOM     80  O   UNL A   1      42.258  19.528  25.333  1.00  0.00    -0.744 OA
ENDBRANCH  73  77
ENDBRANCH  46  70
BRANCH  58  81
ATOM     81  C   UNL A   1      46.564  25.548  32.791  1.00  0.00     0.023 A 
ATOM     82  C   UNL A   1      46.458  24.546  33.770  1.00  0.00     0.031 A 
ATOM     83  C   UNL A   1      47.851  25.929  32.371  1.00  0.00     0.131 A 
ATOM     84  C   UNL A   1      47.618  24.007  34.348  1.00  0.00     0.055 A 
ATOM     85  C   UNL A   1      49.001  25.343  32.903  1.00  0.00     0.041 A 
ATOM     86  F   UNL A   1      48.013  26.881  31.439  1.00  0.00    -0.206 F 
ATOM     87  C   UNL A   1      48.889  24.388  33.908  1.00  0.00     0.022 A 
BRANCH  84  88
ATOM     88  S   UNL A   1      47.446  22.882  35.760  1.00  0.00     0.124 S 
ATOM     89  O   UNL A   1      48.225  21.727  35.325  1.00  0.00    -0.237 OA
ATOM     90  O   UNL A   1      48.019  23.663  36.851  1.00  0.00    -0.237 OA
ATOM     91  O   UNL A   1      46.004  22.660  35.847  1.00  0.00    -0.744 OA
ENDBRANCH  84  88
ENDBRANCH  58  81
ENDBRANCH  32  33
ENDBRANCH  24  27
ENDBRANCH  22  23
ENDBRANCH   1  22
TORSDOF 17
ENDMDL
MODEL 3
REMARK VINA RESULT:      -9.3      3.454      6.153
REMARK SMILES CC[C@H](Nc1cccc(C(F)(F)F)c1)C(=O)NCCCNC(=O)c1ccc(-c2c3nc(c(-c4cc(S(=O)(=O)[O-])ccc4F)c4ccc([nH]4)c(-c4cc(S(=O)(=O)[O-])ccc4F)c4nc(c(-c5cc(S(=O)(=O)[O-])ccc5F)c5ccc2[nH]5)C=C4)C=C3)cc1
REMARK SMILES IDX 19 1 18 2 17 3 15 4 16 5 3 7 2 8 1 9 4 10 5 12 6 13 14 14
REMARK SMILES IDX 7 15 9 16 8 17 10 18 11 19 12 20 13 21 20 22 21 23 22 24
REMARK SMILES IDX 23 26 24 27 25 28 86 29 26 30 85 31 27 32 28 33 29 34 79 35
REMARK SMILES IDX 30 36 84 37 78 38 80 39 31 40 83 41 77 42 76 43 32 45 64 46
REMARK SMILES IDX 44 47 63 48 45 49 48 50 62 51 81 52 46 53 47 54 61 56 82 57
REMARK SMILES IDX 49 58 33 59 34 60 42 61 35 62 41 63 43 64 40 65 36 66 37 67
REMARK SMILES IDX 38 68 39 69 65 70 66 71 74 72 67 73 73 74 75 75 72 76 68 77
REMARK SMILES IDX 69 78 70 79 71 80 50 81 51 82 59 83 52 84 58 85 60 86 57 87
REMARK SMILES IDX 53 88 54 89 55 90 56 91
REMARK H PARENT 17 6 4 11 21 25 80 44 48 55
REMARK Flexibility Score: inf
ROOT
ATOM      1  C   UNL A   1      35.490  23.396  26.439  1.00  0.00     0.042 C 
ENDROOT
BRANCH   1   2
ATOM      2  C   UNL A   1      34.411  22.647  25.665  1.00  0.00     0.117 C 
BRANCH   2   3
ATOM      3  N   UNL A   1      34.545  22.811  24.225  1.00  0.00    -0.354 N 
ATOM      4  C   UNL A   1      33.900  23.641  23.350  1.00  0.00     0.242 C 
ATOM      5  O   UNL A   1      34.257  23.609  22.169  1.00  0.00    -0.273 OA
ATOM      6  H   UNL A   1      35.216  22.223  23.810  1.00  0.00     0.163 HD
BRANCH   4   7
ATOM      7  C   UNL A   1      32.790  24.613  23.817  1.00  0.00     0.168 C 
BRANCH   7   8
ATOM      8  C   UNL A   1      31.710  24.727  22.727  1.00  0.00     0.031 C 
ATOM      9  C   UNL A   1      30.314  24.415  23.242  1.00  0.00     0.006 C 
ENDBRANCH   7   8
BRANCH   7  10
ATOM     10  N   UNL A   1      33.356  25.930  24.129  1.00  0.00    -0.374 N 
ATOM     11  H   UNL A   1      33.982  26.315  23.473  1.00  0.00     0.161 HD
BRANCH  10  12
ATOM     12  C   UNL A   1      33.090  26.677  25.260  1.00  0.00     0.035 A 
ATOM     13  C   UNL A   1      31.809  26.573  25.816  1.00  0.00     0.026 A 
ATOM     14  C   UNL A   1      33.957  27.644  25.770  1.00  0.00     0.038 A 
ATOM     15  C   UNL A   1      31.408  27.383  26.877  1.00  0.00     0.003 A 
ATOM     16  C   UNL A   1      33.564  28.484  26.829  1.00  0.00     0.058 A 
ATOM     17  C   UNL A   1      32.284  28.337  27.382  1.00  0.00     0.013 A 
BRANCH  16  18
ATOM     18  C   UNL A   1      34.480  29.560  27.355  1.00  0.00     0.416 C 
ATOM     19  F   UNL A   1      33.918  30.800  27.292  1.00  0.00    -0.166 F 
ATOM     20  F   UNL A   1      34.808  29.369  28.663  1.00  0.00    -0.166 F 
ATOM     21  F   UNL A   1      35.663  29.653  26.686  1.00  0.00    -0.166 F 
ENDBRANCH  16  18
ENDBRANCH  10  12
ENDBRANCH   7  10
ENDBRANCH   4   7
ENDBRANCH   2   3
ENDBRANCH   1   2
BRANCH   1  22
ATOM     22  C   UNL A   1      36.785  23.588  25.664  1.00  0.00     0.118 C 
BRANCH  22  23
ATOM     23  N   UNL A   1      37.816  22.651  26.077  1.00  0.00    -0.352 N 
ATOM     24  C   UNL A   1      39.064  22.879  26.598  1.00  0.00     0.251 C 
ATOM     25  H   UNL A   1      37.582  21.701  25.965  1.00  0.00     0.163 HD
ATOM     26  O   UNL A   1      39.859  21.940  26.656  1.00  0.00    -0.269 OA
BRANCH  24  27
ATOM     27  C   UNL A   1      39.464  24.224  27.070  1.00  0.00     0.039 A 
ATOM     28  C   UNL A   1      40.070  25.101  26.166  1.00  0.00     0.014 A 
ATOM     29  C   UNL A   1      39.302  24.610  28.404  1.00  0.00     0.014 A 
ATOM     30  C   UNL A   1      40.479  26.368  26.589  1.00  0.00     0.010 A 
ATOM     31  C   UNL A   1      39.622  25.906  28.801  1.00  0.00     0.010 A 
ATOM     32  C   UNL A   1      40.240  26.790  27.907  1.00  0.00    -0.014 A 
BRANCH  32  33
ATOM     33  C   UNL A   1      40.688  28.127  28.380  1.00  0.00     0.031 A 
ATOM     34  C   UNL A   1      42.160  28.419  28.517  1.00  0.00     0.074 A 
ATOM     35  C   UNL A   1      39.777  29.059  28.721  1.00  0.00     0.049 A 
ATOM     36  N   UNL A   1      42.755  29.497  28.961  1.00  0.00    -0.248 NA
ATOM     37  C   UNL A   1      43.083  27.340  28.136  1.00  0.00     0.031 C 
ATOM     38  C   UNL A   1      38.325  28.876  28.679  1.00  0.00     0.029 A 
ATOM     39  N   UNL A   1      39.937  30.344  29.175  1.00  0.00    -0.354 N 
ATOM     40  C   UNL A   1      44.118  29.219  28.926  1.00  0.00     0.074 A 
ATOM     41  C   UNL A   1      44.253  27.845  28.494  1.00  0.00     0.031 C 
ATOM     42  C   UNL A   1      37.728  30.015  29.067  1.00  0.00     0.029 A 
ATOM     43  C   UNL A   1      38.750  30.994  29.421  1.00  0.00     0.049 A 
ATOM     44  H   UNL A   1      40.817  30.760  29.314  1.00  0.00     0.167 HD
ATOM     45  C   UNL A   1      45.163  30.041  29.198  1.00  0.00     0.034 A 
ATOM     46  C   UNL A   1      38.513  32.238  29.881  1.00  0.00     0.034 A 
ATOM     47  C   UNL A   1      45.009  31.414  29.615  1.00  0.00     0.049 A 
ATOM     48  C   UNL A   1      39.686  33.140  30.171  1.00  0.00     0.074 A 
ATOM     49  C   UNL A   1      45.992  32.351  29.884  1.00  0.00     0.029 A 
ATOM     50  N   UNL A   1      43.790  32.049  29.823  1.00  0.00    -0.354 N 
ATOM     51  N   UNL A   1      40.971  32.878  30.091  1.00  0.00    -0.248 NA
ATOM     52  C   UNL A   1      39.377  34.512  30.589  1.00  0.00     0.031 C 
ATOM     53  C   UNL A   1      45.370  33.531  30.310  1.00  0.00     0.029 A 
ATOM     54  C   UNL A   1      43.996  33.357  30.234  1.00  0.00     0.049 A 
ATOM     55  H   UNL A   1      42.908  31.631  29.697  1.00  0.00     0.167 HD
ATOM     56  C   UNL A   1      41.622  34.063  30.420  1.00  0.00     0.074 A 
ATOM     57  C   UNL A   1      40.587  35.043  30.680  1.00  0.00     0.031 C 
ATOM     58  C   UNL A   1      42.953  34.321  30.499  1.00  0.00     0.034 A 
BRANCH  45  59
ATOM     59  C   UNL A   1      46.552  29.460  29.067  1.00  0.00     0.023 A 
ATOM     60  C   UNL A   1      47.184  29.336  27.817  1.00  0.00     0.031 A 
ATOM     61  C   UNL A   1      47.237  28.975  30.196  1.00  0.00     0.131 A 
ATOM     62  C   UNL A   1      48.410  28.663  27.711  1.00  0.00     0.055 A 
ATOM     63  C   UNL A   1      48.501  28.388  30.096  1.00  0.00     0.041 A 
ATOM     64  F   UNL A   1      46.681  29.045  31.415  1.00  0.00    -0.206 F 
ATOM     65  C   UNL A   1      49.086  28.211  28.846  1.00  0.00     0.022 A 
BRANCH  62  66
ATOM     66  S   UNL A   1      49.023  28.238  26.057  1.00  0.00     0.124 S 
ATOM     67  O   UNL A   1      49.390  26.835  26.231  1.00  0.00    -0.237 OA
ATOM     68  O   UNL A   1      47.863  28.496  25.214  1.00  0.00    -0.237 OA
ATOM     69  O   UNL A   1      50.150  29.149  25.865  1.00  0.00    -0.744 OA
ENDBRANCH  62  66
ENDBRANCH  45  59
BRANCH  46  70
ATOM     70  C   UNL A   1      37.115  32.708  30.096  1.00  0.00     0.023 A 
ATOM     71  C   UNL A   1      36.624  32.965  31.386  1.00  0.00     0.031 A 
ATOM     72  C   UNL A   1      36.238  32.881  29.011  1.00  0.00     0.131 A 
ATOM     73  C   UNL A   1      35.282  33.336  31.563  1.00  0.00     0.055 A 
ATOM     74  C   UNL A   1      34.918  33.298  29.188  1.00  0.00     0.041 A 
ATOM     75  F   UNL A   1      36.660  32.659  27.755  1.00  0.00    -0.206 F 
ATOM     76  C   UNL A   1      34.429  33.516  30.472  1.00  0.00     0.022 A 
BRANCH  73  77
ATOM     77  S   UNL A   1      34.643  33.506  33.252  1.00  0.00     0.124 S 
ATOM     78  O   UNL A   1      34.816  34.934  33.493  1.00  0.00    -0.237 OA
ATOM     79  O   UNL A   1      33.267  33.043  33.102  1.00  0.00    -0.237 OA
ATOM     80  O   UNL A   1      35.512  32.629  34.034  1.00  0.00    -0.744 OA
ENDBRANCH  73  77
ENDBRANCH  46  70
BRANCH  58  81
ATOM     81  C   UNL A   1      43.356  35.737  30.831  1.00  0.00     0.023 A 
ATOM     82  C   UNL A   1      43.507  36.718  29.835  1.00  0.00     0.031 A 
ATOM     83  C   UNL A   1      43.613  36.103  32.164  1.00  0.00     0.131 A 
ATOM     84  C   UNL A   1      43.969  37.998  30.179  1.00  0.00     0.055 A 
ATOM     85  C   UNL A   1      44.010  37.396  32.508  1.00  0.00     0.041 A 
ATOM     86  F   UNL A   1      43.485  35.208  33.156  1.00  0.00    -0.206 F 
ATOM     87  C   UNL A   1      44.206  38.347  31.511  1.00  0.00     0.022 A 
BRANCH  84  88
ATOM     88  S   UNL A   1      44.364  39.167  28.850  1.00  0.00     0.124 S 
ATOM     89  O   UNL A   1      45.746  39.520  29.156  1.00  0.00    -0.237 OA
ATOM     90  O   UNL A   1      44.163  38.357  27.653  1.00  0.00    -0.237 OA
ATOM     91  O   UNL A   1      43.393  40.242  29.040  1.00  0.00    -0.744 OA
ENDBRANCH  84  88
ENDBRANCH  58  81
ENDBRANCH  32  33
ENDBRANCH  24  27
ENDBRANCH  22  23
ENDBRANCH   1  22
TORSDOF 17
ENDMDL
