MODEL 1
REMARK VINA RESULT:     -13.0      0.000      0.000
REMARK SMILES Cc1cccc(S(=O)(=O)Nc2cc(C(=O)NCCCNC(=O)c3ccc(-c4c5nc(c(-c6cc(S(=O)(=O)[O-])ccc6F)c6ccc([nH]6)c(-c6cc(S(=O)(=O)[O-])ccc6F)c6nc(c(-c7cc(S(=O)(=O)[O-])ccc7F)c7ccc4[nH]7)C=C6)C=C5)cc3)ccc2N2CCC[C@H](C[NH+]3CCCC3)C2)c1
REMARK SMILES IDX 18 1 17 2 16 3 14 4 15 5 13 7 11 8 12 9 88 10 87 11 86 12
REMARK SMILES IDX 10 13 7 15 8 16 9 17 6 18 1 19 2 20 3 21 101 22 4 23 5 24
REMARK SMILES IDX 89 25 90 26 100 27 91 28 93 29 92 30 94 31 95 32 96 33 99 34
REMARK SMILES IDX 97 36 98 37 19 38 20 39 21 40 22 42 23 43 24 44 85 45 25 46
REMARK SMILES IDX 84 47 26 48 27 49 28 50 78 51 29 52 83 53 77 54 79 55 30 56
REMARK SMILES IDX 82 57 76 58 75 59 31 61 63 62 43 63 62 64 44 65 47 66 61 67
REMARK SMILES IDX 80 68 45 69 46 70 60 72 81 73 48 74 32 75 33 76 41 77 34 78
REMARK SMILES IDX 40 79 42 80 39 81 35 82 36 83 37 84 38 85 64 86 65 87 73 88
REMARK SMILES IDX 66 89 72 90 74 91 71 92 67 93 68 94 69 95 70 96 49 97 50 98
REMARK SMILES IDX 58 99 51 100 57 101 59 102 56 103 52 104 53 105 54 106
REMARK SMILES IDX 55 107
REMARK H PARENT 16 6 10 14 95 35 20 41 79 60 47 71
REMARK Flexibility Score: inf
ROOT
ATOM      1  C   UNL A   1      35.910  29.517  28.764  1.00  0.00     0.042 C 
ENDROOT
BRANCH   1   2
ATOM      2  C   UNL A   1      35.833  30.395  27.532  1.00  0.00     0.118 C 
BRANCH   2   3
ATOM      3  N   UNL A   1      34.603  31.173  27.404  1.00  0.00    -0.352 N 
ATOM      4  C   UNL A   1      33.352  30.765  26.989  1.00  0.00     0.251 C 
ATOM      5  O   UNL A   1      32.437  31.576  26.864  1.00  0.00    -0.269 OA
ATOM      6  H   UNL A   1      34.678  32.124  27.647  1.00  0.00     0.163 HD
BRANCH   4   7
ATOM      7  C   UNL A   1      33.082  29.336  26.668  1.00  0.00     0.042 A 
ATOM      8  C   UNL A   1      33.299  27.449  25.138  1.00  0.00     0.073 A 
ATOM      9  C   UNL A   1      33.554  28.770  25.490  1.00  0.00     0.042 A 
ATOM     10  C   UNL A   1      32.620  26.600  26.039  1.00  0.00     0.061 A 
ATOM     11  C   UNL A   1      32.206  27.163  27.266  1.00  0.00     0.029 A 
ATOM     12  C   UNL A   1      32.430  28.511  27.581  1.00  0.00     0.016 A 
BRANCH   8  13
ATOM     13  N   UNL A   1      33.802  26.906  23.918  1.00  0.00    -0.277 N 
ATOM     14  H   UNL A   1      34.586  26.315  24.002  1.00  0.00     0.180 HD
BRANCH  13  15
ATOM     15  S   UNL A   1      33.238  27.140  22.369  1.00  0.00     0.261 S 
ATOM     16  O   UNL A   1      33.493  25.905  21.632  1.00  0.00    -0.201 OA
ATOM     17  O   UNL A   1      33.830  28.380  21.948  1.00  0.00    -0.201 OA
BRANCH  15  18
ATOM     18  C   UNL A   1      31.477  27.391  22.449  1.00  0.00     0.088 A 
ATOM     19  C   UNL A   1      29.188  30.313  23.151  1.00  0.00     0.044 C 
ATOM     20  C   UNL A   1      29.634  28.908  22.854  1.00  0.00    -0.050 A 
ATOM     21  C   UNL A   1      28.877  27.832  23.319  1.00  0.00     0.003 A 
ATOM     22  C   UNL A   1      30.895  28.657  22.307  1.00  0.00     0.025 A 
ATOM     23  C   UNL A   1      29.399  26.538  23.312  1.00  0.00     0.002 A 
ATOM     24  C   UNL A   1      30.717  26.320  22.922  1.00  0.00     0.022 A 
ENDBRANCH  15  18
ENDBRANCH  13  15
ENDBRANCH   8  13
BRANCH  10  25
ATOM     25  N   UNL A   1      32.423  25.240  25.812  1.00  0.00    -0.369 N 
ATOM     26  C   UNL A   1      31.163  24.626  26.217  1.00  0.00     0.116 C 
ATOM     27  C   UNL A   1      33.278  24.478  24.899  1.00  0.00     0.126 C 
ATOM     28  C   UNL A   1      31.431  23.235  26.791  1.00  0.00     0.022 C 
ATOM     29  C   UNL A   1      33.622  23.111  25.494  1.00  0.00     0.064 C 
ATOM     30  C   UNL A   1      32.308  22.402  25.855  1.00  0.00     0.013 C 
BRANCH  29  31
ATOM     31  C   UNL A   1      34.647  23.318  26.640  1.00  0.00     0.267 C 
BRANCH  31  32
ATOM     32  N   UNL A   1      36.006  22.792  26.496  1.00  0.00    -0.335 N 
ATOM     33  C   UNL A   1      36.974  23.720  25.917  1.00  0.00     0.262 C 
ATOM     34  C   UNL A   1      36.124  21.517  25.802  1.00  0.00     0.262 C 
ATOM     35  H   UNL A   1      36.241  22.642  27.477  1.00  0.00     0.348 HD
ATOM     36  C   UNL A   1      37.127  23.282  24.475  1.00  0.00     0.067 C 
ATOM     37  C   UNL A   1      36.915  21.779  24.526  1.00  0.00     0.067 C 
ENDBRANCH  31  32
ENDBRANCH  29  31
ENDBRANCH  10  25
ENDBRANCH   4   7
ENDBRANCH   2   3
ENDBRANCH   1   2
BRANCH   1  38
ATOM     38  C   UNL A   1      36.203  30.346  30.008  1.00  0.00     0.118 C 
BRANCH  38  39
ATOM     39  N   UNL A   1      35.152  31.345  30.253  1.00  0.00    -0.352 N 
ATOM     40  C   UNL A   1      35.253  32.619  30.776  1.00  0.00     0.251 C 
ATOM     41  H   UNL A   1      34.242  31.063  30.007  1.00  0.00     0.163 HD
ATOM     42  O   UNL A   1      34.299  33.375  30.907  1.00  0.00    -0.269 OA
BRANCH  40  43
ATOM     43  C   UNL A   1      36.614  33.090  31.080  1.00  0.00     0.039 A 
ATOM     44  C   UNL A   1      37.358  33.521  29.976  1.00  0.00     0.014 A 
ATOM     45  C   UNL A   1      37.218  32.610  32.241  1.00  0.00     0.014 A 
ATOM     46  C   UNL A   1      38.706  33.201  29.918  1.00  0.00     0.010 A 
ATOM     47  C   UNL A   1      38.548  32.243  32.154  1.00  0.00     0.010 A 
ATOM     48  C   UNL A   1      39.257  32.448  30.955  1.00  0.00    -0.014 A 
BRANCH  48  49
ATOM     49  C   UNL A   1      40.520  31.730  30.801  1.00  0.00     0.031 A 
ATOM     50  C   UNL A   1      40.526  30.464  30.045  1.00  0.00     0.074 A 
ATOM     51  C   UNL A   1      41.668  32.177  31.360  1.00  0.00     0.049 A 
ATOM     52  N   UNL A   1      41.336  29.484  30.256  1.00  0.00    -0.248 NA
ATOM     53  C   UNL A   1      39.534  30.189  29.016  1.00  0.00     0.031 C 
ATOM     54  C   UNL A   1      43.016  31.656  31.137  1.00  0.00     0.029 A 
ATOM     55  N   UNL A   1      41.807  33.034  32.452  1.00  0.00    -0.354 N 
ATOM     56  C   UNL A   1      41.156  28.574  29.241  1.00  0.00     0.074 A 
ATOM     57  C   UNL A   1      39.987  29.035  28.529  1.00  0.00     0.031 C 
ATOM     58  C   UNL A   1      43.785  31.971  32.189  1.00  0.00     0.029 A 
ATOM     59  C   UNL A   1      42.933  32.601  33.180  1.00  0.00     0.049 A 
ATOM     60  H   UNL A   1      41.226  33.798  32.672  1.00  0.00     0.167 HD
ATOM     61  C   UNL A   1      42.087  27.602  29.029  1.00  0.00     0.034 A 
ATOM     62  C   UNL A   1      42.843  32.243  34.493  1.00  0.00     0.034 A 
ATOM     63  C   UNL A   1      43.126  27.615  30.059  1.00  0.00     0.049 A 
ATOM     64  C   UNL A   1      43.235  30.815  34.761  1.00  0.00     0.074 A 
ATOM     65  C   UNL A   1      44.401  28.155  30.101  1.00  0.00     0.029 A 
ATOM     66  N   UNL A   1      42.797  27.287  31.372  1.00  0.00    -0.354 N 
ATOM     67  N   UNL A   1      43.399  29.916  33.830  1.00  0.00    -0.248 NA
ATOM     68  C   UNL A   1      43.422  30.278  36.104  1.00  0.00     0.031 C 
ATOM     69  C   UNL A   1      44.798  28.232  31.462  1.00  0.00     0.029 A 
ATOM     70  C   UNL A   1      43.785  27.705  32.246  1.00  0.00     0.049 A 
ATOM     71  H   UNL A   1      41.972  26.822  31.643  1.00  0.00     0.167 HD
ATOM     72  C   UNL A   1      43.601  28.694  34.416  1.00  0.00     0.074 A 
ATOM     73  C   UNL A   1      43.675  28.987  35.837  1.00  0.00     0.031 C 
ATOM     74  C   UNL A   1      43.635  27.538  33.688  1.00  0.00     0.034 A 
BRANCH  61  75
ATOM     75  C   UNL A   1      42.212  26.888  27.700  1.00  0.00     0.023 A 
ATOM     76  C   UNL A   1      42.023  25.493  27.640  1.00  0.00     0.031 A 
ATOM     77  C   UNL A   1      42.586  27.497  26.486  1.00  0.00     0.131 A 
ATOM     78  C   UNL A   1      42.324  24.764  26.473  1.00  0.00     0.055 A 
ATOM     79  C   UNL A   1      42.969  26.768  25.353  1.00  0.00     0.041 A 
ATOM     80  F   UNL A   1      42.544  28.827  26.327  1.00  0.00    -0.206 F 
ATOM     81  C   UNL A   1      42.853  25.387  25.348  1.00  0.00     0.022 A 
BRANCH  78  82
ATOM     82  S   UNL A   1      41.984  22.982  26.433  1.00  0.00     0.124 S 
ATOM     83  O   UNL A   1      42.518  22.592  25.132  1.00  0.00    -0.237 OA
ATOM     84  O   UNL A   1      42.714  22.505  27.602  1.00  0.00    -0.237 OA
ATOM     85  O   UNL A   1      40.528  22.912  26.547  1.00  0.00    -0.744 OA
ENDBRANCH  78  82
ENDBRANCH  61  75
BRANCH  62  86
ATOM     86  C   UNL A   1      41.799  33.003  35.230  1.00  0.00     0.023 A 
ATOM     87  C   UNL A   1      40.525  32.409  35.275  1.00  0.00     0.031 A 
ATOM     88  C   UNL A   1      42.118  33.959  36.201  1.00  0.00     0.131 A 
ATOM     89  C   UNL A   1      39.711  32.595  36.396  1.00  0.00     0.055 A 
ATOM     90  C   UNL A   1      41.253  34.213  37.274  1.00  0.00     0.041 A 
ATOM     91  F   UNL A   1      43.319  34.555  36.208  1.00  0.00    -0.206 F 
ATOM     92  C   UNL A   1      40.072  33.480  37.410  1.00  0.00     0.022 A 
BRANCH  89  93
ATOM     93  S   UNL A   1      38.314  31.466  36.601  1.00  0.00     0.124 S 
ATOM     94  O   UNL A   1      37.355  32.033  35.662  1.00  0.00    -0.237 OA
ATOM     95  O   UNL A   1      38.895  30.176  36.230  1.00  0.00    -0.237 OA
ATOM     96  O   UNL A   1      37.966  31.584  38.015  1.00  0.00    -0.744 OA
ENDBRANCH  89  93
ENDBRANCH  62  86
BRANCH  74  97
ATOM     97  C   UNL A   1      43.609  26.159  34.304  1.00  0.00     0.023 A 
ATOM     98  C   UNL A   1      44.762  25.372  34.453  1.00  0.00     0.031 A 
ATOM     99  C   UNL A   1      42.416  25.604  34.813  1.00  0.00     0.131 A 
ATOM    100  C   UNL A   1      44.688  24.056  34.938  1.00  0.00     0.055 A 
ATOM    101  C   UNL A   1      42.361  24.330  35.392  1.00  0.00     0.041 A 
ATOM    102  F   UNL A   1      41.254  26.272  34.770  1.00  0.00    -0.206 F 
ATOM    103  C   UNL A   1      43.497  23.534  35.430  1.00  0.00     0.022 A 
BRANCH 100 104
ATOM    104  S   UNL A   1      46.164  23.014  34.795  1.00  0.00     0.124 S 
ATOM    105  O   UNL A   1      47.093  23.905  34.103  1.00  0.00    -0.237 OA
ATOM    106  O   UNL A   1      46.484  22.726  36.190  1.00  0.00    -0.237 OA
ATOM    107  O   UNL A   1      45.704  21.870  34.012  1.00  0.00    -0.744 OA
ENDBRANCH 100 104
ENDBRANCH  74  97
ENDBRANCH  48  49
ENDBRANCH  40  43
ENDBRANCH  38  39
ENDBRANCH   1  38
TORSDOF 19
ENDMDL
MODEL 2
REMARK VINA RESULT:     -12.6      2.409      4.204
REMARK SMILES Cc1cccc(S(=O)(=O)Nc2cc(C(=O)NCCCNC(=O)c3ccc(-c4c5nc(c(-c6cc(S(=O)(=O)[O-])ccc6F)c6ccc([nH]6)c(-c6cc(S(=O)(=O)[O-])ccc6F)c6nc(c(-c7cc(S(=O)(=O)[O-])ccc7F)c7ccc4[nH]7)C=C6)C=C5)cc3)ccc2N2CCC[C@H](C[NH+]3CCCC3)C2)c1
REMARK SMILES IDX 18 1 17 2 16 3 14 4 15 5 13 7 11 8 12 9 88 10 87 11 86 12
REMARK SMILES IDX 10 13 7 15 8 16 9 17 6 18 1 19 2 20 3 21 101 22 4 23 5 24
REMARK SMILES IDX 89 25 90 26 100 27 91 28 93 29 92 30 94 31 95 32 96 33 99 34
REMARK SMILES IDX 97 36 98 37 19 38 20 39 21 40 22 42 23 43 24 44 85 45 25 46
REMARK SMILES IDX 84 47 26 48 27 49 28 50 78 51 29 52 83 53 77 54 79 55 30 56
REMARK SMILES IDX 82 57 76 58 75 59 31 61 63 62 43 63 62 64 44 65 47 66 61 67
REMARK SMILES IDX 80 68 45 69 46 70 60 72 81 73 48 74 32 75 33 76 41 77 34 78
REMARK SMILES IDX 40 79 42 80 39 81 35 82 36 83 37 84 38 85 64 86 65 87 73 88
REMARK SMILES IDX 66 89 72 90 74 91 71 92 67 93 68 94 69 95 70 96 49 97 50 98
REMARK SMILES IDX 58 99 51 100 57 101 59 102 56 103 52 104 53 105 54 106
REMARK SMILES IDX 55 107
REMARK H PARENT 16 6 10 14 95 35 20 41 79 60 47 71
REMARK Flexibility Score: inf
ROOT
ATOM      1  C   UNL A   1      33.019  31.122  27.293  1.00  0.00     0.042 C 
ENDROOT
BRANCH   1   2
ATOM      2  C   UNL A   1      32.845  29.828  26.523  1.00  0.00     0.118 C 
BRANCH   2   3
ATOM      3  N   UNL A   1      31.929  29.902  25.388  1.00  0.00    -0.352 N 
ATOM      4  C   UNL A   1      31.306  28.880  24.703  1.00  0.00     0.251 C 
ATOM      5  O   UNL A   1      30.619  29.116  23.711  1.00  0.00    -0.269 OA
ATOM      6  H   UNL A   1      31.727  30.811  25.066  1.00  0.00     0.163 HD
BRANCH   4   7
ATOM      7  C   UNL A   1      31.461  27.463  25.136  1.00  0.00     0.042 A 
ATOM      8  C   UNL A   1      32.052  25.157  24.607  1.00  0.00     0.073 A 
ATOM      9  C   UNL A   1      31.921  26.495  24.252  1.00  0.00     0.042 A 
ATOM     10  C   UNL A   1      31.808  24.757  25.939  1.00  0.00     0.061 A 
ATOM     11  C   UNL A   1      31.410  25.758  26.850  1.00  0.00     0.029 A 
ATOM     12  C   UNL A   1      31.236  27.094  26.459  1.00  0.00     0.016 A 
BRANCH   8  13
ATOM     13  N   UNL A   1      32.528  24.194  23.668  1.00  0.00    -0.277 N 
ATOM     14  H   UNL A   1      31.977  23.384  23.568  1.00  0.00     0.180 HD
BRANCH  13  15
ATOM     15  S   UNL A   1      33.894  24.259  22.719  1.00  0.00     0.261 S 
ATOM     16  O   UNL A   1      34.012  25.632  22.237  1.00  0.00    -0.201 OA
ATOM     17  O   UNL A   1      33.749  23.168  21.795  1.00  0.00    -0.201 OA
BRANCH  15  18
ATOM     18  C   UNL A   1      35.305  23.903  23.746  1.00  0.00     0.088 A 
ATOM     19  C   UNL A   1      37.414  20.858  24.488  1.00  0.00     0.044 C 
ATOM     20  C   UNL A   1      36.896  22.268  24.556  1.00  0.00    -0.050 A 
ATOM     21  C   UNL A   1      36.981  22.975  25.756  1.00  0.00     0.003 A 
ATOM     22  C   UNL A   1      36.144  22.807  23.508  1.00  0.00     0.025 A 
ATOM     23  C   UNL A   1      36.266  24.160  25.936  1.00  0.00     0.002 A 
ATOM     24  C   UNL A   1      35.389  24.602  24.951  1.00  0.00     0.022 A 
ENDBRANCH  15  18
ENDBRANCH  13  15
ENDBRANCH   8  13
BRANCH  10  25
ATOM     25  N   UNL A   1      32.023  23.461  26.402  1.00  0.00    -0.369 N 
ATOM     26  C   UNL A   1      32.926  23.247  27.528  1.00  0.00     0.116 C 
ATOM     27  C   UNL A   1      31.140  22.352  26.031  1.00  0.00     0.126 C 
ATOM     28  C   UNL A   1      33.749  21.981  27.293  1.00  0.00     0.022 C 
ATOM     29  C   UNL A   1      31.954  21.095  25.715  1.00  0.00     0.064 C 
ATOM     30  C   UNL A   1      32.859  20.796  26.919  1.00  0.00     0.013 C 
BRANCH  29  31
ATOM     31  C   UNL A   1      32.652  21.295  24.344  1.00  0.00     0.267 C 
BRANCH  31  32
ATOM     32  N   UNL A   1      33.256  20.144  23.667  1.00  0.00    -0.335 N 
ATOM     33  C   UNL A   1      32.308  19.170  23.131  1.00  0.00     0.262 C 
ATOM     34  C   UNL A   1      34.272  19.425  24.422  1.00  0.00     0.262 C 
ATOM     35  H   UNL A   1      33.714  20.619  22.890  1.00  0.00     0.348 HD
ATOM     36  C   UNL A   1      32.314  18.027  24.125  1.00  0.00     0.067 C 
ATOM     37  C   UNL A   1      33.732  18.022  24.668  1.00  0.00     0.067 C 
ENDBRANCH  31  32
ENDBRANCH  29  31
ENDBRANCH  10  25
ENDBRANCH   4   7
ENDBRANCH   2   3
ENDBRANCH   1   2
BRANCH   1  38
ATOM     38  C   UNL A   1      34.493  31.484  27.427  1.00  0.00     0.118 C 
BRANCH  38  39
ATOM     39  N   UNL A   1      34.822  31.910  28.795  1.00  0.00    -0.352 N 
ATOM     40  C   UNL A   1      35.558  31.259  29.766  1.00  0.00     0.251 C 
ATOM     41  H   UNL A   1      34.466  32.789  29.058  1.00  0.00     0.163 HD
ATOM     42  O   UNL A   1      35.790  31.732  30.871  1.00  0.00    -0.269 OA
BRANCH  40  43
ATOM     43  C   UNL A   1      36.165  29.977  29.371  1.00  0.00     0.039 A 
ATOM     44  C   UNL A   1      36.802  29.276  30.400  1.00  0.00     0.014 A 
ATOM     45  C   UNL A   1      36.519  29.817  28.033  1.00  0.00     0.014 A 
ATOM     46  C   UNL A   1      37.995  28.626  30.122  1.00  0.00     0.010 A 
ATOM     47  C   UNL A   1      37.738  29.217  27.772  1.00  0.00     0.010 A 
ATOM     48  C   UNL A   1      38.516  28.716  28.831  1.00  0.00    -0.014 A 
BRANCH  48  49
ATOM     49  C   UNL A   1      39.919  28.428  28.545  1.00  0.00     0.031 A 
ATOM     50  C   UNL A   1      40.306  27.044  28.220  1.00  0.00     0.074 A 
ATOM     51  C   UNL A   1      40.872  29.388  28.607  1.00  0.00     0.049 A 
ATOM     52  N   UNL A   1      41.457  26.521  28.471  1.00  0.00    -0.248 NA
ATOM     53  C   UNL A   1      39.357  26.107  27.635  1.00  0.00     0.031 C 
ATOM     54  C   UNL A   1      42.265  29.274  28.177  1.00  0.00     0.029 A 
ATOM     55  N   UNL A   1      40.828  30.587  29.319  1.00  0.00    -0.354 N 
ATOM     56  C   UNL A   1      41.496  25.291  27.857  1.00  0.00     0.074 A 
ATOM     57  C   UNL A   1      40.147  25.060  27.398  1.00  0.00     0.031 C 
ATOM     58  C   UNL A   1      43.000  30.183  28.834  1.00  0.00     0.029 A 
ATOM     59  C   UNL A   1      42.131  30.834  29.796  1.00  0.00     0.049 A 
ATOM     60  H   UNL A   1      40.035  31.153  29.460  1.00  0.00     0.167 HD
ATOM     61  C   UNL A   1      42.689  24.656  27.685  1.00  0.00     0.034 A 
ATOM     62  C   UNL A   1      42.390  30.984  31.126  1.00  0.00     0.034 A 
ATOM     63  C   UNL A   1      43.784  25.379  28.334  1.00  0.00     0.049 A 
ATOM     64  C   UNL A   1      43.346  29.960  31.677  1.00  0.00     0.074 A 
ATOM     65  C   UNL A   1      44.736  26.267  27.859  1.00  0.00     0.029 A 
ATOM     66  N   UNL A   1      43.815  25.479  29.722  1.00  0.00    -0.354 N 
ATOM     67  N   UNL A   1      43.705  28.880  31.040  1.00  0.00    -0.248 NA
ATOM     68  C   UNL A   1      43.931  30.052  33.010  1.00  0.00     0.031 C 
ATOM     69  C   UNL A   1      45.273  26.967  28.971  1.00  0.00     0.029 A 
ATOM     70  C   UNL A   1      44.681  26.480  30.125  1.00  0.00     0.049 A 
ATOM     71  H   UNL A   1      43.290  24.914  30.335  1.00  0.00     0.167 HD
ATOM     72  C   UNL A   1      44.457  28.096  31.874  1.00  0.00     0.074 A 
ATOM     73  C   UNL A   1      44.627  28.905  33.070  1.00  0.00     0.031 C 
ATOM     74  C   UNL A   1      44.831  26.825  31.535  1.00  0.00     0.034 A 
BRANCH  61  75
ATOM     75  C   UNL A   1      42.880  23.578  26.641  1.00  0.00     0.023 A 
ATOM     76  C   UNL A   1      42.462  22.260  26.919  1.00  0.00     0.031 A 
ATOM     77  C   UNL A   1      43.527  23.754  25.402  1.00  0.00     0.131 A 
ATOM     78  C   UNL A   1      42.798  21.192  26.066  1.00  0.00     0.055 A 
ATOM     79  C   UNL A   1      43.936  22.685  24.596  1.00  0.00     0.041 A 
ATOM     80  F   UNL A   1      43.739  24.974  24.891  1.00  0.00    -0.206 F 
ATOM     81  C   UNL A   1      43.585  21.388  24.936  1.00  0.00     0.022 A 
BRANCH  78  82
ATOM     82  S   UNL A   1      42.163  19.533  26.436  1.00  0.00     0.124 S 
ATOM     83  O   UNL A   1      43.190  18.670  25.861  1.00  0.00    -0.237 OA
ATOM     84  O   UNL A   1      42.077  19.556  27.892  1.00  0.00    -0.237 OA
ATOM     85  O   UNL A   1      40.875  19.500  25.745  1.00  0.00    -0.744 OA
ENDBRANCH  78  82
ENDBRANCH  61  75
BRANCH  62  86
ATOM     86  C   UNL A   1      41.257  31.593  31.872  1.00  0.00     0.023 A 
ATOM     87  C   UNL A   1      40.675  30.789  32.868  1.00  0.00     0.031 A 
ATOM     88  C   UNL A   1      41.074  32.979  31.950  1.00  0.00     0.131 A 
ATOM     89  C   UNL A   1      40.147  31.382  34.019  1.00  0.00     0.055 A 
ATOM     90  C   UNL A   1      40.456  33.563  33.063  1.00  0.00     0.041 A 
ATOM     91  F   UNL A   1      41.610  33.794  31.029  1.00  0.00    -0.206 F 
ATOM     92  C   UNL A   1      40.048  32.767  34.135  1.00  0.00     0.022 A 
BRANCH  89  93
ATOM     93  S   UNL A   1      39.837  30.305  35.437  1.00  0.00     0.124 S 
ATOM     94  O   UNL A   1      40.707  29.177  35.129  1.00  0.00    -0.237 OA
ATOM     95  O   UNL A   1      40.242  31.144  36.564  1.00  0.00    -0.237 OA
ATOM     96  O   UNL A   1      38.401  30.036  35.372  1.00  0.00    -0.744 OA
ENDBRANCH  89  93
ENDBRANCH  62  86
BRANCH  74  97
ATOM     97  C   UNL A   1      45.442  25.844  32.506  1.00  0.00     0.023 A 
ATOM     98  C   UNL A   1      44.683  24.882  33.193  1.00  0.00     0.031 A 
ATOM     99  C   UNL A   1      46.834  25.809  32.738  1.00  0.00     0.131 A 
ATOM    100  C   UNL A   1      45.267  24.050  34.163  1.00  0.00     0.055 A 
ATOM    101  C   UNL A   1      47.429  24.909  33.630  1.00  0.00     0.041 A 
ATOM    102  F   UNL A   1      47.672  26.647  32.112  1.00  0.00    -0.206 F 
ATOM    103  C   UNL A   1      46.641  24.041  34.372  1.00  0.00     0.022 A 
BRANCH 100 104
ATOM    104  S   UNL A   1      44.164  23.074  35.217  1.00  0.00     0.124 S 
ATOM    105  O   UNL A   1      44.553  21.708  34.873  1.00  0.00    -0.237 OA
ATOM    106  O   UNL A   1      44.533  23.518  36.558  1.00  0.00    -0.237 OA
ATOM    107  O   UNL A   1      42.827  23.467  34.776  1.00  0.00    -0.744 OA
ENDBRANCH 100 104
ENDBRANCH  74  97
ENDBRANCH  48  49
ENDBRANCH  40  43
ENDBRANCH  38  39
ENDBRANCH   1  38
TORSDOF 19
ENDMDL
MODEL 3
REMARK VINA RESULT:     -12.6      2.390      4.168
REMARK SMILES Cc1cccc(S(=O)(=O)Nc2cc(C(=O)NCCCNC(=O)c3ccc(-c4c5nc(c(-c6cc(S(=O)(=O)[O-])ccc6F)c6ccc([nH]6)c(-c6cc(S(=O)(=O)[O-])ccc6F)c6nc(c(-c7cc(S(=O)(=O)[O-])ccc7F)c7ccc4[nH]7)C=C6)C=C5)cc3)ccc2N2CCC[C@H](C[NH+]3CCCC3)C2)c1
REMARK SMILES IDX 18 1 17 2 16 3 14 4 15 5 13 7 11 8 12 9 88 10 87 11 86 12
REMARK SMILES IDX 10 13 7 15 8 16 9 17 6 18 1 19 2 20 3 21 101 22 4 23 5 24
REMARK SMILES IDX 89 25 90 26 100 27 91 28 93 29 92 30 94 31 95 32 96 33 99 34
REMARK SMILES IDX 97 36 98 37 19 38 20 39 21 40 22 42 23 43 24 44 85 45 25 46
REMARK SMILES IDX 84 47 26 48 27 49 28 50 78 51 29 52 83 53 77 54 79 55 30 56
REMARK SMILES IDX 82 57 76 58 75 59 31 61 63 62 43 63 62 64 44 65 47 66 61 67
REMARK SMILES IDX 80 68 45 69 46 70 60 72 81 73 48 74 32 75 33 76 41 77 34 78
REMARK SMILES IDX 40 79 42 80 39 81 35 82 36 83 37 84 38 85 64 86 65 87 73 88
REMARK SMILES IDX 66 89 72 90 74 91 71 92 67 93 68 94 69 95 70 96 49 97 50 98
REMARK SMILES IDX 58 99 51 100 57 101 59 102 56 103 52 104 53 105 54 106
REMARK SMILES IDX 55 107
REMARK H PARENT 16 6 10 14 95 35 20 41 79 60 47 71
REMARK Flexibility Score: inf
ROOT
ATOM      1  C   UNL A   1      32.954  30.103  25.853  1.00  0.00     0.042 C 
ENDROOT
BRANCH   1   2
ATOM      2  C   UNL A   1      31.447  30.173  25.708  1.00  0.00     0.118 C 
BRANCH   2   3
ATOM      3  N   UNL A   1      30.949  30.020  24.344  1.00  0.00    -0.352 N 
ATOM      4  C   UNL A   1      30.738  28.866  23.617  1.00  0.00     0.251 C 
ATOM      5  O   UNL A   1      30.384  28.920  22.441  1.00  0.00    -0.269 OA
ATOM      6  H   UNL A   1      30.733  30.859  23.876  1.00  0.00     0.163 HD
BRANCH   4   7
ATOM      7  C   UNL A   1      30.948  27.526  24.233  1.00  0.00     0.042 A 
ATOM      8  C   UNL A   1      31.745  25.229  24.044  1.00  0.00     0.073 A 
ATOM      9  C   UNL A   1      31.557  26.502  23.518  1.00  0.00     0.042 A 
ATOM     10  C   UNL A   1      31.402  24.967  25.389  1.00  0.00     0.061 A 
ATOM     11  C   UNL A   1      30.849  26.032  26.132  1.00  0.00     0.029 A 
ATOM     12  C   UNL A   1      30.622  27.295  25.567  1.00  0.00     0.016 A 
BRANCH   8  13
ATOM     13  N   UNL A   1      32.375  24.204  23.276  1.00  0.00    -0.277 N 
ATOM     14  H   UNL A   1      31.905  23.339  23.248  1.00  0.00     0.180 HD
BRANCH  13  15
ATOM     15  S   UNL A   1      33.801  24.279  22.420  1.00  0.00     0.261 S 
ATOM     16  O   UNL A   1      33.917  25.641  21.906  1.00  0.00    -0.201 OA
ATOM     17  O   UNL A   1      33.747  23.159  21.522  1.00  0.00    -0.201 OA
BRANCH  15  18
ATOM     18  C   UNL A   1      35.146  23.991  23.551  1.00  0.00     0.088 A 
ATOM     19  C   UNL A   1      37.337  21.051  24.459  1.00  0.00     0.044 C 
ATOM     20  C   UNL A   1      36.748  22.434  24.484  1.00  0.00    -0.050 A 
ATOM     21  C   UNL A   1      36.710  23.145  25.685  1.00  0.00     0.003 A 
ATOM     22  C   UNL A   1      36.053  22.937  23.381  1.00  0.00     0.025 A 
ATOM     23  C   UNL A   1      35.927  24.294  25.807  1.00  0.00     0.002 A 
ATOM     24  C   UNL A   1      35.106  24.693  24.757  1.00  0.00     0.022 A 
ENDBRANCH  15  18
ENDBRANCH  13  15
ENDBRANCH   8  13
BRANCH  10  25
ATOM     25  N   UNL A   1      31.659  23.754  26.024  1.00  0.00    -0.369 N 
ATOM     26  C   UNL A   1      32.458  23.746  27.246  1.00  0.00     0.116 C 
ATOM     27  C   UNL A   1      30.900  22.542  25.712  1.00  0.00     0.126 C 
ATOM     28  C   UNL A   1      33.387  22.534  27.243  1.00  0.00     0.022 C 
ATOM     29  C   UNL A   1      31.827  21.328  25.627  1.00  0.00     0.064 C 
ATOM     30  C   UNL A   1      32.625  21.244  26.938  1.00  0.00     0.013 C 
BRANCH  29  31
ATOM     31  C   UNL A   1      32.644  21.426  24.312  1.00  0.00     0.267 C 
BRANCH  31  32
ATOM     32  N   UNL A   1      33.262  20.220  23.755  1.00  0.00    -0.335 N 
ATOM     33  C   UNL A   1      32.327  19.225  23.236  1.00  0.00     0.262 C 
ATOM     34  C   UNL A   1      34.220  19.541  24.616  1.00  0.00     0.262 C 
ATOM     35  H   UNL A   1      33.773  20.630  22.974  1.00  0.00     0.348 HD
ATOM     36  C   UNL A   1      32.253  18.157  24.307  1.00  0.00     0.067 C 
ATOM     37  C   UNL A   1      33.638  18.168  24.930  1.00  0.00     0.067 C 
ENDBRANCH  31  32
ENDBRANCH  29  31
ENDBRANCH  10  25
ENDBRANCH   4   7
ENDBRANCH   2   3
ENDBRANCH   1   2
BRANCH   1  38
ATOM     38  C   UNL A   1      33.351  29.770  27.286  1.00  0.00     0.118 C 
BRANCH  38  39
ATOM     39  N   UNL A   1      33.919  30.939  27.974  1.00  0.00    -0.352 N 
ATOM     40  C   UNL A   1      35.174  31.114  28.521  1.00  0.00     0.251 C 
ATOM     41  H   UNL A   1      33.314  31.711  28.057  1.00  0.00     0.163 HD
ATOM     42  O   UNL A   1      35.544  32.154  29.051  1.00  0.00    -0.269 OA
BRANCH  40  43
ATOM     43  C   UNL A   1      36.122  30.001  28.342  1.00  0.00     0.039 A 
ATOM     44  C   UNL A   1      36.408  29.268  29.499  1.00  0.00     0.014 A 
ATOM     45  C   UNL A   1      37.012  30.077  27.272  1.00  0.00     0.014 A 
ATOM     46  C   UNL A   1      37.711  28.846  29.712  1.00  0.00     0.010 A 
ATOM     47  C   UNL A   1      38.321  29.705  27.515  1.00  0.00     0.010 A 
ATOM     48  C   UNL A   1      38.683  29.186  28.771  1.00  0.00    -0.014 A 
BRANCH  48  49
ATOM     49  C   UNL A   1      40.109  29.150  29.089  1.00  0.00     0.031 A 
ATOM     50  C   UNL A   1      40.913  28.014  28.604  1.00  0.00     0.074 A 
ATOM     51  C   UNL A   1      40.696  30.109  29.842  1.00  0.00     0.049 A 
ATOM     52  N   UNL A   1      41.959  27.545  29.195  1.00  0.00    -0.248 NA
ATOM     53  C   UNL A   1      40.531  27.264  27.416  1.00  0.00     0.031 C 
ATOM     54  C   UNL A   1      42.129  30.285  30.081  1.00  0.00     0.029 A 
ATOM     55  N   UNL A   1      40.087  30.966  30.758  1.00  0.00    -0.354 N 
ATOM     56  C   UNL A   1      42.533  26.624  28.350  1.00  0.00     0.074 A 
ATOM     57  C   UNL A   1      41.576  26.448  27.284  1.00  0.00     0.031 C 
ATOM     58  C   UNL A   1      42.300  30.965  31.224  1.00  0.00     0.029 A 
ATOM     59  C   UNL A   1      40.991  31.147  31.823  1.00  0.00     0.049 A 
ATOM     60  H   UNL A   1      39.192  31.369  30.674  1.00  0.00     0.167 HD
ATOM     61  C   UNL A   1      43.811  26.206  28.572  1.00  0.00     0.034 A 
ATOM     62  C   UNL A   1      40.655  30.837  33.108  1.00  0.00     0.034 A 
ATOM     63  C   UNL A   1      44.348  26.748  29.820  1.00  0.00     0.049 A 
ATOM     64  C   UNL A   1      41.529  29.777  33.724  1.00  0.00     0.074 A 
ATOM     65  C   UNL A   1      45.166  27.831  30.100  1.00  0.00     0.029 A 
ATOM     66  N   UNL A   1      43.799  26.350  31.037  1.00  0.00    -0.354 N 
ATOM     67  N   UNL A   1      42.360  29.032  33.048  1.00  0.00    -0.248 NA
ATOM     68  C   UNL A   1      41.495  29.442  35.143  1.00  0.00     0.031 C 
ATOM     69  C   UNL A   1      45.031  28.135  31.480  1.00  0.00     0.029 A 
ATOM     70  C   UNL A   1      44.165  27.217  32.050  1.00  0.00     0.049 A 
ATOM     71  H   UNL A   1      43.226  25.557  31.159  1.00  0.00     0.167 HD
ATOM     72  C   UNL A   1      42.883  28.076  33.877  1.00  0.00     0.074 A 
ATOM     73  C   UNL A   1      42.363  28.418  35.191  1.00  0.00     0.031 C 
ATOM     74  C   UNL A   1      43.654  27.050  33.407  1.00  0.00     0.034 A 
BRANCH  61  75
ATOM     75  C   UNL A   1      44.654  25.592  27.476  1.00  0.00     0.023 A 
ATOM     76  C   UNL A   1      44.338  24.305  26.994  1.00  0.00     0.031 A 
ATOM     77  C   UNL A   1      45.812  26.173  26.922  1.00  0.00     0.131 A 
ATOM     78  C   UNL A   1      45.206  23.617  26.125  1.00  0.00     0.055 A 
ATOM     79  C   UNL A   1      46.718  25.460  26.128  1.00  0.00     0.041 A 
ATOM     80  F   UNL A   1      46.086  27.475  27.081  1.00  0.00    -0.206 F 
ATOM     81  C   UNL A   1      46.424  24.164  25.736  1.00  0.00     0.022 A 
BRANCH  78  82
ATOM     82  S   UNL A   1      44.706  21.997  25.477  1.00  0.00     0.124 S 
ATOM     83  O   UNL A   1      43.652  21.601  26.406  1.00  0.00    -0.237 OA
ATOM     84  O   UNL A   1      44.283  22.327  24.120  1.00  0.00    -0.237 OA
ATOM     85  O   UNL A   1      45.932  21.205  25.563  1.00  0.00    -0.744 OA
ENDBRANCH  78  82
ENDBRANCH  61  75
BRANCH  62  86
ATOM     86  C   UNL A   1      39.210  31.033  33.392  1.00  0.00     0.023 A 
ATOM     87  C   UNL A   1      38.763  32.366  33.411  1.00  0.00     0.031 A 
ATOM     88  C   UNL A   1      38.264  30.021  33.185  1.00  0.00     0.131 A 
ATOM     89  C   UNL A   1      37.465  32.670  32.991  1.00  0.00     0.055 A 
ATOM     90  C   UNL A   1      36.937  30.331  32.858  1.00  0.00     0.041 A 
ATOM     91  F   UNL A   1      38.634  28.733  33.154  1.00  0.00    -0.206 F 
ATOM     92  C   UNL A   1      36.549  31.662  32.695  1.00  0.00     0.022 A 
BRANCH  89  93
ATOM     93  S   UNL A   1      37.103  34.399  32.606  1.00  0.00     0.124 S 
ATOM     94  O   UNL A   1      36.722  34.905  33.918  1.00  0.00    -0.237 OA
ATOM     95  O   UNL A   1      38.379  34.876  32.075  1.00  0.00    -0.237 OA
ATOM     96  O   UNL A   1      36.029  34.325  31.616  1.00  0.00    -0.744 OA
ENDBRANCH  89  93
ENDBRANCH  62  86
BRANCH  74  97
ATOM     97  C   UNL A   1      44.045  25.848  34.233  1.00  0.00     0.023 A 
ATOM     98  C   UNL A   1      45.380  25.529  34.525  1.00  0.00     0.031 A 
ATOM     99  C   UNL A   1      43.071  24.999  34.803  1.00  0.00     0.131 A 
ATOM    100  C   UNL A   1      45.714  24.350  35.212  1.00  0.00     0.055 A 
ATOM    101  C   UNL A   1      43.403  23.880  35.575  1.00  0.00     0.041 A 
ATOM    102  F   UNL A   1      41.759  25.220  34.633  1.00  0.00    -0.206 F 
ATOM    103  C   UNL A   1      44.733  23.531  35.759  1.00  0.00     0.022 A 
BRANCH 100 104
ATOM    104  S   UNL A   1      47.459  23.862  35.262  1.00  0.00     0.124 S 
ATOM    105  O   UNL A   1      47.365  22.452  35.632  1.00  0.00    -0.237 OA
ATOM    106  O   UNL A   1      47.901  24.130  33.898  1.00  0.00    -0.237 OA
ATOM    107  O   UNL A   1      48.031  24.735  36.286  1.00  0.00    -0.744 OA
ENDBRANCH 100 104
ENDBRANCH  74  97
ENDBRANCH  48  49
ENDBRANCH  40  43
ENDBRANCH  38  39
ENDBRANCH   1  38
TORSDOF 19
ENDMDL
