MODEL 1
REMARK VINA RESULT:     -11.8      0.000      0.000
REMARK SMILES C[N@H+]1CCO[C@@H](CNS(=O)(=O)N2CCC(C(=O)NCCCNC(=O)c3ccc(-c4c5nc(c(-c6cc(S(=O)(=O)[O-])ccc6F)c6ccc([nH]6)c(-c6cc(S(=O)(=O)[O-])ccc6F)c6nc(c(-c7cc(S(=O)(=O)[O-])ccc7F)c7ccc4[nH]7)C=C6)C=C5)cc3)CC2)C1
REMARK SMILES IDX 19 1 18 2 16 3 17 4 15 6 12 7 13 8 89 9 14 10 88 11 9 12
REMARK SMILES IDX 10 13 11 14 8 15 7 17 6 18 1 19 2 20 3 21 90 22 4 24 5 25
REMARK SMILES IDX 20 26 21 27 22 28 23 29 24 31 25 32 26 33 87 34 27 35 86 36
REMARK SMILES IDX 28 37 29 38 30 39 80 40 31 41 85 42 79 43 81 44 32 45 84 46
REMARK SMILES IDX 78 47 77 48 33 50 65 51 45 52 64 53 46 54 49 55 63 56 82 57
REMARK SMILES IDX 47 58 48 59 62 61 83 62 50 63 34 64 35 65 43 66 36 67 42 68
REMARK SMILES IDX 44 69 41 70 37 71 38 72 39 73 40 74 66 75 67 76 75 77 68 78
REMARK SMILES IDX 74 79 76 80 73 81 69 82 70 83 71 84 72 85 51 86 52 87 60 88
REMARK SMILES IDX 53 89 59 90 61 91 58 92 54 93 55 94 56 95 57 96
REMARK H PARENT 18 5 8 16 2 23 22 30 81 49 49 60
REMARK Flexibility Score: inf
ROOT
ATOM      1  C   UNL A   1      31.047  29.949  24.980  1.00  0.00     0.117 C 
ENDROOT
BRANCH   1   2
ATOM      2  N   UNL A   1      30.680  30.035  23.572  1.00  0.00    -0.356 N 
ATOM      3  C   UNL A   1      30.362  29.107  22.631  1.00  0.00     0.223 C 
ATOM      4  O   UNL A   1      30.071  29.537  21.509  1.00  0.00    -0.275 OA
ATOM      5  H   UNL A   1      30.661  30.958  23.231  1.00  0.00     0.163 HD
BRANCH   3   6
ATOM      6  C   UNL A   1      30.419  27.594  22.848  1.00  0.00     0.081 C 
ATOM      7  N   UNL A   1      31.195  25.622  24.736  1.00  0.00    -0.189 NA
ATOM      8  C   UNL A   1      29.760  25.688  24.444  1.00  0.00     0.104 C 
ATOM      9  C   UNL A   1      32.015  25.733  23.538  1.00  0.00     0.104 C 
ATOM     10  C   UNL A   1      29.394  27.042  23.856  1.00  0.00     0.030 C 
ATOM     11  C   UNL A   1      31.885  27.159  23.022  1.00  0.00     0.030 C 
BRANCH   7  12
ATOM     12  S   UNL A   1      31.791  25.870  26.268  1.00  0.00     0.279 S 
ATOM     13  O   UNL A   1      30.936  26.811  26.955  1.00  0.00    -0.195 OA
ATOM     14  O   UNL A   1      33.218  26.056  26.188  1.00  0.00    -0.195 OA
BRANCH  12  15
ATOM     15  N   UNL A   1      31.579  24.368  27.009  1.00  0.00    -0.199 NA
ATOM     16  H   UNL A   1      32.068  24.390  27.904  1.00  0.00     0.142 HD
BRANCH  15  17
ATOM     17  C   UNL A   1      32.076  23.185  26.244  1.00  0.00     0.138 C 
BRANCH  17  18
ATOM     18  C   UNL A   1      33.228  22.444  26.950  1.00  0.00     0.188 C 
ATOM     19  C   UNL A   1      32.974  20.861  24.132  1.00  0.00     0.332 C 
ATOM     20  N   UNL A   1      33.958  20.753  25.199  1.00  0.00    -0.333 N 
ATOM     21  C   UNL A   1      35.152  21.594  24.997  1.00  0.00     0.290 C 
ATOM     22  C   UNL A   1      33.424  20.970  26.544  1.00  0.00     0.295 C 
ATOM     23  H   UNL A   1      34.244  19.776  25.138  1.00  0.00     0.348 HD
ATOM     24  C   UNL A   1      34.998  23.054  25.468  1.00  0.00     0.222 C 
ATOM     25  O   UNL A   1      34.469  23.163  26.796  1.00  0.00    -0.365 OA
ENDBRANCH  17  18
ENDBRANCH  15  17
ENDBRANCH  12  15
ENDBRANCH   7  12
ENDBRANCH   3   6
ENDBRANCH   1   2
BRANCH   1  26
ATOM     26  C   UNL A   1      32.511  29.616  25.196  1.00  0.00     0.042 C 
BRANCH  26  27
ATOM     27  C   UNL A   1      33.069  29.800  26.598  1.00  0.00     0.118 C 
BRANCH  27  28
ATOM     28  N   UNL A   1      33.111  31.197  26.985  1.00  0.00    -0.352 N 
ATOM     29  C   UNL A   1      33.985  31.907  27.772  1.00  0.00     0.251 C 
ATOM     30  H   UNL A   1      32.376  31.737  26.615  1.00  0.00     0.163 HD
ATOM     31  O   UNL A   1      33.619  33.024  28.144  1.00  0.00    -0.269 OA
BRANCH  29  32
ATOM     32  C   UNL A   1      35.326  31.403  28.192  1.00  0.00     0.039 A 
ATOM     33  C   UNL A   1      35.432  30.049  28.542  1.00  0.00     0.014 A 
ATOM     34  C   UNL A   1      36.445  32.221  28.369  1.00  0.00     0.014 A 
ATOM     35  C   UNL A   1      36.627  29.533  29.059  1.00  0.00     0.010 A 
ATOM     36  C   UNL A   1      37.669  31.683  28.786  1.00  0.00     0.010 A 
ATOM     37  C   UNL A   1      37.769  30.341  29.178  1.00  0.00    -0.014 A 
BRANCH  37  38
ATOM     38  C   UNL A   1      39.026  29.801  29.779  1.00  0.00     0.031 A 
ATOM     39  C   UNL A   1      39.503  30.290  31.128  1.00  0.00     0.074 A 
ATOM     40  C   UNL A   1      39.736  28.860  29.126  1.00  0.00     0.049 A 
ATOM     41  N   UNL A   1      40.555  29.924  31.820  1.00  0.00    -0.248 NA
ATOM     42  C   UNL A   1      38.707  31.344  31.774  1.00  0.00     0.031 C 
ATOM     43  C   UNL A   1      39.407  28.322  27.805  1.00  0.00     0.029 A 
ATOM     44  N   UNL A   1      40.874  28.177  29.484  1.00  0.00    -0.354 N 
ATOM     45  C   UNL A   1      40.549  30.707  32.972  1.00  0.00     0.074 A 
ATOM     46  C   UNL A   1      39.429  31.615  32.850  1.00  0.00     0.031 C 
ATOM     47  C   UNL A   1      40.290  27.362  27.486  1.00  0.00     0.029 A 
ATOM     48  C   UNL A   1      41.282  27.249  28.552  1.00  0.00     0.049 A 
ATOM     49  H   UNL A   1      41.353  28.336  30.330  1.00  0.00     0.167 HD
ATOM     50  C   UNL A   1      41.379  30.658  34.046  1.00  0.00     0.034 A 
ATOM     51  C   UNL A   1      42.336  26.408  28.549  1.00  0.00     0.034 A 
ATOM     52  C   UNL A   1      42.488  29.741  34.164  1.00  0.00     0.049 A 
ATOM     53  C   UNL A   1      43.268  26.398  29.737  1.00  0.00     0.074 A 
ATOM     54  C   UNL A   1      43.359  29.576  35.227  1.00  0.00     0.029 A 
ATOM     55  N   UNL A   1      42.888  28.841  33.184  1.00  0.00    -0.354 N 
ATOM     56  N   UNL A   1      43.212  27.109  30.839  1.00  0.00    -0.248 NA
ATOM     57  C   UNL A   1      44.397  25.461  29.681  1.00  0.00     0.031 C 
ATOM     58  C   UNL A   1      44.333  28.642  34.857  1.00  0.00     0.029 A 
ATOM     59  C   UNL A   1      44.016  28.150  33.601  1.00  0.00     0.049 A 
ATOM     60  H   UNL A   1      42.435  28.712  32.319  1.00  0.00     0.167 HD
ATOM     61  C   UNL A   1      44.284  26.683  31.620  1.00  0.00     0.074 A 
ATOM     62  C   UNL A   1      44.948  25.634  30.873  1.00  0.00     0.031 C 
ATOM     63  C   UNL A   1      44.686  27.119  32.842  1.00  0.00     0.034 A 
BRANCH  50  64
ATOM     64  C   UNL A   1      41.132  31.645  35.166  1.00  0.00     0.023 A 
ATOM     65  C   UNL A   1      40.070  31.487  36.076  1.00  0.00     0.031 A 
ATOM     66  C   UNL A   1      41.961  32.771  35.320  1.00  0.00     0.131 A 
ATOM     67  C   UNL A   1      39.817  32.475  37.040  1.00  0.00     0.055 A 
ATOM     68  C   UNL A   1      41.759  33.705  36.340  1.00  0.00     0.041 A 
ATOM     69  F   UNL A   1      42.979  32.993  34.473  1.00  0.00    -0.206 F 
ATOM     70  C   UNL A   1      40.672  33.567  37.198  1.00  0.00     0.022 A 
BRANCH  67  71
ATOM     71  S   UNL A   1      38.269  32.390  37.982  1.00  0.00     0.124 S 
ATOM     72  O   UNL A   1      37.660  31.179  37.437  1.00  0.00    -0.237 OA
ATOM     73  O   UNL A   1      38.741  32.306  39.359  1.00  0.00    -0.237 OA
ATOM     74  O   UNL A   1      37.586  33.633  37.631  1.00  0.00    -0.744 OA
ENDBRANCH  67  71
ENDBRANCH  50  64
BRANCH  51  75
ATOM     75  C   UNL A   1      42.589  25.511  27.380  1.00  0.00     0.023 A 
ATOM     76  C   UNL A   1      42.091  24.198  27.347  1.00  0.00     0.031 A 
ATOM     77  C   UNL A   1      43.386  25.938  26.302  1.00  0.00     0.131 A 
ATOM     78  C   UNL A   1      42.437  23.344  26.289  1.00  0.00     0.055 A 
ATOM     79  C   UNL A   1      43.672  25.105  25.219  1.00  0.00     0.041 A 
ATOM     80  F   UNL A   1      43.893  27.181  26.280  1.00  0.00    -0.206 F 
ATOM     81  C   UNL A   1      43.210  23.793  25.216  1.00  0.00     0.022 A 
BRANCH  78  82
ATOM     82  S   UNL A   1      41.951  21.598  26.385  1.00  0.00     0.124 S 
ATOM     83  O   UNL A   1      42.266  21.279  27.772  1.00  0.00    -0.237 OA
ATOM     84  O   UNL A   1      40.534  21.659  26.045  1.00  0.00    -0.237 OA
ATOM     85  O   UNL A   1      42.802  20.953  25.386  1.00  0.00    -0.744 OA
ENDBRANCH  78  82
ENDBRANCH  51  75
BRANCH  63  86
ATOM     86  C   UNL A   1      45.883  26.431  33.458  1.00  0.00     0.023 A 
ATOM     87  C   UNL A   1      45.746  25.282  34.258  1.00  0.00     0.031 A 
ATOM     88  C   UNL A   1      47.177  26.949  33.269  1.00  0.00     0.131 A 
ATOM     89  C   UNL A   1      46.867  24.741  34.904  1.00  0.00     0.055 A 
ATOM     90  C   UNL A   1      48.300  26.357  33.851  1.00  0.00     0.041 A 
ATOM     91  F   UNL A   1      47.373  28.045  32.520  1.00  0.00    -0.206 F 
ATOM     92  C   UNL A   1      48.146  25.257  34.690  1.00  0.00     0.022 A 
BRANCH  89  93
ATOM     93  S   UNL A   1      46.610  23.434  36.138  1.00  0.00     0.124 S 
ATOM     94  O   UNL A   1      47.680  22.497  35.812  1.00  0.00    -0.237 OA
ATOM     95  O   UNL A   1      46.758  24.159  37.395  1.00  0.00    -0.237 OA
ATOM     96  O   UNL A   1      45.258  22.955  35.853  1.00  0.00    -0.744 OA
ENDBRANCH  89  93
ENDBRANCH  63  86
ENDBRANCH  37  38
ENDBRANCH  29  32
ENDBRANCH  27  28
ENDBRANCH  26  27
ENDBRANCH   1  26
TORSDOF 17
ENDMDL
MODEL 2
REMARK VINA RESULT:     -11.6      4.844     10.380
REMARK SMILES C[N@H+]1CCO[C@@H](CNS(=O)(=O)N2CCC(C(=O)NCCCNC(=O)c3ccc(-c4c5nc(c(-c6cc(S(=O)(=O)[O-])ccc6F)c6ccc([nH]6)c(-c6cc(S(=O)(=O)[O-])ccc6F)c6nc(c(-c7cc(S(=O)(=O)[O-])ccc7F)c7ccc4[nH]7)C=C6)C=C5)cc3)CC2)C1
REMARK SMILES IDX 19 1 18 2 16 3 17 4 15 6 12 7 13 8 89 9 14 10 88 11 9 12
REMARK SMILES IDX 10 13 11 14 8 15 7 17 6 18 1 19 2 20 3 21 90 22 4 24 5 25
REMARK SMILES IDX 20 26 21 27 22 28 23 29 24 31 25 32 26 33 87 34 27 35 86 36
REMARK SMILES IDX 28 37 29 38 30 39 80 40 31 41 85 42 79 43 81 44 32 45 84 46
REMARK SMILES IDX 78 47 77 48 33 50 65 51 45 52 64 53 46 54 49 55 63 56 82 57
REMARK SMILES IDX 47 58 48 59 62 61 83 62 50 63 34 64 35 65 43 66 36 67 42 68
REMARK SMILES IDX 44 69 41 70 37 71 38 72 39 73 40 74 66 75 67 76 75 77 68 78
REMARK SMILES IDX 74 79 76 80 73 81 69 82 70 83 71 84 72 85 51 86 52 87 60 88
REMARK SMILES IDX 53 89 59 90 61 91 58 92 54 93 55 94 56 95 57 96
REMARK H PARENT 18 5 8 16 2 23 22 30 81 49 49 60
REMARK Flexibility Score: inf
ROOT
ATOM      1  C   UNL A   1      35.002  22.550  24.895  1.00  0.00     0.117 C 
ENDROOT
BRANCH   1   2
ATOM      2  N   UNL A   1      34.631  22.921  23.535  1.00  0.00    -0.356 N 
ATOM      3  C   UNL A   1      33.639  23.693  23.016  1.00  0.00     0.223 C 
ATOM      4  O   UNL A   1      33.628  23.820  21.786  1.00  0.00    -0.275 OA
ATOM      5  H   UNL A   1      35.220  22.530  22.851  1.00  0.00     0.163 HD
BRANCH   3   6
ATOM      6  C   UNL A   1      32.517  24.334  23.834  1.00  0.00     0.081 C 
ATOM      7  N   UNL A   1      31.375  26.845  24.502  1.00  0.00    -0.189 NA
ATOM      8  C   UNL A   1      30.516  25.946  23.727  1.00  0.00     0.104 C 
ATOM      9  C   UNL A   1      32.094  26.155  25.563  1.00  0.00     0.104 C 
ATOM     10  C   UNL A   1      31.349  24.898  23.004  1.00  0.00     0.030 C 
ATOM     11  C   UNL A   1      33.128  25.252  24.907  1.00  0.00     0.030 C 
BRANCH   7  12
ATOM     12  S   UNL A   1      31.821  28.341  23.930  1.00  0.00     0.279 S 
ATOM     13  O   UNL A   1      32.938  28.182  23.027  1.00  0.00    -0.195 OA
ATOM     14  O   UNL A   1      31.859  29.268  25.032  1.00  0.00    -0.195 OA
BRANCH  12  15
ATOM     15  N   UNL A   1      30.491  28.808  23.002  1.00  0.00    -0.199 NA
ATOM     16  H   UNL A   1      30.816  28.969  22.049  1.00  0.00     0.142 HD
BRANCH  15  17
ATOM     17  C   UNL A   1      29.776  30.040  23.455  1.00  0.00     0.138 C 
BRANCH  17  18
ATOM     18  C   UNL A   1      28.298  30.081  23.021  1.00  0.00     0.188 C 
ATOM     19  C   UNL A   1      29.114  33.218  23.091  1.00  0.00     0.332 C 
ATOM     20  N   UNL A   1      27.902  32.560  22.627  1.00  0.00    -0.333 N 
ATOM     21  C   UNL A   1      27.904  32.252  21.186  1.00  0.00     0.290 C 
ATOM     22  C   UNL A   1      27.529  31.366  23.386  1.00  0.00     0.295 C 
ATOM     23  H   UNL A   1      27.187  33.267  22.800  1.00  0.00     0.348 HD
ATOM     24  C   UNL A   1      28.604  30.931  20.810  1.00  0.00     0.222 C 
ATOM     25  O   UNL A   1      28.172  29.821  21.608  1.00  0.00    -0.365 OA
ENDBRANCH  17  18
ENDBRANCH  15  17
ENDBRANCH  12  15
ENDBRANCH   7  12
ENDBRANCH   3   6
ENDBRANCH   1   2
BRANCH   1  26
ATOM     26  C   UNL A   1      35.948  21.365  24.952  1.00  0.00     0.042 C 
BRANCH  26  27
ATOM     27  C   UNL A   1      37.425  21.641  24.728  1.00  0.00     0.118 C 
BRANCH  27  28
ATOM     28  N   UNL A   1      38.266  20.665  25.395  1.00  0.00    -0.352 N 
ATOM     29  C   UNL A   1      39.412  20.796  26.142  1.00  0.00     0.251 C 
ATOM     30  H   UNL A   1      37.958  19.736  25.293  1.00  0.00     0.163 HD
ATOM     31  O   UNL A   1      40.058  19.768  26.356  1.00  0.00    -0.269 OA
BRANCH  29  32
ATOM     32  C   UNL A   1      39.905  22.094  26.692  1.00  0.00     0.039 A 
ATOM     33  C   UNL A   1      39.388  23.274  26.137  1.00  0.00     0.014 A 
ATOM     34  C   UNL A   1      40.928  22.201  27.636  1.00  0.00     0.014 A 
ATOM     35  C   UNL A   1      39.890  24.525  26.518  1.00  0.00     0.010 A 
ATOM     36  C   UNL A   1      41.356  23.454  28.094  1.00  0.00     0.010 A 
ATOM     37  C   UNL A   1      40.874  24.634  27.512  1.00  0.00    -0.014 A 
BRANCH  37  38
ATOM     38  C   UNL A   1      41.444  25.966  27.878  1.00  0.00     0.031 A 
ATOM     39  C   UNL A   1      42.837  26.353  27.434  1.00  0.00     0.074 A 
ATOM     40  C   UNL A   1      40.710  26.840  28.597  1.00  0.00     0.049 A 
ATOM     41  N   UNL A   1      43.492  27.471  27.635  1.00  0.00    -0.248 NA
ATOM     42  C   UNL A   1      43.602  25.344  26.687  1.00  0.00     0.031 C 
ATOM     43  C   UNL A   1      39.366  26.584  29.116  1.00  0.00     0.029 A 
ATOM     44  N   UNL A   1      40.981  28.123  29.006  1.00  0.00    -0.354 N 
ATOM     45  C   UNL A   1      44.743  27.294  27.049  1.00  0.00     0.074 A 
ATOM     46  C   UNL A   1      44.777  25.937  26.548  1.00  0.00     0.031 C 
ATOM     47  C   UNL A   1      38.911  27.688  29.729  1.00  0.00     0.029 A 
ATOM     48  C   UNL A   1      39.949  28.716  29.698  1.00  0.00     0.049 A 
ATOM     49  H   UNL A   1      41.835  28.579  28.820  1.00  0.00     0.167 HD
ATOM     50  C   UNL A   1      45.759  28.184  26.912  1.00  0.00     0.034 A 
ATOM     51  C   UNL A   1      39.847  29.942  30.252  1.00  0.00     0.034 A 
ATOM     52  C   UNL A   1      45.712  29.540  27.406  1.00  0.00     0.049 A 
ATOM     53  C   UNL A   1      41.004  30.902  30.121  1.00  0.00     0.074 A 
ATOM     54  C   UNL A   1      46.665  30.537  27.278  1.00  0.00     0.029 A 
ATOM     55  N   UNL A   1      44.662  30.090  28.130  1.00  0.00    -0.354 N 
ATOM     56  N   UNL A   1      42.157  30.731  29.514  1.00  0.00    -0.248 NA
ATOM     57  C   UNL A   1      40.839  32.222  30.739  1.00  0.00     0.031 C 
ATOM     58  C   UNL A   1      46.230  31.656  27.997  1.00  0.00     0.029 A 
ATOM     59  C   UNL A   1      44.963  31.395  28.492  1.00  0.00     0.049 A 
ATOM     60  H   UNL A   1      43.826  29.621  28.355  1.00  0.00     0.167 HD
ATOM     61  C   UNL A   1      42.842  31.937  29.656  1.00  0.00     0.074 A 
ATOM     62  C   UNL A   1      41.959  32.830  30.378  1.00  0.00     0.031 C 
ATOM     63  C   UNL A   1      44.087  32.275  29.231  1.00  0.00     0.034 A 
BRANCH  50  64
ATOM     64  C   UNL A   1      47.019  27.707  26.223  1.00  0.00     0.023 A 
ATOM     65  C   UNL A   1      47.276  27.985  24.867  1.00  0.00     0.031 A 
ATOM     66  C   UNL A   1      47.974  26.949  26.925  1.00  0.00     0.131 A 
ATOM     67  C   UNL A   1      48.409  27.443  24.241  1.00  0.00     0.055 A 
ATOM     68  C   UNL A   1      49.145  26.488  26.319  1.00  0.00     0.041 A 
ATOM     69  F   UNL A   1      47.779  26.631  28.215  1.00  0.00    -0.206 F 
ATOM     70  C   UNL A   1      49.360  26.722  24.965  1.00  0.00     0.022 A 
BRANCH  67  71
ATOM     71  S   UNL A   1      48.541  27.562  22.435  1.00  0.00     0.124 S 
ATOM     72  O   UNL A   1      47.310  28.274  22.097  1.00  0.00    -0.237 OA
ATOM     73  O   UNL A   1      49.781  28.309  22.258  1.00  0.00    -0.237 OA
ATOM     74  O   UNL A   1      48.584  26.168  22.002  1.00  0.00    -0.744 OA
ENDBRANCH  67  71
ENDBRANCH  50  64
BRANCH  51  75
ATOM     75  C   UNL A   1      38.614  30.338  30.998  1.00  0.00     0.023 A 
ATOM     76  C   UNL A   1      37.574  31.041  30.368  1.00  0.00     0.031 A 
ATOM     77  C   UNL A   1      38.486  30.070  32.374  1.00  0.00     0.131 A 
ATOM     78  C   UNL A   1      36.480  31.497  31.120  1.00  0.00     0.055 A 
ATOM     79  C   UNL A   1      37.364  30.468  33.103  1.00  0.00     0.041 A 
ATOM     80  F   UNL A   1      39.450  29.406  33.031  1.00  0.00    -0.206 F 
ATOM     81  C   UNL A   1      36.359  31.201  32.479  1.00  0.00     0.022 A 
BRANCH  78  82
ATOM     82  S   UNL A   1      35.264  32.578  30.318  1.00  0.00     0.124 S 
ATOM     83  O   UNL A   1      34.886  31.787  29.154  1.00  0.00    -0.237 OA
ATOM     84  O   UNL A   1      34.250  32.717  31.357  1.00  0.00    -0.237 OA
ATOM     85  O   UNL A   1      36.026  33.792  30.029  1.00  0.00    -0.744 OA
ENDBRANCH  78  82
ENDBRANCH  51  75
BRANCH  63  86
ATOM     86  C   UNL A   1      44.547  33.687  29.510  1.00  0.00     0.023 A 
ATOM     87  C   UNL A   1      44.416  34.711  28.555  1.00  0.00     0.031 A 
ATOM     88  C   UNL A   1      45.157  34.008  30.736  1.00  0.00     0.131 A 
ATOM     89  C   UNL A   1      44.960  35.980  28.808  1.00  0.00     0.055 A 
ATOM     90  C   UNL A   1      45.625  35.295  31.013  1.00  0.00     0.041 A 
ATOM     91  F   UNL A   1      45.315  33.074  31.687  1.00  0.00    -0.206 F 
ATOM     92  C   UNL A   1      45.544  36.284  30.038  1.00  0.00     0.022 A 
BRANCH  89  93
ATOM     93  S   UNL A   1      45.013  37.187  27.453  1.00  0.00     0.124 S 
ATOM     94  O   UNL A   1      45.936  36.552  26.519  1.00  0.00    -0.237 OA
ATOM     95  O   UNL A   1      43.617  37.243  27.031  1.00  0.00    -0.237 OA
ATOM     96  O   UNL A   1      45.515  38.401  28.096  1.00  0.00    -0.744 OA
ENDBRANCH  89  93
ENDBRANCH  63  86
ENDBRANCH  37  38
ENDBRANCH  29  32
ENDBRANCH  27  28
ENDBRANCH  26  27
ENDBRANCH   1  26
TORSDOF 17
ENDMDL
MODEL 3
REMARK VINA RESULT:     -11.5      4.800     10.178
REMARK SMILES C[N@H+]1CCO[C@@H](CNS(=O)(=O)N2CCC(C(=O)NCCCNC(=O)c3ccc(-c4c5nc(c(-c6cc(S(=O)(=O)[O-])ccc6F)c6ccc([nH]6)c(-c6cc(S(=O)(=O)[O-])ccc6F)c6nc(c(-c7cc(S(=O)(=O)[O-])ccc7F)c7ccc4[nH]7)C=C6)C=C5)cc3)CC2)C1
REMARK SMILES IDX 19 1 18 2 16 3 17 4 15 6 12 7 13 8 89 9 14 10 88 11 9 12
REMARK SMILES IDX 10 13 11 14 8 15 7 17 6 18 1 19 2 20 3 21 90 22 4 24 5 25
REMARK SMILES IDX 20 26 21 27 22 28 23 29 24 31 25 32 26 33 87 34 27 35 86 36
REMARK SMILES IDX 28 37 29 38 30 39 80 40 31 41 85 42 79 43 81 44 32 45 84 46
REMARK SMILES IDX 78 47 77 48 33 50 65 51 45 52 64 53 46 54 49 55 63 56 82 57
REMARK SMILES IDX 47 58 48 59 62 61 83 62 50 63 34 64 35 65 43 66 36 67 42 68
REMARK SMILES IDX 44 69 41 70 37 71 38 72 39 73 40 74 66 75 67 76 75 77 68 78
REMARK SMILES IDX 74 79 76 80 73 81 69 82 70 83 71 84 72 85 51 86 52 87 60 88
REMARK SMILES IDX 53 89 59 90 61 91 58 92 54 93 55 94 56 95 57 96
REMARK H PARENT 18 5 8 16 2 23 22 30 81 49 49 60
REMARK Flexibility Score: inf
ROOT
ATOM      1  C   UNL A   1      35.352  20.742  25.403  1.00  0.00     0.117 C 
ENDROOT
BRANCH   1   2
ATOM      2  N   UNL A   1      34.887  21.977  26.021  1.00  0.00    -0.356 N 
ATOM      3  C   UNL A   1      33.946  22.897  25.676  1.00  0.00     0.223 C 
ATOM      4  O   UNL A   1      33.786  23.840  26.460  1.00  0.00    -0.275 OA
ATOM      5  H   UNL A   1      35.351  22.191  26.862  1.00  0.00     0.163 HD
BRANCH   3   6
ATOM      6  C   UNL A   1      33.151  22.880  24.370  1.00  0.00     0.081 C 
ATOM      7  N   UNL A   1      32.137  24.579  22.335  1.00  0.00    -0.189 NA
ATOM      8  C   UNL A   1      33.164  23.624  21.908  1.00  0.00     0.104 C 
ATOM      9  C   UNL A   1      31.157  23.983  23.231  1.00  0.00     0.104 C 
ATOM     10  C   UNL A   1      33.979  23.145  23.100  1.00  0.00     0.030 C 
ATOM     11  C   UNL A   1      31.857  23.694  24.552  1.00  0.00     0.030 C 
BRANCH   7  12
ATOM     12  S   UNL A   1      32.352  26.221  22.190  1.00  0.00     0.279 S 
ATOM     13  O   UNL A   1      31.103  26.821  21.782  1.00  0.00    -0.195 OA
ATOM     14  O   UNL A   1      33.583  26.468  21.483  1.00  0.00    -0.195 OA
BRANCH  12  15
ATOM     15  N   UNL A   1      32.645  26.710  23.779  1.00  0.00    -0.199 NA
ATOM     16  H   UNL A   1      32.656  25.875  24.365  1.00  0.00     0.142 HD
BRANCH  15  17
ATOM     17  C   UNL A   1      31.655  27.665  24.363  1.00  0.00     0.138 C 
BRANCH  17  18
ATOM     18  C   UNL A   1      32.206  29.097  24.509  1.00  0.00     0.188 C 
ATOM     19  C   UNL A   1      31.443  28.304  27.559  1.00  0.00     0.332 C 
ATOM     20  N   UNL A   1      32.136  29.466  27.023  1.00  0.00    -0.333 N 
ATOM     21  C   UNL A   1      33.603  29.331  27.005  1.00  0.00     0.290 C 
ATOM     22  C   UNL A   1      31.665  29.902  25.707  1.00  0.00     0.295 C 
ATOM     23  H   UNL A   1      31.893  30.197  27.691  1.00  0.00     0.348 HD
ATOM     24  C   UNL A   1      34.167  28.593  25.774  1.00  0.00     0.222 C 
ATOM     25  O   UNL A   1      33.648  29.092  24.534  1.00  0.00    -0.365 OA
ENDBRANCH  17  18
ENDBRANCH  15  17
ENDBRANCH  12  15
ENDBRANCH   7  12
ENDBRANCH   3   6
ENDBRANCH   1   2
BRANCH   1  26
ATOM     26  C   UNL A   1      36.659  20.906  24.652  1.00  0.00     0.042 C 
BRANCH  26  27
ATOM     27  C   UNL A   1      37.770  21.677  25.344  1.00  0.00     0.118 C 
BRANCH  27  28
ATOM     28  N   UNL A   1      38.787  20.795  25.883  1.00  0.00    -0.352 N 
ATOM     29  C   UNL A   1      39.993  21.045  26.495  1.00  0.00     0.251 C 
ATOM     30  H   UNL A   1      38.575  19.838  25.793  1.00  0.00     0.163 HD
ATOM     31  O   UNL A   1      40.770  20.095  26.605  1.00  0.00    -0.269 OA
BRANCH  29  32
ATOM     32  C   UNL A   1      40.399  22.383  27.018  1.00  0.00     0.039 A 
ATOM     33  C   UNL A   1      39.917  23.518  26.349  1.00  0.00     0.014 A 
ATOM     34  C   UNL A   1      41.318  22.567  28.054  1.00  0.00     0.014 A 
ATOM     35  C   UNL A   1      40.351  24.800  26.709  1.00  0.00     0.010 A 
ATOM     36  C   UNL A   1      41.670  23.854  28.482  1.00  0.00     0.010 A 
ATOM     37  C   UNL A   1      41.226  24.989  27.790  1.00  0.00    -0.014 A 
BRANCH  37  38
ATOM     38  C   UNL A   1      41.727  26.352  28.137  1.00  0.00     0.031 A 
ATOM     39  C   UNL A   1      43.103  26.799  27.697  1.00  0.00     0.074 A 
ATOM     40  C   UNL A   1      40.945  27.202  28.834  1.00  0.00     0.049 A 
ATOM     41  N   UNL A   1      43.702  27.951  27.883  1.00  0.00    -0.248 NA
ATOM     42  C   UNL A   1      43.923  25.816  26.974  1.00  0.00     0.031 C 
ATOM     43  C   UNL A   1      39.610  26.890  29.346  1.00  0.00     0.029 A 
ATOM     44  N   UNL A   1      41.150  28.504  29.222  1.00  0.00    -0.354 N 
ATOM     45  C   UNL A   1      44.965  27.825  27.310  1.00  0.00     0.074 A 
ATOM     46  C   UNL A   1      45.069  26.463  26.834  1.00  0.00     0.031 C 
ATOM     47  C   UNL A   1      39.097  27.981  29.937  1.00  0.00     0.029 A 
ATOM     48  C   UNL A   1      40.084  29.058  29.895  1.00  0.00     0.049 A 
ATOM     49  H   UNL A   1      41.982  28.997  29.035  1.00  0.00     0.167 HD
ATOM     50  C   UNL A   1      45.938  28.761  27.165  1.00  0.00     0.034 A 
ATOM     51  C   UNL A   1      39.918  30.286  30.426  1.00  0.00     0.034 A 
ATOM     52  C   UNL A   1      45.820  30.122  27.635  1.00  0.00     0.049 A 
ATOM     53  C   UNL A   1      41.029  31.299  30.287  1.00  0.00     0.074 A 
ATOM     54  C   UNL A   1      46.725  31.161  27.497  1.00  0.00     0.029 A 
ATOM     55  N   UNL A   1      44.738  30.632  28.341  1.00  0.00    -0.354 N 
ATOM     56  N   UNL A   1      42.193  31.175  29.693  1.00  0.00    -0.248 NA
ATOM     57  C   UNL A   1      40.794  32.621  30.881  1.00  0.00     0.031 C 
ATOM     58  C   UNL A   1      46.230  32.270  28.192  1.00  0.00     0.029 A 
ATOM     59  C   UNL A   1      44.973  31.956  28.682  1.00  0.00     0.049 A 
ATOM     60  H   UNL A   1      43.924  30.127  28.567  1.00  0.00     0.167 HD
ATOM     61  C   UNL A   1      42.817  32.414  29.819  1.00  0.00     0.074 A 
ATOM     62  C   UNL A   1      41.886  33.276  30.519  1.00  0.00     0.031 C 
ATOM     63  C   UNL A   1      44.048  32.805  29.398  1.00  0.00     0.034 A 
BRANCH  50  64
ATOM     64  C   UNL A   1      47.226  28.335  26.495  1.00  0.00     0.023 A 
ATOM     65  C   UNL A   1      47.360  28.305  25.095  1.00  0.00     0.031 A 
ATOM     66  C   UNL A   1      48.333  27.935  27.266  1.00  0.00     0.131 A 
ATOM     67  C   UNL A   1      48.538  27.810  24.512  1.00  0.00     0.055 A 
ATOM     68  C   UNL A   1      49.535  27.530  26.680  1.00  0.00     0.041 A 
ATOM     69  F   UNL A   1      48.263  27.920  28.606  1.00  0.00    -0.206 F 
ATOM     70  C   UNL A   1      49.637  27.451  25.294  1.00  0.00     0.022 A 
BRANCH  67  71
ATOM     71  S   UNL A   1      48.555  27.497  22.725  1.00  0.00     0.124 S 
ATOM     72  O   UNL A   1      49.828  28.099  22.333  1.00  0.00    -0.237 OA
ATOM     73  O   UNL A   1      48.488  26.042  22.659  1.00  0.00    -0.237 OA
ATOM     74  O   UNL A   1      47.368  28.200  22.242  1.00  0.00    -0.744 OA
ENDBRANCH  67  71
ENDBRANCH  50  64
BRANCH  51  75
ATOM     75  C   UNL A   1      38.661  30.635  31.156  1.00  0.00     0.023 A 
ATOM     76  C   UNL A   1      37.592  31.273  30.504  1.00  0.00     0.031 A 
ATOM     77  C   UNL A   1      38.535  30.388  32.535  1.00  0.00     0.131 A 
ATOM     78  C   UNL A   1      36.471  31.688  31.239  1.00  0.00     0.055 A 
ATOM     79  C   UNL A   1      37.388  30.744  33.248  1.00  0.00     0.041 A 
ATOM     80  F   UNL A   1      39.525  29.786  33.213  1.00  0.00    -0.206 F 
ATOM     81  C   UNL A   1      36.354  31.413  32.602  1.00  0.00     0.022 A 
BRANCH  78  82
ATOM     82  S   UNL A   1      35.208  32.691  30.406  1.00  0.00     0.124 S 
ATOM     83  O   UNL A   1      34.978  31.925  29.188  1.00  0.00    -0.237 OA
ATOM     84  O   UNL A   1      34.125  32.686  31.383  1.00  0.00    -0.237 OA
ATOM     85  O   UNL A   1      35.869  33.982  30.219  1.00  0.00    -0.744 OA
ENDBRANCH  78  82
ENDBRANCH  51  75
BRANCH  63  86
ATOM     86  C   UNL A   1      44.437  34.243  29.656  1.00  0.00     0.023 A 
ATOM     87  C   UNL A   1      44.142  35.266  28.737  1.00  0.00     0.031 A 
ATOM     88  C   UNL A   1      45.144  34.592  30.821  1.00  0.00     0.131 A 
ATOM     89  C   UNL A   1      44.620  36.566  28.958  1.00  0.00     0.055 A 
ATOM     90  C   UNL A   1      45.548  35.904  31.074  1.00  0.00     0.041 A 
ATOM     91  F   UNL A   1      45.460  33.660  31.735  1.00  0.00    -0.206 F 
ATOM     92  C   UNL A   1      45.303  36.897  30.129  1.00  0.00     0.022 A 
BRANCH  89  93
ATOM     93  S   UNL A   1      44.455  37.789  27.627  1.00  0.00     0.124 S 
ATOM     94  O   UNL A   1      45.714  37.626  26.909  1.00  0.00    -0.237 OA
ATOM     95  O   UNL A   1      43.258  37.330  26.928  1.00  0.00    -0.237 OA
ATOM     96  O   UNL A   1      44.307  39.056  28.342  1.00  0.00    -0.744 OA
ENDBRANCH  89  93
ENDBRANCH  63  86
ENDBRANCH  37  38
ENDBRANCH  29  32
ENDBRANCH  27  28
ENDBRANCH  26  27
ENDBRANCH   1  26
TORSDOF 17
ENDMDL
