MODEL 1
REMARK VINA RESULT:     -10.9      0.000      0.000
REMARK SMILES O=C(COC[C@@H]1CCCCO1)NCCCNC(=O)c1ccc(-c2c3nc(c(-c4cc(S(=O)(=O)[O-])ccc4F)c4ccc([nH]4)c(-c4cc(S(=O)(=O)[O-])ccc4F)c4nc(c(-c5cc(S(=O)(=O)[O-])ccc5F)c5ccc2[nH]5)C=C4)C=C3)cc1
REMARK SMILES IDX 14 1 13 2 12 3 1 4 2 5 3 7 4 8 5 9 6 10 7 11 11 12 8 13
REMARK SMILES IDX 10 14 9 15 15 16 16 17 17 18 18 20 19 21 20 22 81 23 21 24
REMARK SMILES IDX 80 25 22 26 23 27 24 28 74 29 25 30 79 31 73 32 75 33 26 34
REMARK SMILES IDX 78 35 72 36 71 37 27 39 59 40 39 41 58 42 40 43 43 44 57 45
REMARK SMILES IDX 76 46 41 47 42 48 56 50 77 51 44 52 28 53 29 54 37 55 30 56
REMARK SMILES IDX 36 57 38 58 35 59 31 60 32 61 33 62 34 63 60 64 61 65 69 66
REMARK SMILES IDX 62 67 68 68 70 69 67 70 63 71 64 72 65 73 66 74 45 75 46 76
REMARK SMILES IDX 54 77 47 78 53 79 55 80 52 81 48 82 49 83 50 84 51 85
REMARK H PARENT 12 6 16 19 75 38 43 49
REMARK Flexibility Score: inf
ROOT
ATOM      1  C   UNL A   1      41.492  19.918  27.437  1.00  0.00     0.042 C 
ENDROOT
BRANCH   1   2
ATOM      2  C   UNL A   1      41.534  19.210  26.088  1.00  0.00     0.117 C 
BRANCH   2   3
ATOM      3  N   UNL A   1      42.722  19.526  25.324  1.00  0.00    -0.354 N 
ATOM      4  O   UNL A   1      44.013  17.797  26.127  1.00  0.00    -0.272 OA
ATOM      5  C   UNL A   1      43.867  18.763  25.384  1.00  0.00     0.246 C 
ATOM      6  H   UNL A   1      42.710  20.317  24.738  1.00  0.00     0.163 HD
BRANCH   5   7
ATOM      7  C   UNL A   1      44.972  19.245  24.437  1.00  0.00     0.260 C 
BRANCH   7   8
ATOM      8  O   UNL A   1      46.007  20.033  25.016  1.00  0.00    -0.369 OA
BRANCH   8   9
ATOM      9  C   UNL A   1      45.627  21.364  25.381  1.00  0.00     0.192 C 
BRANCH   9  10
ATOM     10  C   UNL A   1      45.283  22.303  24.207  1.00  0.00     0.144 C 
ATOM     11  C   UNL A   1      45.911  23.696  24.318  1.00  0.00     0.034 C 
ATOM     12  O   UNL A   1      43.863  22.397  24.004  1.00  0.00    -0.376 OA
ATOM     13  C   UNL A   1      45.200  24.564  25.351  1.00  0.00     0.005 C 
ATOM     14  C   UNL A   1      43.166  23.141  25.001  1.00  0.00     0.160 C 
ATOM     15  C   UNL A   1      43.697  24.562  25.101  1.00  0.00     0.029 C 
ENDBRANCH   9  10
ENDBRANCH   8   9
ENDBRANCH   7   8
ENDBRANCH   5   7
ENDBRANCH   2   3
ENDBRANCH   1   2
BRANCH   1  16
ATOM     16  C   UNL A   1      41.028  21.371  27.378  1.00  0.00     0.118 C 
BRANCH  16  17
ATOM     17  N   UNL A   1      39.774  21.539  26.661  1.00  0.00    -0.352 N 
ATOM     18  C   UNL A   1      38.976  22.643  26.501  1.00  0.00     0.251 C 
ATOM     19  H   UNL A   1      39.442  20.725  26.217  1.00  0.00     0.163 HD
ATOM     20  O   UNL A   1      37.870  22.493  25.973  1.00  0.00    -0.269 OA
BRANCH  18  21
ATOM     21  C   UNL A   1      39.397  23.987  26.960  1.00  0.00     0.039 A 
ATOM     22  C   UNL A   1      39.987  24.853  26.031  1.00  0.00     0.014 A 
ATOM     23  C   UNL A   1      39.278  24.388  28.293  1.00  0.00     0.014 A 
ATOM     24  C   UNL A   1      40.415  26.123  26.426  1.00  0.00     0.010 A 
ATOM     25  C   UNL A   1      39.637  25.684  28.670  1.00  0.00     0.010 A 
ATOM     26  C   UNL A   1      40.225  26.561  27.746  1.00  0.00    -0.014 A 
BRANCH  26  27
ATOM     27  C   UNL A   1      40.674  27.914  28.176  1.00  0.00     0.031 A 
ATOM     28  C   UNL A   1      42.134  28.282  28.113  1.00  0.00     0.074 A 
ATOM     29  C   UNL A   1      39.778  28.800  28.654  1.00  0.00     0.049 A 
ATOM     30  N   UNL A   1      42.727  29.390  28.481  1.00  0.00    -0.248 NA
ATOM     31  C   UNL A   1      43.050  27.255  27.596  1.00  0.00     0.031 C 
ATOM     32  C   UNL A   1      38.342  28.553  28.801  1.00  0.00     0.029 A 
ATOM     33  N   UNL A   1      39.940  30.086  29.109  1.00  0.00    -0.354 N 
ATOM     34  C   UNL A   1      44.085  29.188  28.252  1.00  0.00     0.074 A 
ATOM     35  C   UNL A   1      44.230  27.828  27.776  1.00  0.00     0.031 C 
ATOM     36  C   UNL A   1      37.752  29.659  29.284  1.00  0.00     0.029 A 
ATOM     37  C   UNL A   1      38.769  30.681  29.519  1.00  0.00     0.049 A 
ATOM     38  H   UNL A   1      40.813  30.539  29.137  1.00  0.00     0.167 HD
ATOM     39  C   UNL A   1      45.114  30.062  28.400  1.00  0.00     0.034 A 
ATOM     40  C   UNL A   1      38.540  31.905  30.031  1.00  0.00     0.034 A 
ATOM     41  C   UNL A   1      44.953  31.420  28.860  1.00  0.00     0.049 A 
ATOM     42  C   UNL A   1      39.698  32.859  30.192  1.00  0.00     0.074 A 
ATOM     43  C   UNL A   1      45.919  32.402  29.008  1.00  0.00     0.029 A 
ATOM     44  N   UNL A   1      43.750  31.991  29.254  1.00  0.00    -0.354 N 
ATOM     45  N   UNL A   1      40.970  32.667  29.928  1.00  0.00    -0.248 NA
ATOM     46  C   UNL A   1      39.384  34.200  30.700  1.00  0.00     0.031 C 
ATOM     47  C   UNL A   1      45.311  33.542  29.544  1.00  0.00     0.029 A 
ATOM     48  C   UNL A   1      43.952  33.301  29.662  1.00  0.00     0.049 A 
ATOM     49  H   UNL A   1      42.879  31.532  29.244  1.00  0.00     0.167 HD
ATOM     50  C   UNL A   1      41.601  33.878  30.205  1.00  0.00     0.074 A 
ATOM     51  C   UNL A   1      40.567  34.794  30.642  1.00  0.00     0.031 C 
ATOM     52  C   UNL A   1      42.914  34.205  30.099  1.00  0.00     0.034 A 
BRANCH  39  53
ATOM     53  C   UNL A   1      46.502  29.557  28.081  1.00  0.00     0.023 A 
ATOM     54  C   UNL A   1      46.858  29.140  26.786  1.00  0.00     0.031 A 
ATOM     55  C   UNL A   1      47.477  29.458  29.091  1.00  0.00     0.131 A 
ATOM     56  C   UNL A   1      48.117  28.565  26.554  1.00  0.00     0.055 A 
ATOM     57  C   UNL A   1      48.758  28.967  28.834  1.00  0.00     0.041 A 
ATOM     58  F   UNL A   1      47.193  29.822  30.352  1.00  0.00    -0.206 F 
ATOM     59  C   UNL A   1      49.080  28.501  27.563  1.00  0.00     0.022 A 
BRANCH  56  60
ATOM     60  S   UNL A   1      48.421  27.764  24.955  1.00  0.00     0.124 S 
ATOM     61  O   UNL A   1      47.352  28.329  24.135  1.00  0.00    -0.237 OA
ATOM     62  O   UNL A   1      49.774  28.203  24.633  1.00  0.00    -0.237 OA
ATOM     63  O   UNL A   1      48.280  26.341  25.253  1.00  0.00    -0.744 OA
ENDBRANCH  56  60
ENDBRANCH  39  53
BRANCH  40  64
ATOM     64  C   UNL A   1      37.162  32.313  30.429  1.00  0.00     0.023 A 
ATOM     65  C   UNL A   1      36.250  32.804  29.481  1.00  0.00     0.031 A 
ATOM     66  C   UNL A   1      36.752  32.260  31.774  1.00  0.00     0.131 A 
ATOM     67  C   UNL A   1      34.992  33.271  29.896  1.00  0.00     0.055 A 
ATOM     68  C   UNL A   1      35.481  32.676  32.173  1.00  0.00     0.041 A 
ATOM     69  F   UNL A   1      37.583  31.794  32.719  1.00  0.00    -0.206 F 
ATOM     70  C   UNL A   1      34.597  33.198  31.233  1.00  0.00     0.022 A 
BRANCH  67  71
ATOM     71  S   UNL A   1      33.910  34.055  28.670  1.00  0.00     0.124 S 
ATOM     72  O   UNL A   1      32.839  34.579  29.510  1.00  0.00    -0.237 OA
ATOM     73  O   UNL A   1      34.799  35.045  28.070  1.00  0.00    -0.237 OA
ATOM     74  O   UNL A   1      33.531  32.948  27.794  1.00  0.00    -0.744 OA
ENDBRANCH  67  71
ENDBRANCH  40  64
BRANCH  52  75
ATOM     75  C   UNL A   1      43.292  35.635  30.407  1.00  0.00     0.023 A 
ATOM     76  C   UNL A   1      43.478  36.088  31.725  1.00  0.00     0.031 A 
ATOM     77  C   UNL A   1      43.448  36.562  29.361  1.00  0.00     0.131 A 
ATOM     78  C   UNL A   1      43.746  37.445  31.965  1.00  0.00     0.055 A 
ATOM     79  C   UNL A   1      43.776  37.896  29.603  1.00  0.00     0.041 A 
ATOM     80  F   UNL A   1      43.281  36.184  28.083  1.00  0.00    -0.206 F 
ATOM     81  C   UNL A   1      43.912  38.348  30.912  1.00  0.00     0.022 A 
BRANCH  78  82
ATOM     82  S   UNL A   1      43.775  38.038  33.680  1.00  0.00     0.124 S 
ATOM     83  O   UNL A   1      43.106  36.951  34.388  1.00  0.00    -0.237 OA
ATOM     84  O   UNL A   1      45.205  38.181  33.935  1.00  0.00    -0.237 OA
ATOM     85  O   UNL A   1      43.028  39.293  33.622  1.00  0.00    -0.744 OA
ENDBRANCH  78  82
ENDBRANCH  52  75
ENDBRANCH  26  27
ENDBRANCH  18  21
ENDBRANCH  16  17
ENDBRANCH   1  16
TORSDOF 16
ENDMDL
MODEL 2
REMARK VINA RESULT:     -10.5      2.049      2.399
REMARK SMILES O=C(COC[C@@H]1CCCCO1)NCCCNC(=O)c1ccc(-c2c3nc(c(-c4cc(S(=O)(=O)[O-])ccc4F)c4ccc([nH]4)c(-c4cc(S(=O)(=O)[O-])ccc4F)c4nc(c(-c5cc(S(=O)(=O)[O-])ccc5F)c5ccc2[nH]5)C=C4)C=C3)cc1
REMARK SMILES IDX 14 1 13 2 12 3 1 4 2 5 3 7 4 8 5 9 6 10 7 11 11 12 8 13
REMARK SMILES IDX 10 14 9 15 15 16 16 17 17 18 18 20 19 21 20 22 81 23 21 24
REMARK SMILES IDX 80 25 22 26 23 27 24 28 74 29 25 30 79 31 73 32 75 33 26 34
REMARK SMILES IDX 78 35 72 36 71 37 27 39 59 40 39 41 58 42 40 43 43 44 57 45
REMARK SMILES IDX 76 46 41 47 42 48 56 50 77 51 44 52 28 53 29 54 37 55 30 56
REMARK SMILES IDX 36 57 38 58 35 59 31 60 32 61 33 62 34 63 60 64 61 65 69 66
REMARK SMILES IDX 62 67 68 68 70 69 67 70 63 71 64 72 65 73 66 74 45 75 46 76
REMARK SMILES IDX 54 77 47 78 53 79 55 80 52 81 48 82 49 83 50 84 51 85
REMARK H PARENT 12 6 16 19 75 38 43 49
REMARK Flexibility Score: inf
ROOT
ATOM      1  C   UNL A   1      41.401  19.901  27.244  1.00  0.00     0.042 C 
ENDROOT
BRANCH   1   2
ATOM      2  C   UNL A   1      42.069  19.121  26.117  1.00  0.00     0.117 C 
BRANCH   2   3
ATOM      3  N   UNL A   1      43.072  19.894  25.416  1.00  0.00    -0.354 N 
ATOM      4  O   UNL A   1      44.584  18.176  25.155  1.00  0.00    -0.272 OA
ATOM      5  C   UNL A   1      44.248  19.340  24.959  1.00  0.00     0.246 C 
ATOM      6  H   UNL A   1      42.907  20.851  25.259  1.00  0.00     0.163 HD
BRANCH   5   7
ATOM      7  C   UNL A   1      45.127  20.329  24.184  1.00  0.00     0.260 C 
BRANCH   7   8
ATOM      8  O   UNL A   1      44.460  21.424  23.565  1.00  0.00    -0.369 OA
BRANCH   8   9
ATOM      9  C   UNL A   1      44.982  22.716  23.888  1.00  0.00     0.192 C 
BRANCH   9  10
ATOM     10  C   UNL A   1      44.129  23.553  24.865  1.00  0.00     0.144 C 
ATOM     11  C   UNL A   1      44.617  24.994  25.040  1.00  0.00     0.034 C 
ATOM     12  O   UNL A   1      43.991  22.901  26.138  1.00  0.00    -0.376 OA
ATOM     13  C   UNL A   1      45.869  25.074  25.908  1.00  0.00     0.005 C 
ATOM     14  C   UNL A   1      45.173  22.896  26.937  1.00  0.00     0.160 C 
ATOM     15  C   UNL A   1      45.661  24.309  27.210  1.00  0.00     0.029 C 
ENDBRANCH   9  10
ENDBRANCH   8   9
ENDBRANCH   7   8
ENDBRANCH   5   7
ENDBRANCH   2   3
ENDBRANCH   1   2
BRANCH   1  16
ATOM     16  C   UNL A   1      41.083  21.355  26.908  1.00  0.00     0.118 C 
BRANCH  16  17
ATOM     17  N   UNL A   1      39.773  21.525  26.297  1.00  0.00    -0.352 N 
ATOM     18  C   UNL A   1      38.934  22.609  26.266  1.00  0.00     0.251 C 
ATOM     19  H   UNL A   1      39.433  20.728  25.827  1.00  0.00     0.163 HD
ATOM     20  O   UNL A   1      37.796  22.454  25.811  1.00  0.00    -0.269 OA
BRANCH  18  21
ATOM     21  C   UNL A   1      39.349  23.935  26.776  1.00  0.00     0.039 A 
ATOM     22  C   UNL A   1      39.963  24.828  25.890  1.00  0.00     0.014 A 
ATOM     23  C   UNL A   1      39.200  24.295  28.119  1.00  0.00     0.014 A 
ATOM     24  C   UNL A   1      40.387  26.083  26.335  1.00  0.00     0.010 A 
ATOM     25  C   UNL A   1      39.555  25.577  28.545  1.00  0.00     0.010 A 
ATOM     26  C   UNL A   1      40.167  26.480  27.663  1.00  0.00    -0.014 A 
BRANCH  26  27
ATOM     27  C   UNL A   1      40.610  27.817  28.146  1.00  0.00     0.031 A 
ATOM     28  C   UNL A   1      42.079  28.153  28.198  1.00  0.00     0.074 A 
ATOM     29  C   UNL A   1      39.700  28.715  28.571  1.00  0.00     0.049 A 
ATOM     30  N   UNL A   1      42.665  29.243  28.626  1.00  0.00    -0.248 NA
ATOM     31  C   UNL A   1      43.009  27.115  27.734  1.00  0.00     0.031 C 
ATOM     32  C   UNL A   1      38.252  28.497  28.607  1.00  0.00     0.029 A 
ATOM     33  N   UNL A   1      39.854  29.990  29.057  1.00  0.00    -0.354 N 
ATOM     34  C   UNL A   1      44.032  29.015  28.495  1.00  0.00     0.074 A 
ATOM     35  C   UNL A   1      44.184  27.660  28.010  1.00  0.00     0.031 C 
ATOM     36  C   UNL A   1      37.651  29.609  29.062  1.00  0.00     0.029 A 
ATOM     37  C   UNL A   1      38.669  30.604  29.389  1.00  0.00     0.049 A 
ATOM     38  H   UNL A   1      40.731  30.425  29.157  1.00  0.00     0.167 HD
ATOM     39  C   UNL A   1      45.065  29.865  28.733  1.00  0.00     0.034 A 
ATOM     40  C   UNL A   1      38.427  31.827  29.901  1.00  0.00     0.034 A 
ATOM     41  C   UNL A   1      44.898  31.220  29.201  1.00  0.00     0.049 A 
ATOM     42  C   UNL A   1      39.589  32.752  30.163  1.00  0.00     0.074 A 
ATOM     43  C   UNL A   1      45.870  32.178  29.435  1.00  0.00     0.029 A 
ATOM     44  N   UNL A   1      43.681  31.811  29.513  1.00  0.00    -0.354 N 
ATOM     45  N   UNL A   1      40.873  32.537  29.991  1.00  0.00    -0.248 NA
ATOM     46  C   UNL A   1      39.266  34.093  30.667  1.00  0.00     0.031 C 
ATOM     47  C   UNL A   1      45.248  33.323  29.943  1.00  0.00     0.029 A 
ATOM     48  C   UNL A   1      43.879  33.110  29.956  1.00  0.00     0.049 A 
ATOM     49  H   UNL A   1      42.804  31.371  29.432  1.00  0.00     0.167 HD
ATOM     50  C   UNL A   1      41.506  33.730  30.332  1.00  0.00     0.074 A 
ATOM     51  C   UNL A   1      40.462  34.662  30.706  1.00  0.00     0.031 C 
ATOM     52  C   UNL A   1      42.830  34.030  30.329  1.00  0.00     0.034 A 
BRANCH  39  53
ATOM     53  C   UNL A   1      46.462  29.335  28.509  1.00  0.00     0.023 A 
ATOM     54  C   UNL A   1      47.184  28.696  29.535  1.00  0.00     0.031 A 
ATOM     55  C   UNL A   1      47.098  29.498  27.265  1.00  0.00     0.131 A 
ATOM     56  C   UNL A   1      48.521  28.325  29.326  1.00  0.00     0.055 A 
ATOM     57  C   UNL A   1      48.400  29.047  27.038  1.00  0.00     0.041 A 
ATOM     58  F   UNL A   1      46.470  30.116  26.253  1.00  0.00    -0.206 F 
ATOM     59  C   UNL A   1      49.126  28.471  28.076  1.00  0.00     0.022 A 
BRANCH  56  60
ATOM     60  S   UNL A   1      49.504  27.793  30.755  1.00  0.00     0.124 S 
ATOM     61  O   UNL A   1      48.939  28.615  31.823  1.00  0.00    -0.237 OA
ATOM     62  O   UNL A   1      49.213  26.366  30.825  1.00  0.00    -0.237 OA
ATOM     63  O   UNL A   1      50.873  28.134  30.375  1.00  0.00    -0.744 OA
ENDBRANCH  56  60
ENDBRANCH  39  53
BRANCH  40  64
ATOM     64  C   UNL A   1      37.032  32.258  30.203  1.00  0.00     0.023 A 
ATOM     65  C   UNL A   1      36.274  32.968  29.258  1.00  0.00     0.031 A 
ATOM     66  C   UNL A   1      36.452  32.006  31.459  1.00  0.00     0.131 A 
ATOM     67  C   UNL A   1      34.999  33.447  29.601  1.00  0.00     0.055 A 
ATOM     68  C   UNL A   1      35.163  32.438  31.776  1.00  0.00     0.041 A 
ATOM     69  F   UNL A   1      37.131  31.326  32.396  1.00  0.00    -0.206 F 
ATOM     70  C   UNL A   1      34.434  33.175  30.848  1.00  0.00     0.022 A 
BRANCH  67  71
ATOM     71  S   UNL A   1      34.122  34.505  28.417  1.00  0.00     0.124 S 
ATOM     72  O   UNL A   1      35.020  34.473  27.268  1.00  0.00    -0.237 OA
ATOM     73  O   UNL A   1      32.854  33.801  28.262  1.00  0.00    -0.237 OA
ATOM     74  O   UNL A   1      34.039  35.791  29.107  1.00  0.00    -0.744 OA
ENDBRANCH  67  71
ENDBRANCH  40  64
BRANCH  52  75
ATOM     75  C   UNL A   1      43.214  35.447  30.686  1.00  0.00     0.023 A 
ATOM     76  C   UNL A   1      43.355  36.448  29.709  1.00  0.00     0.031 A 
ATOM     77  C   UNL A   1      43.463  35.792  32.027  1.00  0.00     0.131 A 
ATOM     78  C   UNL A   1      43.795  37.728  30.079  1.00  0.00     0.055 A 
ATOM     79  C   UNL A   1      43.841  37.083  32.396  1.00  0.00     0.041 A 
ATOM     80  F   UNL A   1      43.346  34.875  33.001  1.00  0.00    -0.206 F 
ATOM     81  C   UNL A   1      44.023  38.056  31.419  1.00  0.00     0.022 A 
BRANCH  78  82
ATOM     82  S   UNL A   1      44.164  38.934  28.775  1.00  0.00     0.124 S 
ATOM     83  O   UNL A   1      44.942  39.935  29.499  1.00  0.00    -0.237 OA
ATOM     84  O   UNL A   1      44.902  38.130  27.807  1.00  0.00    -0.237 OA
ATOM     85  O   UNL A   1      42.843  39.377  28.333  1.00  0.00    -0.744 OA
ENDBRANCH  78  82
ENDBRANCH  52  75
ENDBRANCH  26  27
ENDBRANCH  18  21
ENDBRANCH  16  17
ENDBRANCH   1  16
TORSDOF 16
ENDMDL
MODEL 3
REMARK VINA RESULT:     -10.4      4.750     12.335
REMARK SMILES O=C(COC[C@@H]1CCCCO1)NCCCNC(=O)c1ccc(-c2c3nc(c(-c4cc(S(=O)(=O)[O-])ccc4F)c4ccc([nH]4)c(-c4cc(S(=O)(=O)[O-])ccc4F)c4nc(c(-c5cc(S(=O)(=O)[O-])ccc5F)c5ccc2[nH]5)C=C4)C=C3)cc1
REMARK SMILES IDX 14 1 13 2 12 3 1 4 2 5 3 7 4 8 5 9 6 10 7 11 11 12 8 13
REMARK SMILES IDX 10 14 9 15 15 16 16 17 17 18 18 20 19 21 20 22 81 23 21 24
REMARK SMILES IDX 80 25 22 26 23 27 24 28 74 29 25 30 79 31 73 32 75 33 26 34
REMARK SMILES IDX 78 35 72 36 71 37 27 39 59 40 39 41 58 42 40 43 43 44 57 45
REMARK SMILES IDX 76 46 41 47 42 48 56 50 77 51 44 52 28 53 29 54 37 55 30 56
REMARK SMILES IDX 36 57 38 58 35 59 31 60 32 61 33 62 34 63 60 64 61 65 69 66
REMARK SMILES IDX 62 67 68 68 70 69 67 70 63 71 64 72 65 73 66 74 45 75 46 76
REMARK SMILES IDX 54 77 47 78 53 79 55 80 52 81 48 82 49 83 50 84 51 85
REMARK H PARENT 12 6 16 19 75 38 43 49
REMARK Flexibility Score: inf
ROOT
ATOM      1  C   UNL A   1      34.512  33.902  29.362  1.00  0.00     0.042 C 
ENDROOT
BRANCH   1   2
ATOM      2  C   UNL A   1      33.561  35.092  29.319  1.00  0.00     0.117 C 
BRANCH   2   3
ATOM      3  N   UNL A   1      33.823  36.060  30.362  1.00  0.00    -0.354 N 
ATOM      4  O   UNL A   1      32.157  35.361  31.789  1.00  0.00    -0.272 OA
ATOM      5  C   UNL A   1      33.110  36.093  31.541  1.00  0.00     0.246 C 
ATOM      6  H   UNL A   1      34.541  36.721  30.225  1.00  0.00     0.163 HD
BRANCH   5   7
ATOM      7  C   UNL A   1      33.608  37.156  32.526  1.00  0.00     0.260 C 
BRANCH   7   8
ATOM      8  O   UNL A   1      34.402  36.694  33.613  1.00  0.00    -0.369 OA
BRANCH   8   9
ATOM      9  C   UNL A   1      35.277  35.603  33.308  1.00  0.00     0.192 C 
BRANCH   9  10
ATOM     10  C   UNL A   1      35.146  34.369  34.226  1.00  0.00     0.144 C 
ATOM     11  C   UNL A   1      36.482  33.700  34.564  1.00  0.00     0.034 C 
ATOM     12  O   UNL A   1      34.214  33.412  33.697  1.00  0.00    -0.376 OA
ATOM     13  C   UNL A   1      37.031  32.893  33.392  1.00  0.00     0.005 C 
ATOM     14  C   UNL A   1      34.677  32.699  32.552  1.00  0.00     0.160 C 
ATOM     15  C   UNL A   1      35.965  31.948  32.853  1.00  0.00     0.029 C 
ENDBRANCH   9  10
ENDBRANCH   8   9
ENDBRANCH   7   8
ENDBRANCH   5   7
ENDBRANCH   2   3
ENDBRANCH   1   2
BRANCH   1  16
ATOM     16  C   UNL A   1      34.876  33.332  27.994  1.00  0.00     0.118 C 
BRANCH  16  17
ATOM     17  N   UNL A   1      34.047  32.200  27.610  1.00  0.00    -0.352 N 
ATOM     18  C   UNL A   1      34.319  30.856  27.593  1.00  0.00     0.251 C 
ATOM     19  H   UNL A   1      33.139  32.439  27.312  1.00  0.00     0.163 HD
ATOM     20  O   UNL A   1      33.494  30.099  27.073  1.00  0.00    -0.269 OA
BRANCH  18  21
ATOM     21  C   UNL A   1      35.571  30.304  28.159  1.00  0.00     0.039 A 
ATOM     22  C   UNL A   1      36.713  30.275  27.349  1.00  0.00     0.014 A 
ATOM     23  C   UNL A   1      35.629  29.762  29.446  1.00  0.00     0.014 A 
ATOM     24  C   UNL A   1      37.910  29.746  27.839  1.00  0.00     0.010 A 
ATOM     25  C   UNL A   1      36.844  29.303  29.960  1.00  0.00     0.010 A 
ATOM     26  C   UNL A   1      37.994  29.274  29.157  1.00  0.00    -0.014 A 
BRANCH  26  27
ATOM     27  C   UNL A   1      39.267  28.712  29.690  1.00  0.00     0.031 A 
ATOM     28  C   UNL A   1      39.918  29.330  30.901  1.00  0.00     0.074 A 
ATOM     29  C   UNL A   1      39.856  27.672  29.068  1.00  0.00     0.049 A 
ATOM     30  N   UNL A   1      41.045  29.015  31.488  1.00  0.00    -0.248 NA
ATOM     31  C   UNL A   1      39.223  30.472  31.511  1.00  0.00     0.031 C 
ATOM     32  C   UNL A   1      39.346  27.009  27.865  1.00  0.00     0.029 A 
ATOM     33  N   UNL A   1      41.012  26.989  29.356  1.00  0.00    -0.354 N 
ATOM     34  C   UNL A   1      41.199  29.926  32.529  1.00  0.00     0.074 A 
ATOM     35  C   UNL A   1      40.083  30.845  32.446  1.00  0.00     0.031 C 
ATOM     36  C   UNL A   1      40.171  26.000  27.536  1.00  0.00     0.029 A 
ATOM     37  C   UNL A   1      41.287  25.968  28.478  1.00  0.00     0.049 A 
ATOM     38  H   UNL A   1      41.590  27.211  30.122  1.00  0.00     0.167 HD
ATOM     39  C   UNL A   1      42.167  29.979  33.479  1.00  0.00     0.034 A 
ATOM     40  C   UNL A   1      42.321  25.105  28.430  1.00  0.00     0.034 A 
ATOM     41  C   UNL A   1      43.266  29.047  33.559  1.00  0.00     0.049 A 
ATOM     42  C   UNL A   1      43.388  25.185  29.493  1.00  0.00     0.074 A 
ATOM     43  C   UNL A   1      44.277  28.983  34.503  1.00  0.00     0.029 A 
ATOM     44  N   UNL A   1      43.503  28.016  32.659  1.00  0.00    -0.354 N 
ATOM     45  N   UNL A   1      43.495  26.025  30.497  1.00  0.00    -0.248 NA
ATOM     46  C   UNL A   1      44.462  24.185  29.429  1.00  0.00     0.031 C 
ATOM     47  C   UNL A   1      45.155  27.955  34.141  1.00  0.00     0.029 A 
ATOM     48  C   UNL A   1      44.653  27.327  33.013  1.00  0.00     0.049 A 
ATOM     49  H   UNL A   1      42.937  27.806  31.882  1.00  0.00     0.167 HD
ATOM     50  C   UNL A   1      44.629  25.630  31.203  1.00  0.00     0.074 A 
ATOM     51  C   UNL A   1      45.161  24.469  30.517  1.00  0.00     0.031 C 
ATOM     52  C   UNL A   1      45.177  26.172  32.320  1.00  0.00     0.034 A 
BRANCH  39  53
ATOM     53  C   UNL A   1      42.084  31.099  34.490  1.00  0.00     0.023 A 
ATOM     54  C   UNL A   1      42.562  32.391  34.203  1.00  0.00     0.031 A 
ATOM     55  C   UNL A   1      41.551  30.868  35.772  1.00  0.00     0.131 A 
ATOM     56  C   UNL A   1      42.578  33.373  35.206  1.00  0.00     0.055 A 
ATOM     57  C   UNL A   1      41.490  31.875  36.737  1.00  0.00     0.041 A 
ATOM     58  F   UNL A   1      41.098  29.652  36.113  1.00  0.00    -0.206 F 
ATOM     59  C   UNL A   1      42.020  33.132  36.463  1.00  0.00     0.022 A 
BRANCH  56  60
ATOM     60  S   UNL A   1      43.477  34.917  34.891  1.00  0.00     0.124 S 
ATOM     61  O   UNL A   1      44.324  35.011  36.079  1.00  0.00    -0.237 OA
ATOM     62  O   UNL A   1      44.165  34.632  33.637  1.00  0.00    -0.237 OA
ATOM     63  O   UNL A   1      42.418  35.919  34.809  1.00  0.00    -0.744 OA
ENDBRANCH  56  60
ENDBRANCH  39  53
BRANCH  40  64
ATOM     64  C   UNL A   1      42.407  24.086  27.345  1.00  0.00     0.023 A 
ATOM     65  C   UNL A   1      41.603  22.935  27.368  1.00  0.00     0.031 A 
ATOM     66  C   UNL A   1      43.328  24.227  26.292  1.00  0.00     0.131 A 
ATOM     67  C   UNL A   1      41.771  21.945  26.387  1.00  0.00     0.055 A 
ATOM     68  C   UNL A   1      43.453  23.264  25.288  1.00  0.00     0.041 A 
ATOM     69  F   UNL A   1      44.115  25.311  26.219  1.00  0.00    -0.206 F 
ATOM     70  C   UNL A   1      42.682  22.108  25.340  1.00  0.00     0.022 A 
BRANCH  67  71
ATOM     71  S   UNL A   1      40.838  20.397  26.547  1.00  0.00     0.124 S 
ATOM     72  O   UNL A   1      41.690  19.461  25.822  1.00  0.00    -0.237 OA
ATOM     73  O   UNL A   1      40.782  20.226  27.995  1.00  0.00    -0.237 OA
ATOM     74  O   UNL A   1      39.560  20.703  25.907  1.00  0.00    -0.744 OA
ENDBRANCH  67  71
ENDBRANCH  40  64
BRANCH  52  75
ATOM     75  C   UNL A   1      46.382  25.473  32.903  1.00  0.00     0.023 A 
ATOM     76  C   UNL A   1      46.258  24.437  33.845  1.00  0.00     0.031 A 
ATOM     77  C   UNL A   1      47.677  25.868  32.522  1.00  0.00     0.131 A 
ATOM     78  C   UNL A   1      47.408  23.875  34.421  1.00  0.00     0.055 A 
ATOM     79  C   UNL A   1      48.817  25.263  33.053  1.00  0.00     0.041 A 
ATOM     80  F   UNL A   1      47.855  26.854  31.627  1.00  0.00    -0.206 F 
ATOM     81  C   UNL A   1      48.686  24.271  34.019  1.00  0.00     0.022 A 
BRANCH  78  82
ATOM     82  S   UNL A   1      47.212  22.689  35.780  1.00  0.00     0.124 S 
ATOM     83  O   UNL A   1      46.670  23.531  36.842  1.00  0.00    -0.237 OA
ATOM     84  O   UNL A   1      46.292  21.711  35.209  1.00  0.00    -0.237 OA
ATOM     85  O   UNL A   1      48.571  22.201  36.008  1.00  0.00    -0.744 OA
ENDBRANCH  78  82
ENDBRANCH  52  75
ENDBRANCH  26  27
ENDBRANCH  18  21
ENDBRANCH  16  17
ENDBRANCH   1  16
TORSDOF 16
ENDMDL
