MODEL 1
REMARK VINA RESULT:     -11.1      0.000      0.000
REMARK SMILES O=C(NCCCNC(=O)c1ccc(NC2CC2)c(F)c1F)c1ccc(-c2c3nc(c(-c4cc(S(=O)(=O)[O-])ccc4F)c4ccc([nH]4)c(-c4cc(S(=O)(=O)[O-])ccc4F)c4nc(c(-c5cc(S(=O)(=O)[O-])ccc5F)c5ccc2[nH]5)C=C4)C=C3)cc1
REMARK SMILES IDX 4 1 3 2 1 3 2 4 22 6 23 7 84 8 24 9 83 10 25 11 26 12 27 13
REMARK SMILES IDX 77 14 28 15 82 16 76 17 78 18 29 19 81 20 75 21 74 22 30 24
REMARK SMILES IDX 62 25 42 26 61 27 43 28 46 29 60 30 79 31 44 32 45 33 59 35
REMARK SMILES IDX 80 36 47 37 31 38 32 39 40 40 33 41 39 42 41 43 38 44 34 45
REMARK SMILES IDX 35 46 36 47 37 48 63 49 64 50 72 51 65 52 71 53 73 54 70 55
REMARK SMILES IDX 66 56 67 57 68 58 69 59 48 60 49 61 57 62 50 63 56 64 58 65
REMARK SMILES IDX 55 66 51 67 52 68 53 69 54 70 5 71 6 72 7 73 8 74 9 76 10 77
REMARK SMILES IDX 11 78 20 79 12 80 18 81 21 82 13 83 19 84 14 85 15 87 16 88
REMARK SMILES IDX 17 89
REMARK H PARENT 3 5 78 23 46 34 7 75 14 86
REMARK Flexibility Score: inf
ROOT
ATOM      1  C   UNL A   1      33.894  28.609  26.147  1.00  0.00     0.118 C 
ENDROOT
BRANCH   1   2
ATOM      2  N   UNL A   1      33.749  29.989  26.589  1.00  0.00    -0.352 N 
ATOM      3  O   UNL A   1      34.116  31.812  27.852  1.00  0.00    -0.269 OA
ATOM      4  C   UNL A   1      34.510  30.711  27.476  1.00  0.00     0.251 C 
ATOM      5  H   UNL A   1      32.993  30.479  26.192  1.00  0.00     0.163 HD
BRANCH   4   6
ATOM      6  C   UNL A   1      35.788  30.163  27.983  1.00  0.00     0.039 A 
ATOM      7  C   UNL A   1      36.966  30.303  27.247  1.00  0.00     0.014 A 
ATOM      8  C   UNL A   1      35.816  29.535  29.232  1.00  0.00     0.014 A 
ATOM      9  C   UNL A   1      38.139  29.706  27.692  1.00  0.00     0.010 A 
ATOM     10  C   UNL A   1      37.019  29.016  29.724  1.00  0.00     0.010 A 
ATOM     11  C   UNL A   1      38.187  29.086  28.949  1.00  0.00    -0.014 A 
BRANCH  11  12
ATOM     12  C   UNL A   1      39.498  28.632  29.480  1.00  0.00     0.031 A 
ATOM     13  C   UNL A   1      40.185  29.363  30.598  1.00  0.00     0.074 A 
ATOM     14  C   UNL A   1      40.053  27.531  28.934  1.00  0.00     0.049 A 
ATOM     15  N   UNL A   1      41.334  29.097  31.165  1.00  0.00    -0.248 NA
ATOM     16  C   UNL A   1      39.504  30.546  31.146  1.00  0.00     0.031 C 
ATOM     17  C   UNL A   1      39.470  26.754  27.834  1.00  0.00     0.029 A 
ATOM     18  N   UNL A   1      41.216  26.866  29.223  1.00  0.00    -0.354 N 
ATOM     19  C   UNL A   1      41.527  30.086  32.122  1.00  0.00     0.074 A 
ATOM     20  C   UNL A   1      40.381  30.969  32.048  1.00  0.00     0.031 C 
ATOM     21  C   UNL A   1      40.261  25.707  27.565  1.00  0.00     0.029 A 
ATOM     22  C   UNL A   1      41.442  25.775  28.415  1.00  0.00     0.049 A 
ATOM     23  H   UNL A   1      41.833  27.143  29.940  1.00  0.00     0.167 HD
ATOM     24  C   UNL A   1      42.567  30.236  32.980  1.00  0.00     0.034 A 
ATOM     25  C   UNL A   1      42.497  24.942  28.339  1.00  0.00     0.034 A 
ATOM     26  C   UNL A   1      43.691  29.333  33.045  1.00  0.00     0.049 A 
ATOM     27  C   UNL A   1      43.652  25.163  29.276  1.00  0.00     0.074 A 
ATOM     28  C   UNL A   1      44.755  29.346  33.932  1.00  0.00     0.029 A 
ATOM     29  N   UNL A   1      43.910  28.267  32.183  1.00  0.00    -0.354 N 
ATOM     30  N   UNL A   1      43.788  26.073  30.214  1.00  0.00    -0.248 NA
ATOM     31  C   UNL A   1      44.793  24.250  29.147  1.00  0.00     0.031 C 
ATOM     32  C   UNL A   1      45.650  28.337  33.559  1.00  0.00     0.029 A 
ATOM     33  C   UNL A   1      45.114  27.648  32.483  1.00  0.00     0.049 A 
ATOM     34  H   UNL A   1      43.298  27.989  31.462  1.00  0.00     0.167 HD
ATOM     35  C   UNL A   1      45.031  25.836  30.790  1.00  0.00     0.074 A 
ATOM     36  C   UNL A   1      45.586  24.677  30.118  1.00  0.00     0.031 C 
ATOM     37  C   UNL A   1      45.663  26.514  31.780  1.00  0.00     0.034 A 
BRANCH  24  38
ATOM     38  C   UNL A   1      42.573  31.442  33.886  1.00  0.00     0.023 A 
ATOM     39  C   UNL A   1      42.068  31.395  35.197  1.00  0.00     0.031 A 
ATOM     40  C   UNL A   1      43.135  32.650  33.437  1.00  0.00     0.131 A 
ATOM     41  C   UNL A   1      42.105  32.546  36.001  1.00  0.00     0.055 A 
ATOM     42  C   UNL A   1      43.222  33.774  34.260  1.00  0.00     0.041 A 
ATOM     43  F   UNL A   1      43.617  32.756  32.188  1.00  0.00    -0.206 F 
ATOM     44  C   UNL A   1      42.699  33.728  35.549  1.00  0.00     0.022 A 
BRANCH  41  45
ATOM     45  S   UNL A   1      41.295  32.504  37.623  1.00  0.00     0.124 S 
ATOM     46  O   UNL A   1      41.374  33.905  38.030  1.00  0.00    -0.237 OA
ATOM     47  O   UNL A   1      39.962  32.009  37.299  1.00  0.00    -0.237 OA
ATOM     48  O   UNL A   1      42.127  31.588  38.400  1.00  0.00    -0.744 OA
ENDBRANCH  41  45
ENDBRANCH  24  38
BRANCH  25  49
ATOM     49  C   UNL A   1      42.543  23.874  27.300  1.00  0.00     0.023 A 
ATOM     50  C   UNL A   1      41.932  22.629  27.509  1.00  0.00     0.031 A 
ATOM     51  C   UNL A   1      43.247  24.069  26.097  1.00  0.00     0.131 A 
ATOM     52  C   UNL A   1      42.079  21.611  26.555  1.00  0.00     0.055 A 
ATOM     53  C   UNL A   1      43.338  23.074  25.124  1.00  0.00     0.041 A 
ATOM     54  F   UNL A   1      43.852  25.241  25.845  1.00  0.00    -0.206 F 
ATOM     55  C   UNL A   1      42.765  21.830  25.358  1.00  0.00     0.022 A 
BRANCH  52  56
ATOM     56  S   UNL A   1      41.453  19.955  26.951  1.00  0.00     0.124 S 
ATOM     57  O   UNL A   1      42.687  19.182  27.033  1.00  0.00    -0.237 OA
ATOM     58  O   UNL A   1      40.757  20.191  28.212  1.00  0.00    -0.237 OA
ATOM     59  O   UNL A   1      40.592  19.637  25.815  1.00  0.00    -0.744 OA
ENDBRANCH  52  56
ENDBRANCH  25  49
BRANCH  37  60
ATOM     60  C   UNL A   1      47.018  26.000  32.189  1.00  0.00     0.023 A 
ATOM     61  C   UNL A   1      48.172  26.320  31.452  1.00  0.00     0.031 A 
ATOM     62  C   UNL A   1      47.154  25.154  33.303  1.00  0.00     0.131 A 
ATOM     63  C   UNL A   1      49.404  25.752  31.805  1.00  0.00     0.055 A 
ATOM     64  C   UNL A   1      48.394  24.639  33.684  1.00  0.00     0.041 A 
ATOM     65  F   UNL A   1      46.083  24.814  34.037  1.00  0.00    -0.206 F 
ATOM     66  C   UNL A   1      49.525  24.926  32.925  1.00  0.00     0.022 A 
BRANCH  63  67
ATOM     67  S   UNL A   1      50.834  26.039  30.726  1.00  0.00     0.124 S 
ATOM     68  O   UNL A   1      50.507  25.215  29.566  1.00  0.00    -0.237 OA
ATOM     69  O   UNL A   1      50.785  27.482  30.516  1.00  0.00    -0.237 OA
ATOM     70  O   UNL A   1      51.964  25.568  31.524  1.00  0.00    -0.744 OA
ENDBRANCH  63  67
ENDBRANCH  37  60
ENDBRANCH  11  12
ENDBRANCH   4   6
ENDBRANCH   1   2
BRANCH   1  71
ATOM     71  C   UNL A   1      32.986  27.651  26.904  1.00  0.00     0.042 C 
BRANCH  71  72
ATOM     72  C   UNL A   1      32.714  26.345  26.173  1.00  0.00     0.118 C 
BRANCH  72  73
ATOM     73  N   UNL A   1      31.509  25.674  26.648  1.00  0.00    -0.352 N 
ATOM     74  C   UNL A   1      31.240  24.335  26.759  1.00  0.00     0.254 C 
ATOM     75  H   UNL A   1      30.779  26.273  26.931  1.00  0.00     0.163 HD
ATOM     76  O   UNL A   1      30.126  23.947  27.104  1.00  0.00    -0.269 OA
BRANCH  74  77
ATOM     77  C   UNL A   1      32.309  23.359  26.512  1.00  0.00     0.078 A 
ATOM     78  C   UNL A   1      33.234  23.068  27.520  1.00  0.00     0.019 A 
ATOM     79  C   UNL A   1      32.391  22.713  25.288  1.00  0.00     0.173 A 
ATOM     80  C   UNL A   1      34.298  22.199  27.263  1.00  0.00     0.030 A 
ATOM     81  C   UNL A   1      33.442  21.832  25.055  1.00  0.00     0.182 A 
ATOM     82  F   UNL A   1      31.501  22.953  24.314  1.00  0.00    -0.203 F 
ATOM     83  C   UNL A   1      34.436  21.576  26.022  1.00  0.00     0.074 A 
ATOM     84  F   UNL A   1      33.529  21.220  23.860  1.00  0.00    -0.201 F 
BRANCH  83  85
ATOM     85  N   UNL A   1      35.507  20.731  25.663  1.00  0.00    -0.380 N 
ATOM     86  H   UNL A   1      35.420  19.802  25.978  1.00  0.00     0.160 HD
BRANCH  85  87
ATOM     87  C   UNL A   1      36.719  21.004  24.902  1.00  0.00     0.079 C 
ATOM     88  C   UNL A   1      36.989  22.248  24.109  1.00  0.00     0.027 C 
ATOM     89  C   UNL A   1      37.808  21.938  25.335  1.00  0.00     0.027 C 
ENDBRANCH  85  87
ENDBRANCH  83  85
ENDBRANCH  74  77
ENDBRANCH  72  73
ENDBRANCH  71  72
ENDBRANCH   1  71
TORSDOF 15
ENDMDL
MODEL 2
REMARK VINA RESULT:     -11.1      3.952      9.263
REMARK SMILES O=C(NCCCNC(=O)c1ccc(NC2CC2)c(F)c1F)c1ccc(-c2c3nc(c(-c4cc(S(=O)(=O)[O-])ccc4F)c4ccc([nH]4)c(-c4cc(S(=O)(=O)[O-])ccc4F)c4nc(c(-c5cc(S(=O)(=O)[O-])ccc5F)c5ccc2[nH]5)C=C4)C=C3)cc1
REMARK SMILES IDX 4 1 3 2 1 3 2 4 22 6 23 7 84 8 24 9 83 10 25 11 26 12 27 13
REMARK SMILES IDX 77 14 28 15 82 16 76 17 78 18 29 19 81 20 75 21 74 22 30 24
REMARK SMILES IDX 62 25 42 26 61 27 43 28 46 29 60 30 79 31 44 32 45 33 59 35
REMARK SMILES IDX 80 36 47 37 31 38 32 39 40 40 33 41 39 42 41 43 38 44 34 45
REMARK SMILES IDX 35 46 36 47 37 48 63 49 64 50 72 51 65 52 71 53 73 54 70 55
REMARK SMILES IDX 66 56 67 57 68 58 69 59 48 60 49 61 57 62 50 63 56 64 58 65
REMARK SMILES IDX 55 66 51 67 52 68 53 69 54 70 5 71 6 72 7 73 8 74 9 76 10 77
REMARK SMILES IDX 11 78 20 79 12 80 18 81 21 82 13 83 19 84 14 85 15 87 16 88
REMARK SMILES IDX 17 89
REMARK H PARENT 3 5 78 23 46 34 7 75 14 86
REMARK Flexibility Score: inf
ROOT
ATOM      1  C   UNL A   1      32.670  32.432  27.128  1.00  0.00     0.118 C 
ENDROOT
BRANCH   1   2
ATOM      2  N   UNL A   1      32.484  33.817  27.535  1.00  0.00    -0.352 N 
ATOM      3  O   UNL A   1      32.684  35.644  28.831  1.00  0.00    -0.269 OA
ATOM      4  C   UNL A   1      33.112  34.533  28.526  1.00  0.00     0.251 C 
ATOM      5  H   UNL A   1      31.807  34.317  27.024  1.00  0.00     0.163 HD
BRANCH   4   6
ATOM      6  C   UNL A   1      34.287  33.968  29.226  1.00  0.00     0.039 A 
ATOM      7  C   UNL A   1      34.126  33.023  30.241  1.00  0.00     0.014 A 
ATOM      8  C   UNL A   1      35.571  34.360  28.835  1.00  0.00     0.014 A 
ATOM      9  C   UNL A   1      35.232  32.570  30.951  1.00  0.00     0.010 A 
ATOM     10  C   UNL A   1      36.689  33.831  29.487  1.00  0.00     0.010 A 
ATOM     11  C   UNL A   1      36.527  32.942  30.561  1.00  0.00    -0.014 A 
BRANCH  11  12
ATOM     12  C   UNL A   1      37.691  32.289  31.211  1.00  0.00     0.031 A 
ATOM     13  C   UNL A   1      38.438  31.171  30.540  1.00  0.00     0.074 A 
ATOM     14  C   UNL A   1      38.070  32.737  32.425  1.00  0.00     0.049 A 
ATOM     15  N   UNL A   1      39.467  30.495  30.979  1.00  0.00    -0.248 NA
ATOM     16  C   UNL A   1      37.967  30.752  29.210  1.00  0.00     0.031 C 
ATOM     17  C   UNL A   1      37.403  33.812  33.168  1.00  0.00     0.029 A 
ATOM     18  N   UNL A   1      39.101  32.363  33.246  1.00  0.00    -0.354 N 
ATOM     19  C   UNL A   1      39.759  29.558  29.995  1.00  0.00     0.074 A 
ATOM     20  C   UNL A   1      38.785  29.743  28.940  1.00  0.00     0.031 C 
ATOM     21  C   UNL A   1      38.059  34.029  34.316  1.00  0.00     0.029 A 
ATOM     22  C   UNL A   1      39.143  33.063  34.430  1.00  0.00     0.049 A 
ATOM     23  H   UNL A   1      39.749  31.659  33.013  1.00  0.00     0.167 HD
ATOM     24  C   UNL A   1      40.751  28.632  29.982  1.00  0.00     0.034 A 
ATOM     25  C   UNL A   1      39.941  32.922  35.506  1.00  0.00     0.034 A 
ATOM     26  C   UNL A   1      41.720  28.478  31.040  1.00  0.00     0.049 A 
ATOM     27  C   UNL A   1      41.003  31.858  35.474  1.00  0.00     0.074 A 
ATOM     28  C   UNL A   1      42.813  27.629  31.089  1.00  0.00     0.029 A 
ATOM     29  N   UNL A   1      41.705  29.171  32.244  1.00  0.00    -0.354 N 
ATOM     30  N   UNL A   1      41.298  31.018  34.507  1.00  0.00    -0.248 NA
ATOM     31  C   UNL A   1      41.837  31.719  36.673  1.00  0.00     0.031 C 
ATOM     32  C   UNL A   1      43.413  27.756  32.347  1.00  0.00     0.029 A 
ATOM     33  C   UNL A   1      42.738  28.733  33.060  1.00  0.00     0.049 A 
ATOM     34  H   UNL A   1      41.056  29.872  32.483  1.00  0.00     0.167 HD
ATOM     35  C   UNL A   1      42.358  30.255  34.984  1.00  0.00     0.074 A 
ATOM     36  C   UNL A   1      42.671  30.758  36.307  1.00  0.00     0.031 C 
ATOM     37  C   UNL A   1      43.013  29.227  34.387  1.00  0.00     0.034 A 
BRANCH  24  38
ATOM     38  C   UNL A   1      40.817  27.678  28.816  1.00  0.00     0.023 A 
ATOM     39  C   UNL A   1      41.770  27.814  27.792  1.00  0.00     0.031 A 
ATOM     40  C   UNL A   1      39.932  26.587  28.754  1.00  0.00     0.131 A 
ATOM     41  C   UNL A   1      41.792  26.893  26.732  1.00  0.00     0.055 A 
ATOM     42  C   UNL A   1      39.995  25.642  27.729  1.00  0.00     0.041 A 
ATOM     43  F   UNL A   1      38.990  26.419  29.696  1.00  0.00    -0.206 F 
ATOM     44  C   UNL A   1      40.927  25.796  26.706  1.00  0.00     0.022 A 
BRANCH  41  45
ATOM     45  S   UNL A   1      42.917  27.189  25.340  1.00  0.00     0.124 S 
ATOM     46  O   UNL A   1      42.878  25.903  24.648  1.00  0.00    -0.237 OA
ATOM     47  O   UNL A   1      42.280  28.304  24.650  1.00  0.00    -0.237 OA
ATOM     48  O   UNL A   1      44.189  27.503  25.988  1.00  0.00    -0.744 OA
ENDBRANCH  41  45
ENDBRANCH  24  38
BRANCH  25  49
ATOM     49  C   UNL A   1      39.725  33.757  36.722  1.00  0.00     0.023 A 
ATOM     50  C   UNL A   1      39.144  33.219  37.879  1.00  0.00     0.031 A 
ATOM     51  C   UNL A   1      40.055  35.125  36.724  1.00  0.00     0.131 A 
ATOM     52  C   UNL A   1      38.863  34.054  38.971  1.00  0.00     0.055 A 
ATOM     53  C   UNL A   1      39.830  35.938  37.835  1.00  0.00     0.041 A 
ATOM     54  F   UNL A   1      40.614  35.692  35.643  1.00  0.00    -0.206 F 
ATOM     55  C   UNL A   1      39.215  35.405  38.962  1.00  0.00     0.022 A 
BRANCH  52  56
ATOM     56  S   UNL A   1      37.924  33.370  40.365  1.00  0.00     0.124 S 
ATOM     57  O   UNL A   1      37.946  34.480  41.312  1.00  0.00    -0.237 OA
ATOM     58  O   UNL A   1      36.635  33.079  39.746  1.00  0.00    -0.237 OA
ATOM     59  O   UNL A   1      38.705  32.200  40.758  1.00  0.00    -0.744 OA
ENDBRANCH  52  56
ENDBRANCH  25  49
BRANCH  37  60
ATOM     60  C   UNL A   1      44.134  28.599  35.172  1.00  0.00     0.023 A 
ATOM     61  C   UNL A   1      43.878  27.653  36.180  1.00  0.00     0.031 A 
ATOM     62  C   UNL A   1      45.467  28.973  34.935  1.00  0.00     0.131 A 
ATOM     63  C   UNL A   1      44.935  27.155  36.954  1.00  0.00     0.055 A 
ATOM     64  C   UNL A   1      46.522  28.429  35.670  1.00  0.00     0.041 A 
ATOM     65  F   UNL A   1      45.766  29.876  33.987  1.00  0.00    -0.206 F 
ATOM     66  C   UNL A   1      46.257  27.525  36.695  1.00  0.00     0.022 A 
BRANCH  63  67
ATOM     67  S   UNL A   1      44.550  26.081  38.364  1.00  0.00     0.124 S 
ATOM     68  O   UNL A   1      43.118  26.305  38.532  1.00  0.00    -0.237 OA
ATOM     69  O   UNL A   1      44.935  24.763  37.869  1.00  0.00    -0.237 OA
ATOM     70  O   UNL A   1      45.391  26.609  39.436  1.00  0.00    -0.744 OA
ENDBRANCH  63  67
ENDBRANCH  37  60
ENDBRANCH  11  12
ENDBRANCH   4   6
ENDBRANCH   1   2
BRANCH   1  71
ATOM     71  C   UNL A   1      31.425  31.832  26.495  1.00  0.00     0.042 C 
BRANCH  71  72
ATOM     72  C   UNL A   1      31.599  30.397  26.020  1.00  0.00     0.118 C 
BRANCH  72  73
ATOM     73  N   UNL A   1      31.166  30.205  24.640  1.00  0.00    -0.352 N 
ATOM     74  C   UNL A   1      31.189  29.074  23.866  1.00  0.00     0.254 C 
ATOM     75  H   UNL A   1      30.804  31.007  24.198  1.00  0.00     0.163 HD
ATOM     76  O   UNL A   1      30.859  29.118  22.683  1.00  0.00    -0.269 OA
BRANCH  74  77
ATOM     77  C   UNL A   1      31.564  27.790  24.472  1.00  0.00     0.078 A 
ATOM     78  C   UNL A   1      30.579  26.970  25.033  1.00  0.00     0.019 A 
ATOM     79  C   UNL A   1      32.889  27.381  24.473  1.00  0.00     0.173 A 
ATOM     80  C   UNL A   1      30.941  25.785  25.679  1.00  0.00     0.030 A 
ATOM     81  C   UNL A   1      33.231  26.188  25.099  1.00  0.00     0.182 A 
ATOM     82  F   UNL A   1      33.848  28.136  23.918  1.00  0.00    -0.203 F 
ATOM     83  C   UNL A   1      32.273  25.376  25.743  1.00  0.00     0.074 A 
ATOM     84  F   UNL A   1      34.519  25.803  25.114  1.00  0.00    -0.201 F 
BRANCH  83  85
ATOM     85  N   UNL A   1      32.729  24.225  26.420  1.00  0.00    -0.380 N 
ATOM     86  H   UNL A   1      33.271  24.408  27.221  1.00  0.00     0.160 HD
BRANCH  85  87
ATOM     87  C   UNL A   1      32.527  22.811  26.131  1.00  0.00     0.079 C 
ATOM     88  C   UNL A   1      31.257  22.198  25.620  1.00  0.00     0.027 C 
ATOM     89  C   UNL A   1      32.492  22.216  24.757  1.00  0.00     0.027 C 
ENDBRANCH  85  87
ENDBRANCH  83  85
ENDBRANCH  74  77
ENDBRANCH  72  73
ENDBRANCH  71  72
ENDBRANCH   1  71
TORSDOF 15
ENDMDL
MODEL 3
REMARK VINA RESULT:     -11.0      4.609      8.016
REMARK SMILES O=C(NCCCNC(=O)c1ccc(NC2CC2)c(F)c1F)c1ccc(-c2c3nc(c(-c4cc(S(=O)(=O)[O-])ccc4F)c4ccc([nH]4)c(-c4cc(S(=O)(=O)[O-])ccc4F)c4nc(c(-c5cc(S(=O)(=O)[O-])ccc5F)c5ccc2[nH]5)C=C4)C=C3)cc1
REMARK SMILES IDX 4 1 3 2 1 3 2 4 22 6 23 7 84 8 24 9 83 10 25 11 26 12 27 13
REMARK SMILES IDX 77 14 28 15 82 16 76 17 78 18 29 19 81 20 75 21 74 22 30 24
REMARK SMILES IDX 62 25 42 26 61 27 43 28 46 29 60 30 79 31 44 32 45 33 59 35
REMARK SMILES IDX 80 36 47 37 31 38 32 39 40 40 33 41 39 42 41 43 38 44 34 45
REMARK SMILES IDX 35 46 36 47 37 48 63 49 64 50 72 51 65 52 71 53 73 54 70 55
REMARK SMILES IDX 66 56 67 57 68 58 69 59 48 60 49 61 57 62 50 63 56 64 58 65
REMARK SMILES IDX 55 66 51 67 52 68 53 69 54 70 5 71 6 72 7 73 8 74 9 76 10 77
REMARK SMILES IDX 11 78 20 79 12 80 18 81 21 82 13 83 19 84 14 85 15 87 16 88
REMARK SMILES IDX 17 89
REMARK H PARENT 3 5 78 23 46 34 7 75 14 86
REMARK Flexibility Score: inf
ROOT
ATOM      1  C   UNL A   1      39.029  20.324  25.610  1.00  0.00     0.118 C 
ENDROOT
BRANCH   1   2
ATOM      2  N   UNL A   1      40.055  19.318  25.849  1.00  0.00    -0.352 N 
ATOM      3  O   UNL A   1      42.130  18.494  26.117  1.00  0.00    -0.269 OA
ATOM      4  C   UNL A   1      41.392  19.477  26.124  1.00  0.00     0.251 C 
ATOM      5  H   UNL A   1      39.745  18.385  25.808  1.00  0.00     0.163 HD
BRANCH   4   6
ATOM      6  C   UNL A   1      41.941  20.820  26.417  1.00  0.00     0.039 A 
ATOM      7  C   UNL A   1      42.046  21.782  25.411  1.00  0.00     0.014 A 
ATOM      8  C   UNL A   1      42.319  21.134  27.726  1.00  0.00     0.014 A 
ATOM      9  C   UNL A   1      42.647  23.006  25.680  1.00  0.00     0.010 A 
ATOM     10  C   UNL A   1      42.836  22.401  28.016  1.00  0.00     0.010 A 
ATOM     11  C   UNL A   1      43.017  23.342  26.991  1.00  0.00    -0.014 A 
BRANCH  11  12
ATOM     12  C   UNL A   1      43.472  24.726  27.279  1.00  0.00     0.031 A 
ATOM     13  C   UNL A   1      42.532  25.762  27.826  1.00  0.00     0.074 A 
ATOM     14  C   UNL A   1      44.766  25.026  27.045  1.00  0.00     0.049 A 
ATOM     15  N   UNL A   1      42.775  27.013  28.122  1.00  0.00    -0.248 NA
ATOM     16  C   UNL A   1      41.141  25.347  28.065  1.00  0.00     0.031 C 
ATOM     17  C   UNL A   1      45.760  24.092  26.503  1.00  0.00     0.029 A 
ATOM     18  N   UNL A   1      45.475  26.184  27.235  1.00  0.00    -0.354 N 
ATOM     19  C   UNL A   1      41.568  27.543  28.563  1.00  0.00     0.074 A 
ATOM     20  C   UNL A   1      40.589  26.480  28.481  1.00  0.00     0.031 C 
ATOM     21  C   UNL A   1      46.950  24.705  26.434  1.00  0.00     0.029 A 
ATOM     22  C   UNL A   1      46.793  26.091  26.852  1.00  0.00     0.049 A 
ATOM     23  H   UNL A   1      45.078  27.005  27.608  1.00  0.00     0.167 HD
ATOM     24  C   UNL A   1      41.311  28.803  28.994  1.00  0.00     0.034 A 
ATOM     25  C   UNL A   1      47.762  27.025  26.806  1.00  0.00     0.034 A 
ATOM     26  C   UNL A   1      42.309  29.842  29.082  1.00  0.00     0.049 A 
ATOM     27  C   UNL A   1      47.431  28.422  27.253  1.00  0.00     0.074 A 
ATOM     28  C   UNL A   1      42.172  31.126  29.583  1.00  0.00     0.029 A 
ATOM     29  N   UNL A   1      43.621  29.728  28.643  1.00  0.00    -0.354 N 
ATOM     30  N   UNL A   1      46.295  28.889  27.721  1.00  0.00    -0.248 NA
ATOM     31  C   UNL A   1      48.505  29.418  27.166  1.00  0.00     0.031 C 
ATOM     32  C   UNL A   1      43.377  31.808  29.380  1.00  0.00     0.029 A 
ATOM     33  C   UNL A   1      44.289  30.931  28.815  1.00  0.00     0.049 A 
ATOM     34  H   UNL A   1      44.020  28.910  28.265  1.00  0.00     0.167 HD
ATOM     35  C   UNL A   1      46.524  30.234  27.988  1.00  0.00     0.074 A 
ATOM     36  C   UNL A   1      47.913  30.492  27.663  1.00  0.00     0.031 C 
ATOM     37  C   UNL A   1      45.665  31.175  28.455  1.00  0.00     0.034 A 
BRANCH  24  38
ATOM     38  C   UNL A   1      39.890  29.152  29.361  1.00  0.00     0.023 A 
ATOM     39  C   UNL A   1      39.469  29.268  30.697  1.00  0.00     0.031 A 
ATOM     40  C   UNL A   1      38.951  29.415  28.348  1.00  0.00     0.131 A 
ATOM     41  C   UNL A   1      38.135  29.603  30.982  1.00  0.00     0.055 A 
ATOM     42  C   UNL A   1      37.642  29.804  28.637  1.00  0.00     0.041 A 
ATOM     43  F   UNL A   1      39.295  29.303  27.054  1.00  0.00    -0.206 F 
ATOM     44  C   UNL A   1      37.226  29.894  29.962  1.00  0.00     0.022 A 
BRANCH  41  45
ATOM     45  S   UNL A   1      37.578  29.578  32.708  1.00  0.00     0.124 S 
ATOM     46  O   UNL A   1      37.462  28.144  32.962  1.00  0.00    -0.237 OA
ATOM     47  O   UNL A   1      38.664  30.262  33.401  1.00  0.00    -0.237 OA
ATOM     48  O   UNL A   1      36.310  30.303  32.671  1.00  0.00    -0.744 OA
ENDBRANCH  41  45
ENDBRANCH  24  38
BRANCH  25  49
ATOM     49  C   UNL A   1      49.107  26.692  26.257  1.00  0.00     0.023 A 
ATOM     50  C   UNL A   1      49.528  27.184  25.013  1.00  0.00     0.031 A 
ATOM     51  C   UNL A   1      49.976  25.832  26.953  1.00  0.00     0.131 A 
ATOM     52  C   UNL A   1      50.758  26.772  24.479  1.00  0.00     0.055 A 
ATOM     53  C   UNL A   1      51.226  25.474  26.446  1.00  0.00     0.041 A 
ATOM     54  F   UNL A   1      49.625  25.331  28.149  1.00  0.00    -0.206 F 
ATOM     55  C   UNL A   1      51.616  25.933  25.194  1.00  0.00     0.022 A 
BRANCH  52  56
ATOM     56  S   UNL A   1      51.174  27.262  22.782  1.00  0.00     0.124 S 
ATOM     57  O   UNL A   1      50.061  26.697  22.028  1.00  0.00    -0.237 OA
ATOM     58  O   UNL A   1      51.205  28.717  22.889  1.00  0.00    -0.237 OA
ATOM     59  O   UNL A   1      52.469  26.626  22.554  1.00  0.00    -0.744 OA
ENDBRANCH  52  56
ENDBRANCH  25  49
BRANCH  37  60
ATOM     60  C   UNL A   1      46.225  32.560  28.644  1.00  0.00     0.023 A 
ATOM     61  C   UNL A   1      46.333  33.457  27.567  1.00  0.00     0.031 A 
ATOM     62  C   UNL A   1      46.686  32.976  29.905  1.00  0.00     0.131 A 
ATOM     63  C   UNL A   1      46.942  34.705  27.757  1.00  0.00     0.055 A 
ATOM     64  C   UNL A   1      47.237  34.244  30.100  1.00  0.00     0.041 A 
ATOM     65  F   UNL A   1      46.610  32.158  30.966  1.00  0.00    -0.206 F 
ATOM     66  C   UNL A   1      47.380  35.110  29.020  1.00  0.00     0.022 A 
BRANCH  63  67
ATOM     67  S   UNL A   1      47.232  35.760  26.310  1.00  0.00     0.124 S 
ATOM     68  O   UNL A   1      48.524  36.359  26.627  1.00  0.00    -0.237 OA
ATOM     69  O   UNL A   1      47.227  34.797  25.214  1.00  0.00    -0.237 OA
ATOM     70  O   UNL A   1      46.098  36.683  26.328  1.00  0.00    -0.744 OA
ENDBRANCH  63  67
ENDBRANCH  37  60
ENDBRANCH  11  12
ENDBRANCH   4   6
ENDBRANCH   1   2
BRANCH   1  71
ATOM     71  C   UNL A   1      37.762  19.739  25.005  1.00  0.00     0.042 C 
BRANCH  71  72
ATOM     72  C   UNL A   1      36.593  20.711  24.952  1.00  0.00     0.118 C 
BRANCH  72  73
ATOM     73  N   UNL A   1      35.307  20.057  25.166  1.00  0.00    -0.352 N 
ATOM     74  C   UNL A   1      34.067  20.609  25.359  1.00  0.00     0.254 C 
ATOM     75  H   UNL A   1      35.333  19.072  25.174  1.00  0.00     0.163 HD
ATOM     76  O   UNL A   1      33.098  19.897  25.612  1.00  0.00    -0.269 OA
BRANCH  74  77
ATOM     77  C   UNL A   1      33.890  22.059  25.214  1.00  0.00     0.078 A 
ATOM     78  C   UNL A   1      34.225  22.912  26.270  1.00  0.00     0.019 A 
ATOM     79  C   UNL A   1      33.409  22.586  24.024  1.00  0.00     0.173 A 
ATOM     80  C   UNL A   1      33.985  24.285  26.164  1.00  0.00     0.030 A 
ATOM     81  C   UNL A   1      33.198  23.956  23.925  1.00  0.00     0.182 A 
ATOM     82  F   UNL A   1      33.106  21.793  22.986  1.00  0.00    -0.203 F 
ATOM     83  C   UNL A   1      33.450  24.835  24.999  1.00  0.00     0.074 A 
ATOM     84  F   UNL A   1      32.714  24.462  22.776  1.00  0.00    -0.201 F 
BRANCH  83  85
ATOM     85  N   UNL A   1      33.128  26.198  24.829  1.00  0.00    -0.380 N 
ATOM     86  H   UNL A   1      33.832  26.737  24.403  1.00  0.00     0.160 HD
BRANCH  85  87
ATOM     87  C   UNL A   1      31.923  26.939  25.180  1.00  0.00     0.079 C 
ATOM     88  C   UNL A   1      30.617  26.333  25.601  1.00  0.00     0.027 C 
ATOM     89  C   UNL A   1      31.424  27.148  26.578  1.00  0.00     0.027 C 
ENDBRANCH  85  87
ENDBRANCH  83  85
ENDBRANCH  74  77
ENDBRANCH  72  73
ENDBRANCH  71  72
ENDBRANCH   1  71
TORSDOF 15
ENDMDL
