MODEL 1
REMARK VINA RESULT:     -13.0      0.000      0.000
REMARK SMILES Cc1cc(S(=O)(=O)Nc2cccc(I)c2)ccc1OCC(=O)NCCCNC(=O)c1ccc(-c2c3nc(c(-c4cc(S(=O)(=O)[O-])ccc4F)c4ccc([nH]4)c(-c4cc(S(=O)(=O)[O-])ccc4F)c4nc(c(-c5cc(S(=O)(=O)[O-])ccc5F)c5ccc2[nH]5)C=C4)C=C3)cc1
REMARK SMILES IDX 24 1 23 2 21 3 22 4 20 6 19 7 18 8 1 9 2 10 3 11 4 12 17 13
REMARK SMILES IDX 16 14 5 15 6 16 7 17 8 18 9 20 10 21 15 22 11 23 13 24 12 25
REMARK SMILES IDX 14 26 25 27 26 28 27 29 28 30 29 32 30 33 31 34 92 35 32 36
REMARK SMILES IDX 91 37 33 38 34 39 35 40 85 41 36 42 90 43 84 44 86 45 37 46
REMARK SMILES IDX 89 47 83 48 82 49 38 51 70 52 50 53 69 54 51 55 54 56 68 57
REMARK SMILES IDX 87 58 52 59 53 60 67 62 88 63 55 64 39 65 40 66 48 67 41 68
REMARK SMILES IDX 47 69 49 70 46 71 42 72 43 73 44 74 45 75 71 76 72 77 80 78
REMARK SMILES IDX 73 79 79 80 81 81 78 82 74 83 75 84 76 85 77 86 56 87 57 88
REMARK SMILES IDX 65 89 58 90 64 91 66 92 63 93 59 94 60 95 61 96 62 97
REMARK H PARENT 23 5 8 19 27 31 86 50 54 61
REMARK Flexibility Score: inf
ROOT
ATOM      1  C   UNL A   1      32.762  29.853  26.583  1.00  0.00     0.117 C 
ENDROOT
BRANCH   1   2
ATOM      2  N   UNL A   1      31.753  30.314  25.641  1.00  0.00    -0.353 N 
ATOM      3  C   UNL A   1      31.055  29.605  24.705  1.00  0.00     0.257 C 
ATOM      4  O   UNL A   1      30.213  30.158  23.994  1.00  0.00    -0.271 OA
ATOM      5  H   UNL A   1      31.542  31.274  25.687  1.00  0.00     0.163 HD
BRANCH   3   6
ATOM      6  C   UNL A   1      31.285  28.093  24.597  1.00  0.00     0.329 C 
BRANCH   6   7
ATOM      7  O   UNL A   1      32.024  27.595  23.504  1.00  0.00    -0.484 OA
BRANCH   7   8
ATOM      8  C   UNL A   1      32.902  26.560  23.627  1.00  0.00     0.123 A 
ATOM      9  C   UNL A   1      32.784  25.446  21.294  1.00  0.00     0.048 C 
ATOM     10  C   UNL A   1      33.222  25.535  22.727  1.00  0.00    -0.008 A 
ATOM     11  C   UNL A   1      34.034  24.470  23.187  1.00  0.00     0.029 A 
ATOM     12  C   UNL A   1      34.544  24.430  24.491  1.00  0.00     0.088 A 
ATOM     13  C   UNL A   1      33.465  26.525  24.916  1.00  0.00     0.048 A 
ATOM     14  C   UNL A   1      34.328  25.510  25.329  1.00  0.00     0.026 A 
BRANCH  12  15
ATOM     15  S   UNL A   1      35.276  22.891  25.006  1.00  0.00     0.261 S 
ATOM     16  O   UNL A   1      36.005  22.376  23.856  1.00  0.00    -0.201 OA
ATOM     17  O   UNL A   1      35.945  23.144  26.257  1.00  0.00    -0.201 OA
BRANCH  15  18
ATOM     18  N   UNL A   1      34.095  21.765  25.386  1.00  0.00    -0.280 N 
ATOM     19  H   UNL A   1      33.697  21.820  26.285  1.00  0.00     0.180 HD
BRANCH  18  20
ATOM     20  C   UNL A   1      33.615  20.740  24.533  1.00  0.00     0.050 A 
ATOM     21  C   UNL A   1      32.653  20.931  23.541  1.00  0.00     0.027 A 
ATOM     22  C   UNL A   1      34.102  19.455  24.792  1.00  0.00     0.041 A 
ATOM     23  C   UNL A   1      32.082  19.818  22.911  1.00  0.00     0.003 A 
ATOM     24  C   UNL A   1      33.538  18.352  24.155  1.00  0.00     0.015 A 
ATOM     25  C   UNL A   1      32.510  18.526  23.233  1.00  0.00     0.015 A 
ATOM     26  I   UNL A   1      34.196  16.443  24.646  1.00  0.00    -0.044 I 
ENDBRANCH  18  20
ENDBRANCH  15  18
ENDBRANCH  12  15
ENDBRANCH   7   8
ENDBRANCH   6   7
ENDBRANCH   3   6
ENDBRANCH   1   2
BRANCH   1  27
ATOM     27  C   UNL A   1      33.295  30.968  27.466  1.00  0.00     0.042 C 
BRANCH  27  28
ATOM     28  C   UNL A   1      34.816  31.058  27.522  1.00  0.00     0.118 C 
BRANCH  28  29
ATOM     29  N   UNL A   1      35.326  31.656  28.753  1.00  0.00    -0.352 N 
ATOM     30  C   UNL A   1      36.257  31.153  29.644  1.00  0.00     0.251 C 
ATOM     31  H   UNL A   1      34.956  32.540  28.981  1.00  0.00     0.163 HD
ATOM     32  O   UNL A   1      36.544  31.751  30.678  1.00  0.00    -0.269 OA
BRANCH  30  33
ATOM     33  C   UNL A   1      37.030  29.950  29.261  1.00  0.00     0.039 A 
ATOM     34  C   UNL A   1      37.268  29.001  30.264  1.00  0.00     0.014 A 
ATOM     35  C   UNL A   1      37.711  29.881  28.049  1.00  0.00     0.014 A 
ATOM     36  C   UNL A   1      38.361  28.149  30.152  1.00  0.00     0.010 A 
ATOM     37  C   UNL A   1      38.850  29.106  27.974  1.00  0.00     0.010 A 
ATOM     38  C   UNL A   1      39.210  28.291  29.053  1.00  0.00    -0.014 A 
BRANCH  38  39
ATOM     39  C   UNL A   1      40.559  27.740  29.027  1.00  0.00     0.031 A 
ATOM     40  C   UNL A   1      40.805  26.361  28.580  1.00  0.00     0.074 A 
ATOM     41  C   UNL A   1      41.602  28.519  29.385  1.00  0.00     0.049 A 
ATOM     42  N   UNL A   1      41.757  25.610  29.022  1.00  0.00    -0.248 NA
ATOM     43  C   UNL A   1      39.954  25.701  27.599  1.00  0.00     0.031 C 
ATOM     44  C   UNL A   1      43.023  28.231  29.230  1.00  0.00     0.029 A 
ATOM     45  N   UNL A   1      41.562  29.655  30.189  1.00  0.00    -0.354 N 
ATOM     46  C   UNL A   1      41.844  24.524  28.183  1.00  0.00     0.074 A 
ATOM     47  C   UNL A   1      40.646  24.580  27.374  1.00  0.00     0.031 C 
ATOM     48  C   UNL A   1      43.714  28.981  30.104  1.00  0.00     0.029 A 
ATOM     49  C   UNL A   1      42.749  29.670  30.942  1.00  0.00     0.049 A 
ATOM     50  H   UNL A   1      40.838  30.320  30.226  1.00  0.00     0.167 HD
ATOM     51  C   UNL A   1      42.995  23.792  28.139  1.00  0.00     0.034 A 
ATOM     52  C   UNL A   1      42.711  29.633  32.306  1.00  0.00     0.034 A 
ATOM     53  C   UNL A   1      43.999  24.306  29.070  1.00  0.00     0.049 A 
ATOM     54  C   UNL A   1      43.400  28.418  32.888  1.00  0.00     0.074 A 
ATOM     55  C   UNL A   1      45.116  25.108  28.885  1.00  0.00     0.029 A 
ATOM     56  N   UNL A   1      43.776  24.257  30.443  1.00  0.00    -0.354 N 
ATOM     57  N   UNL A   1      43.707  27.352  32.201  1.00  0.00    -0.248 NA
ATOM     58  C   UNL A   1      43.781  28.302  34.291  1.00  0.00     0.031 C 
ATOM     59  C   UNL A   1      45.528  25.589  30.153  1.00  0.00     0.029 A 
ATOM     60  C   UNL A   1      44.682  25.059  31.113  1.00  0.00     0.049 A 
ATOM     61  H   UNL A   1      43.070  23.725  30.876  1.00  0.00     0.167 HD
ATOM     62  C   UNL A   1      44.279  26.416  33.027  1.00  0.00     0.074 A 
ATOM     63  C   UNL A   1      44.327  27.074  34.322  1.00  0.00     0.031 C 
ATOM     64  C   UNL A   1      44.648  25.182  32.566  1.00  0.00     0.034 A 
BRANCH  51  65
ATOM     65  C   UNL A   1      43.332  22.844  27.005  1.00  0.00     0.023 A 
ATOM     66  C   UNL A   1      42.816  21.530  27.025  1.00  0.00     0.031 A 
ATOM     67  C   UNL A   1      44.177  23.140  25.919  1.00  0.00     0.131 A 
ATOM     68  C   UNL A   1      43.235  20.560  26.097  1.00  0.00     0.055 A 
ATOM     69  C   UNL A   1      44.646  22.162  25.032  1.00  0.00     0.041 A 
ATOM     70  F   UNL A   1      44.542  24.399  25.639  1.00  0.00    -0.206 F 
ATOM     71  C   UNL A   1      44.189  20.856  25.129  1.00  0.00     0.022 A 
BRANCH  68  72
ATOM     72  S   UNL A   1      42.499  18.903  26.164  1.00  0.00     0.124 S 
ATOM     73  O   UNL A   1      43.359  18.144  25.263  1.00  0.00    -0.237 OA
ATOM     74  O   UNL A   1      42.602  18.578  27.582  1.00  0.00    -0.237 OA
ATOM     75  O   UNL A   1      41.135  19.118  25.680  1.00  0.00    -0.744 OA
ENDBRANCH  68  72
ENDBRANCH  51  65
BRANCH  52  76
ATOM     76  C   UNL A   1      41.505  30.307  32.874  1.00  0.00     0.023 A 
ATOM     77  C   UNL A   1      41.505  31.720  32.873  1.00  0.00     0.031 A 
ATOM     78  C   UNL A   1      40.275  29.653  33.007  1.00  0.00     0.131 A 
ATOM     79  C   UNL A   1      40.295  32.426  32.803  1.00  0.00     0.055 A 
ATOM     80  C   UNL A   1      39.071  30.370  33.030  1.00  0.00     0.041 A 
ATOM     81  F   UNL A   1      40.204  28.313  32.985  1.00  0.00    -0.206 F 
ATOM     82  C   UNL A   1      39.074  31.759  32.880  1.00  0.00     0.022 A 
BRANCH  79  83
ATOM     83  S   UNL A   1      40.359  34.169  32.299  1.00  0.00     0.124 S 
ATOM     84  O   UNL A   1      41.635  34.609  32.849  1.00  0.00    -0.237 OA
ATOM     85  O   UNL A   1      40.290  34.082  30.838  1.00  0.00    -0.237 OA
ATOM     86  O   UNL A   1      39.173  34.766  32.908  1.00  0.00    -0.744 OA
ENDBRANCH  79  83
ENDBRANCH  52  76
BRANCH  64  87
ATOM     87  C   UNL A   1      45.104  24.009  33.414  1.00  0.00     0.023 A 
ATOM     88  C   UNL A   1      46.384  23.910  33.978  1.00  0.00     0.031 A 
ATOM     89  C   UNL A   1      44.213  22.956  33.744  1.00  0.00     0.131 A 
ATOM     90  C   UNL A   1      46.764  22.787  34.738  1.00  0.00     0.055 A 
ATOM     91  C   UNL A   1      44.566  21.883  34.567  1.00  0.00     0.041 A 
ATOM     92  F   UNL A   1      42.952  22.927  33.288  1.00  0.00    -0.206 F 
ATOM     93  C   UNL A   1      45.857  21.781  35.057  1.00  0.00     0.022 A 
BRANCH  90  94
ATOM     94  S   UNL A   1      48.499  22.641  35.242  1.00  0.00     0.124 S 
ATOM     95  O   UNL A   1      48.911  24.040  35.308  1.00  0.00    -0.237 OA
ATOM     96  O   UNL A   1      48.396  21.950  36.523  1.00  0.00    -0.237 OA
ATOM     97  O   UNL A   1      49.109  21.865  34.164  1.00  0.00    -0.744 OA
ENDBRANCH  90  94
ENDBRANCH  64  87
ENDBRANCH  38  39
ENDBRANCH  30  33
ENDBRANCH  28  29
ENDBRANCH  27  28
ENDBRANCH   1  27
TORSDOF 18
ENDMDL
MODEL 2
REMARK VINA RESULT:     -12.9      4.301     10.831
REMARK SMILES Cc1cc(S(=O)(=O)Nc2cccc(I)c2)ccc1OCC(=O)NCCCNC(=O)c1ccc(-c2c3nc(c(-c4cc(S(=O)(=O)[O-])ccc4F)c4ccc([nH]4)c(-c4cc(S(=O)(=O)[O-])ccc4F)c4nc(c(-c5cc(S(=O)(=O)[O-])ccc5F)c5ccc2[nH]5)C=C4)C=C3)cc1
REMARK SMILES IDX 24 1 23 2 21 3 22 4 20 6 19 7 18 8 1 9 2 10 3 11 4 12 17 13
REMARK SMILES IDX 16 14 5 15 6 16 7 17 8 18 9 20 10 21 15 22 11 23 13 24 12 25
REMARK SMILES IDX 14 26 25 27 26 28 27 29 28 30 29 32 30 33 31 34 92 35 32 36
REMARK SMILES IDX 91 37 33 38 34 39 35 40 85 41 36 42 90 43 84 44 86 45 37 46
REMARK SMILES IDX 89 47 83 48 82 49 38 51 70 52 50 53 69 54 51 55 54 56 68 57
REMARK SMILES IDX 87 58 52 59 53 60 67 62 88 63 55 64 39 65 40 66 48 67 41 68
REMARK SMILES IDX 47 69 49 70 46 71 42 72 43 73 44 74 45 75 71 76 72 77 80 78
REMARK SMILES IDX 73 79 79 80 81 81 78 82 74 83 75 84 76 85 77 86 56 87 57 88
REMARK SMILES IDX 65 89 58 90 64 91 66 92 63 93 59 94 60 95 61 96 62 97
REMARK H PARENT 23 5 8 19 27 31 86 50 54 61
REMARK Flexibility Score: inf
ROOT
ATOM      1  C   UNL A   1      36.508  21.796  25.764  1.00  0.00     0.117 C 
ENDROOT
BRANCH   1   2
ATOM      2  N   UNL A   1      36.023  20.623  25.052  1.00  0.00    -0.353 N 
ATOM      3  C   UNL A   1      34.784  20.045  25.080  1.00  0.00     0.257 C 
ATOM      4  O   UNL A   1      34.537  19.053  24.392  1.00  0.00    -0.271 OA
ATOM      5  H   UNL A   1      36.680  20.183  24.467  1.00  0.00     0.163 HD
BRANCH   3   6
ATOM      6  C   UNL A   1      33.684  20.693  25.928  1.00  0.00     0.329 C 
BRANCH   6   7
ATOM      7  O   UNL A   1      32.691  21.458  25.282  1.00  0.00    -0.484 OA
BRANCH   7   8
ATOM      8  C   UNL A   1      32.991  22.533  24.499  1.00  0.00     0.123 A 
ATOM      9  C   UNL A   1      33.801  24.279  26.229  1.00  0.00     0.048 C 
ATOM     10  C   UNL A   1      33.404  23.823  24.855  1.00  0.00    -0.008 A 
ATOM     11  C   UNL A   1      33.463  24.810  23.842  1.00  0.00     0.029 A 
ATOM     12  C   UNL A   1      33.152  24.527  22.505  1.00  0.00     0.088 A 
ATOM     13  C   UNL A   1      32.732  22.259  23.143  1.00  0.00     0.048 A 
ATOM     14  C   UNL A   1      32.870  23.222  22.144  1.00  0.00     0.026 A 
BRANCH  12  15
ATOM     15  S   UNL A   1      32.970  25.930  21.423  1.00  0.00     0.261 S 
ATOM     16  O   UNL A   1      33.913  26.935  21.889  1.00  0.00    -0.201 OA
ATOM     17  O   UNL A   1      33.026  25.426  20.074  1.00  0.00    -0.201 OA
BRANCH  15  18
ATOM     18  N   UNL A   1      31.437  26.592  21.556  1.00  0.00    -0.280 N 
ATOM     19  H   UNL A   1      30.762  26.291  20.906  1.00  0.00     0.180 HD
BRANCH  18  20
ATOM     20  C   UNL A   1      31.022  27.548  22.518  1.00  0.00     0.050 A 
ATOM     21  C   UNL A   1      30.338  28.724  22.210  1.00  0.00     0.027 A 
ATOM     22  C   UNL A   1      31.417  27.296  23.836  1.00  0.00     0.041 A 
ATOM     23  C   UNL A   1      30.177  29.705  23.197  1.00  0.00     0.003 A 
ATOM     24  C   UNL A   1      31.244  28.270  24.815  1.00  0.00     0.015 A 
ATOM     25  C   UNL A   1      30.648  29.487  24.495  1.00  0.00     0.015 A 
ATOM     26  I   UNL A   1      31.948  27.920  26.738  1.00  0.00    -0.044 I 
ENDBRANCH  18  20
ENDBRANCH  15  18
ENDBRANCH  12  15
ENDBRANCH   7   8
ENDBRANCH   6   7
ENDBRANCH   3   6
ENDBRANCH   1   2
BRANCH   1  27
ATOM     27  C   UNL A   1      38.013  21.971  25.650  1.00  0.00     0.042 C 
BRANCH  27  28
ATOM     28  C   UNL A   1      38.527  23.334  26.097  1.00  0.00     0.118 C 
BRANCH  28  29
ATOM     29  N   UNL A   1      39.930  23.332  26.504  1.00  0.00    -0.352 N 
ATOM     30  C   UNL A   1      40.688  24.368  27.017  1.00  0.00     0.251 C 
ATOM     31  H   UNL A   1      40.401  22.474  26.398  1.00  0.00     0.163 HD
ATOM     32  O   UNL A   1      41.885  24.230  27.259  1.00  0.00    -0.269 OA
BRANCH  30  33
ATOM     33  C   UNL A   1      40.004  25.617  27.424  1.00  0.00     0.039 A 
ATOM     34  C   UNL A   1      40.292  26.770  26.683  1.00  0.00     0.014 A 
ATOM     35  C   UNL A   1      39.321  25.707  28.633  1.00  0.00     0.014 A 
ATOM     36  C   UNL A   1      40.124  28.019  27.271  1.00  0.00     0.010 A 
ATOM     37  C   UNL A   1      39.241  26.936  29.257  1.00  0.00     0.010 A 
ATOM     38  C   UNL A   1      39.705  28.081  28.601  1.00  0.00    -0.014 A 
BRANCH  38  39
ATOM     39  C   UNL A   1      39.866  29.276  29.420  1.00  0.00     0.031 A 
ATOM     40  C   UNL A   1      38.822  30.312  29.459  1.00  0.00     0.074 A 
ATOM     41  C   UNL A   1      40.972  29.416  30.181  1.00  0.00     0.049 A 
ATOM     42  N   UNL A   1      39.052  31.570  29.638  1.00  0.00    -0.248 NA
ATOM     43  C   UNL A   1      37.413  30.001  29.262  1.00  0.00     0.031 C 
ATOM     44  C   UNL A   1      41.223  30.417  31.212  1.00  0.00     0.029 A 
ATOM     45  N   UNL A   1      42.203  28.794  29.992  1.00  0.00    -0.354 N 
ATOM     46  C   UNL A   1      37.843  32.172  29.898  1.00  0.00     0.074 A 
ATOM     47  C   UNL A   1      36.850  31.176  29.560  1.00  0.00     0.031 C 
ATOM     48  C   UNL A   1      42.549  30.533  31.388  1.00  0.00     0.029 A 
ATOM     49  C   UNL A   1      43.194  29.712  30.379  1.00  0.00     0.049 A 
ATOM     50  H   UNL A   1      42.351  27.882  29.651  1.00  0.00     0.167 HD
ATOM     51  C   UNL A   1      37.809  33.381  30.531  1.00  0.00     0.034 A 
ATOM     52  C   UNL A   1      44.133  30.143  29.486  1.00  0.00     0.034 A 
ATOM     53  C   UNL A   1      39.155  33.875  30.824  1.00  0.00     0.049 A 
ATOM     54  C   UNL A   1      44.089  31.636  29.249  1.00  0.00     0.074 A 
ATOM     55  C   UNL A   1      39.914  33.872  31.985  1.00  0.00     0.029 A 
ATOM     56  N   UNL A   1      40.023  34.207  29.790  1.00  0.00    -0.354 N 
ATOM     57  N   UNL A   1      43.083  32.400  29.576  1.00  0.00    -0.248 NA
ATOM     58  C   UNL A   1      45.166  32.383  28.609  1.00  0.00     0.031 C 
ATOM     59  C   UNL A   1      41.258  34.149  31.633  1.00  0.00     0.029 A 
ATOM     60  C   UNL A   1      41.315  34.348  30.264  1.00  0.00     0.049 A 
ATOM     61  H   UNL A   1      39.755  34.326  28.850  1.00  0.00     0.167 HD
ATOM     62  C   UNL A   1      43.335  33.692  29.187  1.00  0.00     0.074 A 
ATOM     63  C   UNL A   1      44.667  33.631  28.610  1.00  0.00     0.031 C 
ATOM     64  C   UNL A   1      42.414  34.688  29.367  1.00  0.00     0.034 A 
BRANCH  51  65
ATOM     65  C   UNL A   1      36.564  33.934  31.196  1.00  0.00     0.023 A 
ATOM     66  C   UNL A   1      35.529  34.463  30.395  1.00  0.00     0.031 A 
ATOM     67  C   UNL A   1      36.352  34.019  32.584  1.00  0.00     0.131 A 
ATOM     68  C   UNL A   1      34.437  35.144  30.960  1.00  0.00     0.055 A 
ATOM     69  C   UNL A   1      35.299  34.753  33.148  1.00  0.00     0.041 A 
ATOM     70  F   UNL A   1      37.124  33.352  33.453  1.00  0.00    -0.206 F 
ATOM     71  C   UNL A   1      34.342  35.338  32.333  1.00  0.00     0.022 A 
BRANCH  68  72
ATOM     72  S   UNL A   1      33.127  35.764  29.867  1.00  0.00     0.124 S 
ATOM     73  O   UNL A   1      32.609  34.536  29.274  1.00  0.00    -0.237 OA
ATOM     74  O   UNL A   1      32.244  36.451  30.804  1.00  0.00    -0.237 OA
ATOM     75  O   UNL A   1      33.844  36.642  28.943  1.00  0.00    -0.744 OA
ENDBRANCH  68  72
ENDBRANCH  51  65
BRANCH  52  76
ATOM     76  C   UNL A   1      44.486  29.108  28.468  1.00  0.00     0.023 A 
ATOM     77  C   UNL A   1      45.300  28.038  28.903  1.00  0.00     0.031 A 
ATOM     78  C   UNL A   1      43.747  28.932  27.292  1.00  0.00     0.131 A 
ATOM     79  C   UNL A   1      45.207  26.783  28.284  1.00  0.00     0.055 A 
ATOM     80  C   UNL A   1      43.730  27.700  26.625  1.00  0.00     0.041 A 
ATOM     81  F   UNL A   1      42.933  29.898  26.843  1.00  0.00    -0.206 F 
ATOM     82  C   UNL A   1      44.424  26.605  27.146  1.00  0.00     0.022 A 
BRANCH  79  83
ATOM     83  S   UNL A   1      45.870  25.347  29.177  1.00  0.00     0.124 S 
ATOM     84  O   UNL A   1      45.932  25.832  30.550  1.00  0.00    -0.237 OA
ATOM     85  O   UNL A   1      44.866  24.314  28.909  1.00  0.00    -0.237 OA
ATOM     86  O   UNL A   1      47.160  25.090  28.542  1.00  0.00    -0.744 OA
ENDBRANCH  79  83
ENDBRANCH  52  76
BRANCH  64  87
ATOM     87  C   UNL A   1      42.498  36.096  28.808  1.00  0.00     0.023 A 
ATOM     88  C   UNL A   1      43.195  37.140  29.435  1.00  0.00     0.031 A 
ATOM     89  C   UNL A   1      41.916  36.421  27.557  1.00  0.00     0.131 A 
ATOM     90  C   UNL A   1      43.221  38.436  28.885  1.00  0.00     0.055 A 
ATOM     91  C   UNL A   1      42.013  37.688  26.972  1.00  0.00     0.041 A 
ATOM     92  F   UNL A   1      41.232  35.519  26.837  1.00  0.00    -0.206 F 
ATOM     93  C   UNL A   1      42.654  38.714  27.645  1.00  0.00     0.022 A 
BRANCH  90  94
ATOM     94  S   UNL A   1      43.956  39.769  29.868  1.00  0.00     0.124 S 
ATOM     95  O   UNL A   1      43.604  40.950  29.084  1.00  0.00    -0.237 OA
ATOM     96  O   UNL A   1      43.269  39.631  31.148  1.00  0.00    -0.237 OA
ATOM     97  O   UNL A   1      45.380  39.441  29.888  1.00  0.00    -0.744 OA
ENDBRANCH  90  94
ENDBRANCH  64  87
ENDBRANCH  38  39
ENDBRANCH  30  33
ENDBRANCH  28  29
ENDBRANCH  27  28
ENDBRANCH   1  27
TORSDOF 18
ENDMDL
MODEL 3
REMARK VINA RESULT:     -12.8      4.467     10.403
REMARK SMILES Cc1cc(S(=O)(=O)Nc2cccc(I)c2)ccc1OCC(=O)NCCCNC(=O)c1ccc(-c2c3nc(c(-c4cc(S(=O)(=O)[O-])ccc4F)c4ccc([nH]4)c(-c4cc(S(=O)(=O)[O-])ccc4F)c4nc(c(-c5cc(S(=O)(=O)[O-])ccc5F)c5ccc2[nH]5)C=C4)C=C3)cc1
REMARK SMILES IDX 24 1 23 2 21 3 22 4 20 6 19 7 18 8 1 9 2 10 3 11 4 12 17 13
REMARK SMILES IDX 16 14 5 15 6 16 7 17 8 18 9 20 10 21 15 22 11 23 13 24 12 25
REMARK SMILES IDX 14 26 25 27 26 28 27 29 28 30 29 32 30 33 31 34 92 35 32 36
REMARK SMILES IDX 91 37 33 38 34 39 35 40 85 41 36 42 90 43 84 44 86 45 37 46
REMARK SMILES IDX 89 47 83 48 82 49 38 51 70 52 50 53 69 54 51 55 54 56 68 57
REMARK SMILES IDX 87 58 52 59 53 60 67 62 88 63 55 64 39 65 40 66 48 67 41 68
REMARK SMILES IDX 47 69 49 70 46 71 42 72 43 73 44 74 45 75 71 76 72 77 80 78
REMARK SMILES IDX 73 79 79 80 81 81 78 82 74 83 75 84 76 85 77 86 56 87 57 88
REMARK SMILES IDX 65 89 58 90 64 91 66 92 63 93 59 94 60 95 61 96 62 97
REMARK H PARENT 23 5 8 19 27 31 86 50 54 61
REMARK Flexibility Score: inf
ROOT
ATOM      1  C   UNL A   1      42.588  18.420  26.200  1.00  0.00     0.117 C 
ENDROOT
BRANCH   1   2
ATOM      2  N   UNL A   1      42.173  19.349  27.240  1.00  0.00    -0.353 N 
ATOM      3  C   UNL A   1      41.092  20.185  27.272  1.00  0.00     0.257 C 
ATOM      4  O   UNL A   1      40.878  20.902  28.252  1.00  0.00    -0.271 OA
ATOM      5  H   UNL A   1      42.754  19.380  28.033  1.00  0.00     0.163 HD
BRANCH   3   6
ATOM      6  C   UNL A   1      40.107  20.167  26.098  1.00  0.00     0.329 C 
BRANCH   6   7
ATOM      7  O   UNL A   1      39.489  21.375  25.712  1.00  0.00    -0.484 OA
BRANCH   7   8
ATOM      8  C   UNL A   1      38.152  21.465  25.463  1.00  0.00     0.123 A 
ATOM      9  C   UNL A   1      37.651  23.949  25.985  1.00  0.00     0.048 C 
ATOM     10  C   UNL A   1      37.271  22.539  25.639  1.00  0.00    -0.008 A 
ATOM     11  C   UNL A   1      35.884  22.300  25.480  1.00  0.00     0.029 A 
ATOM     12  C   UNL A   1      35.380  21.042  25.126  1.00  0.00     0.088 A 
ATOM     13  C   UNL A   1      37.628  20.222  25.060  1.00  0.00     0.048 A 
ATOM     14  C   UNL A   1      36.267  20.022  24.830  1.00  0.00     0.026 A 
BRANCH  12  15
ATOM     15  S   UNL A   1      33.618  20.828  25.273  1.00  0.00     0.261 S 
ATOM     16  O   UNL A   1      33.029  21.426  24.084  1.00  0.00    -0.201 OA
ATOM     17  O   UNL A   1      33.391  19.442  25.598  1.00  0.00    -0.201 OA
BRANCH  15  18
ATOM     18  N   UNL A   1      33.022  21.667  26.594  1.00  0.00    -0.280 N 
ATOM     19  H   UNL A   1      33.203  21.288  27.485  1.00  0.00     0.180 HD
BRANCH  18  20
ATOM     20  C   UNL A   1      32.279  22.875  26.550  1.00  0.00     0.050 A 
ATOM     21  C   UNL A   1      30.887  22.941  26.604  1.00  0.00     0.027 A 
ATOM     22  C   UNL A   1      33.025  24.041  26.355  1.00  0.00     0.041 A 
ATOM     23  C   UNL A   1      30.244  24.153  26.323  1.00  0.00     0.003 A 
ATOM     24  C   UNL A   1      32.381  25.246  26.087  1.00  0.00     0.015 A 
ATOM     25  C   UNL A   1      30.990  25.302  26.044  1.00  0.00     0.015 A 
ATOM     26  I   UNL A   1      33.513  26.941  25.681  1.00  0.00    -0.044 I 
ENDBRANCH  18  20
ENDBRANCH  15  18
ENDBRANCH  12  15
ENDBRANCH   7   8
ENDBRANCH   6   7
ENDBRANCH   3   6
ENDBRANCH   1   2
BRANCH   1  27
ATOM     27  C   UNL A   1      44.008  18.669  25.722  1.00  0.00     0.042 C 
BRANCH  27  28
ATOM     28  C   UNL A   1      44.113  19.569  24.495  1.00  0.00     0.118 C 
BRANCH  28  29
ATOM     29  N   UNL A   1      45.376  20.296  24.403  1.00  0.00    -0.352 N 
ATOM     30  C   UNL A   1      45.633  21.628  24.672  1.00  0.00     0.251 C 
ATOM     31  H   UNL A   1      46.151  19.766  24.109  1.00  0.00     0.163 HD
ATOM     32  O   UNL A   1      46.746  22.116  24.488  1.00  0.00    -0.269 OA
BRANCH  30  33
ATOM     33  C   UNL A   1      44.586  22.436  25.337  1.00  0.00     0.039 A 
ATOM     34  C   UNL A   1      44.152  23.589  24.670  1.00  0.00     0.014 A 
ATOM     35  C   UNL A   1      44.238  22.216  26.666  1.00  0.00     0.014 A 
ATOM     36  C   UNL A   1      43.594  24.631  25.403  1.00  0.00     0.010 A 
ATOM     37  C   UNL A   1      43.774  23.281  27.413  1.00  0.00     0.010 A 
ATOM     38  C   UNL A   1      43.516  24.508  26.791  1.00  0.00    -0.014 A 
BRANCH  38  39
ATOM     39  C   UNL A   1      43.320  25.652  27.671  1.00  0.00     0.031 A 
ATOM     40  C   UNL A   1      42.057  26.405  27.664  1.00  0.00     0.074 A 
ATOM     41  C   UNL A   1      44.300  26.003  28.531  1.00  0.00     0.049 A 
ATOM     42  N   UNL A   1      41.960  27.667  27.917  1.00  0.00    -0.248 NA
ATOM     43  C   UNL A   1      40.784  25.780  27.331  1.00  0.00     0.031 C 
ATOM     44  C   UNL A   1      44.223  26.968  29.623  1.00  0.00     0.029 A 
ATOM     45  N   UNL A   1      45.655  25.706  28.424  1.00  0.00    -0.354 N 
ATOM     46  C   UNL A   1      40.624  27.946  28.096  1.00  0.00     0.074 A 
ATOM     47  C   UNL A   1      39.931  26.764  27.630  1.00  0.00     0.031 C 
ATOM     48  C   UNL A   1      45.464  27.386  29.918  1.00  0.00     0.029 A 
ATOM     49  C   UNL A   1      46.362  26.808  28.934  1.00  0.00     0.049 A 
ATOM     50  H   UNL A   1      46.046  24.880  28.057  1.00  0.00     0.167 HD
ATOM     51  C   UNL A   1      40.252  29.069  28.776  1.00  0.00     0.034 A 
ATOM     52  C   UNL A   1      47.232  27.506  28.147  1.00  0.00     0.034 A 
ATOM     53  C   UNL A   1      41.411  29.850  29.206  1.00  0.00     0.049 A 
ATOM     54  C   UNL A   1      46.844  28.958  27.972  1.00  0.00     0.074 A 
ATOM     55  C   UNL A   1      42.059  29.956  30.428  1.00  0.00     0.029 A 
ATOM     56  N   UNL A   1      42.247  30.445  28.267  1.00  0.00    -0.354 N 
ATOM     57  N   UNL A   1      45.661  29.437  28.243  1.00  0.00    -0.248 NA
ATOM     58  C   UNL A   1      47.752  29.979  27.461  1.00  0.00     0.031 C 
ATOM     59  C   UNL A   1      43.319  30.567  30.206  1.00  0.00     0.029 A 
ATOM     60  C   UNL A   1      43.427  30.860  28.858  1.00  0.00     0.049 A 
ATOM     61  H   UNL A   1      42.028  30.555  27.313  1.00  0.00     0.167 HD
ATOM     62  C   UNL A   1      45.620  30.773  27.933  1.00  0.00     0.074 A 
ATOM     63  C   UNL A   1      46.965  31.069  27.473  1.00  0.00     0.031 C 
ATOM     64  C   UNL A   1      44.474  31.508  28.075  1.00  0.00     0.034 A 
BRANCH  51  65
ATOM     65  C   UNL A   1      38.864  29.266  29.353  1.00  0.00     0.023 A 
ATOM     66  C   UNL A   1      38.010  30.235  28.784  1.00  0.00     0.031 A 
ATOM     67  C   UNL A   1      38.342  28.587  30.469  1.00  0.00     0.131 A 
ATOM     68  C   UNL A   1      36.786  30.581  29.385  1.00  0.00     0.055 A 
ATOM     69  C   UNL A   1      37.155  28.972  31.107  1.00  0.00     0.041 A 
ATOM     70  F   UNL A   1      38.932  27.487  30.959  1.00  0.00    -0.206 F 
ATOM     71  C   UNL A   1      36.377  29.990  30.575  1.00  0.00     0.022 A 
BRANCH  68  72
ATOM     72  S   UNL A   1      35.725  31.810  28.575  1.00  0.00     0.124 S 
ATOM     73  O   UNL A   1      35.218  31.073  27.423  1.00  0.00    -0.237 OA
ATOM     74  O   UNL A   1      34.757  32.119  29.622  1.00  0.00    -0.237 OA
ATOM     75  O   UNL A   1      36.650  32.897  28.254  1.00  0.00    -0.744 OA
ENDBRANCH  68  72
ENDBRANCH  51  65
BRANCH  52  76
ATOM     76  C   UNL A   1      47.900  26.652  27.120  1.00  0.00     0.023 A 
ATOM     77  C   UNL A   1      47.621  26.946  25.766  1.00  0.00     0.031 A 
ATOM     78  C   UNL A   1      49.047  25.901  27.402  1.00  0.00     0.131 A 
ATOM     79  C   UNL A   1      48.569  26.666  24.771  1.00  0.00     0.055 A 
ATOM     80  C   UNL A   1      49.947  25.543  26.389  1.00  0.00     0.041 A 
ATOM     81  F   UNL A   1      49.384  25.614  28.668  1.00  0.00    -0.206 F 
ATOM     82  C   UNL A   1      49.735  25.965  25.074  1.00  0.00     0.022 A 
BRANCH  79  83
ATOM     83  S   UNL A   1      48.391  27.503  23.170  1.00  0.00     0.124 S 
ATOM     84  O   UNL A   1      47.168  28.274  23.353  1.00  0.00    -0.237 OA
ATOM     85  O   UNL A   1      49.628  28.280  23.076  1.00  0.00    -0.237 OA
ATOM     86  O   UNL A   1      48.306  26.414  22.200  1.00  0.00    -0.744 OA
ENDBRANCH  79  83
ENDBRANCH  52  76
BRANCH  64  87
ATOM     87  C   UNL A   1      44.254  32.928  27.588  1.00  0.00     0.023 A 
ATOM     88  C   UNL A   1      44.069  34.023  28.444  1.00  0.00     0.031 A 
ATOM     89  C   UNL A   1      44.292  33.239  26.205  1.00  0.00     0.131 A 
ATOM     90  C   UNL A   1      43.845  35.318  27.939  1.00  0.00     0.055 A 
ATOM     91  C   UNL A   1      44.151  34.538  25.708  1.00  0.00     0.041 A 
ATOM     92  F   UNL A   1      44.476  32.294  25.271  1.00  0.00    -0.206 F 
ATOM     93  C   UNL A   1      43.907  35.589  26.575  1.00  0.00     0.022 A 
BRANCH  90  94
ATOM     94  S   UNL A   1      43.399  36.629  29.108  1.00  0.00     0.124 S 
ATOM     95  O   UNL A   1      42.109  37.070  28.586  1.00  0.00    -0.237 OA
ATOM     96  O   UNL A   1      43.357  35.915  30.380  1.00  0.00    -0.237 OA
ATOM     97  O   UNL A   1      44.486  37.597  28.973  1.00  0.00    -0.744 OA
ENDBRANCH  90  94
ENDBRANCH  64  87
ENDBRANCH  38  39
ENDBRANCH  30  33
ENDBRANCH  28  29
ENDBRANCH  27  28
ENDBRANCH   1  27
TORSDOF 18
ENDMDL
