MODEL 1
REMARK VINA RESULT:     -12.1      0.000      0.000
REMARK SMILES COc1nc(-c2ccccc2)nc(C)c1CC(=O)NCCCNC(=O)c1ccc(-c2c3nc(c(-c4cc(S(=O)(=O)[O-])ccc4F)c4ccc([nH]4)c(-c4cc(S(=O)(=O)[O-])ccc4F)c4nc(c(-c5cc(S(=O)(=O)[O-])ccc5F)c5ccc2[nH]5)C=C4)C=C3)cc1
REMARK SMILES IDX 21 1 20 2 19 3 17 4 18 5 16 7 15 8 3 9 4 10 5 11 13 12 12 13
REMARK SMILES IDX 14 14 2 15 1 16 6 17 7 18 11 19 8 20 10 21 9 22 22 23 23 24
REMARK SMILES IDX 24 25 25 27 26 28 27 29 88 30 28 31 87 32 29 33 30 34 31 35
REMARK SMILES IDX 81 36 32 37 86 38 80 39 82 40 33 41 85 42 79 43 78 44 34 46
REMARK SMILES IDX 66 47 46 48 65 49 47 50 50 51 64 52 83 53 48 54 49 55 63 57
REMARK SMILES IDX 84 58 51 59 35 60 36 61 44 62 37 63 43 64 45 65 42 66 38 67
REMARK SMILES IDX 39 68 40 69 41 70 67 71 68 72 76 73 69 74 75 75 77 76 74 77
REMARK SMILES IDX 70 78 71 79 72 80 73 81 52 82 53 83 61 84 54 85 60 86 62 87
REMARK SMILES IDX 59 88 55 89 56 90 57 91 58 92
REMARK H PARENT 19 6 23 26 82 45 50 56
REMARK Flexibility Score: inf
ROOT
ATOM      1  C   UNL A   1      31.867  28.549  26.872  1.00  0.00     0.042 C 
ENDROOT
BRANCH   1   2
ATOM      2  C   UNL A   1      31.320  27.468  25.941  1.00  0.00     0.117 C 
BRANCH   2   3
ATOM      3  N   UNL A   1      31.097  26.200  26.607  1.00  0.00    -0.356 N 
ATOM      4  C   UNL A   1      31.752  25.009  26.497  1.00  0.00     0.224 C 
ATOM      5  O   UNL A   1      31.435  24.119  27.291  1.00  0.00    -0.275 OA
ATOM      6  H   UNL A   1      30.349  26.198  27.248  1.00  0.00     0.163 HD
BRANCH   4   7
ATOM      7  C   UNL A   1      32.880  24.791  25.496  1.00  0.00     0.143 C 
BRANCH   7   8
ATOM      8  C   UNL A   1      33.088  23.369  25.063  1.00  0.00     0.045 A 
ATOM      9  C   UNL A   1      34.125  22.605  25.592  1.00  0.00     0.220 A 
ATOM     10  N   UNL A   1      34.325  21.295  25.357  1.00  0.00    -0.193 NA
ATOM     11  C   UNL A   1      33.467  20.734  24.492  1.00  0.00     0.163 A 
ATOM     12  C   UNL A   1      32.300  22.702  24.139  1.00  0.00     0.049 A 
ATOM     13  N   UNL A   1      32.485  21.397  23.855  1.00  0.00    -0.233 NA
ATOM     14  C   UNL A   1      31.190  23.323  23.344  1.00  0.00     0.067 C 
BRANCH   9  15
ATOM     15  O   UNL A   1      35.165  23.272  26.199  1.00  0.00    -0.481 OA
ATOM     16  C   UNL A   1      36.111  23.772  25.263  1.00  0.00     0.280 C 
ENDBRANCH   9  15
BRANCH  11  17
ATOM     17  C   UNL A   1      33.569  19.303  24.181  1.00  0.00     0.019 A 
ATOM     18  C   UNL A   1      34.638  18.538  24.689  1.00  0.00     0.012 A 
ATOM     19  C   UNL A   1      32.671  18.669  23.307  1.00  0.00     0.012 A 
ATOM     20  C   UNL A   1      34.809  17.197  24.335  1.00  0.00     0.001 A 
ATOM     21  C   UNL A   1      32.851  17.332  22.937  1.00  0.00     0.001 A 
ATOM     22  C   UNL A   1      33.918  16.596  23.451  1.00  0.00     0.000 A 
ENDBRANCH  11  17
ENDBRANCH   7   8
ENDBRANCH   4   7
ENDBRANCH   2   3
ENDBRANCH   1   2
BRANCH   1  23
ATOM     23  C   UNL A   1      32.982  29.401  26.266  1.00  0.00     0.118 C 
BRANCH  23  24
ATOM     24  N   UNL A   1      32.814  30.821  26.538  1.00  0.00    -0.352 N 
ATOM     25  C   UNL A   1      33.523  31.671  27.352  1.00  0.00     0.251 C 
ATOM     26  H   UNL A   1      32.067  31.245  26.056  1.00  0.00     0.163 HD
ATOM     27  O   UNL A   1      33.061  32.785  27.584  1.00  0.00    -0.269 OA
BRANCH  25  28
ATOM     28  C   UNL A   1      34.812  31.261  27.954  1.00  0.00     0.039 A 
ATOM     29  C   UNL A   1      35.868  32.178  27.970  1.00  0.00     0.014 A 
ATOM     30  C   UNL A   1      35.009  29.970  28.451  1.00  0.00     0.014 A 
ATOM     31  C   UNL A   1      37.093  31.824  28.541  1.00  0.00     0.010 A 
ATOM     32  C   UNL A   1      36.208  29.641  29.083  1.00  0.00     0.010 A 
ATOM     33  C   UNL A   1      37.264  30.564  29.137  1.00  0.00    -0.014 A 
BRANCH  33  34
ATOM     34  C   UNL A   1      38.536  30.195  29.816  1.00  0.00     0.031 A 
ATOM     35  C   UNL A   1      39.460  29.182  29.193  1.00  0.00     0.074 A 
ATOM     36  C   UNL A   1      38.830  30.729  31.019  1.00  0.00     0.049 A 
ATOM     37  N   UNL A   1      40.555  28.653  29.677  1.00  0.00    -0.248 NA
ATOM     38  C   UNL A   1      39.089  28.680  27.862  1.00  0.00     0.031 C 
ATOM     39  C   UNL A   1      38.000  31.699  31.737  1.00  0.00     0.029 A 
ATOM     40  N   UNL A   1      39.897  30.524  31.858  1.00  0.00    -0.354 N 
ATOM     41  C   UNL A   1      41.002  27.755  28.713  1.00  0.00     0.074 A 
ATOM     42  C   UNL A   1      40.024  27.767  27.645  1.00  0.00     0.031 C 
ATOM     43  C   UNL A   1      38.596  32.013  32.898  1.00  0.00     0.029 A 
ATOM     44  C   UNL A   1      39.821  31.234  33.035  1.00  0.00     0.049 A 
ATOM     45  H   UNL A   1      40.647  29.926  31.638  1.00  0.00     0.167 HD
ATOM     46  C   UNL A   1      42.136  27.010  28.705  1.00  0.00     0.034 A 
ATOM     47  C   UNL A   1      40.634  31.239  34.112  1.00  0.00     0.034 A 
ATOM     48  C   UNL A   1      43.106  27.012  29.772  1.00  0.00     0.049 A 
ATOM     49  C   UNL A   1      41.870  30.372  34.094  1.00  0.00     0.074 A 
ATOM     50  C   UNL A   1      44.297  26.310  29.858  1.00  0.00     0.029 A 
ATOM     51  N   UNL A   1      43.001  27.753  30.943  1.00  0.00    -0.354 N 
ATOM     52  N   UNL A   1      42.289  29.551  33.159  1.00  0.00    -0.248 NA
ATOM     53  C   UNL A   1      42.747  30.441  35.270  1.00  0.00     0.031 C 
ATOM     54  C   UNL A   1      44.880  26.580  31.100  1.00  0.00     0.029 A 
ATOM     55  C   UNL A   1      44.093  27.510  31.760  1.00  0.00     0.049 A 
ATOM     56  H   UNL A   1      42.258  28.362  31.160  1.00  0.00     0.167 HD
ATOM     57  C   UNL A   1      43.499  29.038  33.622  1.00  0.00     0.074 A 
ATOM     58  C   UNL A   1      43.748  29.655  34.907  1.00  0.00     0.031 C 
ATOM     59  C   UNL A   1      44.330  28.137  33.039  1.00  0.00     0.034 A 
BRANCH  46  60
ATOM     60  C   UNL A   1      42.380  26.124  27.508  1.00  0.00     0.023 A 
ATOM     61  C   UNL A   1      41.907  24.800  27.467  1.00  0.00     0.031 A 
ATOM     62  C   UNL A   1      43.091  26.603  26.394  1.00  0.00     0.131 A 
ATOM     63  C   UNL A   1      42.203  23.984  26.366  1.00  0.00     0.055 A 
ATOM     64  C   UNL A   1      43.316  25.808  25.267  1.00  0.00     0.041 A 
ATOM     65  F   UNL A   1      43.586  27.850  26.382  1.00  0.00    -0.206 F 
ATOM     66  C   UNL A   1      42.880  24.486  25.253  1.00  0.00     0.022 A 
BRANCH  63  67
ATOM     67  S   UNL A   1      41.789  22.221  26.461  1.00  0.00     0.124 S 
ATOM     68  O   UNL A   1      42.586  21.673  25.365  1.00  0.00    -0.237 OA
ATOM     69  O   UNL A   1      42.223  21.864  27.806  1.00  0.00    -0.237 OA
ATOM     70  O   UNL A   1      40.343  22.195  26.244  1.00  0.00    -0.744 OA
ENDBRANCH  63  67
ENDBRANCH  46  60
BRANCH  47  71
ATOM     71  C   UNL A   1      40.307  32.067  35.311  1.00  0.00     0.023 A 
ATOM     72  C   UNL A   1      39.358  31.635  36.250  1.00  0.00     0.031 A 
ATOM     73  C   UNL A   1      40.881  33.338  35.494  1.00  0.00     0.131 A 
ATOM     74  C   UNL A   1      38.958  32.493  37.287  1.00  0.00     0.055 A 
ATOM     75  C   UNL A   1      40.530  34.160  36.566  1.00  0.00     0.041 A 
ATOM     76  F   UNL A   1      41.797  33.802  34.628  1.00  0.00    -0.206 F 
ATOM     77  C   UNL A   1      39.547  33.746  37.460  1.00  0.00     0.022 A 
BRANCH  74  78
ATOM     78  S   UNL A   1      37.559  31.996  38.331  1.00  0.00     0.124 S 
ATOM     79  O   UNL A   1      36.540  32.964  37.943  1.00  0.00    -0.237 OA
ATOM     80  O   UNL A   1      37.336  30.620  37.901  1.00  0.00    -0.237 OA
ATOM     81  O   UNL A   1      38.079  32.147  39.688  1.00  0.00    -0.744 OA
ENDBRANCH  74  78
ENDBRANCH  47  71
BRANCH  59  82
ATOM     82  C   UNL A   1      45.614  27.815  33.765  1.00  0.00     0.023 A 
ATOM     83  C   UNL A   1      45.703  26.749  34.677  1.00  0.00     0.031 A 
ATOM     84  C   UNL A   1      46.761  28.599  33.549  1.00  0.00     0.131 A 
ATOM     85  C   UNL A   1      46.896  26.532  35.382  1.00  0.00     0.055 A 
ATOM     86  C   UNL A   1      47.963  28.340  34.207  1.00  0.00     0.041 A 
ATOM     87  F   UNL A   1      46.732  29.631  32.690  1.00  0.00    -0.206 F 
ATOM     88  C   UNL A   1      48.032  27.309  35.140  1.00  0.00     0.022 A 
BRANCH  85  89
ATOM     89  S   UNL A   1      46.918  25.274  36.689  1.00  0.00     0.124 S 
ATOM     90  O   UNL A   1      47.613  24.170  36.037  1.00  0.00    -0.237 OA
ATOM     91  O   UNL A   1      47.650  25.946  37.758  1.00  0.00    -0.237 OA
ATOM     92  O   UNL A   1      45.501  25.040  36.963  1.00  0.00    -0.744 OA
ENDBRANCH  85  89
ENDBRANCH  59  82
ENDBRANCH  33  34
ENDBRANCH  25  28
ENDBRANCH  23  24
ENDBRANCH   1  23
TORSDOF 16
ENDMDL
MODEL 2
REMARK VINA RESULT:     -12.0      2.204      7.723
REMARK SMILES COc1nc(-c2ccccc2)nc(C)c1CC(=O)NCCCNC(=O)c1ccc(-c2c3nc(c(-c4cc(S(=O)(=O)[O-])ccc4F)c4ccc([nH]4)c(-c4cc(S(=O)(=O)[O-])ccc4F)c4nc(c(-c5cc(S(=O)(=O)[O-])ccc5F)c5ccc2[nH]5)C=C4)C=C3)cc1
REMARK SMILES IDX 21 1 20 2 19 3 17 4 18 5 16 7 15 8 3 9 4 10 5 11 13 12 12 13
REMARK SMILES IDX 14 14 2 15 1 16 6 17 7 18 11 19 8 20 10 21 9 22 22 23 23 24
REMARK SMILES IDX 24 25 25 27 26 28 27 29 88 30 28 31 87 32 29 33 30 34 31 35
REMARK SMILES IDX 81 36 32 37 86 38 80 39 82 40 33 41 85 42 79 43 78 44 34 46
REMARK SMILES IDX 66 47 46 48 65 49 47 50 50 51 64 52 83 53 48 54 49 55 63 57
REMARK SMILES IDX 84 58 51 59 35 60 36 61 44 62 37 63 43 64 45 65 42 66 38 67
REMARK SMILES IDX 39 68 40 69 41 70 67 71 68 72 76 73 69 74 75 75 77 76 74 77
REMARK SMILES IDX 70 78 71 79 72 80 73 81 52 82 53 83 61 84 54 85 60 86 62 87
REMARK SMILES IDX 59 88 55 89 56 90 57 91 58 92
REMARK H PARENT 19 6 23 26 82 45 50 56
REMARK Flexibility Score: inf
ROOT
ATOM      1  C   UNL A   1      32.118  28.627  27.290  1.00  0.00     0.042 C 
ENDROOT
BRANCH   1   2
ATOM      2  C   UNL A   1      31.564  27.665  26.241  1.00  0.00     0.117 C 
BRANCH   2   3
ATOM      3  N   UNL A   1      31.229  26.362  26.782  1.00  0.00    -0.356 N 
ATOM      4  C   UNL A   1      31.766  25.133  26.542  1.00  0.00     0.224 C 
ATOM      5  O   UNL A   1      31.373  24.201  27.249  1.00  0.00    -0.275 OA
ATOM      6  H   UNL A   1      30.489  26.366  27.433  1.00  0.00     0.163 HD
BRANCH   4   7
ATOM      7  C   UNL A   1      32.859  24.913  25.503  1.00  0.00     0.143 C 
BRANCH   7   8
ATOM      8  C   UNL A   1      33.058  23.488  25.073  1.00  0.00     0.045 A 
ATOM      9  C   UNL A   1      34.087  22.717  25.606  1.00  0.00     0.220 A 
ATOM     10  N   UNL A   1      34.277  21.405  25.374  1.00  0.00    -0.193 NA
ATOM     11  C   UNL A   1      33.419  20.849  24.506  1.00  0.00     0.163 A 
ATOM     12  C   UNL A   1      32.268  22.826  24.146  1.00  0.00     0.049 A 
ATOM     13  N   UNL A   1      32.444  21.520  23.864  1.00  0.00    -0.233 NA
ATOM     14  C   UNL A   1      31.166  23.455  23.346  1.00  0.00     0.067 C 
BRANCH   9  15
ATOM     15  O   UNL A   1      35.130  23.377  26.216  1.00  0.00    -0.481 OA
ATOM     16  C   UNL A   1      36.397  22.840  25.859  1.00  0.00     0.280 C 
ENDBRANCH   9  15
BRANCH  11  17
ATOM     17  C   UNL A   1      33.511  19.418  24.196  1.00  0.00     0.019 A 
ATOM     18  C   UNL A   1      34.617  18.663  24.637  1.00  0.00     0.012 A 
ATOM     19  C   UNL A   1      32.562  18.772  23.388  1.00  0.00     0.012 A 
ATOM     20  C   UNL A   1      34.774  17.322  24.280  1.00  0.00     0.001 A 
ATOM     21  C   UNL A   1      32.727  17.434  23.014  1.00  0.00     0.001 A 
ATOM     22  C   UNL A   1      33.831  16.709  23.460  1.00  0.00     0.000 A 
ENDBRANCH  11  17
ENDBRANCH   7   8
ENDBRANCH   4   7
ENDBRANCH   2   3
ENDBRANCH   1   2
BRANCH   1  23
ATOM     23  C   UNL A   1      33.474  29.238  26.935  1.00  0.00     0.118 C 
BRANCH  23  24
ATOM     24  N   UNL A   1      33.508  30.681  27.131  1.00  0.00    -0.352 N 
ATOM     25  C   UNL A   1      34.368  31.469  27.856  1.00  0.00     0.251 C 
ATOM     26  H   UNL A   1      32.794  31.174  26.666  1.00  0.00     0.163 HD
ATOM     27  O   UNL A   1      34.070  32.646  28.047  1.00  0.00    -0.269 OA
BRANCH  25  28
ATOM     28  C   UNL A   1      35.626  30.923  28.414  1.00  0.00     0.039 A 
ATOM     29  C   UNL A   1      35.551  29.923  29.388  1.00  0.00     0.014 A 
ATOM     30  C   UNL A   1      36.874  31.423  28.029  1.00  0.00     0.014 A 
ATOM     31  C   UNL A   1      36.722  29.380  29.926  1.00  0.00     0.010 A 
ATOM     32  C   UNL A   1      38.041  30.832  28.514  1.00  0.00     0.010 A 
ATOM     33  C   UNL A   1      37.980  29.803  29.466  1.00  0.00    -0.014 A 
BRANCH  33  34
ATOM     34  C   UNL A   1      39.236  29.186  29.971  1.00  0.00     0.031 A 
ATOM     35  C   UNL A   1      39.934  29.765  31.173  1.00  0.00     0.074 A 
ATOM     36  C   UNL A   1      39.777  28.140  29.313  1.00  0.00     0.049 A 
ATOM     37  N   UNL A   1      41.087  29.437  31.699  1.00  0.00    -0.248 NA
ATOM     38  C   UNL A   1      39.257  30.876  31.858  1.00  0.00     0.031 C 
ATOM     39  C   UNL A   1      39.209  27.509  28.119  1.00  0.00     0.029 A 
ATOM     40  N   UNL A   1      40.930  27.431  29.543  1.00  0.00    -0.354 N 
ATOM     41  C   UNL A   1      41.275  30.301  32.773  1.00  0.00     0.074 A 
ATOM     42  C   UNL A   1      40.146  31.208  32.783  1.00  0.00     0.031 C 
ATOM     43  C   UNL A   1      40.007  26.501  27.733  1.00  0.00     0.029 A 
ATOM     44  C   UNL A   1      41.168  26.444  28.614  1.00  0.00     0.049 A 
ATOM     45  H   UNL A   1      41.531  27.613  30.302  1.00  0.00     0.167 HD
ATOM     46  C   UNL A   1      42.282  30.319  33.682  1.00  0.00     0.034 A 
ATOM     47  C   UNL A   1      42.213  25.601  28.477  1.00  0.00     0.034 A 
ATOM     48  C   UNL A   1      43.398  29.407  33.665  1.00  0.00     0.049 A 
ATOM     49  C   UNL A   1      43.339  25.668  29.480  1.00  0.00     0.074 A 
ATOM     50  C   UNL A   1      44.462  29.327  34.549  1.00  0.00     0.029 A 
ATOM     51  N   UNL A   1      43.598  28.411  32.717  1.00  0.00    -0.354 N 
ATOM     52  N   UNL A   1      43.484  26.475  30.506  1.00  0.00    -0.248 NA
ATOM     53  C   UNL A   1      44.435  24.704  29.314  1.00  0.00     0.031 C 
ATOM     54  C   UNL A   1      45.331  28.326  34.103  1.00  0.00     0.029 A 
ATOM     55  C   UNL A   1      44.774  27.728  32.983  1.00  0.00     0.049 A 
ATOM     56  H   UNL A   1      42.993  28.219  31.964  1.00  0.00     0.167 HD
ATOM     57  C   UNL A   1      44.668  26.086  31.127  1.00  0.00     0.074 A 
ATOM     58  C   UNL A   1      45.186  24.966  30.372  1.00  0.00     0.031 C 
ATOM     59  C   UNL A   1      45.276  26.609  32.223  1.00  0.00     0.034 A 
BRANCH  46  60
ATOM     60  C   UNL A   1      42.223  31.370  34.765  1.00  0.00     0.023 A 
ATOM     61  C   UNL A   1      42.832  32.627  34.601  1.00  0.00     0.031 A 
ATOM     62  C   UNL A   1      41.553  31.116  35.974  1.00  0.00     0.131 A 
ATOM     63  C   UNL A   1      42.812  33.557  35.650  1.00  0.00     0.055 A 
ATOM     64  C   UNL A   1      41.470  32.077  36.986  1.00  0.00     0.041 A 
ATOM     65  F   UNL A   1      40.970  29.928  36.198  1.00  0.00    -0.206 F 
ATOM     66  C   UNL A   1      42.111  33.303  36.830  1.00  0.00     0.022 A 
BRANCH  63  67
ATOM     67  S   UNL A   1      43.813  35.060  35.492  1.00  0.00     0.124 S 
ATOM     68  O   UNL A   1      44.919  34.775  36.403  1.00  0.00    -0.237 OA
ATOM     69  O   UNL A   1      44.144  35.075  34.072  1.00  0.00    -0.237 OA
ATOM     70  O   UNL A   1      42.910  36.122  35.933  1.00  0.00    -0.744 OA
ENDBRANCH  63  67
ENDBRANCH  46  60
BRANCH  47  71
ATOM     71  C   UNL A   1      42.270  24.636  27.338  1.00  0.00     0.023 A 
ATOM     72  C   UNL A   1      41.510  23.456  27.352  1.00  0.00     0.031 A 
ATOM     73  C   UNL A   1      43.144  24.842  26.255  1.00  0.00     0.131 A 
ATOM     74  C   UNL A   1      41.691  22.495  26.344  1.00  0.00     0.055 A 
ATOM     75  C   UNL A   1      43.270  23.914  25.220  1.00  0.00     0.041 A 
ATOM     76  F   UNL A   1      43.894  25.955  26.188  1.00  0.00    -0.206 F 
ATOM     77  C   UNL A   1      42.554  22.722  25.272  1.00  0.00     0.022 A 
BRANCH  74  78
ATOM     78  S   UNL A   1      40.874  20.885  26.528  1.00  0.00     0.124 S 
ATOM     79  O   UNL A   1      40.893  20.707  27.976  1.00  0.00    -0.237 OA
ATOM     80  O   UNL A   1      39.570  21.138  25.928  1.00  0.00    -0.237 OA
ATOM     81  O   UNL A   1      41.740  19.978  25.777  1.00  0.00    -0.744 OA
ENDBRANCH  74  78
ENDBRANCH  47  71
BRANCH  59  82
ATOM     82  C   UNL A   1      46.537  25.930  32.699  1.00  0.00     0.023 A 
ATOM     83  C   UNL A   1      46.506  24.883  33.637  1.00  0.00     0.031 A 
ATOM     84  C   UNL A   1      47.790  26.348  32.214  1.00  0.00     0.131 A 
ATOM     85  C   UNL A   1      47.708  24.330  34.105  1.00  0.00     0.055 A 
ATOM     86  C   UNL A   1      48.977  25.752  32.637  1.00  0.00     0.041 A 
ATOM     87  F   UNL A   1      47.877  27.345  31.319  1.00  0.00    -0.206 F 
ATOM     88  C   UNL A   1      48.942  24.745  33.598  1.00  0.00     0.022 A 
BRANCH  85  89
ATOM     89  S   UNL A   1      47.642  23.119  35.454  1.00  0.00     0.124 S 
ATOM     90  O   UNL A   1      49.016  22.630  35.492  1.00  0.00    -0.237 OA
ATOM     91  O   UNL A   1      47.225  23.937  36.588  1.00  0.00    -0.237 OA
ATOM     92  O   UNL A   1      46.650  22.148  34.994  1.00  0.00    -0.744 OA
ENDBRANCH  85  89
ENDBRANCH  59  82
ENDBRANCH  33  34
ENDBRANCH  25  28
ENDBRANCH  23  24
ENDBRANCH   1  23
TORSDOF 16
ENDMDL
MODEL 3
REMARK VINA RESULT:     -12.0      4.713      9.984
REMARK SMILES COc1nc(-c2ccccc2)nc(C)c1CC(=O)NCCCNC(=O)c1ccc(-c2c3nc(c(-c4cc(S(=O)(=O)[O-])ccc4F)c4ccc([nH]4)c(-c4cc(S(=O)(=O)[O-])ccc4F)c4nc(c(-c5cc(S(=O)(=O)[O-])ccc5F)c5ccc2[nH]5)C=C4)C=C3)cc1
REMARK SMILES IDX 21 1 20 2 19 3 17 4 18 5 16 7 15 8 3 9 4 10 5 11 13 12 12 13
REMARK SMILES IDX 14 14 2 15 1 16 6 17 7 18 11 19 8 20 10 21 9 22 22 23 23 24
REMARK SMILES IDX 24 25 25 27 26 28 27 29 88 30 28 31 87 32 29 33 30 34 31 35
REMARK SMILES IDX 81 36 32 37 86 38 80 39 82 40 33 41 85 42 79 43 78 44 34 46
REMARK SMILES IDX 66 47 46 48 65 49 47 50 50 51 64 52 83 53 48 54 49 55 63 57
REMARK SMILES IDX 84 58 51 59 35 60 36 61 44 62 37 63 43 64 45 65 42 66 38 67
REMARK SMILES IDX 39 68 40 69 41 70 67 71 68 72 76 73 69 74 75 75 77 76 74 77
REMARK SMILES IDX 70 78 71 79 72 80 73 81 52 82 53 83 61 84 54 85 60 86 62 87
REMARK SMILES IDX 59 88 55 89 56 90 57 91 58 92
REMARK H PARENT 19 6 23 26 82 45 50 56
REMARK Flexibility Score: inf
ROOT
ATOM      1  C   UNL A   1      35.042  21.658  26.112  1.00  0.00     0.042 C 
ENDROOT
BRANCH   1   2
ATOM      2  C   UNL A   1      33.889  22.572  25.704  1.00  0.00     0.117 C 
BRANCH   2   3
ATOM      3  N   UNL A   1      33.439  22.352  24.343  1.00  0.00    -0.356 N 
ATOM      4  C   UNL A   1      33.475  23.166  23.251  1.00  0.00     0.224 C 
ATOM      5  O   UNL A   1      33.144  22.670  22.171  1.00  0.00    -0.275 OA
ATOM      6  H   UNL A   1      33.043  21.465  24.180  1.00  0.00     0.163 HD
BRANCH   4   7
ATOM      7  C   UNL A   1      33.971  24.605  23.326  1.00  0.00     0.143 C 
BRANCH   7   8
ATOM      8  C   UNL A   1      32.906  25.658  23.207  1.00  0.00     0.045 A 
ATOM      9  C   UNL A   1      32.459  26.085  21.960  1.00  0.00     0.220 A 
ATOM     10  N   UNL A   1      31.436  26.933  21.749  1.00  0.00    -0.193 NA
ATOM     11  C   UNL A   1      30.868  27.429  22.859  1.00  0.00     0.163 A 
ATOM     12  C   UNL A   1      32.287  26.278  24.281  1.00  0.00     0.049 A 
ATOM     13  N   UNL A   1      31.277  27.154  24.111  1.00  0.00    -0.233 NA
ATOM     14  C   UNL A   1      32.656  26.081  25.721  1.00  0.00     0.067 C 
BRANCH   9  15
ATOM     15  O   UNL A   1      33.260  25.826  20.871  1.00  0.00    -0.481 OA
ATOM     16  C   UNL A   1      32.515  25.411  19.733  1.00  0.00     0.280 C 
ENDBRANCH   9  15
BRANCH  11  17
ATOM     17  C   UNL A   1      29.723  28.342  22.753  1.00  0.00     0.019 A 
ATOM     18  C   UNL A   1      29.914  29.679  22.348  1.00  0.00     0.012 A 
ATOM     19  C   UNL A   1      28.428  27.952  23.129  1.00  0.00     0.012 A 
ATOM     20  C   UNL A   1      28.857  30.592  22.326  1.00  0.00     0.001 A 
ATOM     21  C   UNL A   1      27.371  28.870  23.125  1.00  0.00     0.001 A 
ATOM     22  C   UNL A   1      27.585  30.188  22.724  1.00  0.00     0.000 A 
ENDBRANCH  11  17
ENDBRANCH   7   8
ENDBRANCH   4   7
ENDBRANCH   2   3
ENDBRANCH   1   2
BRANCH   1  23
ATOM     23  C   UNL A   1      36.370  21.968  25.420  1.00  0.00     0.118 C 
BRANCH  23  24
ATOM     24  N   UNL A   1      37.344  20.897  25.570  1.00  0.00    -0.352 N 
ATOM     25  C   UNL A   1      38.686  20.937  25.864  1.00  0.00     0.251 C 
ATOM     26  H   UNL A   1      36.981  19.991  25.441  1.00  0.00     0.163 HD
ATOM     27  O   UNL A   1      39.350  19.913  25.727  1.00  0.00    -0.269 OA
BRANCH  25  28
ATOM     28  C   UNL A   1      39.335  22.186  26.323  1.00  0.00     0.039 A 
ATOM     29  C   UNL A   1      40.375  22.100  27.254  1.00  0.00     0.014 A 
ATOM     30  C   UNL A   1      38.896  23.441  25.890  1.00  0.00     0.014 A 
ATOM     31  C   UNL A   1      41.013  23.261  27.699  1.00  0.00     0.010 A 
ATOM     32  C   UNL A   1      39.580  24.592  26.280  1.00  0.00     0.010 A 
ATOM     33  C   UNL A   1      40.647  24.517  27.187  1.00  0.00    -0.014 A 
BRANCH  33  34
ATOM     34  C   UNL A   1      41.364  25.756  27.591  1.00  0.00     0.031 A 
ATOM     35  C   UNL A   1      40.649  26.823  28.377  1.00  0.00     0.074 A 
ATOM     36  C   UNL A   1      42.642  25.946  27.201  1.00  0.00     0.049 A 
ATOM     37  N   UNL A   1      41.067  28.012  28.731  1.00  0.00    -0.248 NA
ATOM     38  C   UNL A   1      39.274  26.520  28.800  1.00  0.00     0.031 C 
ATOM     39  C   UNL A   1      43.432  24.998  26.412  1.00  0.00     0.029 A 
ATOM     40  N   UNL A   1      43.497  27.002  27.401  1.00  0.00    -0.354 N 
ATOM     41  C   UNL A   1      40.007  28.601  29.413  1.00  0.00     0.074 A 
ATOM     42  C   UNL A   1      38.907  27.660  29.369  1.00  0.00     0.031 C 
ATOM     43  C   UNL A   1      44.657  25.509  26.208  1.00  0.00     0.029 A 
ATOM     44  C   UNL A   1      44.726  26.839  26.804  1.00  0.00     0.049 A 
ATOM     45  H   UNL A   1      43.252  27.800  27.922  1.00  0.00     0.167 HD
ATOM     46  C   UNL A   1      39.964  29.802  30.042  1.00  0.00     0.034 A 
ATOM     47  C   UNL A   1      45.782  27.675  26.727  1.00  0.00     0.034 A 
ATOM     48  C   UNL A   1      41.069  30.728  30.084  1.00  0.00     0.049 A 
ATOM     49  C   UNL A   1      45.695  29.022  27.403  1.00  0.00     0.074 A 
ATOM     50  C   UNL A   1      41.137  31.962  30.709  1.00  0.00     0.029 A 
ATOM     51  N   UNL A   1      42.303  30.523  29.480  1.00  0.00    -0.354 N 
ATOM     52  N   UNL A   1      44.692  29.549  28.068  1.00  0.00    -0.248 NA
ATOM     53  C   UNL A   1      46.883  29.882  27.328  1.00  0.00     0.031 C 
ATOM     54  C   UNL A   1      42.387  32.527  30.433  1.00  0.00     0.029 A 
ATOM     55  C   UNL A   1      43.128  31.614  29.701  1.00  0.00     0.049 A 
ATOM     56  H   UNL A   1      42.554  29.720  28.968  1.00  0.00     0.167 HD
ATOM     57  C   UNL A   1      45.147  30.784  28.522  1.00  0.00     0.074 A 
ATOM     58  C   UNL A   1      46.516  30.915  28.071  1.00  0.00     0.031 C 
ATOM     59  C   UNL A   1      44.494  31.728  29.247  1.00  0.00     0.034 A 
BRANCH  46  60
ATOM     60  C   UNL A   1      38.673  30.185  30.725  1.00  0.00     0.023 A 
ATOM     61  C   UNL A   1      37.667  30.894  30.046  1.00  0.00     0.031 A 
ATOM     62  C   UNL A   1      38.442  29.839  32.068  1.00  0.00     0.131 A 
ATOM     63  C   UNL A   1      36.506  31.288  30.726  1.00  0.00     0.055 A 
ATOM     64  C   UNL A   1      37.249  30.167  32.718  1.00  0.00     0.041 A 
ATOM     65  F   UNL A   1      39.373  29.180  32.775  1.00  0.00    -0.206 F 
ATOM     66  C   UNL A   1      36.277  30.905  32.049  1.00  0.00     0.022 A 
BRANCH  63  67
ATOM     67  S   UNL A   1      35.350  32.407  29.890  1.00  0.00     0.124 S 
ATOM     68  O   UNL A   1      34.395  32.695  30.957  1.00  0.00    -0.237 OA
ATOM     69  O   UNL A   1      36.212  33.513  29.489  1.00  0.00    -0.237 OA
ATOM     70  O   UNL A   1      34.822  31.598  28.792  1.00  0.00    -0.744 OA
ENDBRANCH  63  67
ENDBRANCH  46  60
BRANCH  47  71
ATOM     71  C   UNL A   1      47.008  27.289  25.966  1.00  0.00     0.023 A 
ATOM     72  C   UNL A   1      47.205  27.722  24.646  1.00  0.00     0.031 A 
ATOM     73  C   UNL A   1      47.962  26.416  26.521  1.00  0.00     0.131 A 
ATOM     74  C   UNL A   1      48.288  27.227  23.901  1.00  0.00     0.055 A 
ATOM     75  C   UNL A   1      49.073  25.980  25.798  1.00  0.00     0.041 A 
ATOM     76  F   UNL A   1      47.826  25.971  27.781  1.00  0.00    -0.206 F 
ATOM     77  C   UNL A   1      49.230  26.371  24.472  1.00  0.00     0.022 A 
BRANCH  74  78
ATOM     78  S   UNL A   1      48.371  27.618  22.131  1.00  0.00     0.124 S 
ATOM     79  O   UNL A   1      47.061  28.217  21.898  1.00  0.00    -0.237 OA
ATOM     80  O   UNL A   1      49.511  28.525  22.075  1.00  0.00    -0.237 OA
ATOM     81  O   UNL A   1      48.581  26.315  21.505  1.00  0.00    -0.744 OA
ENDBRANCH  74  78
ENDBRANCH  47  71
BRANCH  59  82
ATOM     82  C   UNL A   1      45.278  32.956  29.643  1.00  0.00     0.023 A 
ATOM     83  C   UNL A   1      46.010  33.013  30.841  1.00  0.00     0.031 A 
ATOM     84  C   UNL A   1      45.279  34.090  28.811  1.00  0.00     0.131 A 
ATOM     85  C   UNL A   1      46.665  34.200  31.203  1.00  0.00     0.055 A 
ATOM     86  C   UNL A   1      45.983  35.246  29.147  1.00  0.00     0.041 A 
ATOM     87  F   UNL A   1      44.595  34.091  27.656  1.00  0.00    -0.206 F 
ATOM     88  C   UNL A   1      46.671  35.311  30.355  1.00  0.00     0.022 A 
BRANCH  85  89
ATOM     89  S   UNL A   1      47.437  34.304  32.841  1.00  0.00     0.124 S 
ATOM     90  O   UNL A   1      46.477  35.118  33.579  1.00  0.00    -0.237 OA
ATOM     91  O   UNL A   1      47.520  32.902  33.237  1.00  0.00    -0.237 OA
ATOM     92  O   UNL A   1      48.722  34.949  32.574  1.00  0.00    -0.744 OA
ENDBRANCH  85  89
ENDBRANCH  59  82
ENDBRANCH  33  34
ENDBRANCH  25  28
ENDBRANCH  23  24
ENDBRANCH   1  23
TORSDOF 16
ENDMDL
