MODEL 1
REMARK VINA RESULT:     -12.9      0.000      0.000
REMARK SMILES O=C(NCCCNC(=O)[C@@H]1CCCC[C@@H]1C(=O)Nc1cccc(C(F)(F)F)c1)c1ccc(-c2c3nc(c(-c4cc(S(=O)(=O)[O-])ccc4F)c4ccc([nH]4)c(-c4cc(S(=O)(=O)[O-])ccc4F)c4nc(c(-c5cc(S(=O)(=O)[O-])ccc5F)c5ccc2[nH]5)C=C4)C=C3)cc1
REMARK SMILES IDX 5 1 4 2 3 3 1 4 2 5 29 7 30 8 91 9 31 10 90 11 32 12 33 13
REMARK SMILES IDX 34 14 84 15 35 16 89 17 83 18 85 19 36 20 88 21 82 22 81 23
REMARK SMILES IDX 37 25 69 26 49 27 68 28 50 29 53 30 67 31 86 32 51 33 52 34
REMARK SMILES IDX 66 36 87 37 54 38 38 39 39 40 47 41 40 42 46 43 48 44 45 45
REMARK SMILES IDX 41 46 42 47 43 48 44 49 70 50 71 51 79 52 72 53 78 54 80 55
REMARK SMILES IDX 77 56 73 57 74 58 75 59 76 60 55 61 56 62 64 63 57 64 63 65
REMARK SMILES IDX 65 66 62 67 58 68 59 69 60 70 61 71 6 72 7 73 8 74 9 76
REMARK SMILES IDX 10 77 11 78 15 79 12 80 14 81 13 82 16 83 17 84 18 85 19 87
REMARK SMILES IDX 20 88 28 89 21 90 23 91 22 92 24 93 25 94 26 95 27 96
REMARK H PARENT 3 6 85 24 53 35 7 75 18 86
REMARK Flexibility Score: inf
ROOT
ATOM      1  C   UNL A   1      31.334  31.982  26.499  1.00  0.00     0.042 C 
ENDROOT
BRANCH   1   2
ATOM      2  C   UNL A   1      32.632  32.503  27.086  1.00  0.00     0.118 C 
BRANCH   2   3
ATOM      3  N   UNL A   1      32.517  33.873  27.580  1.00  0.00    -0.352 N 
ATOM      4  O   UNL A   1      32.757  35.627  28.966  1.00  0.00    -0.269 OA
ATOM      5  C   UNL A   1      33.180  34.534  28.587  1.00  0.00     0.251 C 
ATOM      6  H   UNL A   1      31.845  34.418  27.111  1.00  0.00     0.163 HD
BRANCH   5   7
ATOM      7  C   UNL A   1      34.371  33.942  29.236  1.00  0.00     0.039 A 
ATOM      8  C   UNL A   1      34.241  32.928  30.182  1.00  0.00     0.014 A 
ATOM      9  C   UNL A   1      35.648  34.378  28.867  1.00  0.00     0.014 A 
ATOM     10  C   UNL A   1      35.345  32.501  30.905  1.00  0.00     0.010 A 
ATOM     11  C   UNL A   1      36.777  33.841  29.496  1.00  0.00     0.010 A 
ATOM     12  C   UNL A   1      36.632  32.922  30.546  1.00  0.00    -0.014 A 
BRANCH  12  13
ATOM     13  C   UNL A   1      37.810  32.337  31.237  1.00  0.00     0.031 A 
ATOM     14  C   UNL A   1      38.580  31.206  30.618  1.00  0.00     0.074 A 
ATOM     15  C   UNL A   1      38.180  32.840  32.431  1.00  0.00     0.049 A 
ATOM     16  N   UNL A   1      39.564  30.504  31.119  1.00  0.00    -0.248 NA
ATOM     17  C   UNL A   1      38.180  30.800  29.264  1.00  0.00     0.031 C 
ATOM     18  C   UNL A   1      37.517  33.953  33.119  1.00  0.00     0.029 A 
ATOM     19  N   UNL A   1      39.198  32.492  33.280  1.00  0.00    -0.354 N 
ATOM     20  C   UNL A   1      39.880  29.551  30.158  1.00  0.00     0.074 A 
ATOM     21  C   UNL A   1      38.959  29.749  29.058  1.00  0.00     0.031 C 
ATOM     22  C   UNL A   1      38.163  34.217  34.261  1.00  0.00     0.029 A 
ATOM     23  C   UNL A   1      39.218  33.229  34.441  1.00  0.00     0.049 A 
ATOM     24  H   UNL A   1      39.852  31.784  33.078  1.00  0.00     0.167 HD
ATOM     25  C   UNL A   1      40.853  28.603  30.196  1.00  0.00     0.034 A 
ATOM     26  C   UNL A   1      39.960  33.094  35.557  1.00  0.00     0.034 A 
ATOM     27  C   UNL A   1      41.754  28.433  31.312  1.00  0.00     0.049 A 
ATOM     28  C   UNL A   1      40.983  31.996  35.610  1.00  0.00     0.074 A 
ATOM     29  C   UNL A   1      42.790  27.525  31.456  1.00  0.00     0.029 A 
ATOM     30  N   UNL A   1      41.719  29.178  32.487  1.00  0.00    -0.354 N 
ATOM     31  N   UNL A   1      41.265  31.093  34.700  1.00  0.00    -0.248 NA
ATOM     32  C   UNL A   1      41.785  31.897  36.833  1.00  0.00     0.031 C 
ATOM     33  C   UNL A   1      43.322  27.666  32.743  1.00  0.00     0.029 A 
ATOM     34  C   UNL A   1      42.688  28.726  33.371  1.00  0.00     0.049 A 
ATOM     35  H   UNL A   1      41.096  29.920  32.665  1.00  0.00     0.167 HD
ATOM     36  C   UNL A   1      42.302  30.333  35.230  1.00  0.00     0.074 A 
ATOM     37  C   UNL A   1      42.592  30.888  36.539  1.00  0.00     0.031 C 
ATOM     38  C   UNL A   1      42.961  29.285  34.677  1.00  0.00     0.034 A 
BRANCH  25  39
ATOM     39  C   UNL A   1      40.935  27.645  29.029  1.00  0.00     0.023 A 
ATOM     40  C   UNL A   1      41.903  27.781  28.019  1.00  0.00     0.031 A 
ATOM     41  C   UNL A   1      39.990  26.611  28.890  1.00  0.00     0.131 A 
ATOM     42  C   UNL A   1      41.843  26.972  26.873  1.00  0.00     0.055 A 
ATOM     43  C   UNL A   1      39.996  25.745  27.795  1.00  0.00     0.041 A 
ATOM     44  F   UNL A   1      39.026  26.438  29.807  1.00  0.00    -0.206 F 
ATOM     45  C   UNL A   1      40.912  25.936  26.766  1.00  0.00     0.022 A 
BRANCH  42  46
ATOM     46  S   UNL A   1      42.861  27.427  25.442  1.00  0.00     0.124 S 
ATOM     47  O   UNL A   1      42.057  28.483  24.832  1.00  0.00    -0.237 OA
ATOM     48  O   UNL A   1      44.108  27.853  26.066  1.00  0.00    -0.237 OA
ATOM     49  O   UNL A   1      42.939  26.190  24.669  1.00  0.00    -0.744 OA
ENDBRANCH  42  46
ENDBRANCH  25  39
BRANCH  26  50
ATOM     50  C   UNL A   1      39.708  33.992  36.718  1.00  0.00     0.023 A 
ATOM     51  C   UNL A   1      39.139  33.508  37.904  1.00  0.00     0.031 A 
ATOM     52  C   UNL A   1      40.066  35.353  36.662  1.00  0.00     0.131 A 
ATOM     53  C   UNL A   1      38.928  34.382  38.982  1.00  0.00     0.055 A 
ATOM     54  C   UNL A   1      39.903  36.205  37.754  1.00  0.00     0.041 A 
ATOM     55  F   UNL A   1      40.622  35.864  35.552  1.00  0.00    -0.206 F 
ATOM     56  C   UNL A   1      39.322  35.722  38.922  1.00  0.00     0.022 A 
BRANCH  53  57
ATOM     57  S   UNL A   1      38.080  33.754  40.457  1.00  0.00     0.124 S 
ATOM     58  O   UNL A   1      36.879  33.164  39.879  1.00  0.00    -0.237 OA
ATOM     59  O   UNL A   1      39.062  32.817  40.994  1.00  0.00    -0.237 OA
ATOM     60  O   UNL A   1      37.863  34.955  41.261  1.00  0.00    -0.744 OA
ENDBRANCH  53  57
ENDBRANCH  26  50
BRANCH  38  61
ATOM     61  C   UNL A   1      44.115  28.708  35.459  1.00  0.00     0.023 A 
ATOM     62  C   UNL A   1      43.945  27.666  36.385  1.00  0.00     0.031 A 
ATOM     63  C   UNL A   1      45.414  29.207  35.251  1.00  0.00     0.131 A 
ATOM     64  C   UNL A   1      45.054  27.180  37.097  1.00  0.00     0.055 A 
ATOM     65  C   UNL A   1      46.519  28.681  35.917  1.00  0.00     0.041 A 
ATOM     66  F   UNL A   1      45.630  30.208  34.381  1.00  0.00    -0.206 F 
ATOM     67  C   UNL A   1      46.342  27.666  36.852  1.00  0.00     0.022 A 
BRANCH  64  68
ATOM     68  S   UNL A   1      44.785  25.946  38.399  1.00  0.00     0.124 S 
ATOM     69  O   UNL A   1      43.798  26.610  39.244  1.00  0.00    -0.237 OA
ATOM     70  O   UNL A   1      44.308  24.793  37.645  1.00  0.00    -0.237 OA
ATOM     71  O   UNL A   1      46.109  25.789  39.000  1.00  0.00    -0.744 OA
ENDBRANCH  64  68
ENDBRANCH  38  61
ENDBRANCH  12  13
ENDBRANCH   5   7
ENDBRANCH   2   3
ENDBRANCH   1   2
BRANCH   1  72
ATOM     72  C   UNL A   1      31.473  30.609  25.870  1.00  0.00     0.117 C 
BRANCH  72  73
ATOM     73  N   UNL A   1      32.751  29.968  26.119  1.00  0.00    -0.356 N 
ATOM     74  C   UNL A   1      33.174  28.683  26.031  1.00  0.00     0.223 C 
ATOM     75  H   UNL A   1      33.454  30.593  26.412  1.00  0.00     0.163 HD
ATOM     76  O   UNL A   1      34.406  28.546  26.010  1.00  0.00    -0.275 OA
BRANCH  74  77
ATOM     77  C   UNL A   1      32.287  27.424  26.112  1.00  0.00     0.091 C 
ATOM     78  C   UNL A   1      33.179  26.163  26.198  1.00  0.00     0.014 C 
ATOM     79  C   UNL A   1      31.108  27.229  25.144  1.00  0.00     0.091 C 
ATOM     80  C   UNL A   1      32.397  24.864  26.396  1.00  0.00     0.001 C 
ATOM     81  C   UNL A   1      30.327  25.959  25.514  1.00  0.00     0.014 C 
ATOM     82  C   UNL A   1      31.211  24.723  25.455  1.00  0.00     0.001 C 
BRANCH  79  83
ATOM     83  C   UNL A   1      31.543  27.195  23.670  1.00  0.00     0.228 C 
ATOM     84  O   UNL A   1      32.561  26.593  23.316  1.00  0.00    -0.274 OA
ATOM     85  N   UNL A   1      30.810  27.783  22.681  1.00  0.00    -0.326 N 
ATOM     86  H   UNL A   1      31.174  27.639  21.778  1.00  0.00     0.169 HD
BRANCH  85  87
ATOM     87  C   UNL A   1      29.639  28.553  22.702  1.00  0.00     0.041 A 
ATOM     88  C   UNL A   1      28.460  27.882  23.038  1.00  0.00     0.026 A 
ATOM     89  C   UNL A   1      29.589  29.922  22.446  1.00  0.00     0.039 A 
ATOM     90  C   UNL A   1      27.277  28.591  23.239  1.00  0.00     0.003 A 
ATOM     91  C   UNL A   1      28.407  30.653  22.656  1.00  0.00     0.058 A 
ATOM     92  C   UNL A   1      27.255  29.975  23.072  1.00  0.00     0.013 A 
BRANCH  91  93
ATOM     93  C   UNL A   1      28.388  32.156  22.489  1.00  0.00     0.416 C 
ATOM     94  F   UNL A   1      29.584  32.662  22.109  1.00  0.00    -0.166 F 
ATOM     95  F   UNL A   1      27.487  32.539  21.540  1.00  0.00    -0.166 F 
ATOM     96  F   UNL A   1      28.023  32.814  23.625  1.00  0.00    -0.166 F 
ENDBRANCH  91  93
ENDBRANCH  85  87
ENDBRANCH  79  83
ENDBRANCH  74  77
ENDBRANCH  72  73
ENDBRANCH   1  72
TORSDOF 16
ENDMDL
MODEL 2
REMARK VINA RESULT:     -12.6      6.033      8.880
REMARK SMILES O=C(NCCCNC(=O)[C@@H]1CCCC[C@@H]1C(=O)Nc1cccc(C(F)(F)F)c1)c1ccc(-c2c3nc(c(-c4cc(S(=O)(=O)[O-])ccc4F)c4ccc([nH]4)c(-c4cc(S(=O)(=O)[O-])ccc4F)c4nc(c(-c5cc(S(=O)(=O)[O-])ccc5F)c5ccc2[nH]5)C=C4)C=C3)cc1
REMARK SMILES IDX 5 1 4 2 3 3 1 4 2 5 29 7 30 8 91 9 31 10 90 11 32 12 33 13
REMARK SMILES IDX 34 14 84 15 35 16 89 17 83 18 85 19 36 20 88 21 82 22 81 23
REMARK SMILES IDX 37 25 69 26 49 27 68 28 50 29 53 30 67 31 86 32 51 33 52 34
REMARK SMILES IDX 66 36 87 37 54 38 38 39 39 40 47 41 40 42 46 43 48 44 45 45
REMARK SMILES IDX 41 46 42 47 43 48 44 49 70 50 71 51 79 52 72 53 78 54 80 55
REMARK SMILES IDX 77 56 73 57 74 58 75 59 76 60 55 61 56 62 64 63 57 64 63 65
REMARK SMILES IDX 65 66 62 67 58 68 59 69 60 70 61 71 6 72 7 73 8 74 9 76
REMARK SMILES IDX 10 77 11 78 15 79 12 80 14 81 13 82 16 83 17 84 18 85 19 87
REMARK SMILES IDX 20 88 28 89 21 90 23 91 22 92 24 93 25 94 26 95 27 96
REMARK H PARENT 3 6 85 24 53 35 7 75 18 86
REMARK Flexibility Score: inf
ROOT
ATOM      1  C   UNL A   1      35.977  23.373  24.509  1.00  0.00     0.042 C 
ENDROOT
BRANCH   1   2
ATOM      2  C   UNL A   1      36.447  23.303  25.949  1.00  0.00     0.118 C 
BRANCH   2   3
ATOM      3  N   UNL A   1      37.596  22.419  26.125  1.00  0.00    -0.352 N 
ATOM      4  O   UNL A   1      39.747  21.791  26.311  1.00  0.00    -0.269 OA
ATOM      5  C   UNL A   1      38.910  22.687  26.430  1.00  0.00     0.251 C 
ATOM      6  H   UNL A   1      37.395  21.463  26.002  1.00  0.00     0.163 HD
BRANCH   5   7
ATOM      7  C   UNL A   1      39.334  24.035  26.870  1.00  0.00     0.039 A 
ATOM      8  C   UNL A   1      39.818  24.967  25.955  1.00  0.00     0.014 A 
ATOM      9  C   UNL A   1      39.210  24.393  28.217  1.00  0.00     0.014 A 
ATOM     10  C   UNL A   1      40.369  26.159  26.399  1.00  0.00     0.010 A 
ATOM     11  C   UNL A   1      39.634  25.656  28.644  1.00  0.00     0.010 A 
ATOM     12  C   UNL A   1      40.250  26.538  27.742  1.00  0.00    -0.014 A 
BRANCH  12  13
ATOM     13  C   UNL A   1      40.716  27.884  28.165  1.00  0.00     0.031 A 
ATOM     14  C   UNL A   1      42.178  28.225  28.167  1.00  0.00     0.074 A 
ATOM     15  C   UNL A   1      39.802  28.799  28.545  1.00  0.00     0.049 A 
ATOM     16  N   UNL A   1      42.775  29.306  28.601  1.00  0.00    -0.248 NA
ATOM     17  C   UNL A   1      43.092  27.210  27.626  1.00  0.00     0.031 C 
ATOM     18  C   UNL A   1      38.352  28.584  28.563  1.00  0.00     0.029 A 
ATOM     19  N   UNL A   1      39.947  30.088  28.986  1.00  0.00    -0.354 N 
ATOM     20  C   UNL A   1      44.136  29.090  28.417  1.00  0.00     0.074 A 
ATOM     21  C   UNL A   1      44.274  27.760  27.862  1.00  0.00     0.031 C 
ATOM     22  C   UNL A   1      37.742  29.708  28.958  1.00  0.00     0.029 A 
ATOM     23  C   UNL A   1      38.756  30.688  29.323  1.00  0.00     0.049 A 
ATOM     24  H   UNL A   1      40.819  30.542  29.055  1.00  0.00     0.167 HD
ATOM     25  C   UNL A   1      45.168  29.930  28.688  1.00  0.00     0.034 A 
ATOM     26  C   UNL A   1      38.502  31.871  29.914  1.00  0.00     0.034 A 
ATOM     27  C   UNL A   1      44.993  31.252  29.245  1.00  0.00     0.049 A 
ATOM     28  C   UNL A   1      39.660  32.758  30.271  1.00  0.00     0.074 A 
ATOM     29  C   UNL A   1      45.958  32.200  29.541  1.00  0.00     0.029 A 
ATOM     30  N   UNL A   1      43.770  31.811  29.605  1.00  0.00    -0.354 N 
ATOM     31  N   UNL A   1      40.944  32.539  30.105  1.00  0.00    -0.248 NA
ATOM     32  C   UNL A   1      39.341  34.046  30.893  1.00  0.00     0.031 C 
ATOM     33  C   UNL A   1      45.330  33.290  30.154  1.00  0.00     0.029 A 
ATOM     34  C   UNL A   1      43.961  33.070  30.153  1.00  0.00     0.049 A 
ATOM     35  H   UNL A   1      42.896  31.374  29.488  1.00  0.00     0.167 HD
ATOM     36  C   UNL A   1      41.586  33.678  30.575  1.00  0.00     0.074 A 
ATOM     37  C   UNL A   1      40.546  34.580  31.031  1.00  0.00     0.031 C 
ATOM     38  C   UNL A   1      42.914  33.956  30.611  1.00  0.00     0.034 A 
BRANCH  25  39
ATOM     39  C   UNL A   1      46.568  29.410  28.449  1.00  0.00     0.023 A 
ATOM     40  C   UNL A   1      47.051  29.134  27.157  1.00  0.00     0.031 A 
ATOM     41  C   UNL A   1      47.417  29.128  29.536  1.00  0.00     0.131 A 
ATOM     42  C   UNL A   1      48.293  28.501  26.992  1.00  0.00     0.055 A 
ATOM     43  C   UNL A   1      48.693  28.589  29.358  1.00  0.00     0.041 A 
ATOM     44  F   UNL A   1      47.011  29.348  30.796  1.00  0.00    -0.206 F 
ATOM     45  C   UNL A   1      49.130  28.251  28.081  1.00  0.00     0.022 A 
BRANCH  42  46
ATOM     46  S   UNL A   1      48.705  27.826  25.359  1.00  0.00     0.124 S 
ATOM     47  O   UNL A   1      48.761  26.393  25.639  1.00  0.00    -0.237 OA
ATOM     48  O   UNL A   1      47.583  28.274  24.541  1.00  0.00    -0.237 OA
ATOM     49  O   UNL A   1      49.993  28.442  25.047  1.00  0.00    -0.744 OA
ENDBRANCH  42  46
ENDBRANCH  25  39
BRANCH  26  50
ATOM     50  C   UNL A   1      37.098  32.237  30.248  1.00  0.00     0.023 A 
ATOM     51  C   UNL A   1      36.226  32.748  29.277  1.00  0.00     0.031 A 
ATOM     52  C   UNL A   1      36.599  32.048  31.552  1.00  0.00     0.131 A 
ATOM     53  C   UNL A   1      34.906  33.071  29.626  1.00  0.00     0.055 A 
ATOM     54  C   UNL A   1      35.271  32.320  31.881  1.00  0.00     0.041 A 
ATOM     55  F   UNL A   1      37.390  31.552  32.516  1.00  0.00    -0.206 F 
ATOM     56  C   UNL A   1      34.417  32.843  30.916  1.00  0.00     0.022 A 
BRANCH  53  57
ATOM     57  S   UNL A   1      33.841  33.843  28.378  1.00  0.00     0.124 S 
ATOM     58  O   UNL A   1      32.896  34.579  29.210  1.00  0.00    -0.237 OA
ATOM     59  O   UNL A   1      34.795  34.647  27.622  1.00  0.00    -0.237 OA
ATOM     60  O   UNL A   1      33.281  32.702  27.656  1.00  0.00    -0.744 OA
ENDBRANCH  53  57
ENDBRANCH  26  50
BRANCH  38  61
ATOM     61  C   UNL A   1      43.316  35.325  31.100  1.00  0.00     0.023 A 
ATOM     62  C   UNL A   1      43.465  36.417  30.229  1.00  0.00     0.031 A 
ATOM     63  C   UNL A   1      43.533  35.536  32.474  1.00  0.00     0.131 A 
ATOM     64  C   UNL A   1      43.857  37.665  30.739  1.00  0.00     0.055 A 
ATOM     65  C   UNL A   1      43.865  36.791  32.982  1.00  0.00     0.041 A 
ATOM     66  F   UNL A   1      43.411  34.523  33.348  1.00  0.00    -0.206 F 
ATOM     67  C   UNL A   1      44.037  37.863  32.112  1.00  0.00     0.022 A 
BRANCH  64  68
ATOM     68  S   UNL A   1      44.196  39.017  29.579  1.00  0.00     0.124 S 
ATOM     69  O   UNL A   1      44.019  38.360  28.288  1.00  0.00    -0.237 OA
ATOM     70  O   UNL A   1      43.182  40.001  29.939  1.00  0.00    -0.237 OA
ATOM     71  O   UNL A   1      45.572  39.402  29.894  1.00  0.00    -0.744 OA
ENDBRANCH  64  68
ENDBRANCH  38  61
ENDBRANCH  12  13
ENDBRANCH   5   7
ENDBRANCH   2   3
ENDBRANCH   1   2
BRANCH   1  72
ATOM     72  C   UNL A   1      34.623  24.038  24.355  1.00  0.00     0.117 C 
BRANCH  72  73
ATOM     73  N   UNL A   1      34.467  25.255  25.131  1.00  0.00    -0.356 N 
ATOM     74  C   UNL A   1      33.402  26.049  25.402  1.00  0.00     0.223 C 
ATOM     75  H   UNL A   1      35.305  25.566  25.545  1.00  0.00     0.163 HD
ATOM     76  O   UNL A   1      33.567  26.823  26.356  1.00  0.00    -0.275 OA
BRANCH  74  77
ATOM     77  C   UNL A   1      32.119  26.172  24.556  1.00  0.00     0.091 C 
ATOM     78  C   UNL A   1      31.497  27.575  24.753  1.00  0.00     0.014 C 
ATOM     79  C   UNL A   1      31.053  25.064  24.577  1.00  0.00     0.091 C 
ATOM     80  C   UNL A   1      30.278  27.843  23.870  1.00  0.00     0.001 C 
ATOM     81  C   UNL A   1      29.942  25.383  23.565  1.00  0.00     0.014 C 
ATOM     82  C   UNL A   1      29.267  26.708  23.877  1.00  0.00     0.001 C 
BRANCH  79  83
ATOM     83  C   UNL A   1      30.467  24.824  25.978  1.00  0.00     0.228 C 
ATOM     84  O   UNL A   1      29.551  25.525  26.418  1.00  0.00    -0.274 OA
ATOM     85  N   UNL A   1      30.893  23.806  26.780  1.00  0.00    -0.326 N 
ATOM     86  H   UNL A   1      30.396  23.733  27.627  1.00  0.00     0.169 HD
BRANCH  85  87
ATOM     87  C   UNL A   1      31.900  22.843  26.632  1.00  0.00     0.041 A 
ATOM     88  C   UNL A   1      32.910  22.846  27.599  1.00  0.00     0.026 A 
ATOM     89  C   UNL A   1      31.935  21.884  25.621  1.00  0.00     0.039 A 
ATOM     90  C   UNL A   1      33.864  21.831  27.627  1.00  0.00     0.003 A 
ATOM     91  C   UNL A   1      32.883  20.847  25.641  1.00  0.00     0.058 A 
ATOM     92  C   UNL A   1      33.838  20.822  26.666  1.00  0.00     0.013 A 
BRANCH  91  93
ATOM     93  C   UNL A   1      32.845  19.744  24.608  1.00  0.00     0.416 C 
ATOM     94  F   UNL A   1      32.153  18.657  25.020  1.00  0.00    -0.166 F 
ATOM     95  F   UNL A   1      32.253  20.165  23.454  1.00  0.00    -0.166 F 
ATOM     96  F   UNL A   1      34.085  19.310  24.244  1.00  0.00    -0.166 F 
ENDBRANCH  91  93
ENDBRANCH  85  87
ENDBRANCH  79  83
ENDBRANCH  74  77
ENDBRANCH  72  73
ENDBRANCH   1  72
TORSDOF 16
ENDMDL
MODEL 3
REMARK VINA RESULT:     -12.5      6.567     12.295
REMARK SMILES O=C(NCCCNC(=O)[C@@H]1CCCC[C@@H]1C(=O)Nc1cccc(C(F)(F)F)c1)c1ccc(-c2c3nc(c(-c4cc(S(=O)(=O)[O-])ccc4F)c4ccc([nH]4)c(-c4cc(S(=O)(=O)[O-])ccc4F)c4nc(c(-c5cc(S(=O)(=O)[O-])ccc5F)c5ccc2[nH]5)C=C4)C=C3)cc1
REMARK SMILES IDX 5 1 4 2 3 3 1 4 2 5 29 7 30 8 91 9 31 10 90 11 32 12 33 13
REMARK SMILES IDX 34 14 84 15 35 16 89 17 83 18 85 19 36 20 88 21 82 22 81 23
REMARK SMILES IDX 37 25 69 26 49 27 68 28 50 29 53 30 67 31 86 32 51 33 52 34
REMARK SMILES IDX 66 36 87 37 54 38 38 39 39 40 47 41 40 42 46 43 48 44 45 45
REMARK SMILES IDX 41 46 42 47 43 48 44 49 70 50 71 51 79 52 72 53 78 54 80 55
REMARK SMILES IDX 77 56 73 57 74 58 75 59 76 60 55 61 56 62 64 63 57 64 63 65
REMARK SMILES IDX 65 66 62 67 58 68 59 69 60 70 61 71 6 72 7 73 8 74 9 76
REMARK SMILES IDX 10 77 11 78 15 79 12 80 14 81 13 82 16 83 17 84 18 85 19 87
REMARK SMILES IDX 20 88 28 89 21 90 23 91 22 92 24 93 25 94 26 95 27 96
REMARK H PARENT 3 6 85 24 53 35 7 75 18 86
REMARK Flexibility Score: inf
ROOT
ATOM      1  C   UNL A   1      38.046  19.776  25.016  1.00  0.00     0.042 C 
ENDROOT
BRANCH   1   2
ATOM      2  C   UNL A   1      39.168  20.275  25.905  1.00  0.00     0.118 C 
BRANCH   2   3
ATOM      3  N   UNL A   1      40.278  19.331  25.995  1.00  0.00    -0.352 N 
ATOM      4  O   UNL A   1      42.396  18.577  25.960  1.00  0.00    -0.269 OA
ATOM      5  C   UNL A   1      41.633  19.530  26.123  1.00  0.00     0.251 C 
ATOM      6  H   UNL A   1      40.010  18.384  25.957  1.00  0.00     0.163 HD
BRANCH   5   7
ATOM      7  C   UNL A   1      42.184  20.870  26.424  1.00  0.00     0.039 A 
ATOM      8  C   UNL A   1      42.505  21.234  27.730  1.00  0.00     0.014 A 
ATOM      9  C   UNL A   1      42.425  21.769  25.381  1.00  0.00     0.014 A 
ATOM     10  C   UNL A   1      42.858  22.543  28.023  1.00  0.00     0.010 A 
ATOM     11  C   UNL A   1      42.921  23.047  25.662  1.00  0.00     0.010 A 
ATOM     12  C   UNL A   1      43.109  23.456  26.991  1.00  0.00    -0.014 A 
BRANCH  12  13
ATOM     13  C   UNL A   1      43.630  24.808  27.324  1.00  0.00     0.031 A 
ATOM     14  C   UNL A   1      42.717  25.869  27.868  1.00  0.00     0.074 A 
ATOM     15  C   UNL A   1      44.938  25.066  27.132  1.00  0.00     0.049 A 
ATOM     16  N   UNL A   1      42.970  27.129  28.115  1.00  0.00    -0.248 NA
ATOM     17  C   UNL A   1      41.335  25.465  28.156  1.00  0.00     0.031 C 
ATOM     18  C   UNL A   1      45.922  24.103  26.627  1.00  0.00     0.029 A 
ATOM     19  N   UNL A   1      45.671  26.206  27.337  1.00  0.00    -0.354 N 
ATOM     20  C   UNL A   1      41.771  27.679  28.556  1.00  0.00     0.074 A 
ATOM     21  C   UNL A   1      40.787  26.618  28.511  1.00  0.00     0.031 C 
ATOM     22  C   UNL A   1      47.130  24.680  26.594  1.00  0.00     0.029 A 
ATOM     23  C   UNL A   1      46.991  26.079  26.972  1.00  0.00     0.049 A 
ATOM     24  H   UNL A   1      45.290  27.035  27.709  1.00  0.00     0.167 HD
ATOM     25  C   UNL A   1      41.524  28.952  28.961  1.00  0.00     0.034 A 
ATOM     26  C   UNL A   1      47.975  26.996  26.893  1.00  0.00     0.034 A 
ATOM     27  C   UNL A   1      42.533  29.986  28.992  1.00  0.00     0.049 A 
ATOM     28  C   UNL A   1      47.667  28.414  27.278  1.00  0.00     0.074 A 
ATOM     29  C   UNL A   1      42.407  31.303  29.402  1.00  0.00     0.029 A 
ATOM     30  N   UNL A   1      43.853  29.827  28.581  1.00  0.00    -0.354 N 
ATOM     31  N   UNL A   1      46.527  28.926  27.682  1.00  0.00    -0.248 NA
ATOM     32  C   UNL A   1      48.769  29.377  27.199  1.00  0.00     0.031 C 
ATOM     33  C   UNL A   1      43.622  31.955  29.162  1.00  0.00     0.029 A 
ATOM     34  C   UNL A   1      44.538  31.027  28.694  1.00  0.00     0.049 A 
ATOM     35  H   UNL A   1      44.243  28.983  28.257  1.00  0.00     0.167 HD
ATOM     36  C   UNL A   1      46.783  30.268  27.935  1.00  0.00     0.074 A 
ATOM     37  C   UNL A   1      48.186  30.484  27.637  1.00  0.00     0.031 C 
ATOM     38  C   UNL A   1      45.937  31.228  28.386  1.00  0.00     0.034 A 
BRANCH  25  39
ATOM     39  C   UNL A   1      40.100  29.299  29.332  1.00  0.00     0.023 A 
ATOM     40  C   UNL A   1      39.680  29.393  30.671  1.00  0.00     0.031 A 
ATOM     41  C   UNL A   1      39.128  29.479  28.330  1.00  0.00     0.131 A 
ATOM     42  C   UNL A   1      38.318  29.555  30.970  1.00  0.00     0.055 A 
ATOM     43  C   UNL A   1      37.791  29.739  28.634  1.00  0.00     0.041 A 
ATOM     44  F   UNL A   1      39.458  29.381  27.032  1.00  0.00    -0.206 F 
ATOM     45  C   UNL A   1      37.373  29.756  29.961  1.00  0.00     0.022 A 
BRANCH  42  46
ATOM     46  S   UNL A   1      37.774  29.294  32.681  1.00  0.00     0.124 S 
ATOM     47  O   UNL A   1      36.466  29.946  32.676  1.00  0.00    -0.237 OA
ATOM     48  O   UNL A   1      37.763  27.840  32.788  1.00  0.00    -0.237 OA
ATOM     49  O   UNL A   1      38.796  29.973  33.474  1.00  0.00    -0.744 OA
ENDBRANCH  42  46
ENDBRANCH  25  39
BRANCH  26  50
ATOM     50  C   UNL A   1      49.311  26.594  26.374  1.00  0.00     0.023 A 
ATOM     51  C   UNL A   1      49.774  27.038  25.127  1.00  0.00     0.031 A 
ATOM     52  C   UNL A   1      50.163  25.777  27.144  1.00  0.00     0.131 A 
ATOM     53  C   UNL A   1      51.045  26.648  24.677  1.00  0.00     0.055 A 
ATOM     54  C   UNL A   1      51.446  25.437  26.715  1.00  0.00     0.041 A 
ATOM     55  F   UNL A   1      49.771  25.334  28.349  1.00  0.00    -0.206 F 
ATOM     56  C   UNL A   1      51.890  25.866  25.470  1.00  0.00     0.022 A 
BRANCH  53  57
ATOM     57  S   UNL A   1      51.564  27.138  23.011  1.00  0.00     0.124 S 
ATOM     58  O   UNL A   1      50.355  26.881  22.236  1.00  0.00    -0.237 OA
ATOM     59  O   UNL A   1      51.918  28.540  23.204  1.00  0.00    -0.237 OA
ATOM     60  O   UNL A   1      52.688  26.246  22.730  1.00  0.00    -0.744 OA
ENDBRANCH  53  57
ENDBRANCH  26  50
BRANCH  38  61
ATOM     61  C   UNL A   1      46.525  32.592  28.653  1.00  0.00     0.023 A 
ATOM     62  C   UNL A   1      46.545  33.603  27.679  1.00  0.00     0.031 A 
ATOM     63  C   UNL A   1      47.058  32.882  29.923  1.00  0.00     0.131 A 
ATOM     64  C   UNL A   1      47.120  34.848  27.980  1.00  0.00     0.055 A 
ATOM     65  C   UNL A   1      47.575  34.138  30.234  1.00  0.00     0.041 A 
ATOM     66  F   UNL A   1      47.070  31.947  30.888  1.00  0.00    -0.206 F 
ATOM     67  C   UNL A   1      47.616  35.128  29.257  1.00  0.00     0.022 A 
BRANCH  64  68
ATOM     68  S   UNL A   1      47.277  36.081  26.659  1.00  0.00     0.124 S 
ATOM     69  O   UNL A   1      45.896  36.523  26.493  1.00  0.00    -0.237 OA
ATOM     70  O   UNL A   1      48.192  37.054  27.246  1.00  0.00    -0.237 OA
ATOM     71  O   UNL A   1      47.821  35.316  25.538  1.00  0.00    -0.744 OA
ENDBRANCH  64  68
ENDBRANCH  38  61
ENDBRANCH  12  13
ENDBRANCH   5   7
ENDBRANCH   2   3
ENDBRANCH   1   2
BRANCH   1  72
ATOM     72  C   UNL A   1      37.202  20.894  24.436  1.00  0.00     0.117 C 
BRANCH  72  73
ATOM     73  N   UNL A   1      36.758  21.872  25.412  1.00  0.00    -0.356 N 
ATOM     74  C   UNL A   1      35.712  22.734  25.448  1.00  0.00     0.223 C 
ATOM     75  H   UNL A   1      37.332  21.917  26.212  1.00  0.00     0.163 HD
ATOM     76  O   UNL A   1      35.460  23.190  26.573  1.00  0.00    -0.275 OA
BRANCH  74  77
ATOM     77  C   UNL A   1      34.948  23.291  24.231  1.00  0.00     0.091 C 
ATOM     78  C   UNL A   1      34.539  24.759  24.499  1.00  0.00     0.014 C 
ATOM     79  C   UNL A   1      33.810  22.487  23.581  1.00  0.00     0.091 C 
ATOM     80  C   UNL A   1      33.872  25.444  23.306  1.00  0.00     0.001 C 
ATOM     81  C   UNL A   1      33.301  23.214  22.327  1.00  0.00     0.014 C 
ATOM     82  C   UNL A   1      32.783  24.604  22.658  1.00  0.00     0.001 C 
BRANCH  79  83
ATOM     83  C   UNL A   1      32.654  22.195  24.552  1.00  0.00     0.228 C 
ATOM     84  O   UNL A   1      32.114  23.100  25.196  1.00  0.00    -0.274 OA
ATOM     85  N   UNL A   1      32.141  20.942  24.716  1.00  0.00    -0.326 N 
ATOM     86  H   UNL A   1      31.369  20.905  25.327  1.00  0.00     0.169 HD
BRANCH  85  87
ATOM     87  C   UNL A   1      32.499  19.695  24.185  1.00  0.00     0.041 A 
ATOM     88  C   UNL A   1      32.036  19.412  22.897  1.00  0.00     0.026 A 
ATOM     89  C   UNL A   1      33.300  18.759  24.837  1.00  0.00     0.039 A 
ATOM     90  C   UNL A   1      32.470  18.271  22.225  1.00  0.00     0.003 A 
ATOM     91  C   UNL A   1      33.756  17.609  24.169  1.00  0.00     0.058 A 
ATOM     92  C   UNL A   1      33.345  17.384  22.850  1.00  0.00     0.013 A 
BRANCH  91  93
ATOM     93  C   UNL A   1      34.717  16.656  24.841  1.00  0.00     0.416 C 
ATOM     94  F   UNL A   1      35.921  17.214  25.103  1.00  0.00    -0.166 F 
ATOM     95  F   UNL A   1      34.227  16.217  26.036  1.00  0.00    -0.166 F 
ATOM     96  F   UNL A   1      34.953  15.531  24.109  1.00  0.00    -0.166 F 
ENDBRANCH  91  93
ENDBRANCH  85  87
ENDBRANCH  79  83
ENDBRANCH  74  77
ENDBRANCH  72  73
ENDBRANCH   1  72
TORSDOF 16
ENDMDL
