MODEL 1
REMARK VINA RESULT:     -12.6      0.000      0.000
REMARK SMILES C[C@@](NC(=O)CCOC1CC[NH2+]CC1)(C(=O)NCCCNC(=O)c1ccc(-c2c3nc(c(-c4cc(S(=O)(=O)[O-])ccc4F)c4ccc([nH]4)c(-c4cc(S(=O)(=O)[O-])ccc4F)c4nc(c(-c5cc(S(=O)(=O)[O-])ccc5F)c5ccc2[nH]5)C=C4)C=C3)cc1)C(F)(F)F
REMARK SMILES IDX 18 1 17 2 15 3 16 4 2 6 1 7 3 8 4 9 5 11 6 12 7 13 8 14 9 15
REMARK SMILES IDX 10 16 14 17 11 18 13 19 12 20 87 23 88 24 89 25 90 26 19 27
REMARK SMILES IDX 20 28 21 29 22 30 23 32 24 33 25 34 86 35 26 36 85 37 27 38
REMARK SMILES IDX 28 39 29 40 79 41 30 42 84 43 78 44 80 45 31 46 83 47 77 48
REMARK SMILES IDX 76 49 32 51 64 52 44 53 63 54 45 55 48 56 62 57 81 58 46 59
REMARK SMILES IDX 47 60 61 62 82 63 49 64 33 65 34 66 42 67 35 68 41 69 43 70
REMARK SMILES IDX 40 71 36 72 37 73 38 74 39 75 65 76 66 77 74 78 67 79 73 80
REMARK SMILES IDX 75 81 72 82 68 83 69 84 70 85 71 86 50 87 51 88 59 89 52 90
REMARK SMILES IDX 58 91 60 92 57 93 53 94 54 95 55 96 56 97
REMARK H PARENT 17 5 3 10 12 21 12 22 21 31 80 50 48 61
REMARK Flexibility Score: inf
ROOT
ATOM      1  C   UNL A   1      31.857  28.195  27.637  1.00  0.00     0.117 C 
ENDROOT
BRANCH   1   2
ATOM      2  N   UNL A   1      31.811  26.774  27.160  1.00  0.00    -0.354 N 
ATOM      3  C   UNL A   1      31.792  25.926  25.999  1.00  0.00     0.254 C 
ATOM      4  O   UNL A   1      31.422  24.932  26.722  1.00  0.00    -0.272 OA
ATOM      5  H   UNL A   1      31.782  26.193  27.954  1.00  0.00     0.163 HD
BRANCH   3   6
ATOM      6  C   UNL A   1      32.182  26.092  23.895  1.00  0.00     0.212 C 
ATOM      7  C   UNL A   1      33.603  26.879  23.198  1.00  0.00     0.056 C 
BRANCH   6   8
ATOM      8  N   UNL A   1      32.329  24.688  22.770  1.00  0.00    -0.334 N 
ATOM      9  C   UNL A   1      32.983  23.474  22.655  1.00  0.00     0.223 C 
ATOM     10  H   UNL A   1      31.758  24.832  21.981  1.00  0.00     0.164 HD
ATOM     11  O   UNL A   1      33.641  23.315  21.618  1.00  0.00    -0.275 OA
BRANCH   9  12
ATOM     12  C   UNL A   1      32.762  22.248  23.573  1.00  0.00     0.128 C 
BRANCH  12  13
ATOM     13  C   UNL A   1      32.379  22.317  25.055  1.00  0.00     0.170 C 
BRANCH  13  14
ATOM     14  O   UNL A   1      33.091  21.468  25.946  1.00  0.00    -0.377 OA
BRANCH  14  15
ATOM     15  C   UNL A   1      34.472  21.821  25.998  1.00  0.00     0.129 C 
ATOM     16  C   UNL A   1      35.147  23.674  26.025  1.00  0.00     0.093 C 
ATOM     17  C   UNL A   1      35.573  20.482  25.059  1.00  0.00     0.093 C 
ATOM     18  C   UNL A   1      37.017  23.915  25.624  1.00  0.00     0.263 C 
ATOM     19  C   UNL A   1      37.389  20.864  24.732  1.00  0.00     0.263 C 
ATOM     20  N   UNL A   1      38.094  22.509  25.154  1.00  0.00    -0.346 N 
ATOM     21  H   UNL A   1      38.730  22.358  25.937  1.00  0.00     0.346 HD
ATOM     22  H   UNL A   1      38.482  22.817  24.263  1.00  0.00     0.346 HD
ENDBRANCH  14  15
ENDBRANCH  13  14
ENDBRANCH  12  13
ENDBRANCH   9  12
ENDBRANCH   6   8
BRANCH   6  23
ATOM     23  C   UNL A   1      31.201  27.010  22.672  1.00  0.00     0.420 C 
ATOM     24  F   UNL A   1      31.345  26.600  21.388  1.00  0.00    -0.168 F 
ATOM     25  F   UNL A   1      29.868  26.722  22.954  1.00  0.00    -0.168 F 
ATOM     26  F   UNL A   1      31.177  28.359  22.719  1.00  0.00    -0.168 F 
ENDBRANCH   6  23
ENDBRANCH   3   6
ENDBRANCH   1   2
BRANCH   1  27
ATOM     27  C   UNL A   1      31.416  29.203  26.598  1.00  0.00     0.042 C 
BRANCH  27  28
ATOM     28  C   UNL A   1      32.594  30.035  26.135  1.00  0.00     0.118 C 
BRANCH  28  29
ATOM     29  N   UNL A   1      32.457  31.457  26.491  1.00  0.00    -0.352 N 
ATOM     30  C   UNL A   1      33.200  32.275  27.311  1.00  0.00     0.251 C 
ATOM     31  H   UNL A   1      31.692  31.905  26.062  1.00  0.00     0.163 HD
ATOM     32  O   UNL A   1      32.749  33.365  27.653  1.00  0.00    -0.269 OA
BRANCH  30  33
ATOM     33  C   UNL A   1      34.516  31.822  27.790  1.00  0.00     0.039 A 
ATOM     34  C   UNL A   1      35.559  32.728  27.990  1.00  0.00     0.014 A 
ATOM     35  C   UNL A   1      34.695  30.479  28.091  1.00  0.00     0.014 A 
ATOM     36  C   UNL A   1      36.738  32.282  28.590  1.00  0.00     0.010 A 
ATOM     37  C   UNL A   1      35.760  30.094  28.879  1.00  0.00     0.010 A 
ATOM     38  C   UNL A   1      36.822  30.974  29.098  1.00  0.00    -0.014 A 
BRANCH  38  39
ATOM     39  C   UNL A   1      38.021  30.473  29.815  1.00  0.00     0.031 A 
ATOM     40  C   UNL A   1      38.256  30.877  31.252  1.00  0.00     0.074 A 
ATOM     41  C   UNL A   1      38.932  29.734  29.150  1.00  0.00     0.049 A 
ATOM     42  N   UNL A   1      39.277  30.623  32.029  1.00  0.00    -0.248 NA
ATOM     43  C   UNL A   1      37.243  31.746  31.878  1.00  0.00     0.031 C 
ATOM     44  C   UNL A   1      38.864  29.376  27.729  1.00  0.00     0.029 A 
ATOM     45  N   UNL A   1      40.089  29.141  29.581  1.00  0.00    -0.354 N 
ATOM     46  C   UNL A   1      39.040  31.331  33.204  1.00  0.00     0.074 A 
ATOM     47  C   UNL A   1      37.850  32.118  32.992  1.00  0.00     0.031 C 
ATOM     48  C   UNL A   1      39.889  28.563  27.428  1.00  0.00     0.029 A 
ATOM     49  C   UNL A   1      40.711  28.381  28.618  1.00  0.00     0.049 A 
ATOM     50  H   UNL A   1      40.441  29.248  30.493  1.00  0.00     0.167 HD
ATOM     51  C   UNL A   1      39.720  31.285  34.377  1.00  0.00     0.034 A 
ATOM     52  C   UNL A   1      41.811  27.609  28.698  1.00  0.00     0.034 A 
ATOM     53  C   UNL A   1      40.867  30.440  34.580  1.00  0.00     0.049 A 
ATOM     54  C   UNL A   1      42.509  27.511  30.030  1.00  0.00     0.074 A 
ATOM     55  C   UNL A   1      41.604  30.241  35.733  1.00  0.00     0.029 A 
ATOM     56  N   UNL A   1      41.436  29.635  33.599  1.00  0.00    -0.354 N 
ATOM     57  N   UNL A   1      42.233  28.129  31.157  1.00  0.00    -0.248 NA
ATOM     58  C   UNL A   1      43.650  26.593  30.107  1.00  0.00     0.031 C 
ATOM     59  C   UNL A   1      42.650  29.361  35.434  1.00  0.00     0.029 A 
ATOM     60  C   UNL A   1      42.522  28.950  34.116  1.00  0.00     0.049 A 
ATOM     61  H   UNL A   1      41.113  29.564  32.671  1.00  0.00     0.167 HD
ATOM     62  C   UNL A   1      43.152  27.650  32.086  1.00  0.00     0.074 A 
ATOM     63  C   UNL A   1      43.963  26.669  31.391  1.00  0.00     0.031 C 
ATOM     64  C   UNL A   1      43.319  27.988  33.392  1.00  0.00     0.034 A 
BRANCH  51  65
ATOM     65  C   UNL A   1      39.224  32.165  35.503  1.00  0.00     0.023 A 
ATOM     66  C   UNL A   1      39.624  33.510  35.623  1.00  0.00     0.031 A 
ATOM     67  C   UNL A   1      38.390  31.642  36.506  1.00  0.00     0.131 A 
ATOM     68  C   UNL A   1      39.277  34.249  36.765  1.00  0.00     0.055 A 
ATOM     69  C   UNL A   1      37.968  32.415  37.592  1.00  0.00     0.041 A 
ATOM     70  F   UNL A   1      37.991  30.361  36.464  1.00  0.00    -0.206 F 
ATOM     71  C   UNL A   1      38.428  33.719  37.737  1.00  0.00     0.022 A 
BRANCH  68  72
ATOM     72  S   UNL A   1      40.095  35.846  37.042  1.00  0.00     0.124 S 
ATOM     73  O   UNL A   1      41.489  35.438  37.204  1.00  0.00    -0.237 OA
ATOM     74  O   UNL A   1      39.781  36.578  35.821  1.00  0.00    -0.237 OA
ATOM     75  O   UNL A   1      39.457  36.351  38.256  1.00  0.00    -0.744 OA
ENDBRANCH  68  72
ENDBRANCH  51  65
BRANCH  52  76
ATOM     76  C   UNL A   1      42.291  26.839  27.514  1.00  0.00     0.023 A 
ATOM     77  C   UNL A   1      41.974  25.480  27.361  1.00  0.00     0.031 A 
ATOM     78  C   UNL A   1      43.099  27.440  26.532  1.00  0.00     0.131 A 
ATOM     79  C   UNL A   1      42.504  24.751  26.284  1.00  0.00     0.055 A 
ATOM     80  C   UNL A   1      43.579  26.725  25.433  1.00  0.00     0.041 A 
ATOM     81  F   UNL A   1      43.420  28.740  26.619  1.00  0.00    -0.206 F 
ATOM     82  C   UNL A   1      43.295  25.367  25.313  1.00  0.00     0.022 A 
BRANCH  79  83
ATOM     83  S   UNL A   1      42.217  22.961  26.220  1.00  0.00     0.124 S 
ATOM     84  O   UNL A   1      42.735  22.623  24.899  1.00  0.00    -0.237 OA
ATOM     85  O   UNL A   1      43.001  22.489  27.357  1.00  0.00    -0.237 OA
ATOM     86  O   UNL A   1      40.768  22.843  26.373  1.00  0.00    -0.744 OA
ENDBRANCH  79  83
ENDBRANCH  52  76
BRANCH  64  87
ATOM     87  C   UNL A   1      44.401  27.253  34.143  1.00  0.00     0.023 A 
ATOM     88  C   UNL A   1      45.715  27.746  34.206  1.00  0.00     0.031 A 
ATOM     89  C   UNL A   1      44.122  26.023  34.765  1.00  0.00     0.131 A 
ATOM     90  C   UNL A   1      46.722  26.971  34.795  1.00  0.00     0.055 A 
ATOM     91  C   UNL A   1      45.114  25.294  35.420  1.00  0.00     0.041 A 
ATOM     92  F   UNL A   1      42.883  25.506  34.737  1.00  0.00    -0.206 F 
ATOM     93  C   UNL A   1      46.427  25.756  35.419  1.00  0.00     0.022 A 
BRANCH  90  94
ATOM     94  S   UNL A   1      48.444  27.505  34.606  1.00  0.00     0.124 S 
ATOM     95  O   UNL A   1      48.529  28.599  35.568  1.00  0.00    -0.237 OA
ATOM     96  O   UNL A   1      49.183  26.295  34.950  1.00  0.00    -0.237 OA
ATOM     97  O   UNL A   1      48.526  27.905  33.203  1.00  0.00    -0.744 OA
ENDBRANCH  90  94
ENDBRANCH  64  87
ENDBRANCH  38  39
ENDBRANCH  30  33
ENDBRANCH  28  29
ENDBRANCH  27  28
ENDBRANCH   1  27
TORSDOF 19
ENDMDL
MODEL 2
REMARK VINA RESULT:     -12.2      2.653      3.491
REMARK SMILES C[C@@](NC(=O)CCOC1CC[NH2+]CC1)(C(=O)NCCCNC(=O)c1ccc(-c2c3nc(c(-c4cc(S(=O)(=O)[O-])ccc4F)c4ccc([nH]4)c(-c4cc(S(=O)(=O)[O-])ccc4F)c4nc(c(-c5cc(S(=O)(=O)[O-])ccc5F)c5ccc2[nH]5)C=C4)C=C3)cc1)C(F)(F)F
REMARK SMILES IDX 18 1 17 2 15 3 16 4 2 6 1 7 3 8 4 9 5 11 6 12 7 13 8 14 9 15
REMARK SMILES IDX 10 16 14 17 11 18 13 19 12 20 87 23 88 24 89 25 90 26 19 27
REMARK SMILES IDX 20 28 21 29 22 30 23 32 24 33 25 34 86 35 26 36 85 37 27 38
REMARK SMILES IDX 28 39 29 40 79 41 30 42 84 43 78 44 80 45 31 46 83 47 77 48
REMARK SMILES IDX 76 49 32 51 64 52 44 53 63 54 45 55 48 56 62 57 81 58 46 59
REMARK SMILES IDX 47 60 61 62 82 63 49 64 33 65 34 66 42 67 35 68 41 69 43 70
REMARK SMILES IDX 40 71 36 72 37 73 38 74 39 75 65 76 66 77 74 78 67 79 73 80
REMARK SMILES IDX 75 81 72 82 68 83 69 84 70 85 71 86 50 87 51 88 59 89 52 90
REMARK SMILES IDX 58 91 60 92 57 93 53 94 54 95 55 96 56 97
REMARK H PARENT 17 5 3 10 12 21 12 22 21 31 80 50 48 61
REMARK Flexibility Score: inf
ROOT
ATOM      1  C   UNL A   1      32.257  28.074  26.674  1.00  0.00     0.117 C 
ENDROOT
BRANCH   1   2
ATOM      2  N   UNL A   1      31.632  29.326  26.133  1.00  0.00    -0.354 N 
ATOM      3  C   UNL A   1      30.965  29.910  25.001  1.00  0.00     0.254 C 
ATOM      4  O   UNL A   1      31.170  31.084  25.478  1.00  0.00    -0.272 OA
ATOM      5  H   UNL A   1      31.710  30.022  26.826  1.00  0.00     0.163 HD
BRANCH   3   6
ATOM      6  C   UNL A   1      29.995  29.248  23.205  1.00  0.00     0.212 C 
ATOM      7  C   UNL A   1      30.103  30.073  21.646  1.00  0.00     0.056 C 
BRANCH   6   8
ATOM      8  N   UNL A   1      30.252  27.633  22.441  1.00  0.00    -0.334 N 
ATOM      9  C   UNL A   1      31.264  26.733  22.158  1.00  0.00     0.223 C 
ATOM     10  H   UNL A   1      29.391  27.276  22.121  1.00  0.00     0.164 HD
ATOM     11  O   UNL A   1      31.360  26.390  20.972  1.00  0.00    -0.275 OA
BRANCH   9  12
ATOM     12  C   UNL A   1      32.094  25.961  23.210  1.00  0.00     0.128 C 
BRANCH  12  13
ATOM     13  C   UNL A   1      33.625  25.948  23.284  1.00  0.00     0.170 C 
BRANCH  13  14
ATOM     14  O   UNL A   1      34.208  25.920  24.580  1.00  0.00    -0.377 OA
BRANCH  14  15
ATOM     15  C   UNL A   1      34.120  24.618  25.155  1.00  0.00     0.129 C 
ATOM     16  C   UNL A   1      32.946  24.146  26.668  1.00  0.00     0.093 C 
ATOM     17  C   UNL A   1      35.853  23.684  25.042  1.00  0.00     0.093 C 
ATOM     18  C   UNL A   1      33.329  22.485  27.569  1.00  0.00     0.263 C 
ATOM     19  C   UNL A   1      36.080  22.070  25.987  1.00  0.00     0.263 C 
ATOM     20  N   UNL A   1      34.762  21.443  27.105  1.00  0.00    -0.346 N 
ATOM     21  H   UNL A   1      34.380  20.608  26.661  1.00  0.00     0.346 HD
ATOM     22  H   UNL A   1      35.256  21.340  27.991  1.00  0.00     0.346 HD
ENDBRANCH  14  15
ENDBRANCH  13  14
ENDBRANCH  12  13
ENDBRANCH   9  12
ENDBRANCH   6   8
BRANCH   6  23
ATOM     23  C   UNL A   1      28.205  29.139  22.908  1.00  0.00     0.420 C 
ATOM     24  F   UNL A   1      27.594  28.052  23.438  1.00  0.00    -0.168 F 
ATOM     25  F   UNL A   1      27.634  30.201  23.605  1.00  0.00    -0.168 F 
ATOM     26  F   UNL A   1      27.724  29.372  21.668  1.00  0.00    -0.168 F 
ENDBRANCH   6  23
ENDBRANCH   3   6
ENDBRANCH   1   2
BRANCH   1  27
ATOM     27  C   UNL A   1      33.658  28.273  27.210  1.00  0.00     0.042 C 
BRANCH  27  28
ATOM     28  C   UNL A   1      34.393  29.318  26.395  1.00  0.00     0.118 C 
BRANCH  28  29
ATOM     29  N   UNL A   1      34.148  30.686  26.877  1.00  0.00    -0.352 N 
ATOM     30  C   UNL A   1      34.688  31.405  27.920  1.00  0.00     0.251 C 
ATOM     31  H   UNL A   1      33.472  31.179  26.358  1.00  0.00     0.163 HD
ATOM     32  O   UNL A   1      34.147  32.445  28.286  1.00  0.00    -0.269 OA
BRANCH  30  33
ATOM     33  C   UNL A   1      35.894  30.904  28.599  1.00  0.00     0.039 A 
ATOM     34  C   UNL A   1      35.851  29.752  29.384  1.00  0.00     0.014 A 
ATOM     35  C   UNL A   1      37.097  31.571  28.409  1.00  0.00     0.014 A 
ATOM     36  C   UNL A   1      37.044  29.226  29.882  1.00  0.00     0.010 A 
ATOM     37  C   UNL A   1      38.283  30.933  28.708  1.00  0.00     0.010 A 
ATOM     38  C   UNL A   1      38.277  29.778  29.493  1.00  0.00    -0.014 A 
BRANCH  38  39
ATOM     39  C   UNL A   1      39.578  29.210  29.929  1.00  0.00     0.031 A 
ATOM     40  C   UNL A   1      40.292  29.806  31.120  1.00  0.00     0.074 A 
ATOM     41  C   UNL A   1      40.148  28.226  29.205  1.00  0.00     0.049 A 
ATOM     42  N   UNL A   1      41.470  29.518  31.609  1.00  0.00    -0.248 NA
ATOM     43  C   UNL A   1      39.627  30.927  31.808  1.00  0.00     0.031 C 
ATOM     44  C   UNL A   1      39.602  27.650  27.972  1.00  0.00     0.029 A 
ATOM     45  N   UNL A   1      41.310  27.528  29.405  1.00  0.00    -0.354 N 
ATOM     46  C   UNL A   1      41.691  30.445  32.625  1.00  0.00     0.074 A 
ATOM     47  C   UNL A   1      40.588  31.374  32.598  1.00  0.00     0.031 C 
ATOM     48  C   UNL A   1      40.386  26.636  27.572  1.00  0.00     0.029 A 
ATOM     49  C   UNL A   1      41.513  26.522  28.489  1.00  0.00     0.049 A 
ATOM     50  H   UNL A   1      41.939  27.727  30.135  1.00  0.00     0.167 HD
ATOM     51  C   UNL A   1      42.693  30.484  33.538  1.00  0.00     0.034 A 
ATOM     52  C   UNL A   1      42.492  25.600  28.415  1.00  0.00     0.034 A 
ATOM     53  C   UNL A   1      43.747  29.505  33.581  1.00  0.00     0.049 A 
ATOM     54  C   UNL A   1      43.556  25.613  29.483  1.00  0.00     0.074 A 
ATOM     55  C   UNL A   1      44.780  29.382  34.491  1.00  0.00     0.029 A 
ATOM     56  N   UNL A   1      43.889  28.461  32.672  1.00  0.00    -0.354 N 
ATOM     57  N   UNL A   1      43.714  26.450  30.484  1.00  0.00    -0.248 NA
ATOM     58  C   UNL A   1      44.555  24.542  29.425  1.00  0.00     0.031 C 
ATOM     59  C   UNL A   1      45.577  28.300  34.101  1.00  0.00     0.029 A 
ATOM     60  C   UNL A   1      45.000  27.700  32.993  1.00  0.00     0.049 A 
ATOM     61  H   UNL A   1      43.286  28.289  31.913  1.00  0.00     0.167 HD
ATOM     62  C   UNL A   1      44.818  25.987  31.193  1.00  0.00     0.074 A 
ATOM     63  C   UNL A   1      45.259  24.780  30.521  1.00  0.00     0.031 C 
ATOM     64  C   UNL A   1      45.421  26.508  32.294  1.00  0.00     0.034 A 
BRANCH  51  65
ATOM     65  C   UNL A   1      42.673  31.614  34.545  1.00  0.00     0.023 A 
ATOM     66  C   UNL A   1      41.853  31.572  35.688  1.00  0.00     0.031 A 
ATOM     67  C   UNL A   1      43.436  32.774  34.332  1.00  0.00     0.131 A 
ATOM     68  C   UNL A   1      41.736  32.702  36.513  1.00  0.00     0.055 A 
ATOM     69  C   UNL A   1      43.389  33.859  35.213  1.00  0.00     0.041 A 
ATOM     70  F   UNL A   1      44.222  32.888  33.249  1.00  0.00    -0.206 F 
ATOM     71  C   UNL A   1      42.521  33.835  36.299  1.00  0.00     0.022 A 
BRANCH  68  72
ATOM     72  S   UNL A   1      40.418  32.728  37.761  1.00  0.00     0.124 S 
ATOM     73  O   UNL A   1      41.137  32.294  38.957  1.00  0.00    -0.237 OA
ATOM     74  O   UNL A   1      39.993  34.122  37.742  1.00  0.00    -0.237 OA
ATOM     75  O   UNL A   1      39.442  31.768  37.248  1.00  0.00    -0.744 OA
ENDBRANCH  68  72
ENDBRANCH  51  65
BRANCH  52  76
ATOM     76  C   UNL A   1      42.491  24.571  27.335  1.00  0.00     0.023 A 
ATOM     77  C   UNL A   1      41.676  23.430  27.427  1.00  0.00     0.031 A 
ATOM     78  C   UNL A   1      43.324  24.694  26.209  1.00  0.00     0.131 A 
ATOM     79  C   UNL A   1      41.751  22.433  26.441  1.00  0.00     0.055 A 
ATOM     80  C   UNL A   1      43.354  23.726  25.204  1.00  0.00     0.041 A 
ATOM     81  F   UNL A   1      44.111  25.772  26.062  1.00  0.00    -0.206 F 
ATOM     82  C   UNL A   1      42.577  22.578  25.326  1.00  0.00     0.022 A 
BRANCH  79  83
ATOM     83  S   UNL A   1      40.818  20.896  26.688  1.00  0.00     0.124 S 
ATOM     84  O   UNL A   1      41.661  19.923  26.003  1.00  0.00    -0.237 OA
ATOM     85  O   UNL A   1      40.776  20.799  28.143  1.00  0.00    -0.237 OA
ATOM     86  O   UNL A   1      39.534  21.173  26.047  1.00  0.00    -0.744 OA
ENDBRANCH  79  83
ENDBRANCH  52  76
BRANCH  64  87
ATOM     87  C   UNL A   1      46.595  25.739  32.845  1.00  0.00     0.023 A 
ATOM     88  C   UNL A   1      46.422  24.707  33.782  1.00  0.00     0.031 A 
ATOM     89  C   UNL A   1      47.905  26.075  32.461  1.00  0.00     0.131 A 
ATOM     90  C   UNL A   1      47.542  24.108  34.373  1.00  0.00     0.055 A 
ATOM     91  C   UNL A   1      49.015  25.420  32.995  1.00  0.00     0.041 A 
ATOM     92  F   UNL A   1      48.129  27.053  31.569  1.00  0.00    -0.206 F 
ATOM     93  C   UNL A   1      48.837  24.444  33.972  1.00  0.00     0.022 A 
BRANCH  90  94
ATOM     94  S   UNL A   1      47.282  22.988  35.775  1.00  0.00     0.124 S 
ATOM     95  O   UNL A   1      46.255  23.690  36.537  1.00  0.00    -0.237 OA
ATOM     96  O   UNL A   1      46.857  21.759  35.115  1.00  0.00    -0.237 OA
ATOM     97  O   UNL A   1      48.596  22.928  36.412  1.00  0.00    -0.744 OA
ENDBRANCH  90  94
ENDBRANCH  64  87
ENDBRANCH  38  39
ENDBRANCH  30  33
ENDBRANCH  28  29
ENDBRANCH  27  28
ENDBRANCH   1  27
TORSDOF 19
ENDMDL
MODEL 3
REMARK VINA RESULT:     -12.2      2.506      3.155
REMARK SMILES C[C@@](NC(=O)CCOC1CC[NH2+]CC1)(C(=O)NCCCNC(=O)c1ccc(-c2c3nc(c(-c4cc(S(=O)(=O)[O-])ccc4F)c4ccc([nH]4)c(-c4cc(S(=O)(=O)[O-])ccc4F)c4nc(c(-c5cc(S(=O)(=O)[O-])ccc5F)c5ccc2[nH]5)C=C4)C=C3)cc1)C(F)(F)F
REMARK SMILES IDX 18 1 17 2 15 3 16 4 2 6 1 7 3 8 4 9 5 11 6 12 7 13 8 14 9 15
REMARK SMILES IDX 10 16 14 17 11 18 13 19 12 20 87 23 88 24 89 25 90 26 19 27
REMARK SMILES IDX 20 28 21 29 22 30 23 32 24 33 25 34 86 35 26 36 85 37 27 38
REMARK SMILES IDX 28 39 29 40 79 41 30 42 84 43 78 44 80 45 31 46 83 47 77 48
REMARK SMILES IDX 76 49 32 51 64 52 44 53 63 54 45 55 48 56 62 57 81 58 46 59
REMARK SMILES IDX 47 60 61 62 82 63 49 64 33 65 34 66 42 67 35 68 41 69 43 70
REMARK SMILES IDX 40 71 36 72 37 73 38 74 39 75 65 76 66 77 74 78 67 79 73 80
REMARK SMILES IDX 75 81 72 82 68 83 69 84 70 85 71 86 50 87 51 88 59 89 52 90
REMARK SMILES IDX 58 91 60 92 57 93 53 94 54 95 55 96 56 97
REMARK H PARENT 17 5 3 10 12 21 12 22 21 31 80 50 48 61
REMARK Flexibility Score: inf
ROOT
ATOM      1  C   UNL A   1      31.646  28.309  27.613  1.00  0.00     0.117 C 
ENDROOT
BRANCH   1   2
ATOM      2  N   UNL A   1      31.475  26.864  27.249  1.00  0.00    -0.354 N 
ATOM      3  C   UNL A   1      31.731  25.870  26.242  1.00  0.00     0.254 C 
ATOM      4  O   UNL A   1      30.889  25.077  26.801  1.00  0.00    -0.272 OA
ATOM      5  H   UNL A   1      31.001  26.423  27.991  1.00  0.00     0.163 HD
BRANCH   3   6
ATOM      6  C   UNL A   1      32.955  25.647  24.494  1.00  0.00     0.212 C 
ATOM      7  C   UNL A   1      33.696  26.987  23.611  1.00  0.00     0.056 C 
BRANCH   6   8
ATOM      8  N   UNL A   1      34.478  24.679  24.430  1.00  0.00    -0.334 N 
ATOM      9  C   UNL A   1      35.210  23.786  25.192  1.00  0.00     0.223 C 
ATOM     10  H   UNL A   1      34.938  24.839  23.574  1.00  0.00     0.164 HD
ATOM     11  O   UNL A   1      36.391  24.096  25.396  1.00  0.00    -0.275 OA
BRANCH   9  12
ATOM     12  C   UNL A   1      34.753  22.362  25.586  1.00  0.00     0.128 C 
BRANCH  12  13
ATOM     13  C   UNL A   1      33.370  22.004  26.144  1.00  0.00     0.170 C 
BRANCH  13  14
ATOM     14  O   UNL A   1      32.332  21.781  25.199  1.00  0.00    -0.377 OA
BRANCH  14  15
ATOM     15  C   UNL A   1      32.213  20.395  24.886  1.00  0.00     0.129 C 
ATOM     16  C   UNL A   1      32.920  18.935  26.006  1.00  0.00     0.093 C 
ATOM     17  C   UNL A   1      32.232  20.115  22.934  1.00  0.00     0.093 C 
ATOM     18  C   UNL A   1      33.062  17.202  25.174  1.00  0.00     0.263 C 
ATOM     19  C   UNL A   1      32.383  18.359  22.268  1.00  0.00     0.263 C 
ATOM     20  N   UNL A   1      32.646  16.941  23.409  1.00  0.00    -0.346 N 
ATOM     21  H   UNL A   1      31.786  16.394  23.392  1.00  0.00     0.346 HD
ATOM     22  H   UNL A   1      33.499  16.519  23.042  1.00  0.00     0.346 HD
ENDBRANCH  14  15
ENDBRANCH  13  14
ENDBRANCH  12  13
ENDBRANCH   9  12
ENDBRANCH   6   8
BRANCH   6  23
ATOM     23  C   UNL A   1      32.440  25.000  22.875  1.00  0.00     0.420 C 
ATOM     24  F   UNL A   1      33.411  24.378  22.163  1.00  0.00    -0.168 F 
ATOM     25  F   UNL A   1      31.531  23.979  23.141  1.00  0.00    -0.168 F 
ATOM     26  F   UNL A   1      31.702  25.779  22.055  1.00  0.00    -0.168 F 
ENDBRANCH   6  23
ENDBRANCH   3   6
ENDBRANCH   1   2
BRANCH   1  27
ATOM     27  C   UNL A   1      31.996  29.198  26.439  1.00  0.00     0.042 C 
BRANCH  27  28
ATOM     28  C   UNL A   1      33.395  29.757  26.598  1.00  0.00     0.118 C 
BRANCH  28  29
ATOM     29  N   UNL A   1      33.403  31.098  27.203  1.00  0.00    -0.352 N 
ATOM     30  C   UNL A   1      34.263  31.701  28.092  1.00  0.00     0.251 C 
ATOM     31  H   UNL A   1      32.653  31.670  26.919  1.00  0.00     0.163 HD
ATOM     32  O   UNL A   1      33.930  32.743  28.651  1.00  0.00    -0.269 OA
BRANCH  30  33
ATOM     33  C   UNL A   1      35.564  31.075  28.382  1.00  0.00     0.039 A 
ATOM     34  C   UNL A   1      36.756  31.773  28.188  1.00  0.00     0.014 A 
ATOM     35  C   UNL A   1      35.589  29.788  28.902  1.00  0.00     0.014 A 
ATOM     36  C   UNL A   1      37.954  31.201  28.620  1.00  0.00     0.010 A 
ATOM     37  C   UNL A   1      36.730  29.328  29.525  1.00  0.00     0.010 A 
ATOM     38  C   UNL A   1      37.942  30.000  29.351  1.00  0.00    -0.014 A 
BRANCH  38  39
ATOM     39  C   UNL A   1      39.177  29.389  29.902  1.00  0.00     0.031 A 
ATOM     40  C   UNL A   1      39.758  29.913  31.194  1.00  0.00     0.074 A 
ATOM     41  C   UNL A   1      39.815  28.432  29.198  1.00  0.00     0.049 A 
ATOM     42  N   UNL A   1      40.869  29.581  31.799  1.00  0.00    -0.248 NA
ATOM     43  C   UNL A   1      39.032  31.011  31.859  1.00  0.00     0.031 C 
ATOM     44  C   UNL A   1      39.406  27.926  27.884  1.00  0.00     0.029 A 
ATOM     45  N   UNL A   1      40.937  27.705  29.493  1.00  0.00    -0.354 N 
ATOM     46  C   UNL A   1      40.984  30.454  32.879  1.00  0.00     0.074 A 
ATOM     47  C   UNL A   1      39.903  31.402  32.774  1.00  0.00     0.031 C 
ATOM     48  C   UNL A   1      40.218  26.919  27.525  1.00  0.00     0.029 A 
ATOM     49  C   UNL A   1      41.232  26.740  28.556  1.00  0.00     0.049 A 
ATOM     50  H   UNL A   1      41.481  27.857  30.298  1.00  0.00     0.167 HD
ATOM     51  C   UNL A   1      41.876  30.430  33.900  1.00  0.00     0.034 A 
ATOM     52  C   UNL A   1      42.201  25.806  28.547  1.00  0.00     0.034 A 
ATOM     53  C   UNL A   1      42.906  29.431  34.013  1.00  0.00     0.049 A 
ATOM     54  C   UNL A   1      43.137  25.748  29.728  1.00  0.00     0.074 A 
ATOM     55  C   UNL A   1      43.827  29.246  35.027  1.00  0.00     0.029 A 
ATOM     56  N   UNL A   1      43.138  28.431  33.074  1.00  0.00    -0.354 N 
ATOM     57  N   UNL A   1      43.190  26.533  30.781  1.00  0.00    -0.248 NA
ATOM     58  C   UNL A   1      44.123  24.664  29.730  1.00  0.00     0.031 C 
ATOM     59  C   UNL A   1      44.651  28.171  34.675  1.00  0.00     0.029 A 
ATOM     60  C   UNL A   1      44.197  27.635  33.480  1.00  0.00     0.049 A 
ATOM     61  H   UNL A   1      42.624  28.307  32.244  1.00  0.00     0.167 HD
ATOM     62  C   UNL A   1      44.201  26.016  31.586  1.00  0.00     0.074 A 
ATOM     63  C   UNL A   1      44.701  24.836  30.908  1.00  0.00     0.031 C 
ATOM     64  C   UNL A   1      44.680  26.472  32.774  1.00  0.00     0.034 A 
BRANCH  51  65
ATOM     65  C   UNL A   1      41.755  31.509  34.954  1.00  0.00     0.023 A 
ATOM     66  C   UNL A   1      40.680  31.540  35.863  1.00  0.00     0.031 A 
ATOM     67  C   UNL A   1      42.690  32.556  35.015  1.00  0.00     0.131 A 
ATOM     68  C   UNL A   1      40.511  32.640  36.717  1.00  0.00     0.055 A 
ATOM     69  C   UNL A   1      42.569  33.600  35.938  1.00  0.00     0.041 A 
ATOM     70  F   UNL A   1      43.727  32.600  34.163  1.00  0.00    -0.206 F 
ATOM     71  C   UNL A   1      41.465  33.657  36.781  1.00  0.00     0.022 A 
BRANCH  68  72
ATOM     72  S   UNL A   1      38.942  32.805  37.614  1.00  0.00     0.124 S 
ATOM     73  O   UNL A   1      38.476  31.420  37.648  1.00  0.00    -0.237 OA
ATOM     74  O   UNL A   1      39.364  33.369  38.890  1.00  0.00    -0.237 OA
ATOM     75  O   UNL A   1      38.155  33.698  36.765  1.00  0.00    -0.744 OA
ENDBRANCH  68  72
ENDBRANCH  51  65
BRANCH  52  76
ATOM     76  C   UNL A   1      42.311  24.832  27.424  1.00  0.00     0.023 A 
ATOM     77  C   UNL A   1      41.542  23.656  27.410  1.00  0.00     0.031 A 
ATOM     78  C   UNL A   1      43.207  25.042  26.360  1.00  0.00     0.131 A 
ATOM     79  C   UNL A   1      41.720  22.711  26.387  1.00  0.00     0.055 A 
ATOM     80  C   UNL A   1      43.341  24.124  25.316  1.00  0.00     0.041 A 
ATOM     81  F   UNL A   1      43.955  26.155  26.313  1.00  0.00    -0.206 F 
ATOM     82  C   UNL A   1      42.606  22.942  25.335  1.00  0.00     0.022 A 
BRANCH  79  83
ATOM     83  S   UNL A   1      40.839  21.129  26.503  1.00  0.00     0.124 S 
ATOM     84  O   UNL A   1      41.728  20.238  25.767  1.00  0.00    -0.237 OA
ATOM     85  O   UNL A   1      40.775  20.924  27.946  1.00  0.00    -0.237 OA
ATOM     86  O   UNL A   1      39.557  21.406  25.858  1.00  0.00    -0.744 OA
ENDBRANCH  79  83
ENDBRANCH  52  76
BRANCH  64  87
ATOM     87  C   UNL A   1      45.775  25.657  33.414  1.00  0.00     0.023 A 
ATOM     88  C   UNL A   1      45.489  24.666  34.369  1.00  0.00     0.031 A 
ATOM     89  C   UNL A   1      47.122  25.906  33.099  1.00  0.00     0.131 A 
ATOM     90  C   UNL A   1      46.537  24.024  35.041  1.00  0.00     0.055 A 
ATOM     91  C   UNL A   1      48.159  25.207  33.715  1.00  0.00     0.041 A 
ATOM     92  F   UNL A   1      47.452  26.841  32.193  1.00  0.00    -0.206 F 
ATOM     93  C   UNL A   1      47.870  24.275  34.708  1.00  0.00     0.022 A 
BRANCH  90  94
ATOM     94  S   UNL A   1      46.133  22.966  36.457  1.00  0.00     0.124 S 
ATOM     95  O   UNL A   1      45.667  21.749  35.802  1.00  0.00    -0.237 OA
ATOM     96  O   UNL A   1      47.416  22.868  37.145  1.00  0.00    -0.237 OA
ATOM     97  O   UNL A   1      45.104  23.722  37.167  1.00  0.00    -0.744 OA
ENDBRANCH  90  94
ENDBRANCH  64  87
ENDBRANCH  38  39
ENDBRANCH  30  33
ENDBRANCH  28  29
ENDBRANCH  27  28
ENDBRANCH   1  27
TORSDOF 19
ENDMDL
