MODEL 1
REMARK VINA RESULT:     -12.4      0.000      0.000
REMARK SMILES CC(=O)NS(=O)(=O)c1ccc(-c2ccn(C(F)F)c(=O)c2)cc1C(=O)NCCCNC(=O)c1ccc(-c2c3nc(c(-c4cc(S(=O)(=O)[O-])ccc4F)c4ccc([nH]4)c(-c4cc(S(=O)(=O)[O-])ccc4F)c4nc(c(-c5cc(S(=O)(=O)[O-])ccc5F)c5ccc2[nH]5)C=C4)C=C3)cc1
REMARK SMILES IDX 28 1 27 2 26 3 24 4 25 5 23 7 8 8 9 9 10 10 22 11 11 12 5 13
REMARK SMILES IDX 6 14 7 15 4 16 1 17 2 18 3 19 12 21 13 22 21 23 14 24 19 25
REMARK SMILES IDX 15 26 20 27 16 28 17 29 18 30 29 31 30 32 31 33 32 35 33 36
REMARK SMILES IDX 34 37 95 38 35 39 94 40 36 41 37 42 38 43 88 44 39 45 93 46
REMARK SMILES IDX 87 47 89 48 40 49 92 50 86 51 85 52 41 54 73 55 53 56 72 57
REMARK SMILES IDX 54 58 57 59 71 60 90 61 55 62 56 63 70 65 91 66 58 67 42 68
REMARK SMILES IDX 43 69 51 70 44 71 50 72 52 73 49 74 45 75 46 76 47 77 48 78
REMARK SMILES IDX 74 79 75 80 83 81 76 82 82 83 84 84 81 85 77 86 78 87 79 88
REMARK SMILES IDX 80 89 59 90 60 91 68 92 61 93 67 94 69 95 66 96 62 97 63 98
REMARK SMILES IDX 64 99 65 100
REMARK H PARENT 26 6 4 20 30 34 89 53 57 64
REMARK Flexibility Score: inf
ROOT
ATOM      1  C   UNL A   1      32.476  29.270  27.244  1.00  0.00     0.042 C 
ENDROOT
BRANCH   1   2
ATOM      2  C   UNL A   1      32.796  27.776  27.113  1.00  0.00     0.118 C 
BRANCH   2   3
ATOM      3  N   UNL A   1      31.577  26.993  26.984  1.00  0.00    -0.352 N 
ATOM      4  C   UNL A   1      31.171  26.034  26.097  1.00  0.00     0.252 C 
ATOM      5  O   UNL A   1      30.077  25.495  26.273  1.00  0.00    -0.269 OA
ATOM      6  H   UNL A   1      30.907  27.194  27.676  1.00  0.00     0.163 HD
BRANCH   4   7
ATOM      7  C   UNL A   1      32.016  25.506  25.000  1.00  0.00     0.060 A 
ATOM      8  C   UNL A   1      32.176  26.055  23.725  1.00  0.00     0.100 A 
ATOM      9  C   UNL A   1      32.965  25.394  22.767  1.00  0.00     0.024 A 
ATOM     10  C   UNL A   1      33.461  24.114  23.021  1.00  0.00     0.010 A 
ATOM     11  C   UNL A   1      32.538  24.217  25.242  1.00  0.00     0.024 A 
ATOM     12  C   UNL A   1      33.205  23.488  24.245  1.00  0.00    -0.017 A 
BRANCH   8  13
ATOM     13  S   UNL A   1      31.213  27.433  23.182  1.00  0.00     0.264 S 
ATOM     14  O   UNL A   1      31.023  27.258  21.761  1.00  0.00    -0.201 OA
ATOM     15  O   UNL A   1      31.756  28.642  23.759  1.00  0.00    -0.201 OA
BRANCH  13  16
ATOM     16  N   UNL A   1      29.713  27.201  23.850  1.00  0.00    -0.249 N 
ATOM     17  C   UNL A   1      28.454  29.125  22.867  1.00  0.00     0.115 C 
ATOM     18  C   UNL A   1      28.489  27.724  23.406  1.00  0.00     0.230 C 
ATOM     19  O   UNL A   1      27.466  27.098  23.647  1.00  0.00    -0.274 OA
ATOM     20  H   UNL A   1      29.677  26.629  24.651  1.00  0.00     0.183 HD
ENDBRANCH  13  16
ENDBRANCH   8  13
BRANCH  12  21
ATOM     21  C   UNL A   1      33.459  22.037  24.426  1.00  0.00    -0.011 A 
ATOM     22  C   UNL A   1      32.411  21.051  24.204  1.00  0.00     0.027 A 
ATOM     23  C   UNL A   1      34.696  21.598  24.719  1.00  0.00     0.080 A 
ATOM     24  C   UNL A   1      32.672  19.741  24.261  1.00  0.00     0.095 A 
ATOM     25  C   UNL A   1      35.004  20.139  24.788  1.00  0.00     0.255 A 
ATOM     26  N   UNL A   1      33.943  19.283  24.542  1.00  0.00    -0.258 N 
ATOM     27  O   UNL A   1      36.155  19.796  25.035  1.00  0.00    -0.269 OA
BRANCH  26  28
ATOM     28  C   UNL A   1      34.218  17.869  24.560  1.00  0.00     0.451 C 
ATOM     29  F   UNL A   1      33.134  17.167  24.975  1.00  0.00    -0.185 F 
ATOM     30  F   UNL A   1      34.563  17.418  23.330  1.00  0.00    -0.185 F 
ENDBRANCH  26  28
ENDBRANCH  12  21
ENDBRANCH   4   7
ENDBRANCH   2   3
ENDBRANCH   1   2
BRANCH   1  31
ATOM     31  C   UNL A   1      33.501  30.187  26.572  1.00  0.00     0.118 C 
BRANCH  31  32
ATOM     32  N   UNL A   1      33.586  31.464  27.263  1.00  0.00    -0.352 N 
ATOM     33  C   UNL A   1      34.401  31.867  28.294  1.00  0.00     0.251 C 
ATOM     34  H   UNL A   1      32.958  32.151  26.940  1.00  0.00     0.163 HD
ATOM     35  O   UNL A   1      34.071  32.861  28.939  1.00  0.00    -0.269 OA
BRANCH  33  36
ATOM     36  C   UNL A   1      35.655  31.151  28.642  1.00  0.00     0.039 A 
ATOM     37  C   UNL A   1      35.574  30.007  29.448  1.00  0.00     0.014 A 
ATOM     38  C   UNL A   1      36.915  31.650  28.297  1.00  0.00     0.014 A 
ATOM     39  C   UNL A   1      36.737  29.361  29.887  1.00  0.00     0.010 A 
ATOM     40  C   UNL A   1      38.075  30.969  28.683  1.00  0.00     0.010 A 
ATOM     41  C   UNL A   1      38.001  29.832  29.502  1.00  0.00    -0.014 A 
BRANCH  41  42
ATOM     42  C   UNL A   1      39.255  29.202  30.005  1.00  0.00     0.031 A 
ATOM     43  C   UNL A   1      39.965  29.790  31.197  1.00  0.00     0.074 A 
ATOM     44  C   UNL A   1      39.796  28.147  29.365  1.00  0.00     0.049 A 
ATOM     45  N   UNL A   1      41.135  29.490  31.704  1.00  0.00    -0.248 NA
ATOM     46  C   UNL A   1      39.277  30.890  31.887  1.00  0.00     0.031 C 
ATOM     47  C   UNL A   1      39.236  27.496  28.180  1.00  0.00     0.029 A 
ATOM     48  N   UNL A   1      40.954  27.451  29.612  1.00  0.00    -0.354 N 
ATOM     49  C   UNL A   1      41.342  30.391  32.746  1.00  0.00     0.074 A 
ATOM     50  C   UNL A   1      40.189  31.268  32.769  1.00  0.00     0.031 C 
ATOM     51  C   UNL A   1      40.052  26.499  27.801  1.00  0.00     0.029 A 
ATOM     52  C   UNL A   1      41.208  26.460  28.693  1.00  0.00     0.049 A 
ATOM     53  H   UNL A   1      41.547  27.644  30.373  1.00  0.00     0.167 HD
ATOM     54  C   UNL A   1      42.387  30.474  33.608  1.00  0.00     0.034 A 
ATOM     55  C   UNL A   1      42.260  25.628  28.570  1.00  0.00     0.034 A 
ATOM     56  C   UNL A   1      43.513  29.573  33.604  1.00  0.00     0.049 A 
ATOM     57  C   UNL A   1      43.390  25.707  29.560  1.00  0.00     0.074 A 
ATOM     58  C   UNL A   1      44.593  29.532  34.472  1.00  0.00     0.029 A 
ATOM     59  N   UNL A   1      43.705  28.547  32.689  1.00  0.00    -0.354 N 
ATOM     60  N   UNL A   1      43.564  26.553  30.547  1.00  0.00    -0.248 NA
ATOM     61  C   UNL A   1      44.461  24.710  29.423  1.00  0.00     0.031 C 
ATOM     62  C   UNL A   1      45.456  28.510  34.056  1.00  0.00     0.029 A 
ATOM     63  C   UNL A   1      44.891  27.880  32.960  1.00  0.00     0.049 A 
ATOM     64  H   UNL A   1      43.090  28.326  31.952  1.00  0.00     0.167 HD
ATOM     65  C   UNL A   1      44.760  26.183  31.155  1.00  0.00     0.074 A 
ATOM     66  C   UNL A   1      45.258  25.030  30.433  1.00  0.00     0.031 C 
ATOM     67  C   UNL A   1      45.386  26.745  32.220  1.00  0.00     0.034 A 
BRANCH  54  68
ATOM     68  C   UNL A   1      42.364  31.609  34.603  1.00  0.00     0.023 A 
ATOM     69  C   UNL A   1      41.541  31.578  35.742  1.00  0.00     0.031 A 
ATOM     70  C   UNL A   1      43.132  32.766  34.377  1.00  0.00     0.131 A 
ATOM     71  C   UNL A   1      41.432  32.714  36.558  1.00  0.00     0.055 A 
ATOM     72  C   UNL A   1      43.083  33.863  35.241  1.00  0.00     0.041 A 
ATOM     73  F   UNL A   1      43.924  32.861  33.298  1.00  0.00    -0.206 F 
ATOM     74  C   UNL A   1      42.214  33.848  36.328  1.00  0.00     0.022 A 
BRANCH  71  75
ATOM     75  S   UNL A   1      40.135  32.745  37.826  1.00  0.00     0.124 S 
ATOM     76  O   UNL A   1      39.705  34.141  37.773  1.00  0.00    -0.237 OA
ATOM     77  O   UNL A   1      39.182  31.762  37.327  1.00  0.00    -0.237 OA
ATOM     78  O   UNL A   1      40.842  32.366  39.048  1.00  0.00    -0.744 OA
ENDBRANCH  71  75
ENDBRANCH  54  68
BRANCH  55  79
ATOM     79  C   UNL A   1      42.313  24.662  27.441  1.00  0.00     0.023 A 
ATOM     80  C   UNL A   1      41.599  23.456  27.485  1.00  0.00     0.031 A 
ATOM     81  C   UNL A   1      43.098  24.932  26.306  1.00  0.00     0.131 A 
ATOM     82  C   UNL A   1      41.704  22.545  26.422  1.00  0.00     0.055 A 
ATOM     83  C   UNL A   1      43.175  24.037  25.239  1.00  0.00     0.041 A 
ATOM     84  F   UNL A   1      43.790  26.078  26.219  1.00  0.00    -0.206 F 
ATOM     85  C   UNL A   1      42.481  22.832  25.296  1.00  0.00     0.022 A 
BRANCH  82  86
ATOM     86  S   UNL A   1      40.839  20.957  26.551  1.00  0.00     0.124 S 
ATOM     87  O   UNL A   1      39.544  21.273  25.961  1.00  0.00    -0.237 OA
ATOM     88  O   UNL A   1      41.702  20.077  25.769  1.00  0.00    -0.237 OA
ATOM     89  O   UNL A   1      40.824  20.692  27.988  1.00  0.00    -0.744 OA
ENDBRANCH  82  86
ENDBRANCH  55  79
BRANCH  67  90
ATOM     90  C   UNL A   1      46.662  26.091  32.679  1.00  0.00     0.023 A 
ATOM     91  C   UNL A   1      46.659  25.056  33.630  1.00  0.00     0.031 A 
ATOM     92  C   UNL A   1      47.898  26.527  32.171  1.00  0.00     0.131 A 
ATOM     93  C   UNL A   1      47.874  24.514  34.074  1.00  0.00     0.055 A 
ATOM     94  C   UNL A   1      49.102  25.959  32.589  1.00  0.00     0.041 A 
ATOM     95  F   UNL A   1      47.953  27.514  31.264  1.00  0.00    -0.206 F 
ATOM     96  C   UNL A   1      49.095  24.953  33.553  1.00  0.00     0.022 A 
BRANCH  93  97
ATOM     97  S   UNL A   1      47.847  23.267  35.391  1.00  0.00     0.124 S 
ATOM     98  O   UNL A   1      49.051  23.596  36.146  1.00  0.00    -0.237 OA
ATOM     99  O   UNL A   1      46.579  23.544  36.058  1.00  0.00    -0.237 OA
ATOM    100  O   UNL A   1      47.898  21.999  34.665  1.00  0.00    -0.744 OA
ENDBRANCH  93  97
ENDBRANCH  67  90
ENDBRANCH  41  42
ENDBRANCH  33  36
ENDBRANCH  31  32
ENDBRANCH   1  31
TORSDOF 17
ENDMDL
MODEL 2
REMARK VINA RESULT:     -12.3      4.870      7.290
REMARK SMILES CC(=O)NS(=O)(=O)c1ccc(-c2ccn(C(F)F)c(=O)c2)cc1C(=O)NCCCNC(=O)c1ccc(-c2c3nc(c(-c4cc(S(=O)(=O)[O-])ccc4F)c4ccc([nH]4)c(-c4cc(S(=O)(=O)[O-])ccc4F)c4nc(c(-c5cc(S(=O)(=O)[O-])ccc5F)c5ccc2[nH]5)C=C4)C=C3)cc1
REMARK SMILES IDX 28 1 27 2 26 3 24 4 25 5 23 7 8 8 9 9 10 10 22 11 11 12 5 13
REMARK SMILES IDX 6 14 7 15 4 16 1 17 2 18 3 19 12 21 13 22 21 23 14 24 19 25
REMARK SMILES IDX 15 26 20 27 16 28 17 29 18 30 29 31 30 32 31 33 32 35 33 36
REMARK SMILES IDX 34 37 95 38 35 39 94 40 36 41 37 42 38 43 88 44 39 45 93 46
REMARK SMILES IDX 87 47 89 48 40 49 92 50 86 51 85 52 41 54 73 55 53 56 72 57
REMARK SMILES IDX 54 58 57 59 71 60 90 61 55 62 56 63 70 65 91 66 58 67 42 68
REMARK SMILES IDX 43 69 51 70 44 71 50 72 52 73 49 74 45 75 46 76 47 77 48 78
REMARK SMILES IDX 74 79 75 80 83 81 76 82 82 83 84 84 81 85 77 86 78 87 79 88
REMARK SMILES IDX 80 89 59 90 60 91 68 92 61 93 67 94 69 95 66 96 62 97 63 98
REMARK SMILES IDX 64 99 65 100
REMARK H PARENT 26 6 4 20 30 34 89 53 57 64
REMARK Flexibility Score: inf
ROOT
ATOM      1  C   UNL A   1      35.786  23.073  24.521  1.00  0.00     0.042 C 
ENDROOT
BRANCH   1   2
ATOM      2  C   UNL A   1      35.353  24.537  24.661  1.00  0.00     0.118 C 
BRANCH   2   3
ATOM      3  N   UNL A   1      34.492  24.933  23.556  1.00  0.00    -0.352 N 
ATOM      4  C   UNL A   1      33.208  24.614  23.212  1.00  0.00     0.252 C 
ATOM      5  O   UNL A   1      32.712  25.158  22.224  1.00  0.00    -0.269 OA
ATOM      6  H   UNL A   1      34.923  25.556  22.928  1.00  0.00     0.163 HD
BRANCH   4   7
ATOM      7  C   UNL A   1      32.321  23.748  24.024  1.00  0.00     0.060 A 
ATOM      8  C   UNL A   1      31.466  24.151  25.052  1.00  0.00     0.100 A 
ATOM      9  C   UNL A   1      30.734  23.193  25.777  1.00  0.00     0.024 A 
ATOM     10  C   UNL A   1      30.974  21.830  25.588  1.00  0.00     0.010 A 
ATOM     11  C   UNL A   1      32.537  22.365  23.839  1.00  0.00     0.024 A 
ATOM     12  C   UNL A   1      31.921  21.402  24.653  1.00  0.00    -0.017 A 
BRANCH   8  13
ATOM     13  S   UNL A   1      31.457  25.812  25.652  1.00  0.00     0.264 S 
ATOM     14  O   UNL A   1      32.801  26.087  26.104  1.00  0.00    -0.201 OA
ATOM     15  O   UNL A   1      30.293  26.004  26.488  1.00  0.00    -0.201 OA
BRANCH  13  16
ATOM     16  N   UNL A   1      31.254  26.756  24.303  1.00  0.00    -0.249 N 
ATOM     17  C   UNL A   1      31.604  29.038  25.266  1.00  0.00     0.115 C 
ATOM     18  C   UNL A   1      31.683  28.079  24.113  1.00  0.00     0.230 C 
ATOM     19  O   UNL A   1      31.926  28.455  22.974  1.00  0.00    -0.274 OA
ATOM     20  H   UNL A   1      30.779  26.340  23.548  1.00  0.00     0.183 HD
ENDBRANCH  13  16
ENDBRANCH   8  13
BRANCH  12  21
ATOM     21  C   UNL A   1      32.402  19.999  24.644  1.00  0.00    -0.011 A 
ATOM     22  C   UNL A   1      32.655  19.277  25.883  1.00  0.00     0.027 A 
ATOM     23  C   UNL A   1      32.532  19.335  23.481  1.00  0.00     0.080 A 
ATOM     24  C   UNL A   1      32.983  17.981  25.872  1.00  0.00     0.095 A 
ATOM     25  C   UNL A   1      32.898  17.889  23.452  1.00  0.00     0.255 A 
ATOM     26  N   UNL A   1      33.100  17.288  24.684  1.00  0.00    -0.258 N 
ATOM     27  O   UNL A   1      32.979  17.328  22.364  1.00  0.00    -0.269 OA
BRANCH  26  28
ATOM     28  C   UNL A   1      33.413  15.882  24.690  1.00  0.00     0.451 C 
ATOM     29  F   UNL A   1      34.747  15.681  24.825  1.00  0.00    -0.185 F 
ATOM     30  F   UNL A   1      32.788  15.243  25.709  1.00  0.00    -0.185 F 
ENDBRANCH  26  28
ENDBRANCH  12  21
ENDBRANCH   4   7
ENDBRANCH   2   3
ENDBRANCH   1   2
BRANCH   1  31
ATOM     31  C   UNL A   1      35.923  22.335  25.855  1.00  0.00     0.118 C 
BRANCH  31  32
ATOM     32  N   UNL A   1      36.927  21.287  25.767  1.00  0.00    -0.352 N 
ATOM     33  C   UNL A   1      38.300  21.362  25.805  1.00  0.00     0.251 C 
ATOM     34  H   UNL A   1      36.567  20.377  25.665  1.00  0.00     0.163 HD
ATOM     35  O   UNL A   1      38.945  20.407  25.376  1.00  0.00    -0.269 OA
BRANCH  33  36
ATOM     36  C   UNL A   1      39.016  22.546  26.347  1.00  0.00     0.039 A 
ATOM     37  C   UNL A   1      38.568  23.825  25.989  1.00  0.00     0.014 A 
ATOM     38  C   UNL A   1      40.190  22.424  27.097  1.00  0.00     0.014 A 
ATOM     39  C   UNL A   1      39.275  24.966  26.391  1.00  0.00     0.010 A 
ATOM     40  C   UNL A   1      40.860  23.564  27.552  1.00  0.00     0.010 A 
ATOM     41  C   UNL A   1      40.425  24.847  27.184  1.00  0.00    -0.014 A 
BRANCH  41  42
ATOM     42  C   UNL A   1      41.230  26.039  27.574  1.00  0.00     0.031 A 
ATOM     43  C   UNL A   1      40.583  27.163  28.342  1.00  0.00     0.074 A 
ATOM     44  C   UNL A   1      42.517  26.152  27.193  1.00  0.00     0.049 A 
ATOM     45  N   UNL A   1      41.058  28.344  28.653  1.00  0.00    -0.248 NA
ATOM     46  C   UNL A   1      39.202  26.936  28.789  1.00  0.00     0.031 C 
ATOM     47  C   UNL A   1      43.262  25.159  26.419  1.00  0.00     0.029 A 
ATOM     48  N   UNL A   1      43.420  27.168  27.387  1.00  0.00    -0.354 N 
ATOM     49  C   UNL A   1      40.020  29.016  29.293  1.00  0.00     0.074 A 
ATOM     50  C   UNL A   1      38.882  28.118  29.292  1.00  0.00     0.031 C 
ATOM     51  C   UNL A   1      44.506  25.616  26.201  1.00  0.00     0.029 A 
ATOM     52  C   UNL A   1      44.638  26.945  26.790  1.00  0.00     0.049 A 
ATOM     53  H   UNL A   1      43.215  27.981  27.905  1.00  0.00     0.167 HD
ATOM     54  C   UNL A   1      40.015  30.258  29.840  1.00  0.00     0.034 A 
ATOM     55  C   UNL A   1      45.731  27.729  26.707  1.00  0.00     0.034 A 
ATOM     56  C   UNL A   1      41.163  31.132  29.874  1.00  0.00     0.049 A 
ATOM     57  C   UNL A   1      45.722  29.087  27.356  1.00  0.00     0.074 A 
ATOM     58  C   UNL A   1      41.282  32.384  30.457  1.00  0.00     0.029 A 
ATOM     59  N   UNL A   1      42.395  30.845  29.303  1.00  0.00    -0.354 N 
ATOM     60  N   UNL A   1      44.739  29.701  27.970  1.00  0.00    -0.248 NA
ATOM     61  C   UNL A   1      46.977  29.852  27.307  1.00  0.00     0.031 C 
ATOM     62  C   UNL A   1      42.571  32.868  30.203  1.00  0.00     0.029 A 
ATOM     63  C   UNL A   1      43.273  31.900  29.505  1.00  0.00     0.049 A 
ATOM     64  H   UNL A   1      42.614  30.014  28.822  1.00  0.00     0.167 HD
ATOM     65  C   UNL A   1      45.261  30.921  28.390  1.00  0.00     0.074 A 
ATOM     66  C   UNL A   1      46.647  30.950  27.971  1.00  0.00     0.031 C 
ATOM     67  C   UNL A   1      44.647  31.925  29.066  1.00  0.00     0.034 A 
BRANCH  54  68
ATOM     68  C   UNL A   1      38.708  30.749  30.414  1.00  0.00     0.023 A 
ATOM     69  C   UNL A   1      37.709  31.314  29.603  1.00  0.00     0.031 A 
ATOM     70  C   UNL A   1      38.482  30.706  31.802  1.00  0.00     0.131 A 
ATOM     71  C   UNL A   1      36.577  31.897  30.191  1.00  0.00     0.055 A 
ATOM     72  C   UNL A   1      37.314  31.214  32.375  1.00  0.00     0.041 A 
ATOM     73  F   UNL A   1      39.406  30.193  32.629  1.00  0.00    -0.206 F 
ATOM     74  C   UNL A   1      36.362  31.832  31.568  1.00  0.00     0.022 A 
BRANCH  71  75
ATOM     75  S   UNL A   1      35.473  32.885  29.144  1.00  0.00     0.124 S 
ATOM     76  O   UNL A   1      34.203  32.763  29.857  1.00  0.00    -0.237 OA
ATOM     77  O   UNL A   1      36.100  34.201  29.176  1.00  0.00    -0.237 OA
ATOM     78  O   UNL A   1      35.521  32.201  27.853  1.00  0.00    -0.744 OA
ENDBRANCH  71  75
ENDBRANCH  54  68
BRANCH  55  79
ATOM     79  C   UNL A   1      46.922  27.263  25.950  1.00  0.00     0.023 A 
ATOM     80  C   UNL A   1      47.127  27.642  24.615  1.00  0.00     0.031 A 
ATOM     81  C   UNL A   1      47.865  26.413  26.555  1.00  0.00     0.131 A 
ATOM     82  C   UNL A   1      48.239  27.148  23.914  1.00  0.00     0.055 A 
ATOM     83  C   UNL A   1      48.985  25.951  25.864  1.00  0.00     0.041 A 
ATOM     84  F   UNL A   1      47.712  26.034  27.833  1.00  0.00    -0.206 F 
ATOM     85  C   UNL A   1      49.173  26.312  24.533  1.00  0.00     0.022 A 
BRANCH  82  86
ATOM     86  S   UNL A   1      48.427  27.586  22.165  1.00  0.00     0.124 S 
ATOM     87  O   UNL A   1      49.599  28.452  22.197  1.00  0.00    -0.237 OA
ATOM     88  O   UNL A   1      48.611  26.279  21.544  1.00  0.00    -0.237 OA
ATOM     89  O   UNL A   1      47.165  28.252  21.843  1.00  0.00    -0.744 OA
ENDBRANCH  82  86
ENDBRANCH  55  79
BRANCH  67  90
ATOM     90  C   UNL A   1      45.491  33.120  29.419  1.00  0.00     0.023 A 
ATOM     91  C   UNL A   1      45.576  34.237  28.570  1.00  0.00     0.031 A 
ATOM     92  C   UNL A   1      46.235  33.130  30.611  1.00  0.00     0.131 A 
ATOM     93  C   UNL A   1      46.420  35.306  28.907  1.00  0.00     0.055 A 
ATOM     94  C   UNL A   1      47.045  34.211  30.960  1.00  0.00     0.041 A 
ATOM     95  F   UNL A   1      46.189  32.085  31.453  1.00  0.00    -0.206 F 
ATOM     96  C   UNL A   1      47.148  35.304  30.101  1.00  0.00     0.022 A 
BRANCH  93  97
ATOM     97  S   UNL A   1      46.607  36.677  27.735  1.00  0.00     0.124 S 
ATOM     98  O   UNL A   1      45.283  36.738  27.125  1.00  0.00    -0.237 OA
ATOM     99  O   UNL A   1      46.959  37.791  28.609  1.00  0.00    -0.237 OA
ATOM    100  O   UNL A   1      47.678  36.228  26.847  1.00  0.00    -0.744 OA
ENDBRANCH  93  97
ENDBRANCH  67  90
ENDBRANCH  41  42
ENDBRANCH  33  36
ENDBRANCH  31  32
ENDBRANCH   1  31
TORSDOF 17
ENDMDL
MODEL 3
REMARK VINA RESULT:     -12.3      1.434      1.587
REMARK SMILES CC(=O)NS(=O)(=O)c1ccc(-c2ccn(C(F)F)c(=O)c2)cc1C(=O)NCCCNC(=O)c1ccc(-c2c3nc(c(-c4cc(S(=O)(=O)[O-])ccc4F)c4ccc([nH]4)c(-c4cc(S(=O)(=O)[O-])ccc4F)c4nc(c(-c5cc(S(=O)(=O)[O-])ccc5F)c5ccc2[nH]5)C=C4)C=C3)cc1
REMARK SMILES IDX 28 1 27 2 26 3 24 4 25 5 23 7 8 8 9 9 10 10 22 11 11 12 5 13
REMARK SMILES IDX 6 14 7 15 4 16 1 17 2 18 3 19 12 21 13 22 21 23 14 24 19 25
REMARK SMILES IDX 15 26 20 27 16 28 17 29 18 30 29 31 30 32 31 33 32 35 33 36
REMARK SMILES IDX 34 37 95 38 35 39 94 40 36 41 37 42 38 43 88 44 39 45 93 46
REMARK SMILES IDX 87 47 89 48 40 49 92 50 86 51 85 52 41 54 73 55 53 56 72 57
REMARK SMILES IDX 54 58 57 59 71 60 90 61 55 62 56 63 70 65 91 66 58 67 42 68
REMARK SMILES IDX 43 69 51 70 44 71 50 72 52 73 49 74 45 75 46 76 47 77 48 78
REMARK SMILES IDX 74 79 75 80 83 81 76 82 82 83 84 84 81 85 77 86 78 87 79 88
REMARK SMILES IDX 80 89 59 90 60 91 68 92 61 93 67 94 69 95 66 96 62 97 63 98
REMARK SMILES IDX 64 99 65 100
REMARK H PARENT 26 6 4 20 30 34 89 53 57 64
REMARK Flexibility Score: inf
ROOT
ATOM      1  C   UNL A   1      32.600  29.197  27.300  1.00  0.00     0.042 C 
ENDROOT
BRANCH   1   2
ATOM      2  C   UNL A   1      32.895  27.713  27.054  1.00  0.00     0.118 C 
BRANCH   2   3
ATOM      3  N   UNL A   1      31.661  26.945  26.969  1.00  0.00    -0.352 N 
ATOM      4  C   UNL A   1      31.215  25.985  26.103  1.00  0.00     0.252 C 
ATOM      5  O   UNL A   1      30.121  25.463  26.318  1.00  0.00    -0.269 OA
ATOM      6  H   UNL A   1      31.016  27.161  27.680  1.00  0.00     0.163 HD
BRANCH   4   7
ATOM      7  C   UNL A   1      32.019  25.437  24.985  1.00  0.00     0.060 A 
ATOM      8  C   UNL A   1      32.146  25.973  23.701  1.00  0.00     0.100 A 
ATOM      9  C   UNL A   1      32.896  25.293  22.725  1.00  0.00     0.024 A 
ATOM     10  C   UNL A   1      33.384  24.009  22.976  1.00  0.00     0.010 A 
ATOM     11  C   UNL A   1      32.532  24.143  25.223  1.00  0.00     0.024 A 
ATOM     12  C   UNL A   1      33.158  23.397  24.212  1.00  0.00    -0.017 A 
BRANCH   8  13
ATOM     13  S   UNL A   1      31.184  27.358  23.176  1.00  0.00     0.264 S 
ATOM     14  O   UNL A   1      30.971  27.188  21.757  1.00  0.00    -0.201 OA
ATOM     15  O   UNL A   1      31.744  28.562  23.747  1.00  0.00    -0.201 OA
BRANCH  13  16
ATOM     16  N   UNL A   1      29.693  27.134  23.866  1.00  0.00    -0.249 N 
ATOM     17  C   UNL A   1      28.429  29.064  22.901  1.00  0.00     0.115 C 
ATOM     18  C   UNL A   1      28.465  27.663  23.440  1.00  0.00     0.230 C 
ATOM     19  O   UNL A   1      27.442  27.043  23.696  1.00  0.00    -0.274 OA
ATOM     20  H   UNL A   1      29.665  26.562  24.667  1.00  0.00     0.183 HD
ENDBRANCH  13  16
ENDBRANCH   8  13
BRANCH  12  21
ATOM     21  C   UNL A   1      33.400  21.945  24.399  1.00  0.00    -0.011 A 
ATOM     22  C   UNL A   1      32.340  20.968  24.189  1.00  0.00     0.027 A 
ATOM     23  C   UNL A   1      34.634  21.495  24.684  1.00  0.00     0.080 A 
ATOM     24  C   UNL A   1      32.589  19.656  24.251  1.00  0.00     0.095 A 
ATOM     25  C   UNL A   1      34.929  20.034  24.758  1.00  0.00     0.255 A 
ATOM     26  N   UNL A   1      33.858  19.186  24.525  1.00  0.00    -0.258 N 
ATOM     27  O   UNL A   1      36.079  19.680  24.998  1.00  0.00    -0.269 OA
BRANCH  26  28
ATOM     28  C   UNL A   1      34.119  17.770  24.548  1.00  0.00     0.451 C 
ATOM     29  F   UNL A   1      33.023  17.079  24.948  1.00  0.00    -0.185 F 
ATOM     30  F   UNL A   1      34.477  17.315  23.322  1.00  0.00    -0.185 F 
ENDBRANCH  26  28
ENDBRANCH  12  21
ENDBRANCH   4   7
ENDBRANCH   2   3
ENDBRANCH   1   2
BRANCH   1  31
ATOM     31  C   UNL A   1      33.654  30.144  26.724  1.00  0.00     0.118 C 
BRANCH  31  32
ATOM     32  N   UNL A   1      33.710  31.383  27.484  1.00  0.00    -0.352 N 
ATOM     33  C   UNL A   1      34.525  31.752  28.528  1.00  0.00     0.251 C 
ATOM     34  H   UNL A   1      33.060  32.068  27.206  1.00  0.00     0.163 HD
ATOM     35  O   UNL A   1      34.174  32.699  29.231  1.00  0.00    -0.269 OA
BRANCH  33  36
ATOM     36  C   UNL A   1      35.804  31.054  28.823  1.00  0.00     0.039 A 
ATOM     37  C   UNL A   1      35.779  29.934  29.664  1.00  0.00     0.014 A 
ATOM     38  C   UNL A   1      37.037  31.553  28.393  1.00  0.00     0.014 A 
ATOM     39  C   UNL A   1      36.971  29.308  30.053  1.00  0.00     0.010 A 
ATOM     40  C   UNL A   1      38.223  30.891  28.730  1.00  0.00     0.010 A 
ATOM     41  C   UNL A   1      38.206  29.777  29.583  1.00  0.00    -0.014 A 
BRANCH  41  42
ATOM     42  C   UNL A   1      39.492  29.170  30.030  1.00  0.00     0.031 A 
ATOM     43  C   UNL A   1      40.268  29.802  31.157  1.00  0.00     0.074 A 
ATOM     44  C   UNL A   1      40.001  28.098  29.394  1.00  0.00     0.049 A 
ATOM     45  N   UNL A   1      41.468  29.524  31.603  1.00  0.00    -0.248 NA
ATOM     46  C   UNL A   1      39.615  30.920  31.851  1.00  0.00     0.031 C 
ATOM     47  C   UNL A   1      39.376  27.405  28.268  1.00  0.00     0.029 A 
ATOM     48  N   UNL A   1      41.177  27.416  29.594  1.00  0.00    -0.354 N 
ATOM     49  C   UNL A   1      41.731  30.460  32.600  1.00  0.00     0.074 A 
ATOM     50  C   UNL A   1      40.576  31.332  32.664  1.00  0.00     0.031 C 
ATOM     51  C   UNL A   1      40.175  26.399  27.873  1.00  0.00     0.029 A 
ATOM     52  C   UNL A   1      41.382  26.396  28.695  1.00  0.00     0.049 A 
ATOM     53  H   UNL A   1      41.813  27.637  30.311  1.00  0.00     0.167 HD
ATOM     54  C   UNL A   1      42.825  30.577  33.395  1.00  0.00     0.034 A 
ATOM     55  C   UNL A   1      42.431  25.565  28.536  1.00  0.00     0.034 A 
ATOM     56  C   UNL A   1      43.956  29.682  33.353  1.00  0.00     0.049 A 
ATOM     57  C   UNL A   1      43.617  25.683  29.454  1.00  0.00     0.074 A 
ATOM     58  C   UNL A   1      45.086  29.676  34.156  1.00  0.00     0.029 A 
ATOM     59  N   UNL A   1      44.100  28.627  32.462  1.00  0.00    -0.354 N 
ATOM     60  N   UNL A   1      43.844  26.562  30.400  1.00  0.00    -0.248 NA
ATOM     61  C   UNL A   1      44.686  24.687  29.285  1.00  0.00     0.031 C 
ATOM     62  C   UNL A   1      45.929  28.644  33.723  1.00  0.00     0.029 A 
ATOM     63  C   UNL A   1      45.304  27.975  32.683  1.00  0.00     0.049 A 
ATOM     64  H   UNL A   1      43.443  28.379  31.772  1.00  0.00     0.167 HD
ATOM     65  C   UNL A   1      45.077  26.219  30.947  1.00  0.00     0.074 A 
ATOM     66  C   UNL A   1      45.538  25.045  30.234  1.00  0.00     0.031 C 
ATOM     67  C   UNL A   1      45.762  26.818  31.954  1.00  0.00     0.034 A 
BRANCH  54  68
ATOM     68  C   UNL A   1      42.854  31.745  34.352  1.00  0.00     0.023 A 
ATOM     69  C   UNL A   1      42.445  31.615  35.690  1.00  0.00     0.031 A 
ATOM     70  C   UNL A   1      43.240  33.020  33.902  1.00  0.00     0.131 A 
ATOM     71  C   UNL A   1      42.340  32.753  36.503  1.00  0.00     0.055 A 
ATOM     72  C   UNL A   1      43.213  34.137  34.742  1.00  0.00     0.041 A 
ATOM     73  F   UNL A   1      43.625  33.210  32.631  1.00  0.00    -0.206 F 
ATOM     74  C   UNL A   1      42.742  34.009  36.046  1.00  0.00     0.022 A 
BRANCH  71  75
ATOM     75  S   UNL A   1      41.516  32.591  38.112  1.00  0.00     0.124 S 
ATOM     76  O   UNL A   1      41.669  33.939  38.657  1.00  0.00    -0.237 OA
ATOM     77  O   UNL A   1      40.162  32.203  37.736  1.00  0.00    -0.237 OA
ATOM     78  O   UNL A   1      42.297  31.560  38.794  1.00  0.00    -0.744 OA
ENDBRANCH  71  75
ENDBRANCH  54  68
BRANCH  55  79
ATOM     79  C   UNL A   1      42.423  24.563  27.438  1.00  0.00     0.023 A 
ATOM     80  C   UNL A   1      41.676  23.380  27.543  1.00  0.00     0.031 A 
ATOM     81  C   UNL A   1      43.181  24.772  26.273  1.00  0.00     0.131 A 
ATOM     82  C   UNL A   1      41.724  22.433  26.508  1.00  0.00     0.055 A 
ATOM     83  C   UNL A   1      43.201  23.842  25.234  1.00  0.00     0.041 A 
ATOM     84  F   UNL A   1      43.903  25.894  26.129  1.00  0.00    -0.206 F 
ATOM     85  C   UNL A   1      42.475  22.660  25.351  1.00  0.00     0.022 A 
BRANCH  82  86
ATOM     86  S   UNL A   1      40.817  20.876  26.713  1.00  0.00     0.124 S 
ATOM     87  O   UNL A   1      39.528  21.200  26.116  1.00  0.00    -0.237 OA
ATOM     88  O   UNL A   1      41.652  19.939  25.969  1.00  0.00    -0.237 OA
ATOM     89  O   UNL A   1      40.804  20.678  28.161  1.00  0.00    -0.744 OA
ENDBRANCH  82  86
ENDBRANCH  55  79
BRANCH  67  90
ATOM     90  C   UNL A   1      47.067  26.187  32.356  1.00  0.00     0.023 A 
ATOM     91  C   UNL A   1      48.271  26.504  31.704  1.00  0.00     0.031 A 
ATOM     92  C   UNL A   1      47.101  25.239  33.394  1.00  0.00     0.131 A 
ATOM     93  C   UNL A   1      49.456  25.849  32.070  1.00  0.00     0.055 A 
ATOM     94  C   UNL A   1      48.288  24.617  33.779  1.00  0.00     0.041 A 
ATOM     95  F   UNL A   1      45.977  24.901  34.045  1.00  0.00    -0.206 F 
ATOM     96  C   UNL A   1      49.474  24.914  33.110  1.00  0.00     0.022 A 
BRANCH  93  97
ATOM     97  S   UNL A   1      50.969  26.186  31.129  1.00  0.00     0.124 S 
ATOM     98  O   UNL A   1      51.342  27.510  31.616  1.00  0.00    -0.237 OA
ATOM     99  O   UNL A   1      51.841  25.089  31.534  1.00  0.00    -0.237 OA
ATOM    100  O   UNL A   1      50.526  26.139  29.736  1.00  0.00    -0.744 OA
ENDBRANCH  93  97
ENDBRANCH  67  90
ENDBRANCH  41  42
ENDBRANCH  33  36
ENDBRANCH  31  32
ENDBRANCH   1  31
TORSDOF 17
ENDMDL
