MODEL 1
REMARK VINA RESULT:     -12.3      0.000      0.000
REMARK SMILES O=C(C[C@H]1C(=O)NCC[N@@H+]1Cc1ccc(Cl)c(F)c1)NCCCNC(=O)c1ccc(-c2c3nc(c(-c4cc(S(=O)(=O)[O-])ccc4F)c4ccc([nH]4)c(-c4cc(S(=O)(=O)[O-])ccc4F)c4nc(c(-c5cc(S(=O)(=O)[O-])ccc5F)c5ccc2[nH]5)C=C4)C=C3)cc1
REMARK SMILES IDX 22 1 21 2 20 3 1 4 2 5 3 7 4 8 5 9 10 10 6 11 7 12 9 13 8 15
REMARK SMILES IDX 11 17 12 18 13 19 19 20 14 21 17 22 15 23 18 24 16 25 23 26
REMARK SMILES IDX 24 27 25 28 26 30 27 31 28 32 89 33 29 34 88 35 30 36 31 37
REMARK SMILES IDX 32 38 82 39 33 40 87 41 81 42 83 43 34 44 86 45 80 46 79 47
REMARK SMILES IDX 35 49 67 50 47 51 66 52 48 53 51 54 65 55 84 56 49 57 50 58
REMARK SMILES IDX 64 60 85 61 52 62 36 63 37 64 45 65 38 66 44 67 46 68 43 69
REMARK SMILES IDX 39 70 40 71 41 72 42 73 68 74 69 75 77 76 70 77 76 78 78 79
REMARK SMILES IDX 75 80 71 81 72 82 73 83 74 84 53 85 54 86 62 87 55 88 61 89
REMARK SMILES IDX 63 90 60 91 56 92 57 93 58 94 59 95
REMARK H PARENT 20 6 10 14 7 16 24 29 83 48 51 59
REMARK Flexibility Score: inf
ROOT
ATOM      1  C   UNL A   1      36.849  21.674  24.100  1.00  0.00     0.042 C 
ENDROOT
BRANCH   1   2
ATOM      2  C   UNL A   1      36.443  22.982  23.433  1.00  0.00     0.117 C 
BRANCH   2   3
ATOM      3  N   UNL A   1      35.639  23.852  24.270  1.00  0.00    -0.356 N 
ATOM      4  O   UNL A   1      34.419  24.725  22.534  1.00  0.00    -0.275 OA
ATOM      5  C   UNL A   1      34.590  24.572  23.737  1.00  0.00     0.226 C 
ATOM      6  H   UNL A   1      35.846  23.930  25.228  1.00  0.00     0.163 HD
BRANCH   5   7
ATOM      7  C   UNL A   1      33.616  25.111  24.766  1.00  0.00     0.175 C 
BRANCH   7   8
ATOM      8  C   UNL A   1      32.625  24.054  25.311  1.00  0.00     0.283 C 
ATOM      9  C   UNL A   1      31.317  24.679  25.828  1.00  0.00     0.279 C 
ATOM     10  N   UNL A   1      32.364  22.965  24.322  1.00  0.00    -0.319 N 
ATOM     11  O   UNL A   1      31.178  25.047  26.993  1.00  0.00    -0.268 OA
ATOM     12  N   UNL A   1      30.304  24.843  24.924  1.00  0.00    -0.345 N 
ATOM     13  C   UNL A   1      31.519  23.425  23.214  1.00  0.00     0.284 C 
ATOM     14  H   UNL A   1      33.271  22.739  23.916  1.00  0.00     0.349 HD
ATOM     15  C   UNL A   1      30.301  24.294  23.585  1.00  0.00     0.177 C 
ATOM     16  H   UNL A   1      29.522  25.370  25.204  1.00  0.00     0.163 HD
BRANCH  10  17
ATOM     17  C   UNL A   1      31.945  21.677  24.911  1.00  0.00     0.299 C 
BRANCH  17  18
ATOM     18  C   UNL A   1      32.608  20.420  24.390  1.00  0.00     0.009 A 
ATOM     19  C   UNL A   1      33.725  19.876  25.046  1.00  0.00     0.011 A 
ATOM     20  C   UNL A   1      32.083  19.734  23.285  1.00  0.00     0.050 A 
ATOM     21  C   UNL A   1      34.246  18.636  24.664  1.00  0.00     0.024 A 
ATOM     22  C   UNL A   1      32.597  18.492  22.918  1.00  0.00     0.142 A 
ATOM     23  C   UNL A   1      33.665  17.933  23.611  1.00  0.00     0.076 A 
ATOM     24  F   UNL A   1      32.013  17.832  21.908  1.00  0.00    -0.205 F 
ATOM     25  Cl  UNL A   1      34.266  16.375  23.195  1.00  0.00    -0.081 Cl
ENDBRANCH  17  18
ENDBRANCH  10  17
ENDBRANCH   7   8
ENDBRANCH   5   7
ENDBRANCH   2   3
ENDBRANCH   1   2
BRANCH   1  26
ATOM     26  C   UNL A   1      37.510  21.794  25.471  1.00  0.00     0.118 C 
BRANCH  26  27
ATOM     27  N   UNL A   1      38.580  20.838  25.711  1.00  0.00    -0.352 N 
ATOM     28  C   UNL A   1      39.772  21.011  26.380  1.00  0.00     0.251 C 
ATOM     29  H   UNL A   1      38.431  19.938  25.342  1.00  0.00     0.163 HD
ATOM     30  O   UNL A   1      40.547  20.065  26.487  1.00  0.00    -0.269 OA
BRANCH  28  31
ATOM     31  C   UNL A   1      40.148  22.348  26.898  1.00  0.00     0.039 A 
ATOM     32  C   UNL A   1      41.059  22.410  27.957  1.00  0.00     0.014 A 
ATOM     33  C   UNL A   1      39.670  23.523  26.315  1.00  0.00     0.014 A 
ATOM     34  C   UNL A   1      41.576  23.645  28.357  1.00  0.00     0.010 A 
ATOM     35  C   UNL A   1      40.228  24.750  26.677  1.00  0.00     0.010 A 
ATOM     36  C   UNL A   1      41.209  24.819  27.679  1.00  0.00    -0.014 A 
BRANCH  36  37
ATOM     37  C   UNL A   1      41.894  26.110  27.956  1.00  0.00     0.031 A 
ATOM     38  C   UNL A   1      41.182  27.213  28.685  1.00  0.00     0.074 A 
ATOM     39  C   UNL A   1      43.137  26.315  27.473  1.00  0.00     0.049 A 
ATOM     40  N   UNL A   1      41.577  28.438  28.924  1.00  0.00    -0.248 NA
ATOM     41  C   UNL A   1      39.836  26.904  29.190  1.00  0.00     0.031 C 
ATOM     42  C   UNL A   1      43.922  25.334  26.719  1.00  0.00     0.029 A 
ATOM     43  N   UNL A   1      43.953  27.418  27.528  1.00  0.00    -0.354 N 
ATOM     44  C   UNL A   1      40.529  29.050  29.601  1.00  0.00     0.074 A 
ATOM     45  C   UNL A   1      39.462  28.073  29.688  1.00  0.00     0.031 C 
ATOM     46  C   UNL A   1      45.106  25.876  26.391  1.00  0.00     0.029 A 
ATOM     47  C   UNL A   1      45.149  27.254  26.869  1.00  0.00     0.049 A 
ATOM     48  H   UNL A   1      43.704  28.248  27.994  1.00  0.00     0.167 HD
ATOM     49  C   UNL A   1      40.469  30.305  30.116  1.00  0.00     0.034 A 
ATOM     50  C   UNL A   1      46.160  28.119  26.653  1.00  0.00     0.034 A 
ATOM     51  C   UNL A   1      41.541  31.267  30.026  1.00  0.00     0.049 A 
ATOM     52  C   UNL A   1      46.053  29.519  27.199  1.00  0.00     0.074 A 
ATOM     53  C   UNL A   1      41.605  32.540  30.567  1.00  0.00     0.029 A 
ATOM     54  N   UNL A   1      42.735  31.069  29.341  1.00  0.00    -0.354 N 
ATOM     55  N   UNL A   1      45.072  30.069  27.875  1.00  0.00    -0.248 NA
ATOM     56  C   UNL A   1      47.192  30.413  26.952  1.00  0.00     0.031 C 
ATOM     57  C   UNL A   1      42.806  33.134  30.156  1.00  0.00     0.029 A 
ATOM     58  C   UNL A   1      43.523  32.209  29.415  1.00  0.00     0.049 A 
ATOM     59  H   UNL A   1      42.984  30.240  28.872  1.00  0.00     0.167 HD
ATOM     60  C   UNL A   1      45.486  31.368  28.153  1.00  0.00     0.074 A 
ATOM     61  C   UNL A   1      46.811  31.513  27.586  1.00  0.00     0.031 C 
ATOM     62  C   UNL A   1      44.831  32.350  28.823  1.00  0.00     0.034 A 
BRANCH  49  63
ATOM     63  C   UNL A   1      39.184  30.712  30.795  1.00  0.00     0.023 A 
ATOM     64  C   UNL A   1      38.156  31.367  30.095  1.00  0.00     0.031 A 
ATOM     65  C   UNL A   1      38.995  30.466  32.167  1.00  0.00     0.131 A 
ATOM     66  C   UNL A   1      37.020  31.822  30.782  1.00  0.00     0.055 A 
ATOM     67  C   UNL A   1      37.827  30.851  32.829  1.00  0.00     0.041 A 
ATOM     68  F   UNL A   1      39.949  29.862  32.890  1.00  0.00    -0.206 F 
ATOM     69  C   UNL A   1      36.838  31.547  32.139  1.00  0.00     0.022 A 
BRANCH  66  70
ATOM     70  S   UNL A   1      35.854  32.900  29.907  1.00  0.00     0.124 S 
ATOM     71  O   UNL A   1      34.889  31.933  29.391  1.00  0.00    -0.237 OA
ATOM     72  O   UNL A   1      35.377  33.776  30.971  1.00  0.00    -0.237 OA
ATOM     73  O   UNL A   1      36.682  33.546  28.891  1.00  0.00    -0.744 OA
ENDBRANCH  66  70
ENDBRANCH  49  63
BRANCH  50  74
ATOM     74  C   UNL A   1      47.350  27.705  25.859  1.00  0.00     0.023 A 
ATOM     75  C   UNL A   1      47.408  27.928  24.474  1.00  0.00     0.031 A 
ATOM     76  C   UNL A   1      48.430  27.043  26.468  1.00  0.00     0.131 A 
ATOM     77  C   UNL A   1      48.503  27.455  23.735  1.00  0.00     0.055 A 
ATOM     78  C   UNL A   1      49.540  26.616  25.736  1.00  0.00     0.041 A 
ATOM     79  F   UNL A   1      48.427  26.811  27.790  1.00  0.00    -0.206 F 
ATOM     80  C   UNL A   1      49.575  26.811  24.359  1.00  0.00     0.022 A 
BRANCH  77  81
ATOM     81  S   UNL A   1      48.474  27.631  21.931  1.00  0.00     0.124 S 
ATOM     82  O   UNL A   1      49.611  28.516  21.701  1.00  0.00    -0.237 OA
ATOM     83  O   UNL A   1      48.635  26.250  21.490  1.00  0.00    -0.237 OA
ATOM     84  O   UNL A   1      47.163  28.218  21.667  1.00  0.00    -0.744 OA
ENDBRANCH  77  81
ENDBRANCH  50  74
BRANCH  62  85
ATOM     85  C   UNL A   1      45.562  33.658  28.994  1.00  0.00     0.023 A 
ATOM     86  C   UNL A   1      45.309  34.759  28.157  1.00  0.00     0.031 A 
ATOM     87  C   UNL A   1      46.541  33.797  29.994  1.00  0.00     0.131 A 
ATOM     88  C   UNL A   1      46.062  35.934  28.300  1.00  0.00     0.055 A 
ATOM     89  C   UNL A   1      47.249  34.988  30.167  1.00  0.00     0.041 A 
ATOM     90  F   UNL A   1      46.824  32.777  30.820  1.00  0.00    -0.206 F 
ATOM     91  C   UNL A   1      47.020  36.061  29.310  1.00  0.00     0.022 A 
BRANCH  88  92
ATOM     92  S   UNL A   1      45.829  37.272  27.097  1.00  0.00     0.124 S 
ATOM     93  O   UNL A   1      46.332  38.429  27.830  1.00  0.00    -0.237 OA
ATOM     94  O   UNL A   1      46.643  36.825  25.972  1.00  0.00    -0.237 OA
ATOM     95  O   UNL A   1      44.387  37.269  26.857  1.00  0.00    -0.744 OA
ENDBRANCH  88  92
ENDBRANCH  62  85
ENDBRANCH  36  37
ENDBRANCH  28  31
ENDBRANCH  26  27
ENDBRANCH   1  26
TORSDOF 16
ENDMDL
MODEL 2
REMARK VINA RESULT:     -12.2      5.237     10.136
REMARK SMILES O=C(C[C@H]1C(=O)NCC[N@@H+]1Cc1ccc(Cl)c(F)c1)NCCCNC(=O)c1ccc(-c2c3nc(c(-c4cc(S(=O)(=O)[O-])ccc4F)c4ccc([nH]4)c(-c4cc(S(=O)(=O)[O-])ccc4F)c4nc(c(-c5cc(S(=O)(=O)[O-])ccc5F)c5ccc2[nH]5)C=C4)C=C3)cc1
REMARK SMILES IDX 22 1 21 2 20 3 1 4 2 5 3 7 4 8 5 9 10 10 6 11 7 12 9 13 8 15
REMARK SMILES IDX 11 17 12 18 13 19 19 20 14 21 17 22 15 23 18 24 16 25 23 26
REMARK SMILES IDX 24 27 25 28 26 30 27 31 28 32 89 33 29 34 88 35 30 36 31 37
REMARK SMILES IDX 32 38 82 39 33 40 87 41 81 42 83 43 34 44 86 45 80 46 79 47
REMARK SMILES IDX 35 49 67 50 47 51 66 52 48 53 51 54 65 55 84 56 49 57 50 58
REMARK SMILES IDX 64 60 85 61 52 62 36 63 37 64 45 65 38 66 44 67 46 68 43 69
REMARK SMILES IDX 39 70 40 71 41 72 42 73 68 74 69 75 77 76 70 77 76 78 78 79
REMARK SMILES IDX 75 80 71 81 72 82 73 83 74 84 53 85 54 86 62 87 55 88 61 89
REMARK SMILES IDX 63 90 60 91 56 92 57 93 58 94 59 95
REMARK H PARENT 20 6 10 14 7 16 24 29 83 48 51 59
REMARK Flexibility Score: inf
ROOT
ATOM      1  C   UNL A   1      31.778  28.407  26.595  1.00  0.00     0.042 C 
ENDROOT
BRANCH   1   2
ATOM      2  C   UNL A   1      31.681  27.127  25.773  1.00  0.00     0.117 C 
BRANCH   2   3
ATOM      3  N   UNL A   1      32.737  26.169  26.038  1.00  0.00    -0.356 N 
ATOM      4  O   UNL A   1      31.324  24.377  26.273  1.00  0.00    -0.275 OA
ATOM      5  C   UNL A   1      32.458  24.823  26.145  1.00  0.00     0.226 C 
ATOM      6  H   UNL A   1      33.663  26.485  26.143  1.00  0.00     0.163 HD
BRANCH   5   7
ATOM      7  C   UNL A   1      33.672  23.922  26.025  1.00  0.00     0.175 C 
BRANCH   7   8
ATOM      8  C   UNL A   1      33.659  23.008  24.777  1.00  0.00     0.283 C 
ATOM      9  C   UNL A   1      34.648  23.472  23.693  1.00  0.00     0.279 C 
ATOM     10  N   UNL A   1      33.860  21.570  25.129  1.00  0.00    -0.319 N 
ATOM     11  O   UNL A   1      34.331  24.265  22.807  1.00  0.00    -0.268 OA
ATOM     12  N   UNL A   1      35.924  22.986  23.763  1.00  0.00    -0.345 N 
ATOM     13  C   UNL A   1      35.247  21.293  25.520  1.00  0.00     0.284 C 
ATOM     14  H   UNL A   1      33.290  21.409  25.959  1.00  0.00     0.349 HD
ATOM     15  C   UNL A   1      36.351  21.927  24.652  1.00  0.00     0.177 C 
ATOM     16  H   UNL A   1      36.599  23.384  23.168  1.00  0.00     0.163 HD
BRANCH  10  17
ATOM     17  C   UNL A   1      33.297  20.607  24.161  1.00  0.00     0.299 C 
BRANCH  17  18
ATOM     18  C   UNL A   1      33.321  19.141  24.537  1.00  0.00     0.009 A 
ATOM     19  C   UNL A   1      32.642  18.684  25.679  1.00  0.00     0.011 A 
ATOM     20  C   UNL A   1      33.962  18.199  23.719  1.00  0.00     0.050 A 
ATOM     21  C   UNL A   1      32.529  17.316  25.945  1.00  0.00     0.024 A 
ATOM     22  C   UNL A   1      33.834  16.837  23.981  1.00  0.00     0.142 A 
ATOM     23  C   UNL A   1      33.109  16.391  25.081  1.00  0.00     0.076 A 
ATOM     24  F   UNL A   1      34.393  15.966  23.128  1.00  0.00    -0.205 F 
ATOM     25  Cl  UNL A   1      32.905  14.708  25.377  1.00  0.00    -0.081 Cl
ENDBRANCH  17  18
ENDBRANCH  10  17
ENDBRANCH   7   8
ENDBRANCH   5   7
ENDBRANCH   2   3
ENDBRANCH   1   2
BRANCH   1  26
ATOM     26  C   UNL A   1      32.641  29.521  26.008  1.00  0.00     0.118 C 
BRANCH  26  27
ATOM     27  N   UNL A   1      32.342  30.849  26.520  1.00  0.00    -0.352 N 
ATOM     28  C   UNL A   1      33.139  31.701  27.254  1.00  0.00     0.251 C 
ATOM     29  H   UNL A   1      31.442  31.189  26.313  1.00  0.00     0.163 HD
ATOM     30  O   UNL A   1      32.703  32.800  27.584  1.00  0.00    -0.269 OA
BRANCH  28  31
ATOM     31  C   UNL A   1      34.481  31.263  27.705  1.00  0.00     0.039 A 
ATOM     32  C   UNL A   1      35.460  32.241  27.905  1.00  0.00     0.014 A 
ATOM     33  C   UNL A   1      34.759  29.925  27.992  1.00  0.00     0.014 A 
ATOM     34  C   UNL A   1      36.677  31.896  28.497  1.00  0.00     0.010 A 
ATOM     35  C   UNL A   1      35.952  29.590  28.635  1.00  0.00     0.010 A 
ATOM     36  C   UNL A   1      36.908  30.578  28.922  1.00  0.00    -0.014 A 
BRANCH  36  37
ATOM     37  C   UNL A   1      38.108  30.231  29.729  1.00  0.00     0.031 A 
ATOM     38  C   UNL A   1      39.115  29.240  29.219  1.00  0.00     0.074 A 
ATOM     39  C   UNL A   1      38.246  30.754  30.965  1.00  0.00     0.049 A 
ATOM     40  N   UNL A   1      40.161  28.737  29.822  1.00  0.00    -0.248 NA
ATOM     41  C   UNL A   1      38.898  28.728  27.858  1.00  0.00     0.031 C 
ATOM     42  C   UNL A   1      37.318  31.702  31.589  1.00  0.00     0.029 A 
ATOM     43  N   UNL A   1      39.206  30.552  31.925  1.00  0.00    -0.354 N 
ATOM     44  C   UNL A   1      40.728  27.844  28.920  1.00  0.00     0.074 A 
ATOM     45  C   UNL A   1      39.875  27.840  27.747  1.00  0.00     0.031 C 
ATOM     46  C   UNL A   1      37.760  32.005  32.820  1.00  0.00     0.029 A 
ATOM     47  C   UNL A   1      38.974  31.242  33.093  1.00  0.00     0.049 A 
ATOM     48  H   UNL A   1      39.987  29.968  31.791  1.00  0.00     0.167 HD
ATOM     49  C   UNL A   1      41.862  27.109  29.051  1.00  0.00     0.034 A 
ATOM     50  C   UNL A   1      39.646  31.245  34.262  1.00  0.00     0.034 A 
ATOM     51  C   UNL A   1      42.704  27.127  30.223  1.00  0.00     0.049 A 
ATOM     52  C   UNL A   1      40.879  30.389  34.398  1.00  0.00     0.074 A 
ATOM     53  C   UNL A   1      43.905  26.469  30.432  1.00  0.00     0.029 A 
ATOM     54  N   UNL A   1      42.431  27.829  31.391  1.00  0.00    -0.354 N 
ATOM     55  N   UNL A   1      41.426  29.583  33.518  1.00  0.00    -0.248 NA
ATOM     56  C   UNL A   1      41.584  30.447  35.684  1.00  0.00     0.031 C 
ATOM     57  C   UNL A   1      44.323  26.721  31.745  1.00  0.00     0.029 A 
ATOM     58  C   UNL A   1      43.419  27.590  32.335  1.00  0.00     0.049 A 
ATOM     59  H   UNL A   1      41.649  28.411  31.529  1.00  0.00     0.167 HD
ATOM     60  C   UNL A   1      42.553  29.054  34.139  1.00  0.00     0.074 A 
ATOM     61  C   UNL A   1      42.616  29.645  35.461  1.00  0.00     0.031 C 
ATOM     62  C   UNL A   1      43.457  28.165  33.658  1.00  0.00     0.034 A 
BRANCH  49  63
ATOM     63  C   UNL A   1      42.233  26.202  27.903  1.00  0.00     0.023 A 
ATOM     64  C   UNL A   1      41.711  24.902  27.793  1.00  0.00     0.031 A 
ATOM     65  C   UNL A   1      43.143  26.633  26.921  1.00  0.00     0.131 A 
ATOM     66  C   UNL A   1      42.159  24.052  26.770  1.00  0.00     0.055 A 
ATOM     67  C   UNL A   1      43.524  25.810  25.860  1.00  0.00     0.041 A 
ATOM     68  F   UNL A   1      43.689  27.857  26.985  1.00  0.00    -0.206 F 
ATOM     69  C   UNL A   1      43.044  24.505  25.789  1.00  0.00     0.022 A 
BRANCH  66  70
ATOM     70  S   UNL A   1      41.678  22.305  26.825  1.00  0.00     0.124 S 
ATOM     71  O   UNL A   1      42.125  21.835  25.516  1.00  0.00    -0.237 OA
ATOM     72  O   UNL A   1      42.428  21.808  27.973  1.00  0.00    -0.237 OA
ATOM     73  O   UNL A   1      40.229  22.354  27.000  1.00  0.00    -0.744 OA
ENDBRANCH  66  70
ENDBRANCH  49  63
BRANCH  50  74
ATOM     74  C   UNL A   1      39.158  32.058  35.411  1.00  0.00     0.023 A 
ATOM     75  C   UNL A   1      38.513  31.454  36.501  1.00  0.00     0.031 A 
ATOM     76  C   UNL A   1      39.295  33.457  35.415  1.00  0.00     0.131 A 
ATOM     77  C   UNL A   1      37.989  32.249  37.531  1.00  0.00     0.055 A 
ATOM     78  C   UNL A   1      38.814  34.241  36.465  1.00  0.00     0.041 A 
ATOM     79  F   UNL A   1      39.911  34.082  34.399  1.00  0.00    -0.206 F 
ATOM     80  C   UNL A   1      38.146  33.638  37.526  1.00  0.00     0.022 A 
BRANCH  77  81
ATOM     81  S   UNL A   1      37.034  31.447  38.847  1.00  0.00     0.124 S 
ATOM     82  O   UNL A   1      35.819  32.255  38.867  1.00  0.00    -0.237 OA
ATOM     83  O   UNL A   1      36.895  30.089  38.335  1.00  0.00    -0.237 OA
ATOM     84  O   UNL A   1      37.893  31.583  40.022  1.00  0.00    -0.744 OA
ENDBRANCH  77  81
ENDBRANCH  50  74
BRANCH  62  85
ATOM     85  C   UNL A   1      44.605  27.804  34.568  1.00  0.00     0.023 A 
ATOM     86  C   UNL A   1      44.480  26.804  35.550  1.00  0.00     0.031 A 
ATOM     87  C   UNL A   1      45.831  28.484  34.466  1.00  0.00     0.131 A 
ATOM     88  C   UNL A   1      45.546  26.549  36.426  1.00  0.00     0.055 A 
ATOM     89  C   UNL A   1      46.907  28.188  35.306  1.00  0.00     0.041 A 
ATOM     90  F   UNL A   1      46.003  29.448  33.548  1.00  0.00    -0.206 F 
ATOM     91  C   UNL A   1      46.764  27.224  36.300  1.00  0.00     0.022 A 
BRANCH  88  92
ATOM     92  S   UNL A   1      45.295  25.377  37.787  1.00  0.00     0.124 S 
ATOM     93  O   UNL A   1      44.037  25.843  38.360  1.00  0.00    -0.237 OA
ATOM     94  O   UNL A   1      45.243  24.096  37.091  1.00  0.00    -0.237 OA
ATOM     95  O   UNL A   1      46.472  25.574  38.631  1.00  0.00    -0.744 OA
ENDBRANCH  88  92
ENDBRANCH  62  85
ENDBRANCH  36  37
ENDBRANCH  28  31
ENDBRANCH  26  27
ENDBRANCH   1  26
TORSDOF 16
ENDMDL
MODEL 3
REMARK VINA RESULT:     -12.2      5.118     10.181
REMARK SMILES O=C(C[C@H]1C(=O)NCC[N@@H+]1Cc1ccc(Cl)c(F)c1)NCCCNC(=O)c1ccc(-c2c3nc(c(-c4cc(S(=O)(=O)[O-])ccc4F)c4ccc([nH]4)c(-c4cc(S(=O)(=O)[O-])ccc4F)c4nc(c(-c5cc(S(=O)(=O)[O-])ccc5F)c5ccc2[nH]5)C=C4)C=C3)cc1
REMARK SMILES IDX 22 1 21 2 20 3 1 4 2 5 3 7 4 8 5 9 10 10 6 11 7 12 9 13 8 15
REMARK SMILES IDX 11 17 12 18 13 19 19 20 14 21 17 22 15 23 18 24 16 25 23 26
REMARK SMILES IDX 24 27 25 28 26 30 27 31 28 32 89 33 29 34 88 35 30 36 31 37
REMARK SMILES IDX 32 38 82 39 33 40 87 41 81 42 83 43 34 44 86 45 80 46 79 47
REMARK SMILES IDX 35 49 67 50 47 51 66 52 48 53 51 54 65 55 84 56 49 57 50 58
REMARK SMILES IDX 64 60 85 61 52 62 36 63 37 64 45 65 38 66 44 67 46 68 43 69
REMARK SMILES IDX 39 70 40 71 41 72 42 73 68 74 69 75 77 76 70 77 76 78 78 79
REMARK SMILES IDX 75 80 71 81 72 82 73 83 74 84 53 85 54 86 62 87 55 88 61 89
REMARK SMILES IDX 63 90 60 91 56 92 57 93 58 94 59 95
REMARK H PARENT 20 6 10 14 7 16 24 29 83 48 51 59
REMARK Flexibility Score: inf
ROOT
ATOM      1  C   UNL A   1      31.310  30.435  25.307  1.00  0.00     0.042 C 
ENDROOT
BRANCH   1   2
ATOM      2  C   UNL A   1      31.710  29.151  24.591  1.00  0.00     0.117 C 
BRANCH   2   3
ATOM      3  N   UNL A   1      30.987  27.974  25.034  1.00  0.00    -0.356 N 
ATOM      4  O   UNL A   1      30.344  27.332  22.927  1.00  0.00    -0.275 OA
ATOM      5  C   UNL A   1      30.461  27.084  24.121  1.00  0.00     0.226 C 
ATOM      6  H   UNL A   1      30.871  27.810  25.996  1.00  0.00     0.163 HD
BRANCH   5   7
ATOM      7  C   UNL A   1      30.092  25.734  24.705  1.00  0.00     0.175 C 
BRANCH   7   8
ATOM      8  C   UNL A   1      31.189  25.115  25.603  1.00  0.00     0.283 C 
ATOM      9  C   UNL A   1      30.763  23.769  26.216  1.00  0.00     0.279 C 
ATOM     10  N   UNL A   1      32.502  25.009  24.897  1.00  0.00    -0.319 N 
ATOM     11  O   UNL A   1      30.184  23.692  27.298  1.00  0.00    -0.268 OA
ATOM     12  N   UNL A   1      31.029  22.641  25.491  1.00  0.00    -0.345 N 
ATOM     13  C   UNL A   1      32.495  23.943  23.889  1.00  0.00     0.284 C 
ATOM     14  H   UNL A   1      32.611  25.885  24.387  1.00  0.00     0.349 HD
ATOM     15  C   UNL A   1      31.850  22.605  24.299  1.00  0.00     0.177 C 
ATOM     16  H   UNL A   1      30.634  21.794  25.800  1.00  0.00     0.163 HD
BRANCH  10  17
ATOM     17  C   UNL A   1      33.685  25.002  25.781  1.00  0.00     0.299 C 
BRANCH  17  18
ATOM     18  C   UNL A   1      34.685  23.880  25.603  1.00  0.00     0.009 A 
ATOM     19  C   UNL A   1      34.713  22.799  26.500  1.00  0.00     0.011 A 
ATOM     20  C   UNL A   1      35.558  23.861  24.506  1.00  0.00     0.050 A 
ATOM     21  C   UNL A   1      35.524  21.687  26.255  1.00  0.00     0.024 A 
ATOM     22  C   UNL A   1      36.354  22.744  24.259  1.00  0.00     0.142 A 
ATOM     23  C   UNL A   1      36.330  21.652  25.120  1.00  0.00     0.076 A 
ATOM     24  F   UNL A   1      37.113  22.731  23.153  1.00  0.00    -0.205 F 
ATOM     25  Cl  UNL A   1      37.272  20.250  24.788  1.00  0.00    -0.081 Cl
ENDBRANCH  17  18
ENDBRANCH  10  17
ENDBRANCH   7   8
ENDBRANCH   5   7
ENDBRANCH   2   3
ENDBRANCH   1   2
BRANCH   1  26
ATOM     26  C   UNL A   1      32.076  30.757  26.589  1.00  0.00     0.118 C 
BRANCH  26  27
ATOM     27  N   UNL A   1      32.022  32.155  26.989  1.00  0.00    -0.352 N 
ATOM     28  C   UNL A   1      32.996  32.934  27.572  1.00  0.00     0.251 C 
ATOM     29  H   UNL A   1      31.165  32.609  26.819  1.00  0.00     0.163 HD
ATOM     30  O   UNL A   1      32.757  34.112  27.824  1.00  0.00    -0.269 OA
BRANCH  28  31
ATOM     31  C   UNL A   1      34.295  32.336  27.961  1.00  0.00     0.039 A 
ATOM     32  C   UNL A   1      35.409  33.178  28.044  1.00  0.00     0.014 A 
ATOM     33  C   UNL A   1      34.410  30.987  28.303  1.00  0.00     0.014 A 
ATOM     34  C   UNL A   1      36.607  32.695  28.576  1.00  0.00     0.010 A 
ATOM     35  C   UNL A   1      35.589  30.520  28.886  1.00  0.00     0.010 A 
ATOM     36  C   UNL A   1      36.688  31.378  29.057  1.00  0.00    -0.014 A 
BRANCH  36  37
ATOM     37  C   UNL A   1      37.884  30.907  29.805  1.00  0.00     0.031 A 
ATOM     38  C   UNL A   1      38.814  29.894  29.201  1.00  0.00     0.074 A 
ATOM     39  C   UNL A   1      38.084  31.334  31.068  1.00  0.00     0.049 A 
ATOM     40  N   UNL A   1      39.843  29.290  29.739  1.00  0.00    -0.248 NA
ATOM     41  C   UNL A   1      38.533  29.490  27.816  1.00  0.00     0.031 C 
ATOM     42  C   UNL A   1      37.232  32.291  31.780  1.00  0.00     0.029 A 
ATOM     43  N   UNL A   1      39.054  31.011  31.985  1.00  0.00    -0.354 N 
ATOM     44  C   UNL A   1      40.331  28.428  28.763  1.00  0.00     0.074 A 
ATOM     45  C   UNL A   1      39.451  28.555  27.618  1.00  0.00     0.031 C 
ATOM     46  C   UNL A   1      37.722  32.483  33.016  1.00  0.00     0.029 A 
ATOM     47  C   UNL A   1      38.893  31.632  33.202  1.00  0.00     0.049 A 
ATOM     48  H   UNL A   1      39.793  30.392  31.790  1.00  0.00     0.167 HD
ATOM     49  C   UNL A   1      41.420  27.620  28.812  1.00  0.00     0.034 A 
ATOM     50  C   UNL A   1      39.593  31.515  34.348  1.00  0.00     0.034 A 
ATOM     51  C   UNL A   1      42.291  27.507  29.958  1.00  0.00     0.049 A 
ATOM     52  C   UNL A   1      40.774  30.580  34.392  1.00  0.00     0.074 A 
ATOM     53  C   UNL A   1      43.454  26.766  30.088  1.00  0.00     0.029 A 
ATOM     54  N   UNL A   1      42.091  28.143  31.178  1.00  0.00    -0.354 N 
ATOM     55  N   UNL A   1      41.248  29.805  33.445  1.00  0.00    -0.248 NA
ATOM     56  C   UNL A   1      41.513  30.508  35.658  1.00  0.00     0.031 C 
ATOM     57  C   UNL A   1      43.919  26.902  31.402  1.00  0.00     0.029 A 
ATOM     58  C   UNL A   1      43.086  27.781  32.075  1.00  0.00     0.049 A 
ATOM     59  H   UNL A   1      41.350  28.760  31.376  1.00  0.00     0.167 HD
ATOM     60  C   UNL A   1      42.355  29.169  33.997  1.00  0.00     0.074 A 
ATOM     61  C   UNL A   1      42.487  29.663  35.352  1.00  0.00     0.031 C 
ATOM     62  C   UNL A   1      43.191  28.262  33.432  1.00  0.00     0.034 A 
BRANCH  49  63
ATOM     63  C   UNL A   1      41.707  26.773  27.597  1.00  0.00     0.023 A 
ATOM     64  C   UNL A   1      41.348  25.415  27.544  1.00  0.00     0.031 A 
ATOM     65  C   UNL A   1      42.373  27.323  26.486  1.00  0.00     0.131 A 
ATOM     66  C   UNL A   1      41.723  24.634  26.439  1.00  0.00     0.055 A 
ATOM     67  C   UNL A   1      42.673  26.559  25.356  1.00  0.00     0.041 A 
ATOM     68  F   UNL A   1      42.757  28.608  26.488  1.00  0.00    -0.206 F 
ATOM     69  C   UNL A   1      42.361  25.203  25.335  1.00  0.00     0.022 A 
BRANCH  66  70
ATOM     70  S   UNL A   1      41.491  22.838  26.531  1.00  0.00     0.124 S 
ATOM     71  O   UNL A   1      40.035  22.727  26.489  1.00  0.00    -0.237 OA
ATOM     72  O   UNL A   1      42.204  22.367  25.350  1.00  0.00    -0.237 OA
ATOM     73  O   UNL A   1      42.098  22.480  27.811  1.00  0.00    -0.744 OA
ENDBRANCH  66  70
ENDBRANCH  49  63
BRANCH  50  74
ATOM     74  C   UNL A   1      39.184  32.276  35.563  1.00  0.00     0.023 A 
ATOM     75  C   UNL A   1      39.639  33.585  35.781  1.00  0.00     0.031 A 
ATOM     76  C   UNL A   1      38.364  31.687  36.541  1.00  0.00     0.131 A 
ATOM     77  C   UNL A   1      39.307  34.250  36.972  1.00  0.00     0.055 A 
ATOM     78  C   UNL A   1      37.998  32.370  37.702  1.00  0.00     0.041 A 
ATOM     79  F   UNL A   1      37.898  30.440  36.376  1.00  0.00    -0.206 F 
ATOM     80  C   UNL A   1      38.480  33.656  37.928  1.00  0.00     0.022 A 
BRANCH  77  81
ATOM     81  S   UNL A   1      40.033  35.882  37.286  1.00  0.00     0.124 S 
ATOM     82  O   UNL A   1      39.356  36.275  38.517  1.00  0.00    -0.237 OA
ATOM     83  O   UNL A   1      41.451  35.564  37.406  1.00  0.00    -0.237 OA
ATOM     84  O   UNL A   1      39.667  36.651  36.099  1.00  0.00    -0.744 OA
ENDBRANCH  77  81
ENDBRANCH  50  74
BRANCH  62  85
ATOM     85  C   UNL A   1      44.337  27.772  34.282  1.00  0.00     0.023 A 
ATOM     86  C   UNL A   1      44.291  26.526  34.932  1.00  0.00     0.031 A 
ATOM     87  C   UNL A   1      45.479  28.572  34.462  1.00  0.00     0.131 A 
ATOM     88  C   UNL A   1      45.344  26.138  35.775  1.00  0.00     0.055 A 
ATOM     89  C   UNL A   1      46.548  28.157  35.258  1.00  0.00     0.041 A 
ATOM     90  F   UNL A   1      45.573  29.771  33.866  1.00  0.00    -0.206 F 
ATOM     91  C   UNL A   1      46.479  26.939  35.929  1.00  0.00     0.022 A 
BRANCH  88  92
ATOM     92  S   UNL A   1      45.178  24.605  36.731  1.00  0.00     0.124 S 
ATOM     93  O   UNL A   1      46.454  23.948  36.473  1.00  0.00    -0.237 OA
ATOM     94  O   UNL A   1      44.979  25.104  38.087  1.00  0.00    -0.237 OA
ATOM     95  O   UNL A   1      44.012  23.954  36.134  1.00  0.00    -0.744 OA
ENDBRANCH  88  92
ENDBRANCH  62  85
ENDBRANCH  36  37
ENDBRANCH  28  31
ENDBRANCH  26  27
ENDBRANCH   1  26
TORSDOF 16
ENDMDL
