MODEL 1
REMARK VINA RESULT:     -12.6      0.000      0.000
REMARK SMILES CCCCN1C(=O)[C@@H]2[C@H](CCC(=O)NCCCNC(=O)c3ccc(-c4c5nc(c(-c6cc(S(=O)(=O)[O-])ccc6F)c6ccc([nH]6)c(-c6cc(S(=O)(=O)[O-])ccc6F)c6nc(c(-c7cc(S(=O)(=O)[O-])ccc7F)c7ccc4[nH]7)C=C6)C=C5)cc3)[NH2+][C@]3(C(=O)Nc4c(CC)cccc43)[C@@H]2C1=O
REMARK SMILES IDX 15 1 14 2 12 3 13 4 11 6 10 7 9 8 5 9 6 10 98 11 7 12 8 13
REMARK SMILES IDX 97 14 99 15 85 16 84 17 86 18 96 19 87 22 88 23 89 24 95 25
REMARK SMILES IDX 90 27 94 28 93 29 4 30 3 31 2 32 1 33 91 34 92 35 16 36
REMARK SMILES IDX 17 37 18 38 19 39 20 41 21 42 22 43 83 44 23 45 82 46 24 47
REMARK SMILES IDX 25 48 26 49 76 50 27 51 81 52 75 53 77 54 28 55 80 56 74 57
REMARK SMILES IDX 73 58 29 60 61 61 41 62 60 63 42 64 45 65 59 66 78 67 43 68
REMARK SMILES IDX 44 69 58 71 79 72 46 73 30 74 31 75 39 76 32 77 38 78 40 79
REMARK SMILES IDX 37 80 33 81 34 82 35 83 36 84 62 85 63 86 71 87 64 88 70 89
REMARK SMILES IDX 72 90 69 91 65 92 66 93 67 94 68 95 47 96 48 97 56 98 49 99
REMARK SMILES IDX 55 100 57 101 54 102 50 103 51 104 52 105 53 106
REMARK H PARENT 14 5 84 20 84 21 88 26 18 40 77 59 45 70
REMARK Flexibility Score: inf
ROOT
ATOM      1  C   UNL A   1      30.766  28.107  24.250  1.00  0.00     0.117 C 
ENDROOT
BRANCH   1   2
ATOM      2  N   UNL A   1      31.067  27.463  22.983  1.00  0.00    -0.356 N 
ATOM      3  C   UNL A   1      30.953  26.157  22.613  1.00  0.00     0.220 C 
ATOM      4  O   UNL A   1      31.403  25.816  21.519  1.00  0.00    -0.275 OA
ATOM      5  H   UNL A   1      31.406  28.065  22.281  1.00  0.00     0.163 HD
BRANCH   3   6
ATOM      6  C   UNL A   1      30.236  25.165  23.504  1.00  0.00     0.106 C 
BRANCH   6   7
ATOM      7  C   UNL A   1      31.127  24.316  24.416  1.00  0.00     0.076 C 
BRANCH   7   8
ATOM      8  C   UNL A   1      31.728  23.017  23.845  1.00  0.00     0.197 C 
ATOM      9  N   UNL A   1      34.579  24.271  24.713  1.00  0.00    -0.282 N 
ATOM     10  C   UNL A   1      33.968  24.240  23.496  1.00  0.00     0.239 C 
ATOM     11  C   UNL A   1      34.620  23.017  25.276  1.00  0.00     0.240 C 
ATOM     12  O   UNL A   1      34.020  25.048  22.596  1.00  0.00    -0.274 OA
ATOM     13  C   UNL A   1      33.191  22.973  23.384  1.00  0.00     0.157 C 
ATOM     14  C   UNL A   1      33.927  22.052  24.347  1.00  0.00     0.174 C 
ATOM     15  O   UNL A   1      35.258  22.700  26.267  1.00  0.00    -0.274 OA
ATOM     16  C   UNL A   1      32.835  21.165  24.901  1.00  0.00     0.216 C 
ATOM     17  N   UNL A   1      31.605  21.972  24.864  1.00  0.00    -0.326 N 
ATOM     18  C   UNL A   1      33.044  20.623  26.351  1.00  0.00     0.291 C 
ATOM     19  C   UNL A   1      32.746  19.877  24.100  1.00  0.00     0.047 A 
ATOM     20  H   UNL A   1      30.812  21.371  24.639  1.00  0.00     0.347 HD
ATOM     21  H   UNL A   1      31.459  22.406  25.776  1.00  0.00     0.347 HD
ATOM     22  O   UNL A   1      33.043  21.250  27.398  1.00  0.00    -0.267 OA
ATOM     23  N   UNL A   1      33.158  19.243  26.252  1.00  0.00    -0.320 N 
ATOM     24  C   UNL A   1      32.999  18.796  24.947  1.00  0.00     0.054 A 
ATOM     25  C   UNL A   1      32.523  19.662  22.746  1.00  0.00     0.013 A 
ATOM     26  H   UNL A   1      33.333  18.649  27.018  1.00  0.00     0.170 HD
ATOM     27  C   UNL A   1      33.057  17.487  24.493  1.00  0.00    -0.024 A 
ATOM     28  C   UNL A   1      32.587  18.355  22.257  1.00  0.00     0.001 A 
ATOM     29  C   UNL A   1      32.852  17.280  23.121  1.00  0.00     0.006 A 
BRANCH   9  30
ATOM     30  C   UNL A   1      35.120  25.454  25.364  1.00  0.00     0.128 C 
BRANCH  30  31
ATOM     31  C   UNL A   1      34.152  26.594  25.709  1.00  0.00     0.022 C 
BRANCH  31  32
ATOM     32  C   UNL A   1      32.784  26.255  26.320  1.00  0.00    -0.002 C 
ATOM     33  C   UNL A   1      32.314  27.161  27.448  1.00  0.00     0.004 C 
ENDBRANCH  31  32
ENDBRANCH  30  31
ENDBRANCH   9  30
BRANCH  27  34
ATOM     34  C   UNL A   1      33.254  16.322  25.419  1.00  0.00     0.034 C 
ATOM     35  C   UNL A   1      34.697  15.857  25.374  1.00  0.00     0.009 C 
ENDBRANCH  27  34
ENDBRANCH   7   8
ENDBRANCH   6   7
ENDBRANCH   3   6
ENDBRANCH   1   2
BRANCH   1  36
ATOM     36  C   UNL A   1      31.355  29.512  24.282  1.00  0.00     0.042 C 
BRANCH  36  37
ATOM     37  C   UNL A   1      32.033  29.855  25.595  1.00  0.00     0.118 C 
BRANCH  37  38
ATOM     38  N   UNL A   1      31.780  31.227  25.999  1.00  0.00    -0.352 N 
ATOM     39  C   UNL A   1      32.396  32.022  26.941  1.00  0.00     0.251 C 
ATOM     40  H   UNL A   1      31.040  31.664  25.518  1.00  0.00     0.163 HD
ATOM     41  O   UNL A   1      31.864  33.090  27.240  1.00  0.00    -0.269 OA
BRANCH  39  42
ATOM     42  C   UNL A   1      33.646  31.601  27.628  1.00  0.00     0.039 A 
ATOM     43  C   UNL A   1      33.959  30.260  27.838  1.00  0.00     0.014 A 
ATOM     44  C   UNL A   1      34.560  32.579  28.041  1.00  0.00     0.014 A 
ATOM     45  C   UNL A   1      35.048  29.907  28.631  1.00  0.00     0.010 A 
ATOM     46  C   UNL A   1      35.734  32.213  28.718  1.00  0.00     0.010 A 
ATOM     47  C   UNL A   1      35.972  30.874  29.058  1.00  0.00    -0.014 A 
BRANCH  47  48
ATOM     48  C   UNL A   1      37.204  30.441  29.778  1.00  0.00     0.031 A 
ATOM     49  C   UNL A   1      37.460  30.825  31.210  1.00  0.00     0.074 A 
ATOM     50  C   UNL A   1      38.098  29.662  29.132  1.00  0.00     0.049 A 
ATOM     51  N   UNL A   1      38.490  30.533  31.963  1.00  0.00    -0.248 NA
ATOM     52  C   UNL A   1      36.446  31.648  31.888  1.00  0.00     0.031 C 
ATOM     53  C   UNL A   1      37.980  29.238  27.736  1.00  0.00     0.029 A 
ATOM     54  N   UNL A   1      39.266  29.072  29.556  1.00  0.00    -0.354 N 
ATOM     55  C   UNL A   1      38.270  31.164  33.181  1.00  0.00     0.074 A 
ATOM     56  C   UNL A   1      37.010  31.864  33.071  1.00  0.00     0.031 C 
ATOM     57  C   UNL A   1      38.985  28.406  27.440  1.00  0.00     0.029 A 
ATOM     58  C   UNL A   1      39.881  28.309  28.589  1.00  0.00     0.049 A 
ATOM     59  H   UNL A   1      39.627  29.183  30.464  1.00  0.00     0.167 HD
ATOM     60  C   UNL A   1      39.045  31.149  34.290  1.00  0.00     0.034 A 
ATOM     61  C   UNL A   1      41.045  27.626  28.599  1.00  0.00     0.034 A 
ATOM     62  C   UNL A   1      40.255  30.385  34.421  1.00  0.00     0.049 A 
ATOM     63  C   UNL A   1      41.865  27.601  29.858  1.00  0.00     0.074 A 
ATOM     64  C   UNL A   1      41.048  30.251  35.548  1.00  0.00     0.029 A 
ATOM     65  N   UNL A   1      40.841  29.625  33.423  1.00  0.00    -0.354 N 
ATOM     66  N   UNL A   1      41.603  28.155  31.018  1.00  0.00    -0.248 NA
ATOM     67  C   UNL A   1      43.139  26.867  29.821  1.00  0.00     0.031 C 
ATOM     68  C   UNL A   1      42.141  29.453  35.218  1.00  0.00     0.029 A 
ATOM     69  C   UNL A   1      42.003  29.042  33.901  1.00  0.00     0.049 A 
ATOM     70  H   UNL A   1      40.485  29.516  32.512  1.00  0.00     0.167 HD
ATOM     71  C   UNL A   1      42.672  27.833  31.848  1.00  0.00     0.074 A 
ATOM     72  C   UNL A   1      43.570  27.008  31.068  1.00  0.00     0.031 C 
ATOM     73  C   UNL A   1      42.889  28.202  33.134  1.00  0.00     0.034 A 
BRANCH  60  74
ATOM     74  C   UNL A   1      38.625  31.937  35.499  1.00  0.00     0.023 A 
ATOM     75  C   UNL A   1      38.102  31.272  36.624  1.00  0.00     0.031 A 
ATOM     76  C   UNL A   1      38.527  33.335  35.441  1.00  0.00     0.131 A 
ATOM     77  C   UNL A   1      37.485  32.012  37.642  1.00  0.00     0.055 A 
ATOM     78  C   UNL A   1      37.922  34.066  36.462  1.00  0.00     0.041 A 
ATOM     79  F   UNL A   1      39.005  34.006  34.380  1.00  0.00    -0.206 F 
ATOM     80  C   UNL A   1      37.393  33.406  37.566  1.00  0.00     0.022 A 
BRANCH  77  81
ATOM     81  S   UNL A   1      36.673  31.187  39.038  1.00  0.00     0.124 S 
ATOM     82  O   UNL A   1      35.481  32.014  39.211  1.00  0.00    -0.237 OA
ATOM     83  O   UNL A   1      36.431  29.846  38.513  1.00  0.00    -0.237 OA
ATOM     84  O   UNL A   1      37.655  31.272  40.113  1.00  0.00    -0.744 OA
ENDBRANCH  77  81
ENDBRANCH  60  74
BRANCH  61  85
ATOM     85  C   UNL A   1      41.455  26.895  27.365  1.00  0.00     0.023 A 
ATOM     86  C   UNL A   1      41.328  25.494  27.289  1.00  0.00     0.031 A 
ATOM     87  C   UNL A   1      42.121  27.556  26.321  1.00  0.00     0.131 A 
ATOM     88  C   UNL A   1      41.952  24.794  26.250  1.00  0.00     0.055 A 
ATOM     89  C   UNL A   1      42.667  26.859  25.241  1.00  0.00     0.041 A 
ATOM     90  F   UNL A   1      42.276  28.889  26.355  1.00  0.00    -0.206 F 
ATOM     91  C   UNL A   1      42.606  25.469  25.215  1.00  0.00     0.022 A 
BRANCH  88  92
ATOM     92  S   UNL A   1      42.084  22.984  26.302  1.00  0.00     0.124 S 
ATOM     93  O   UNL A   1      40.694  22.582  26.492  1.00  0.00    -0.237 OA
ATOM     94  O   UNL A   1      42.654  22.693  24.989  1.00  0.00    -0.237 OA
ATOM     95  O   UNL A   1      42.973  22.736  27.431  1.00  0.00    -0.744 OA
ENDBRANCH  88  92
ENDBRANCH  61  85
BRANCH  73  96
ATOM     96  C   UNL A   1      44.147  27.745  33.827  1.00  0.00     0.023 A 
ATOM     97  C   UNL A   1      44.137  26.565  34.596  1.00  0.00     0.031 A 
ATOM     98  C   UNL A   1      45.278  28.575  33.893  1.00  0.00     0.131 A 
ATOM     99  C   UNL A   1      45.209  26.281  35.448  1.00  0.00     0.055 A 
ATOM    100  C   UNL A   1      46.369  28.261  34.705  1.00  0.00     0.041 A 
ATOM    101  F   UNL A   1      45.328  29.717  33.187  1.00  0.00    -0.206 F 
ATOM    102  C   UNL A   1      46.328  27.119  35.503  1.00  0.00     0.022 A 
BRANCH  99 103
ATOM    103  S   UNL A   1      45.143  24.881  36.600  1.00  0.00     0.124 S 
ATOM    104  O   UNL A   1      46.472  24.297  36.443  1.00  0.00    -0.237 OA
ATOM    105  O   UNL A   1      44.901  25.545  37.878  1.00  0.00    -0.237 OA
ATOM    106  O   UNL A   1      44.041  24.065  36.100  1.00  0.00    -0.744 OA
ENDBRANCH  99 103
ENDBRANCH  73  96
ENDBRANCH  47  48
ENDBRANCH  39  42
ENDBRANCH  37  38
ENDBRANCH  36  37
ENDBRANCH   1  36
TORSDOF 19
ENDMDL
MODEL 2
REMARK VINA RESULT:     -12.5      3.067      8.109
REMARK SMILES CCCCN1C(=O)[C@@H]2[C@H](CCC(=O)NCCCNC(=O)c3ccc(-c4c5nc(c(-c6cc(S(=O)(=O)[O-])ccc6F)c6ccc([nH]6)c(-c6cc(S(=O)(=O)[O-])ccc6F)c6nc(c(-c7cc(S(=O)(=O)[O-])ccc7F)c7ccc4[nH]7)C=C6)C=C5)cc3)[NH2+][C@]3(C(=O)Nc4c(CC)cccc43)[C@@H]2C1=O
REMARK SMILES IDX 15 1 14 2 12 3 13 4 11 6 10 7 9 8 5 9 6 10 98 11 7 12 8 13
REMARK SMILES IDX 97 14 99 15 85 16 84 17 86 18 96 19 87 22 88 23 89 24 95 25
REMARK SMILES IDX 90 27 94 28 93 29 4 30 3 31 2 32 1 33 91 34 92 35 16 36
REMARK SMILES IDX 17 37 18 38 19 39 20 41 21 42 22 43 83 44 23 45 82 46 24 47
REMARK SMILES IDX 25 48 26 49 76 50 27 51 81 52 75 53 77 54 28 55 80 56 74 57
REMARK SMILES IDX 73 58 29 60 61 61 41 62 60 63 42 64 45 65 59 66 78 67 43 68
REMARK SMILES IDX 44 69 58 71 79 72 46 73 30 74 31 75 39 76 32 77 38 78 40 79
REMARK SMILES IDX 37 80 33 81 34 82 35 83 36 84 62 85 63 86 71 87 64 88 70 89
REMARK SMILES IDX 72 90 69 91 65 92 66 93 67 94 68 95 47 96 48 97 56 98 49 99
REMARK SMILES IDX 55 100 57 101 54 102 50 103 51 104 52 105 53 106
REMARK H PARENT 14 5 84 20 84 21 88 26 18 40 77 59 45 70
REMARK Flexibility Score: inf
ROOT
ATOM      1  C   UNL A   1      31.321  31.456  26.380  1.00  0.00     0.117 C 
ENDROOT
BRANCH   1   2
ATOM      2  N   UNL A   1      32.623  30.827  26.242  1.00  0.00    -0.356 N 
ATOM      3  C   UNL A   1      32.950  29.516  26.060  1.00  0.00     0.220 C 
ATOM      4  O   UNL A   1      34.138  29.197  26.109  1.00  0.00    -0.275 OA
ATOM      5  H   UNL A   1      33.390  31.443  26.287  1.00  0.00     0.163 HD
BRANCH   3   6
ATOM      6  C   UNL A   1      31.879  28.493  25.745  1.00  0.00     0.106 C 
BRANCH   6   7
ATOM      7  C   UNL A   1      31.479  27.565  26.895  1.00  0.00     0.076 C 
BRANCH   7   8
ATOM      8  C   UNL A   1      31.963  26.102  26.854  1.00  0.00     0.197 C 
ATOM      9  N   UNL A   1      29.773  25.725  24.506  1.00  0.00    -0.282 N 
ATOM     10  C   UNL A   1      29.702  25.413  25.829  1.00  0.00     0.239 C 
ATOM     11  C   UNL A   1      30.913  25.207  23.938  1.00  0.00     0.240 C 
ATOM     12  O   UNL A   1      28.739  25.420  26.563  1.00  0.00    -0.274 OA
ATOM     13  C   UNL A   1      31.055  24.998  26.295  1.00  0.00     0.157 C 
ATOM     14  C   UNL A   1      31.706  24.504  25.011  1.00  0.00     0.174 C 
ATOM     15  O   UNL A   1      31.161  25.165  22.743  1.00  0.00    -0.274 OA
ATOM     16  C   UNL A   1      33.165  24.859  25.189  1.00  0.00     0.216 C 
ATOM     17  N   UNL A   1      33.187  26.049  26.053  1.00  0.00    -0.326 N 
ATOM     18  C   UNL A   1      33.974  25.160  23.887  1.00  0.00     0.291 C 
ATOM     19  C   UNL A   1      33.928  23.675  25.759  1.00  0.00     0.047 A 
ATOM     20  H   UNL A   1      33.995  26.003  26.672  1.00  0.00     0.347 HD
ATOM     21  H   UNL A   1      33.246  26.886  25.472  1.00  0.00     0.347 HD
ATOM     22  O   UNL A   1      33.854  26.108  23.126  1.00  0.00    -0.267 OA
ATOM     23  N   UNL A   1      34.943  24.172  23.777  1.00  0.00    -0.320 N 
ATOM     24  C   UNL A   1      34.920  23.294  24.853  1.00  0.00     0.054 A 
ATOM     25  C   UNL A   1      33.744  22.953  26.931  1.00  0.00     0.013 A 
ATOM     26  H   UNL A   1      35.573  24.101  23.023  1.00  0.00     0.170 HD
ATOM     27  C   UNL A   1      35.741  22.196  25.059  1.00  0.00    -0.024 A 
ATOM     28  C   UNL A   1      34.549  21.835  27.161  1.00  0.00     0.001 A 
ATOM     29  C   UNL A   1      35.536  21.461  26.235  1.00  0.00     0.006 A 
BRANCH   9  30
ATOM     30  C   UNL A   1      28.797  26.505  23.761  1.00  0.00     0.128 C 
BRANCH  30  31
ATOM     31  C   UNL A   1      29.254  27.836  23.148  1.00  0.00     0.022 C 
BRANCH  31  32
ATOM     32  C   UNL A   1      28.271  29.015  23.099  1.00  0.00    -0.002 C 
ATOM     33  C   UNL A   1      28.878  30.399  23.278  1.00  0.00     0.004 C 
ENDBRANCH  31  32
ENDBRANCH  30  31
ENDBRANCH   9  30
BRANCH  27  34
ATOM     34  C   UNL A   1      36.856  21.836  24.120  1.00  0.00     0.034 C 
ATOM     35  C   UNL A   1      37.568  20.590  24.609  1.00  0.00     0.009 C 
ENDBRANCH  27  34
ENDBRANCH   7   8
ENDBRANCH   6   7
ENDBRANCH   3   6
ENDBRANCH   1   2
BRANCH   1  36
ATOM     36  C   UNL A   1      31.482  32.945  26.665  1.00  0.00     0.042 C 
BRANCH  36  37
ATOM     37  C   UNL A   1      32.789  33.293  27.350  1.00  0.00     0.118 C 
BRANCH  37  38
ATOM     38  N   UNL A   1      32.734  34.586  28.011  1.00  0.00    -0.352 N 
ATOM     39  C   UNL A   1      33.418  35.076  29.101  1.00  0.00     0.251 C 
ATOM     40  H   UNL A   1      32.097  35.221  27.610  1.00  0.00     0.163 HD
ATOM     41  O   UNL A   1      33.045  36.140  29.594  1.00  0.00    -0.269 OA
BRANCH  39  42
ATOM     42  C   UNL A   1      34.551  34.334  29.717  1.00  0.00     0.039 A 
ATOM     43  C   UNL A   1      34.360  33.410  30.741  1.00  0.00     0.014 A 
ATOM     44  C   UNL A   1      35.847  34.537  29.226  1.00  0.00     0.014 A 
ATOM     45  C   UNL A   1      35.453  32.862  31.408  1.00  0.00     0.010 A 
ATOM     46  C   UNL A   1      36.939  33.872  29.806  1.00  0.00     0.010 A 
ATOM     47  C   UNL A   1      36.759  33.057  30.932  1.00  0.00    -0.014 A 
BRANCH  47  48
ATOM     48  C   UNL A   1      37.891  32.334  31.582  1.00  0.00     0.031 A 
ATOM     49  C   UNL A   1      38.600  31.198  30.896  1.00  0.00     0.074 A 
ATOM     50  C   UNL A   1      38.302  32.730  32.805  1.00  0.00     0.049 A 
ATOM     51  N   UNL A   1      39.592  30.468  31.340  1.00  0.00    -0.248 NA
ATOM     52  C   UNL A   1      38.142  30.818  29.551  1.00  0.00     0.031 C 
ATOM     53  C   UNL A   1      37.684  33.803  33.586  1.00  0.00     0.029 A 
ATOM     54  N   UNL A   1      39.339  32.301  33.600  1.00  0.00    -0.354 N 
ATOM     55  C   UNL A   1      39.849  29.524  30.353  1.00  0.00     0.074 A 
ATOM     56  C   UNL A   1      38.906  29.764  29.285  1.00  0.00     0.031 C 
ATOM     57  C   UNL A   1      38.389  33.996  34.707  1.00  0.00     0.029 A 
ATOM     58  C   UNL A   1      39.453  32.998  34.781  1.00  0.00     0.049 A 
ATOM     59  H   UNL A   1      39.943  31.566  33.348  1.00  0.00     0.167 HD
ATOM     60  C   UNL A   1      40.793  28.555  30.340  1.00  0.00     0.034 A 
ATOM     61  C   UNL A   1      40.293  32.848  35.827  1.00  0.00     0.034 A 
ATOM     62  C   UNL A   1      41.781  28.373  31.367  1.00  0.00     0.049 A 
ATOM     63  C   UNL A   1      41.353  31.784  35.765  1.00  0.00     0.074 A 
ATOM     64  C   UNL A   1      42.827  27.466  31.379  1.00  0.00     0.029 A 
ATOM     65  N   UNL A   1      41.865  29.099  32.543  1.00  0.00    -0.354 N 
ATOM     66  N   UNL A   1      41.615  30.944  34.792  1.00  0.00    -0.248 NA
ATOM     67  C   UNL A   1      42.231  31.637  36.935  1.00  0.00     0.031 C 
ATOM     68  C   UNL A   1      43.511  27.608  32.583  1.00  0.00     0.029 A 
ATOM     69  C   UNL A   1      42.929  28.641  33.301  1.00  0.00     0.049 A 
ATOM     70  H   UNL A   1      41.259  29.832  32.800  1.00  0.00     0.167 HD
ATOM     71  C   UNL A   1      42.689  30.175  35.228  1.00  0.00     0.074 A 
ATOM     72  C   UNL A   1      43.050  30.669  36.539  1.00  0.00     0.031 C 
ATOM     73  C   UNL A   1      43.306  29.145  34.598  1.00  0.00     0.034 A 
BRANCH  60  74
ATOM     74  C   UNL A   1      40.873  27.614  29.171  1.00  0.00     0.023 A 
ATOM     75  C   UNL A   1      41.770  27.874  28.118  1.00  0.00     0.031 A 
ATOM     76  C   UNL A   1      39.909  26.609  28.997  1.00  0.00     0.131 A 
ATOM     77  C   UNL A   1      41.670  27.145  26.926  1.00  0.00     0.055 A 
ATOM     78  C   UNL A   1      39.823  25.880  27.811  1.00  0.00     0.041 A 
ATOM     79  F   UNL A   1      39.029  26.336  29.973  1.00  0.00    -0.206 F 
ATOM     80  C   UNL A   1      40.701  26.149  26.768  1.00  0.00     0.022 A 
BRANCH  77  81
ATOM     81  S   UNL A   1      42.711  27.544  25.494  1.00  0.00     0.124 S 
ATOM     82  O   UNL A   1      44.017  27.723  26.125  1.00  0.00    -0.237 OA
ATOM     83  O   UNL A   1      42.577  26.349  24.666  1.00  0.00    -0.237 OA
ATOM     84  O   UNL A   1      42.108  28.756  24.951  1.00  0.00    -0.744 OA
ENDBRANCH  77  81
ENDBRANCH  60  74
BRANCH  61  85
ATOM     85  C   UNL A   1      40.154  33.770  36.992  1.00  0.00     0.023 A 
ATOM     86  C   UNL A   1      41.008  34.880  37.131  1.00  0.00     0.031 A 
ATOM     87  C   UNL A   1      39.287  33.466  38.053  1.00  0.00     0.131 A 
ATOM     88  C   UNL A   1      41.051  35.579  38.343  1.00  0.00     0.055 A 
ATOM     89  C   UNL A   1      39.272  34.221  39.229  1.00  0.00     0.041 A 
ATOM     90  F   UNL A   1      38.461  32.411  37.972  1.00  0.00    -0.206 F 
ATOM     91  C   UNL A   1      40.176  35.267  39.387  1.00  0.00     0.022 A 
BRANCH  88  92
ATOM     92  S   UNL A   1      42.360  36.795  38.664  1.00  0.00     0.124 S 
ATOM     93  O   UNL A   1      43.264  36.049  39.533  1.00  0.00    -0.237 OA
ATOM     94  O   UNL A   1      42.854  37.060  37.315  1.00  0.00    -0.237 OA
ATOM     95  O   UNL A   1      41.652  37.905  39.293  1.00  0.00    -0.744 OA
ENDBRANCH  88  92
ENDBRANCH  61  85
BRANCH  73  96
ATOM     96  C   UNL A   1      44.445  28.439  35.288  1.00  0.00     0.023 A 
ATOM     97  C   UNL A   1      44.177  27.470  36.274  1.00  0.00     0.031 A 
ATOM     98  C   UNL A   1      45.771  28.872  35.119  1.00  0.00     0.131 A 
ATOM     99  C   UNL A   1      45.211  27.011  37.097  1.00  0.00     0.055 A 
ATOM    100  C   UNL A   1      46.808  28.372  35.908  1.00  0.00     0.041 A 
ATOM    101  F   UNL A   1      46.072  29.804  34.201  1.00  0.00    -0.206 F 
ATOM    102  C   UNL A   1      46.526  27.452  36.915  1.00  0.00     0.022 A 
BRANCH  99 103
ATOM    103  S   UNL A   1      44.871  25.917  38.503  1.00  0.00     0.124 S 
ATOM    104  O   UNL A   1      43.582  26.420  38.972  1.00  0.00    -0.237 OA
ATOM    105  O   UNL A   1      44.834  24.602  37.869  1.00  0.00    -0.237 OA
ATOM    106  O   UNL A   1      45.994  26.144  39.407  1.00  0.00    -0.744 OA
ENDBRANCH  99 103
ENDBRANCH  73  96
ENDBRANCH  47  48
ENDBRANCH  39  42
ENDBRANCH  37  38
ENDBRANCH  36  37
ENDBRANCH   1  36
TORSDOF 19
ENDMDL
MODEL 3
REMARK VINA RESULT:     -12.5      1.940      7.553
REMARK SMILES CCCCN1C(=O)[C@@H]2[C@H](CCC(=O)NCCCNC(=O)c3ccc(-c4c5nc(c(-c6cc(S(=O)(=O)[O-])ccc6F)c6ccc([nH]6)c(-c6cc(S(=O)(=O)[O-])ccc6F)c6nc(c(-c7cc(S(=O)(=O)[O-])ccc7F)c7ccc4[nH]7)C=C6)C=C5)cc3)[NH2+][C@]3(C(=O)Nc4c(CC)cccc43)[C@@H]2C1=O
REMARK SMILES IDX 15 1 14 2 12 3 13 4 11 6 10 7 9 8 5 9 6 10 98 11 7 12 8 13
REMARK SMILES IDX 97 14 99 15 85 16 84 17 86 18 96 19 87 22 88 23 89 24 95 25
REMARK SMILES IDX 90 27 94 28 93 29 4 30 3 31 2 32 1 33 91 34 92 35 16 36
REMARK SMILES IDX 17 37 18 38 19 39 20 41 21 42 22 43 83 44 23 45 82 46 24 47
REMARK SMILES IDX 25 48 26 49 76 50 27 51 81 52 75 53 77 54 28 55 80 56 74 57
REMARK SMILES IDX 73 58 29 60 61 61 41 62 60 63 42 64 45 65 59 66 78 67 43 68
REMARK SMILES IDX 44 69 58 71 79 72 46 73 30 74 31 75 39 76 32 77 38 78 40 79
REMARK SMILES IDX 37 80 33 81 34 82 35 83 36 84 62 85 63 86 71 87 64 88 70 89
REMARK SMILES IDX 72 90 69 91 65 92 66 93 67 94 68 95 47 96 48 97 56 98 49 99
REMARK SMILES IDX 55 100 57 101 54 102 50 103 51 104 52 105 53 106
REMARK H PARENT 14 5 84 20 84 21 88 26 18 40 77 59 45 70
REMARK Flexibility Score: inf
ROOT
ATOM      1  C   UNL A   1      32.991  29.229  25.286  1.00  0.00     0.117 C 
ENDROOT
BRANCH   1   2
ATOM      2  N   UNL A   1      33.553  29.268  23.947  1.00  0.00    -0.356 N 
ATOM      3  C   UNL A   1      33.941  28.251  23.127  1.00  0.00     0.220 C 
ATOM      4  O   UNL A   1      34.523  28.532  22.079  1.00  0.00    -0.275 OA
ATOM      5  H   UNL A   1      33.673  30.170  23.572  1.00  0.00     0.163 HD
BRANCH   3   6
ATOM      6  C   UNL A   1      33.607  26.815  23.472  1.00  0.00     0.106 C 
BRANCH   6   7
ATOM      7  C   UNL A   1      34.030  26.343  24.866  1.00  0.00     0.076 C 
BRANCH   7   8
ATOM      8  C   UNL A   1      33.590  24.941  25.327  1.00  0.00     0.197 C 
ATOM      9  N   UNL A   1      30.583  26.004  24.797  1.00  0.00    -0.282 N 
ATOM     10  C   UNL A   1      31.285  25.903  25.959  1.00  0.00     0.239 C 
ATOM     11  C   UNL A   1      30.608  24.818  24.102  1.00  0.00     0.240 C 
ATOM     12  O   UNL A   1      31.232  26.604  26.945  1.00  0.00    -0.274 OA
ATOM     13  C   UNL A   1      32.175  24.710  25.877  1.00  0.00     0.157 C 
ATOM     14  C   UNL A   1      31.450  23.831  24.869  1.00  0.00     0.174 C 
ATOM     15  O   UNL A   1      29.925  24.547  23.126  1.00  0.00    -0.274 OA
ATOM     16  C   UNL A   1      32.570  23.114  24.148  1.00  0.00     0.216 C 
ATOM     17  N   UNL A   1      33.724  24.025  24.192  1.00  0.00    -0.326 N 
ATOM     18  C   UNL A   1      32.298  22.709  22.664  1.00  0.00     0.291 C 
ATOM     19  C   UNL A   1      32.832  21.763  24.793  1.00  0.00     0.047 A 
ATOM     20  H   UNL A   1      34.581  23.482  24.296  1.00  0.00     0.347 HD
ATOM     21  H   UNL A   1      33.762  24.564  23.327  1.00  0.00     0.347 HD
ATOM     22  O   UNL A   1      32.164  23.440  21.695  1.00  0.00    -0.267 OA
ATOM     23  N   UNL A   1      32.312  21.321  22.616  1.00  0.00    -0.320 N 
ATOM     24  C   UNL A   1      32.609  20.758  23.850  1.00  0.00     0.054 A 
ATOM     25  C   UNL A   1      33.175  21.429  26.097  1.00  0.00     0.013 A 
ATOM     26  H   UNL A   1      32.131  20.797  21.802  1.00  0.00     0.170 HD
ATOM     27  C   UNL A   1      32.699  19.409  24.158  1.00  0.00    -0.024 A 
ATOM     28  C   UNL A   1      33.262  20.078  26.440  1.00  0.00     0.001 A 
ATOM     29  C   UNL A   1      33.026  19.079  25.481  1.00  0.00     0.006 A 
BRANCH   9  30
ATOM     30  C   UNL A   1      29.892  27.192  24.320  1.00  0.00     0.128 C 
BRANCH  30  31
ATOM     31  C   UNL A   1      30.200  27.682  22.898  1.00  0.00     0.022 C 
BRANCH  31  32
ATOM     32  C   UNL A   1      29.809  29.112  22.497  1.00  0.00    -0.002 C 
ATOM     33  C   UNL A   1      28.317  29.394  22.399  1.00  0.00     0.004 C 
ENDBRANCH  31  32
ENDBRANCH  30  31
ENDBRANCH   9  30
BRANCH  27  34
ATOM     34  C   UNL A   1      32.534  18.334  23.123  1.00  0.00     0.034 C 
ATOM     35  C   UNL A   1      33.650  17.314  23.249  1.00  0.00     0.009 C 
ENDBRANCH  27  34
ENDBRANCH   7   8
ENDBRANCH   6   7
ENDBRANCH   3   6
ENDBRANCH   1   2
BRANCH   1  36
ATOM     36  C   UNL A   1      31.776  30.145  25.376  1.00  0.00     0.042 C 
BRANCH  36  37
ATOM     37  C   UNL A   1      31.581  30.759  26.749  1.00  0.00     0.118 C 
BRANCH  37  38
ATOM     38  N   UNL A   1      31.725  32.205  26.728  1.00  0.00    -0.352 N 
ATOM     39  C   UNL A   1      32.653  33.032  27.321  1.00  0.00     0.251 C 
ATOM     40  H   UNL A   1      31.041  32.674  26.198  1.00  0.00     0.163 HD
ATOM     41  O   UNL A   1      32.442  34.243  27.318  1.00  0.00    -0.269 OA
BRANCH  39  42
ATOM     42  C   UNL A   1      33.864  32.495  27.999  1.00  0.00     0.039 A 
ATOM     43  C   UNL A   1      34.029  31.135  28.253  1.00  0.00     0.014 A 
ATOM     44  C   UNL A   1      34.892  33.376  28.358  1.00  0.00     0.014 A 
ATOM     45  C   UNL A   1      35.089  30.688  29.037  1.00  0.00     0.010 A 
ATOM     46  C   UNL A   1      36.033  32.902  29.025  1.00  0.00     0.010 A 
ATOM     47  C   UNL A   1      36.126  31.557  29.409  1.00  0.00    -0.014 A 
BRANCH  47  48
ATOM     48  C   UNL A   1      37.318  31.012  30.121  1.00  0.00     0.031 A 
ATOM     49  C   UNL A   1      38.261  30.045  29.457  1.00  0.00     0.074 A 
ATOM     50  C   UNL A   1      37.568  31.420  31.383  1.00  0.00     0.049 A 
ATOM     51  N   UNL A   1      39.332  29.479  29.953  1.00  0.00    -0.248 NA
ATOM     52  C   UNL A   1      37.971  29.651  28.070  1.00  0.00     0.031 C 
ATOM     53  C   UNL A   1      36.719  32.336  32.147  1.00  0.00     0.029 A 
ATOM     54  N   UNL A   1      38.606  31.142  32.241  1.00  0.00    -0.354 N 
ATOM     55  C   UNL A   1      39.818  28.637  28.960  1.00  0.00     0.074 A 
ATOM     56  C   UNL A   1      38.924  28.757  27.831  1.00  0.00     0.031 C 
ATOM     57  C   UNL A   1      37.300  32.599  33.324  1.00  0.00     0.029 A 
ATOM     58  C   UNL A   1      38.514  31.796  33.449  1.00  0.00     0.049 A 
ATOM     59  H   UNL A   1      39.344  30.533  32.014  1.00  0.00     0.167 HD
ATOM     60  C   UNL A   1      40.916  27.846  28.989  1.00  0.00     0.034 A 
ATOM     61  C   UNL A   1      39.291  31.748  34.550  1.00  0.00     0.034 A 
ATOM     62  C   UNL A   1      41.846  27.792  30.083  1.00  0.00     0.049 A 
ATOM     63  C   UNL A   1      40.523  30.886  34.538  1.00  0.00     0.074 A 
ATOM     64  C   UNL A   1      43.030  27.078  30.147  1.00  0.00     0.029 A 
ATOM     65  N   UNL A   1      41.719  28.470  31.283  1.00  0.00    -0.354 N 
ATOM     66  N   UNL A   1      40.995  30.146  33.562  1.00  0.00    -0.248 NA
ATOM     67  C   UNL A   1      41.329  30.841  35.766  1.00  0.00     0.031 C 
ATOM     68  C   UNL A   1      43.594  27.283  31.403  1.00  0.00     0.029 A 
ATOM     69  C   UNL A   1      42.791  28.169  32.106  1.00  0.00     0.049 A 
ATOM     70  H   UNL A   1      40.979  29.076  31.516  1.00  0.00     0.167 HD
ATOM     71  C   UNL A   1      42.153  29.554  34.055  1.00  0.00     0.074 A 
ATOM     72  C   UNL A   1      42.330  30.046  35.404  1.00  0.00     0.031 C 
ATOM     73  C   UNL A   1      42.983  28.674  33.443  1.00  0.00     0.034 A 
BRANCH  60  74
ATOM     74  C   UNL A   1      41.240  26.983  27.802  1.00  0.00     0.023 A 
ATOM     75  C   UNL A   1      41.039  25.592  27.868  1.00  0.00     0.031 A 
ATOM     76  C   UNL A   1      41.955  27.506  26.714  1.00  0.00     0.131 A 
ATOM     77  C   UNL A   1      41.567  24.767  26.867  1.00  0.00     0.055 A 
ATOM     78  C   UNL A   1      42.469  26.680  25.715  1.00  0.00     0.041 A 
ATOM     79  F   UNL A   1      42.177  28.827  26.619  1.00  0.00    -0.206 F 
ATOM     80  C   UNL A   1      42.281  25.304  25.790  1.00  0.00     0.022 A 
BRANCH  77  81
ATOM     81  S   UNL A   1      41.455  22.960  26.986  1.00  0.00     0.124 S 
ATOM     82  O   UNL A   1      40.028  22.773  27.240  1.00  0.00    -0.237 OA
ATOM     83  O   UNL A   1      41.916  22.529  25.669  1.00  0.00    -0.237 OA
ATOM     84  O   UNL A   1      42.337  22.628  28.099  1.00  0.00    -0.744 OA
ENDBRANCH  77  81
ENDBRANCH  60  74
BRANCH  61  85
ATOM     85  C   UNL A   1      38.913  32.581  35.730  1.00  0.00     0.023 A 
ATOM     86  C   UNL A   1      39.366  33.909  35.841  1.00  0.00     0.031 A 
ATOM     87  C   UNL A   1      38.238  32.018  36.824  1.00  0.00     0.131 A 
ATOM     88  C   UNL A   1      39.234  34.590  37.057  1.00  0.00     0.055 A 
ATOM     89  C   UNL A   1      38.032  32.733  38.006  1.00  0.00     0.041 A 
ATOM     90  F   UNL A   1      37.797  30.751  36.769  1.00  0.00    -0.206 F 
ATOM     91  C   UNL A   1      38.553  34.016  38.135  1.00  0.00     0.022 A 
BRANCH  88  92
ATOM     92  S   UNL A   1      40.090  36.167  37.333  1.00  0.00     0.124 S 
ATOM     93  O   UNL A   1      39.283  36.773  38.386  1.00  0.00    -0.237 OA
ATOM     94  O   UNL A   1      41.419  35.713  37.735  1.00  0.00    -0.237 OA
ATOM     95  O   UNL A   1      40.029  36.824  36.032  1.00  0.00    -0.744 OA
ENDBRANCH  88  92
ENDBRANCH  61  85
BRANCH  73  96
ATOM     96  C   UNL A   1      44.177  28.146  34.196  1.00  0.00     0.023 A 
ATOM     97  C   UNL A   1      44.038  27.021  35.032  1.00  0.00     0.031 A 
ATOM     98  C   UNL A   1      45.379  28.871  34.244  1.00  0.00     0.131 A 
ATOM     99  C   UNL A   1      45.061  26.692  35.929  1.00  0.00     0.055 A 
ATOM    100  C   UNL A   1      46.417  28.507  35.103  1.00  0.00     0.041 A 
ATOM    101  F   UNL A   1      45.551  29.958  33.475  1.00  0.00    -0.206 F 
ATOM    102  C   UNL A   1      46.252  27.424  35.965  1.00  0.00     0.022 A 
BRANCH  99 103
ATOM    103  S   UNL A   1      44.838  25.376  37.158  1.00  0.00     0.124 S 
ATOM    104  O   UNL A   1      43.383  25.267  37.224  1.00  0.00    -0.237 OA
ATOM    105  O   UNL A   1      45.520  24.248  36.529  1.00  0.00    -0.237 OA
ATOM    106  O   UNL A   1      45.478  25.903  38.359  1.00  0.00    -0.744 OA
ENDBRANCH  99 103
ENDBRANCH  73  96
ENDBRANCH  47  48
ENDBRANCH  39  42
ENDBRANCH  37  38
ENDBRANCH  36  37
ENDBRANCH   1  36
TORSDOF 19
ENDMDL
