MODEL 1
REMARK VINA RESULT:     -12.2      0.000      0.000
REMARK SMILES Cc1nsc(N[C@@H](C)C2CCCC2)c1C(=O)NCCCNC(=O)c1ccc(-c2c3nc(c(-c4cc(S(=O)(=O)[O-])ccc4F)c4ccc([nH]4)c(-c4cc(S(=O)(=O)[O-])ccc4F)c4nc(c(-c5cc(S(=O)(=O)[O-])ccc5F)c5ccc2[nH]5)C=C4)C=C3)cc1
REMARK SMILES IDX 19 1 18 2 17 3 15 4 16 5 14 7 1 8 2 9 3 10 4 11 5 12 6 13
REMARK SMILES IDX 7 15 8 16 9 17 10 18 13 19 11 20 12 21 20 22 21 23 22 24
REMARK SMILES IDX 23 26 24 27 25 28 86 29 26 30 85 31 27 32 28 33 29 34 79 35
REMARK SMILES IDX 30 36 84 37 78 38 80 39 31 40 83 41 77 42 76 43 32 45 64 46
REMARK SMILES IDX 44 47 63 48 45 49 48 50 62 51 81 52 46 53 47 54 61 56 82 57
REMARK SMILES IDX 49 58 33 59 34 60 42 61 35 62 41 63 43 64 40 65 36 66 37 67
REMARK SMILES IDX 38 68 39 69 65 70 66 71 74 72 67 73 73 74 75 75 72 76 68 77
REMARK SMILES IDX 69 78 70 79 71 80 50 81 51 82 59 83 52 84 58 85 60 86 57 87
REMARK SMILES IDX 53 88 54 89 55 90 56 91
REMARK H PARENT 17 6 6 14 21 25 80 44 48 55
REMARK Flexibility Score: inf
ROOT
ATOM      1  C   UNL A   1      33.928  29.592  27.242  1.00  0.00     0.042 C 
ENDROOT
BRANCH   1   2
ATOM      2  C   UNL A   1      33.250  28.238  27.055  1.00  0.00     0.118 C 
BRANCH   2   3
ATOM      3  N   UNL A   1      33.702  27.513  25.900  1.00  0.00    -0.352 N 
ATOM      4  C   UNL A   1      33.429  26.296  25.342  1.00  0.00     0.256 C 
ATOM      5  O   UNL A   1      33.885  26.212  24.190  1.00  0.00    -0.269 OA
ATOM      6  H   UNL A   1      34.372  28.017  25.385  1.00  0.00     0.163 HD
BRANCH   4   7
ATOM      7  C   UNL A   1      32.731  25.142  25.964  1.00  0.00     0.097 A 
ATOM      8  C   UNL A   1      30.076  25.588  26.163  1.00  0.00     0.069 C 
ATOM      9  C   UNL A   1      31.348  24.839  26.347  1.00  0.00     0.066 A 
ATOM     10  N   UNL A   1      31.143  23.668  26.955  1.00  0.00    -0.195 NA
ATOM     11  S   UNL A   1      32.539  22.839  27.053  1.00  0.00    -0.018 S 
ATOM     12  C   UNL A   1      33.513  24.003  26.273  1.00  0.00     0.122 A 
BRANCH  12  13
ATOM     13  N   UNL A   1      34.840  23.843  26.014  1.00  0.00    -0.372 N 
ATOM     14  H   UNL A   1      35.443  24.523  26.390  1.00  0.00     0.161 HD
BRANCH  13  15
ATOM     15  C   UNL A   1      35.465  22.781  25.244  1.00  0.00     0.080 C 
ATOM     16  C   UNL A   1      34.892  22.827  23.827  1.00  0.00     0.031 C 
BRANCH  15  17
ATOM     17  C   UNL A   1      37.002  22.924  25.335  1.00  0.00     0.011 C 
ATOM     18  C   UNL A   1      37.514  23.869  26.423  1.00  0.00     0.006 C 
ATOM     19  C   UNL A   1      37.780  21.639  25.635  1.00  0.00     0.006 C 
ATOM     20  C   UNL A   1      39.006  23.571  26.496  1.00  0.00     0.000 C 
ATOM     21  C   UNL A   1      39.159  22.106  26.096  1.00  0.00     0.000 C 
ENDBRANCH  15  17
ENDBRANCH  13  15
ENDBRANCH  12  13
ENDBRANCH   4   7
ENDBRANCH   2   3
ENDBRANCH   1   2
BRANCH   1  22
ATOM     22  C   UNL A   1      35.381  29.406  27.646  1.00  0.00     0.118 C 
BRANCH  22  23
ATOM     23  N   UNL A   1      35.628  29.781  29.046  1.00  0.00    -0.352 N 
ATOM     24  C   UNL A   1      36.687  29.395  29.858  1.00  0.00     0.251 C 
ATOM     25  H   UNL A   1      34.961  30.377  29.459  1.00  0.00     0.163 HD
ATOM     26  O   UNL A   1      36.630  29.512  31.067  1.00  0.00    -0.269 OA
BRANCH  24  27
ATOM     27  C   UNL A   1      37.876  28.842  29.184  1.00  0.00     0.039 A 
ATOM     28  C   UNL A   1      38.428  29.432  28.049  1.00  0.00     0.014 A 
ATOM     29  C   UNL A   1      38.516  27.796  29.839  1.00  0.00     0.014 A 
ATOM     30  C   UNL A   1      39.701  29.025  27.653  1.00  0.00     0.010 A 
ATOM     31  C   UNL A   1      39.840  27.564  29.583  1.00  0.00     0.010 A 
ATOM     32  C   UNL A   1      40.424  28.121  28.457  1.00  0.00    -0.014 A 
BRANCH  32  33
ATOM     33  C   UNL A   1      41.839  27.846  28.221  1.00  0.00     0.031 A 
ATOM     34  C   UNL A   1      42.084  26.595  27.460  1.00  0.00     0.074 A 
ATOM     35  C   UNL A   1      42.844  28.706  28.507  1.00  0.00     0.049 A 
ATOM     36  N   UNL A   1      42.413  25.453  27.960  1.00  0.00    -0.248 NA
ATOM     37  C   UNL A   1      41.729  26.530  26.034  1.00  0.00     0.031 C 
ATOM     38  C   UNL A   1      42.771  30.085  29.005  1.00  0.00     0.029 A 
ATOM     39  N   UNL A   1      44.185  28.531  28.346  1.00  0.00    -0.354 N 
ATOM     40  C   UNL A   1      42.590  24.597  26.883  1.00  0.00     0.074 A 
ATOM     41  C   UNL A   1      41.936  25.235  25.772  1.00  0.00     0.031 C 
ATOM     42  C   UNL A   1      43.980  30.682  28.896  1.00  0.00     0.029 A 
ATOM     43  C   UNL A   1      44.956  29.683  28.503  1.00  0.00     0.049 A 
ATOM     44  H   UNL A   1      44.581  27.656  28.135  1.00  0.00     0.167 HD
ATOM     45  C   UNL A   1      43.485  23.573  26.961  1.00  0.00     0.034 A 
ATOM     46  C   UNL A   1      46.306  29.805  28.360  1.00  0.00     0.034 A 
ATOM     47  C   UNL A   1      43.910  23.370  28.332  1.00  0.00     0.049 A 
ATOM     48  C   UNL A   1      46.865  28.447  28.581  1.00  0.00     0.074 A 
ATOM     49  C   UNL A   1      43.257  23.074  29.514  1.00  0.00     0.029 A 
ATOM     50  N   UNL A   1      45.125  23.903  28.708  1.00  0.00    -0.354 N 
ATOM     51  N   UNL A   1      46.788  27.830  29.729  1.00  0.00    -0.248 NA
ATOM     52  C   UNL A   1      47.019  27.580  27.423  1.00  0.00     0.031 C 
ATOM     53  C   UNL A   1      43.876  23.912  30.492  1.00  0.00     0.029 A 
ATOM     54  C   UNL A   1      44.938  24.587  29.885  1.00  0.00     0.049 A 
ATOM     55  H   UNL A   1      45.975  23.809  28.220  1.00  0.00     0.167 HD
ATOM     56  C   UNL A   1      46.428  26.529  29.413  1.00  0.00     0.074 A 
ATOM     57  C   UNL A   1      46.670  26.413  27.974  1.00  0.00     0.031 C 
ATOM     58  C   UNL A   1      45.700  25.761  30.279  1.00  0.00     0.034 A 
BRANCH  45  59
ATOM     59  C   UNL A   1      44.275  23.009  25.801  1.00  0.00     0.023 A 
ATOM     60  C   UNL A   1      44.208  21.617  25.602  1.00  0.00     0.031 A 
ATOM     61  C   UNL A   1      45.288  23.686  25.089  1.00  0.00     0.131 A 
ATOM     62  C   UNL A   1      45.175  20.951  24.832  1.00  0.00     0.055 A 
ATOM     63  C   UNL A   1      46.209  23.025  24.270  1.00  0.00     0.041 A 
ATOM     64  F   UNL A   1      45.512  24.999  25.214  1.00  0.00    -0.206 F 
ATOM     65  C   UNL A   1      46.177  21.646  24.163  1.00  0.00     0.022 A 
BRANCH  62  66
ATOM     66  S   UNL A   1      45.201  19.141  24.871  1.00  0.00     0.124 S 
ATOM     67  O   UNL A   1      44.083  18.852  25.763  1.00  0.00    -0.237 OA
ATOM     68  O   UNL A   1      45.008  18.807  23.464  1.00  0.00    -0.237 OA
ATOM     69  O   UNL A   1      46.525  18.833  25.409  1.00  0.00    -0.744 OA
ENDBRANCH  62  66
ENDBRANCH  45  59
BRANCH  46  70
ATOM     70  C   UNL A   1      47.055  30.907  27.681  1.00  0.00     0.023 A 
ATOM     71  C   UNL A   1      46.427  32.006  27.049  1.00  0.00     0.031 A 
ATOM     72  C   UNL A   1      48.450  31.015  27.885  1.00  0.00     0.131 A 
ATOM     73  C   UNL A   1      47.185  33.143  26.663  1.00  0.00     0.055 A 
ATOM     74  C   UNL A   1      49.189  32.140  27.511  1.00  0.00     0.041 A 
ATOM     75  F   UNL A   1      49.131  30.060  28.539  1.00  0.00    -0.206 F 
ATOM     76  C   UNL A   1      48.558  33.215  26.908  1.00  0.00     0.022 A 
BRANCH  73  77
ATOM     77  S   UNL A   1      46.386  34.598  25.897  1.00  0.00     0.124 S 
ATOM     78  O   UNL A   1      45.725  35.226  27.035  1.00  0.00    -0.237 OA
ATOM     79  O   UNL A   1      47.518  35.315  25.325  1.00  0.00    -0.237 OA
ATOM     80  O   UNL A   1      45.476  34.010  24.910  1.00  0.00    -0.744 OA
ENDBRANCH  73  77
ENDBRANCH  46  70
BRANCH  58  81
ATOM     81  C   UNL A   1      45.531  26.243  31.711  1.00  0.00     0.023 A 
ATOM     82  C   UNL A   1      44.419  26.960  32.216  1.00  0.00     0.031 A 
ATOM     83  C   UNL A   1      46.518  25.848  32.632  1.00  0.00     0.131 A 
ATOM     84  C   UNL A   1      44.338  27.257  33.595  1.00  0.00     0.055 A 
ATOM     85  C   UNL A   1      46.421  26.121  33.995  1.00  0.00     0.041 A 
ATOM     86  F   UNL A   1      47.590  25.149  32.221  1.00  0.00    -0.206 F 
ATOM     87  C   UNL A   1      45.333  26.833  34.482  1.00  0.00     0.022 A 
BRANCH  84  88
ATOM     88  S   UNL A   1      42.947  28.229  34.267  1.00  0.00     0.124 S 
ATOM     89  O   UNL A   1      43.314  28.431  35.663  1.00  0.00    -0.237 OA
ATOM     90  O   UNL A   1      42.955  29.423  33.425  1.00  0.00    -0.237 OA
ATOM     91  O   UNL A   1      41.789  27.354  34.064  1.00  0.00    -0.744 OA
ENDBRANCH  84  88
ENDBRANCH  58  81
ENDBRANCH  32  33
ENDBRANCH  24  27
ENDBRANCH  22  23
ENDBRANCH   1  22
TORSDOF 16
ENDMDL
MODEL 2
REMARK VINA RESULT:     -11.9      1.541      3.296
REMARK SMILES Cc1nsc(N[C@@H](C)C2CCCC2)c1C(=O)NCCCNC(=O)c1ccc(-c2c3nc(c(-c4cc(S(=O)(=O)[O-])ccc4F)c4ccc([nH]4)c(-c4cc(S(=O)(=O)[O-])ccc4F)c4nc(c(-c5cc(S(=O)(=O)[O-])ccc5F)c5ccc2[nH]5)C=C4)C=C3)cc1
REMARK SMILES IDX 19 1 18 2 17 3 15 4 16 5 14 7 1 8 2 9 3 10 4 11 5 12 6 13
REMARK SMILES IDX 7 15 8 16 9 17 10 18 13 19 11 20 12 21 20 22 21 23 22 24
REMARK SMILES IDX 23 26 24 27 25 28 86 29 26 30 85 31 27 32 28 33 29 34 79 35
REMARK SMILES IDX 30 36 84 37 78 38 80 39 31 40 83 41 77 42 76 43 32 45 64 46
REMARK SMILES IDX 44 47 63 48 45 49 48 50 62 51 81 52 46 53 47 54 61 56 82 57
REMARK SMILES IDX 49 58 33 59 34 60 42 61 35 62 41 63 43 64 40 65 36 66 37 67
REMARK SMILES IDX 38 68 39 69 65 70 66 71 74 72 67 73 73 74 75 75 72 76 68 77
REMARK SMILES IDX 69 78 70 79 71 80 50 81 51 82 59 83 52 84 58 85 60 86 57 87
REMARK SMILES IDX 53 88 54 89 55 90 56 91
REMARK H PARENT 17 6 6 14 21 25 80 44 48 55
REMARK Flexibility Score: inf
ROOT
ATOM      1  C   UNL A   1      33.875  29.116  27.355  1.00  0.00     0.042 C 
ENDROOT
BRANCH   1   2
ATOM      2  C   UNL A   1      33.657  27.842  26.544  1.00  0.00     0.118 C 
BRANCH   2   3
ATOM      3  N   UNL A   1      33.850  28.008  25.130  1.00  0.00    -0.352 N 
ATOM      4  C   UNL A   1      33.625  27.248  24.017  1.00  0.00     0.256 C 
ATOM      5  O   UNL A   1      33.718  27.923  22.980  1.00  0.00    -0.269 OA
ATOM      6  H   UNL A   1      34.240  28.884  24.910  1.00  0.00     0.163 HD
BRANCH   4   7
ATOM      7  C   UNL A   1      33.349  25.790  23.948  1.00  0.00     0.097 A 
ATOM      8  C   UNL A   1      35.329  24.358  25.097  1.00  0.00     0.069 C 
ATOM      9  C   UNL A   1      34.057  24.572  24.356  1.00  0.00     0.066 A 
ATOM     10  N   UNL A   1      33.468  23.413  24.048  1.00  0.00    -0.195 NA
ATOM     11  S   UNL A   1      32.037  23.688  23.325  1.00  0.00    -0.018 S 
ATOM     12  C   UNL A   1      32.112  25.392  23.387  1.00  0.00     0.122 A 
BRANCH  12  13
ATOM     13  N   UNL A   1      31.125  26.218  22.944  1.00  0.00    -0.372 N 
ATOM     14  H   UNL A   1      31.267  26.634  22.063  1.00  0.00     0.161 HD
BRANCH  13  15
ATOM     15  C   UNL A   1      29.887  26.556  23.624  1.00  0.00     0.080 C 
ATOM     16  C   UNL A   1      30.022  26.132  25.087  1.00  0.00     0.031 C 
BRANCH  15  17
ATOM     17  C   UNL A   1      29.577  28.054  23.401  1.00  0.00     0.011 C 
ATOM     18  C   UNL A   1      30.325  28.719  22.245  1.00  0.00     0.006 C 
ATOM     19  C   UNL A   1      28.119  28.399  23.079  1.00  0.00     0.006 C 
ATOM     20  C   UNL A   1      29.607  30.049  22.058  1.00  0.00     0.000 C 
ATOM     21  C   UNL A   1      28.162  29.807  22.491  1.00  0.00     0.000 C 
ENDBRANCH  15  17
ENDBRANCH  13  15
ENDBRANCH  12  13
ENDBRANCH   4   7
ENDBRANCH   2   3
ENDBRANCH   1   2
BRANCH   1  22
ATOM     22  C   UNL A   1      35.354  29.312  27.647  1.00  0.00     0.118 C 
BRANCH  22  23
ATOM     23  N   UNL A   1      35.602  29.716  29.039  1.00  0.00    -0.352 N 
ATOM     24  C   UNL A   1      36.671  29.360  29.852  1.00  0.00     0.251 C 
ATOM     25  H   UNL A   1      34.931  30.311  29.444  1.00  0.00     0.163 HD
ATOM     26  O   UNL A   1      36.619  29.498  31.059  1.00  0.00    -0.269 OA
BRANCH  24  27
ATOM     27  C   UNL A   1      37.864  28.809  29.182  1.00  0.00     0.039 A 
ATOM     28  C   UNL A   1      38.432  29.414  28.063  1.00  0.00     0.014 A 
ATOM     29  C   UNL A   1      38.490  27.748  29.826  1.00  0.00     0.014 A 
ATOM     30  C   UNL A   1      39.706  29.004  27.674  1.00  0.00     0.010 A 
ATOM     31  C   UNL A   1      39.814  27.511  29.582  1.00  0.00     0.010 A 
ATOM     32  C   UNL A   1      40.415  28.082  28.471  1.00  0.00    -0.014 A 
BRANCH  32  33
ATOM     33  C   UNL A   1      41.830  27.801  28.246  1.00  0.00     0.031 A 
ATOM     34  C   UNL A   1      42.076  26.553  27.481  1.00  0.00     0.074 A 
ATOM     35  C   UNL A   1      42.837  28.655  28.547  1.00  0.00     0.049 A 
ATOM     36  N   UNL A   1      42.394  25.407  27.977  1.00  0.00    -0.248 NA
ATOM     37  C   UNL A   1      41.733  26.498  26.051  1.00  0.00     0.031 C 
ATOM     38  C   UNL A   1      42.767  30.031  29.052  1.00  0.00     0.029 A 
ATOM     39  N   UNL A   1      44.178  28.473  28.397  1.00  0.00    -0.354 N 
ATOM     40  C   UNL A   1      42.577  24.556  26.896  1.00  0.00     0.074 A 
ATOM     41  C   UNL A   1      41.936  25.205  25.783  1.00  0.00     0.031 C 
ATOM     42  C   UNL A   1      43.980  30.622  28.958  1.00  0.00     0.029 A 
ATOM     43  C   UNL A   1      44.954  29.620  28.567  1.00  0.00     0.049 A 
ATOM     44  H   UNL A   1      44.571  27.597  28.184  1.00  0.00     0.167 HD
ATOM     45  C   UNL A   1      43.465  23.527  26.975  1.00  0.00     0.034 A 
ATOM     46  C   UNL A   1      46.306  29.736  28.438  1.00  0.00     0.034 A 
ATOM     47  C   UNL A   1      43.877  23.314  28.349  1.00  0.00     0.049 A 
ATOM     48  C   UNL A   1      46.856  28.374  28.655  1.00  0.00     0.074 A 
ATOM     49  C   UNL A   1      43.212  23.014  29.524  1.00  0.00     0.029 A 
ATOM     50  N   UNL A   1      45.091  23.838  28.740  1.00  0.00    -0.354 N 
ATOM     51  N   UNL A   1      46.765  27.751  29.799  1.00  0.00    -0.248 NA
ATOM     52  C   UNL A   1      47.016  27.513  27.493  1.00  0.00     0.031 C 
ATOM     53  C   UNL A   1      43.826  23.843  30.512  1.00  0.00     0.029 A 
ATOM     54  C   UNL A   1      44.897  24.516  29.919  1.00  0.00     0.049 A 
ATOM     55  H   UNL A   1      45.945  23.743  28.259  1.00  0.00     0.167 HD
ATOM     56  C   UNL A   1      46.401  26.453  29.472  1.00  0.00     0.074 A 
ATOM     57  C   UNL A   1      46.656  26.344  28.035  1.00  0.00     0.031 C 
ATOM     58  C   UNL A   1      45.661  25.683  30.327  1.00  0.00     0.034 A 
BRANCH  45  59
ATOM     59  C   UNL A   1      44.262  22.966  25.820  1.00  0.00     0.023 A 
ATOM     60  C   UNL A   1      44.225  21.570  25.637  1.00  0.00     0.031 A 
ATOM     61  C   UNL A   1      45.259  23.656  25.095  1.00  0.00     0.131 A 
ATOM     62  C   UNL A   1      45.203  20.915  24.872  1.00  0.00     0.055 A 
ATOM     63  C   UNL A   1      46.190  23.005  24.280  1.00  0.00     0.041 A 
ATOM     64  F   UNL A   1      45.455  24.974  25.204  1.00  0.00    -0.206 F 
ATOM     65  C   UNL A   1      46.188  21.624  24.191  1.00  0.00     0.022 A 
BRANCH  62  66
ATOM     66  S   UNL A   1      45.268  19.108  24.933  1.00  0.00     0.124 S 
ATOM     67  O   UNL A   1      45.072  18.760  23.529  1.00  0.00    -0.237 OA
ATOM     68  O   UNL A   1      46.601  18.872  25.476  1.00  0.00    -0.237 OA
ATOM     69  O   UNL A   1      44.161  18.760  25.822  1.00  0.00    -0.744 OA
ENDBRANCH  62  66
ENDBRANCH  45  59
BRANCH  46  70
ATOM     70  C   UNL A   1      47.067  30.838  27.772  1.00  0.00     0.023 A 
ATOM     71  C   UNL A   1      46.453  31.877  27.033  1.00  0.00     0.031 A 
ATOM     72  C   UNL A   1      48.433  31.018  28.091  1.00  0.00     0.131 A 
ATOM     73  C   UNL A   1      47.195  33.028  26.657  1.00  0.00     0.055 A 
ATOM     74  C   UNL A   1      49.155  32.158  27.727  1.00  0.00     0.041 A 
ATOM     75  F   UNL A   1      49.090  30.127  28.849  1.00  0.00    -0.206 F 
ATOM     76  C   UNL A   1      48.537  33.173  27.018  1.00  0.00     0.022 A 
BRANCH  73  77
ATOM     77  S   UNL A   1      46.408  34.408  25.753  1.00  0.00     0.124 S 
ATOM     78  O   UNL A   1      47.492  34.881  24.900  1.00  0.00    -0.237 OA
ATOM     79  O   UNL A   1      45.294  33.750  25.082  1.00  0.00    -0.237 OA
ATOM     80  O   UNL A   1      46.017  35.336  26.815  1.00  0.00    -0.744 OA
ENDBRANCH  73  77
ENDBRANCH  46  70
BRANCH  58  81
ATOM     81  C   UNL A   1      45.482  26.158  31.760  1.00  0.00     0.023 A 
ATOM     82  C   UNL A   1      44.372  26.882  32.258  1.00  0.00     0.031 A 
ATOM     83  C   UNL A   1      46.456  25.747  32.689  1.00  0.00     0.131 A 
ATOM     84  C   UNL A   1      44.279  27.171  33.638  1.00  0.00     0.055 A 
ATOM     85  C   UNL A   1      46.347  26.013  34.052  1.00  0.00     0.041 A 
ATOM     86  F   UNL A   1      47.526  25.042  32.284  1.00  0.00    -0.206 F 
ATOM     87  C   UNL A   1      45.260  26.732  34.532  1.00  0.00     0.022 A 
BRANCH  84  88
ATOM     88  S   UNL A   1      42.890  28.152  34.302  1.00  0.00     0.124 S 
ATOM     89  O   UNL A   1      41.727  27.307  34.061  1.00  0.00    -0.237 OA
ATOM     90  O   UNL A   1      43.269  28.334  35.701  1.00  0.00    -0.237 OA
ATOM     91  O   UNL A   1      42.925  29.379  33.501  1.00  0.00    -0.744 OA
ENDBRANCH  84  88
ENDBRANCH  58  81
ENDBRANCH  32  33
ENDBRANCH  24  27
ENDBRANCH  22  23
ENDBRANCH   1  22
TORSDOF 16
ENDMDL
MODEL 3
REMARK VINA RESULT:     -11.8      3.308      8.090
REMARK SMILES Cc1nsc(N[C@@H](C)C2CCCC2)c1C(=O)NCCCNC(=O)c1ccc(-c2c3nc(c(-c4cc(S(=O)(=O)[O-])ccc4F)c4ccc([nH]4)c(-c4cc(S(=O)(=O)[O-])ccc4F)c4nc(c(-c5cc(S(=O)(=O)[O-])ccc5F)c5ccc2[nH]5)C=C4)C=C3)cc1
REMARK SMILES IDX 19 1 18 2 17 3 15 4 16 5 14 7 1 8 2 9 3 10 4 11 5 12 6 13
REMARK SMILES IDX 7 15 8 16 9 17 10 18 13 19 11 20 12 21 20 22 21 23 22 24
REMARK SMILES IDX 23 26 24 27 25 28 86 29 26 30 85 31 27 32 28 33 29 34 79 35
REMARK SMILES IDX 30 36 84 37 78 38 80 39 31 40 83 41 77 42 76 43 32 45 64 46
REMARK SMILES IDX 44 47 63 48 45 49 48 50 62 51 81 52 46 53 47 54 61 56 82 57
REMARK SMILES IDX 49 58 33 59 34 60 42 61 35 62 41 63 43 64 40 65 36 66 37 67
REMARK SMILES IDX 38 68 39 69 65 70 66 71 74 72 67 73 73 74 75 75 72 76 68 77
REMARK SMILES IDX 69 78 70 79 71 80 50 81 51 82 59 83 52 84 58 85 60 86 57 87
REMARK SMILES IDX 53 88 54 89 55 90 56 91
REMARK H PARENT 17 6 6 14 21 25 80 44 48 55
REMARK Flexibility Score: inf
ROOT
ATOM      1  C   UNL A   1      32.954  30.429  27.278  1.00  0.00     0.042 C 
ENDROOT
BRANCH   1   2
ATOM      2  C   UNL A   1      33.255  28.934  27.230  1.00  0.00     0.118 C 
BRANCH   2   3
ATOM      3  N   UNL A   1      32.089  28.107  27.092  1.00  0.00    -0.352 N 
ATOM      4  C   UNL A   1      31.684  27.124  26.234  1.00  0.00     0.256 C 
ATOM      5  O   UNL A   1      30.692  26.520  26.671  1.00  0.00    -0.269 OA
ATOM      6  H   UNL A   1      31.416  28.295  27.786  1.00  0.00     0.163 HD
BRANCH   4   7
ATOM      7  C   UNL A   1      32.255  26.778  24.907  1.00  0.00     0.097 A 
ATOM      8  C   UNL A   1      34.200  24.917  25.128  1.00  0.00     0.069 C 
ATOM      9  C   UNL A   1      33.323  25.893  24.428  1.00  0.00     0.066 A 
ATOM     10  N   UNL A   1      33.567  25.916  23.115  1.00  0.00    -0.195 NA
ATOM     11  S   UNL A   1      32.527  26.922  22.371  1.00  0.00    -0.018 S 
ATOM     12  C   UNL A   1      31.670  27.387  23.772  1.00  0.00     0.122 A 
BRANCH  12  13
ATOM     13  N   UNL A   1      30.600  28.229  23.770  1.00  0.00    -0.372 N 
ATOM     14  H   UNL A   1      30.684  29.041  24.320  1.00  0.00     0.161 HD
BRANCH  13  15
ATOM     15  C   UNL A   1      29.350  28.064  23.050  1.00  0.00     0.080 C 
ATOM     16  C   UNL A   1      28.586  26.905  23.692  1.00  0.00     0.031 C 
BRANCH  15  17
ATOM     17  C   UNL A   1      28.595  29.413  23.024  1.00  0.00     0.011 C 
ATOM     18  C   UNL A   1      29.313  30.584  23.697  1.00  0.00     0.006 C 
ATOM     19  C   UNL A   1      28.284  29.983  21.636  1.00  0.00     0.006 C 
ATOM     20  C   UNL A   1      28.523  31.806  23.248  1.00  0.00     0.000 C 
ATOM     21  C   UNL A   1      27.956  31.455  21.874  1.00  0.00     0.000 C 
ENDBRANCH  15  17
ENDBRANCH  13  15
ENDBRANCH  12  13
ENDBRANCH   4   7
ENDBRANCH   2   3
ENDBRANCH   1   2
BRANCH   1  22
ATOM     22  C   UNL A   1      34.234  31.221  27.490  1.00  0.00     0.118 C 
BRANCH  22  23
ATOM     23  N   UNL A   1      34.227  31.974  28.752  1.00  0.00    -0.352 N 
ATOM     24  C   UNL A   1      35.138  31.894  29.797  1.00  0.00     0.251 C 
ATOM     25  H   UNL A   1      33.486  32.611  28.872  1.00  0.00     0.163 HD
ATOM     26  O   UNL A   1      34.871  32.326  30.902  1.00  0.00    -0.269 OA
BRANCH  24  27
ATOM     27  C   UNL A   1      36.438  31.263  29.502  1.00  0.00     0.039 A 
ATOM     28  C   UNL A   1      37.649  31.904  29.758  1.00  0.00     0.014 A 
ATOM     29  C   UNL A   1      36.394  29.930  29.110  1.00  0.00     0.014 A 
ATOM     30  C   UNL A   1      38.813  31.138  29.726  1.00  0.00     0.010 A 
ATOM     31  C   UNL A   1      37.499  29.145  29.299  1.00  0.00     0.010 A 
ATOM     32  C   UNL A   1      38.725  29.743  29.542  1.00  0.00    -0.014 A 
BRANCH  32  33
ATOM     33  C   UNL A   1      39.879  28.869  29.737  1.00  0.00     0.031 A 
ATOM     34  C   UNL A   1      40.185  28.594  31.163  1.00  0.00     0.074 A 
ATOM     35  C   UNL A   1      40.526  28.223  28.739  1.00  0.00     0.049 A 
ATOM     36  N   UNL A   1      41.084  29.182  31.875  1.00  0.00    -0.248 NA
ATOM     37  C   UNL A   1      39.278  27.743  31.950  1.00  0.00     0.031 C 
ATOM     38  C   UNL A   1      40.198  28.159  27.309  1.00  0.00     0.029 A 
ATOM     39  N   UNL A   1      41.617  27.412  28.818  1.00  0.00    -0.354 N 
ATOM     40  C   UNL A   1      41.052  28.570  33.120  1.00  0.00     0.074 A 
ATOM     41  C   UNL A   1      39.791  27.879  33.177  1.00  0.00     0.031 C 
ATOM     42  C   UNL A   1      40.930  27.193  26.708  1.00  0.00     0.029 A 
ATOM     43  C   UNL A   1      41.911  26.697  27.656  1.00  0.00     0.049 A 
ATOM     44  H   UNL A   1      42.158  27.335  29.636  1.00  0.00     0.167 HD
ATOM     45  C   UNL A   1      42.185  28.484  33.871  1.00  0.00     0.034 A 
ATOM     46  C   UNL A   1      42.912  25.792  27.468  1.00  0.00     0.034 A 
ATOM     47  C   UNL A   1      43.219  29.348  33.335  1.00  0.00     0.049 A 
ATOM     48  C   UNL A   1      43.952  26.117  28.477  1.00  0.00     0.074 A 
ATOM     49  C   UNL A   1      43.317  30.705  33.093  1.00  0.00     0.029 A 
ATOM     50  N   UNL A   1      44.195  28.765  32.554  1.00  0.00    -0.354 N 
ATOM     51  N   UNL A   1      44.621  27.238  28.466  1.00  0.00    -0.248 NA
ATOM     52  C   UNL A   1      43.869  25.460  29.773  1.00  0.00     0.031 C 
ATOM     53  C   UNL A   1      43.964  30.803  31.823  1.00  0.00     0.029 A 
ATOM     54  C   UNL A   1      44.325  29.518  31.412  1.00  0.00     0.049 A 
ATOM     55  H   UNL A   1      44.708  27.955  32.777  1.00  0.00     0.167 HD
ATOM     56  C   UNL A   1      44.646  27.654  29.788  1.00  0.00     0.074 A 
ATOM     57  C   UNL A   1      44.244  26.476  30.558  1.00  0.00     0.031 C 
ATOM     58  C   UNL A   1      44.709  28.980  30.117  1.00  0.00     0.034 A 
BRANCH  45  59
ATOM     59  C   UNL A   1      42.515  27.365  34.832  1.00  0.00     0.023 A 
ATOM     60  C   UNL A   1      43.351  26.338  34.352  1.00  0.00     0.031 A 
ATOM     61  C   UNL A   1      41.846  27.098  36.047  1.00  0.00     0.131 A 
ATOM     62  C   UNL A   1      43.406  25.091  34.995  1.00  0.00     0.055 A 
ATOM     63  C   UNL A   1      41.956  25.877  36.719  1.00  0.00     0.041 A 
ATOM     64  F   UNL A   1      40.979  27.951  36.601  1.00  0.00    -0.206 F 
ATOM     65  C   UNL A   1      42.713  24.852  36.178  1.00  0.00     0.022 A 
BRANCH  62  66
ATOM     66  S   UNL A   1      44.258  23.733  34.156  1.00  0.00     0.124 S 
ATOM     67  O   UNL A   1      45.633  24.219  34.134  1.00  0.00    -0.237 OA
ATOM     68  O   UNL A   1      43.985  22.610  35.046  1.00  0.00    -0.237 OA
ATOM     69  O   UNL A   1      43.596  23.672  32.854  1.00  0.00    -0.744 OA
ENDBRANCH  62  66
ENDBRANCH  45  59
BRANCH  46  70
ATOM     70  C   UNL A   1      42.832  24.479  26.757  1.00  0.00     0.023 A 
ATOM     71  C   UNL A   1      43.853  23.984  25.911  1.00  0.00     0.031 A 
ATOM     72  C   UNL A   1      41.824  23.559  27.126  1.00  0.00     0.131 A 
ATOM     73  C   UNL A   1      43.840  22.631  25.484  1.00  0.00     0.055 A 
ATOM     74  C   UNL A   1      41.822  22.225  26.710  1.00  0.00     0.041 A 
ATOM     75  F   UNL A   1      40.849  23.906  27.981  1.00  0.00    -0.206 F 
ATOM     76  C   UNL A   1      42.836  21.751  25.896  1.00  0.00     0.022 A 
BRANCH  73  77
ATOM     77  S   UNL A   1      45.179  21.955  24.439  1.00  0.00     0.124 S 
ATOM     78  O   UNL A   1      44.574  20.743  23.899  1.00  0.00    -0.237 OA
ATOM     79  O   UNL A   1      45.418  23.039  23.493  1.00  0.00    -0.237 OA
ATOM     80  O   UNL A   1      46.271  21.723  25.387  1.00  0.00    -0.744 OA
ENDBRANCH  73  77
ENDBRANCH  46  70
BRANCH  58  81
ATOM     81  C   UNL A   1      45.039  29.984  29.024  1.00  0.00     0.023 A 
ATOM     82  C   UNL A   1      46.341  30.382  28.633  1.00  0.00     0.031 A 
ATOM     83  C   UNL A   1      43.958  30.476  28.271  1.00  0.00     0.131 A 
ATOM     84  C   UNL A   1      46.513  31.246  27.529  1.00  0.00     0.055 A 
ATOM     85  C   UNL A   1      44.135  31.308  27.167  1.00  0.00     0.041 A 
ATOM     86  F   UNL A   1      42.699  30.124  28.578  1.00  0.00    -0.206 F 
ATOM     87  C   UNL A   1      45.413  31.702  26.795  1.00  0.00     0.022 A 
BRANCH  84  88
ATOM     88  S   UNL A   1      48.173  31.823  27.036  1.00  0.00     0.124 S 
ATOM     89  O   UNL A   1      48.760  32.288  28.286  1.00  0.00    -0.237 OA
ATOM     90  O   UNL A   1      48.769  30.621  26.458  1.00  0.00    -0.237 OA
ATOM     91  O   UNL A   1      47.891  32.884  26.065  1.00  0.00    -0.744 OA
ENDBRANCH  84  88
ENDBRANCH  58  81
ENDBRANCH  32  33
ENDBRANCH  24  27
ENDBRANCH  22  23
ENDBRANCH   1  22
TORSDOF 16
ENDMDL
