MODEL 1
REMARK VINA RESULT:     -13.1      0.000      0.000
REMARK SMILES Cc1ccc(S(=O)(=O)N(c2ccccc2)[C@H](C)C(=O)NCCCNC(=O)c2ccc(-c3c4nc(c(-c5cc(S(=O)(=O)[O-])ccc5F)c5ccc([nH]5)c(-c5cc(S(=O)(=O)[O-])ccc5F)c5nc(c(-c6cc(S(=O)(=O)[O-])ccc6F)c6ccc3[nH]6)C=C5)C=C4)cc2)cc1
REMARK SMILES IDX 22 1 21 2 20 3 18 4 19 5 16 7 17 8 9 9 6 10 7 11 8 12 5 13
REMARK SMILES IDX 1 14 2 15 3 16 91 17 4 18 90 19 10 20 11 21 15 22 12 23
REMARK SMILES IDX 14 24 13 25 23 26 24 27 25 28 26 30 27 31 28 32 89 33 29 34
REMARK SMILES IDX 88 35 30 36 31 37 32 38 82 39 33 40 87 41 81 42 83 43 34 44
REMARK SMILES IDX 86 45 80 46 79 47 35 49 67 50 47 51 66 52 48 53 51 54 65 55
REMARK SMILES IDX 84 56 49 57 50 58 64 60 85 61 52 62 36 63 37 64 45 65 38 66
REMARK SMILES IDX 44 67 46 68 43 69 39 70 40 71 41 72 42 73 68 74 69 75 77 76
REMARK SMILES IDX 70 77 76 78 78 79 75 80 71 81 72 82 73 83 74 84 53 85 54 86
REMARK SMILES IDX 62 87 55 88 61 89 63 90 60 91 56 92 57 93 58 94 59 95
REMARK H PARENT 20 6 24 29 83 48 51 59
REMARK Flexibility Score: inf
ROOT
ATOM      1  C   UNL A   1      33.209  31.151  27.346  1.00  0.00     0.042 C 
ENDROOT
BRANCH   1   2
ATOM      2  C   UNL A   1      32.520  30.304  26.299  1.00  0.00     0.117 C 
BRANCH   2   3
ATOM      3  N   UNL A   1      31.626  29.290  26.809  1.00  0.00    -0.354 N 
ATOM      4  C   UNL A   1      31.753  27.930  26.747  1.00  0.00     0.243 C 
ATOM      5  O   UNL A   1      30.997  27.270  27.472  1.00  0.00    -0.273 OA
ATOM      6  H   UNL A   1      30.817  29.622  27.261  1.00  0.00     0.163 HD
BRANCH   4   7
ATOM      7  C   UNL A   1      32.670  27.215  25.748  1.00  0.00     0.185 C 
ATOM      8  C   UNL A   1      34.141  27.368  26.155  1.00  0.00     0.043 C 
BRANCH   7   9
ATOM      9  N   UNL A   1      32.275  25.830  25.260  1.00  0.00    -0.254 N 
BRANCH   9  10
ATOM     10  S   UNL A   1      32.001  25.785  23.566  1.00  0.00     0.265 S 
ATOM     11  O   UNL A   1      31.516  24.448  23.264  1.00  0.00    -0.201 OA
ATOM     12  O   UNL A   1      33.186  26.280  22.896  1.00  0.00    -0.201 OA
BRANCH  10  13
ATOM     13  C   UNL A   1      30.664  26.884  23.136  1.00  0.00     0.088 A 
ATOM     14  C   UNL A   1      27.504  29.790  22.995  1.00  0.00     0.044 C 
ATOM     15  C   UNL A   1      28.583  28.750  22.992  1.00  0.00    -0.051 A 
ATOM     16  C   UNL A   1      28.356  27.490  23.552  1.00  0.00     0.005 A 
ATOM     17  C   UNL A   1      29.828  29.023  22.407  1.00  0.00     0.005 A 
ATOM     18  C   UNL A   1      29.397  26.568  23.643  1.00  0.00     0.022 A 
ATOM     19  C   UNL A   1      30.855  28.076  22.443  1.00  0.00     0.022 A 
ENDBRANCH  10  13
ENDBRANCH   9  10
BRANCH   9  20
ATOM     20  C   UNL A   1      32.883  24.675  25.860  1.00  0.00     0.053 A 
ATOM     21  C   UNL A   1      32.117  23.957  26.792  1.00  0.00     0.027 A 
ATOM     22  C   UNL A   1      34.206  24.295  25.618  1.00  0.00     0.027 A 
ATOM     23  C   UNL A   1      32.670  22.881  27.488  1.00  0.00     0.002 A 
ATOM     24  C   UNL A   1      34.760  23.221  26.324  1.00  0.00     0.002 A 
ATOM     25  C   UNL A   1      33.995  22.520  27.260  1.00  0.00     0.000 A 
ENDBRANCH   9  20
ENDBRANCH   7   9
ENDBRANCH   4   7
ENDBRANCH   2   3
ENDBRANCH   1   2
BRANCH   1  26
ATOM     26  C   UNL A   1      34.615  30.656  27.620  1.00  0.00     0.118 C 
BRANCH  26  27
ATOM     27  N   UNL A   1      35.501  31.598  28.314  1.00  0.00    -0.352 N 
ATOM     28  C   UNL A   1      36.722  31.332  28.925  1.00  0.00     0.251 C 
ATOM     29  H   UNL A   1      35.193  32.532  28.352  1.00  0.00     0.163 HD
ATOM     30  O   UNL A   1      37.339  32.200  29.519  1.00  0.00    -0.269 OA
BRANCH  28  31
ATOM     31  C   UNL A   1      37.312  29.979  28.747  1.00  0.00     0.039 A 
ATOM     32  C   UNL A   1      37.404  29.149  29.868  1.00  0.00     0.014 A 
ATOM     33  C   UNL A   1      38.056  29.714  27.605  1.00  0.00     0.014 A 
ATOM     34  C   UNL A   1      38.454  28.238  29.943  1.00  0.00     0.010 A 
ATOM     35  C   UNL A   1      39.188  28.942  27.747  1.00  0.00     0.010 A 
ATOM     36  C   UNL A   1      39.421  28.248  28.941  1.00  0.00    -0.014 A 
BRANCH  36  37
ATOM     37  C   UNL A   1      40.761  27.684  29.093  1.00  0.00     0.031 A 
ATOM     38  C   UNL A   1      41.007  26.265  28.751  1.00  0.00     0.074 A 
ATOM     39  C   UNL A   1      41.801  28.486  29.426  1.00  0.00     0.049 A 
ATOM     40  N   UNL A   1      42.086  25.628  29.045  1.00  0.00    -0.248 NA
ATOM     41  C   UNL A   1      40.009  25.410  28.107  1.00  0.00     0.031 C 
ATOM     42  C   UNL A   1      43.228  28.196  29.294  1.00  0.00     0.029 A 
ATOM     43  N   UNL A   1      41.756  29.642  30.211  1.00  0.00    -0.354 N 
ATOM     44  C   UNL A   1      42.063  24.429  28.377  1.00  0.00     0.074 A 
ATOM     45  C   UNL A   1      40.707  24.287  27.922  1.00  0.00     0.031 C 
ATOM     46  C   UNL A   1      43.910  28.950  30.168  1.00  0.00     0.029 A 
ATOM     47  C   UNL A   1      42.934  29.641  30.989  1.00  0.00     0.049 A 
ATOM     48  H   UNL A   1      41.045  30.322  30.219  1.00  0.00     0.167 HD
ATOM     49  C   UNL A   1      43.240  23.776  28.179  1.00  0.00     0.034 A 
ATOM     50  C   UNL A   1      42.877  29.580  32.350  1.00  0.00     0.034 A 
ATOM     51  C   UNL A   1      44.271  24.279  29.095  1.00  0.00     0.049 A 
ATOM     52  C   UNL A   1      43.543  28.351  32.936  1.00  0.00     0.074 A 
ATOM     53  C   UNL A   1      45.430  25.019  28.942  1.00  0.00     0.029 A 
ATOM     54  N   UNL A   1      44.018  24.236  30.467  1.00  0.00    -0.354 N 
ATOM     55  N   UNL A   1      43.914  27.306  32.245  1.00  0.00    -0.248 NA
ATOM     56  C   UNL A   1      43.831  28.203  34.358  1.00  0.00     0.031 C 
ATOM     57  C   UNL A   1      45.816  25.496  30.229  1.00  0.00     0.029 A 
ATOM     58  C   UNL A   1      44.923  25.007  31.169  1.00  0.00     0.049 A 
ATOM     59  H   UNL A   1      43.289  23.721  30.882  1.00  0.00     0.167 HD
ATOM     60  C   UNL A   1      44.432  26.349  33.085  1.00  0.00     0.074 A 
ATOM     61  C   UNL A   1      44.390  26.981  34.393  1.00  0.00     0.031 C 
ATOM     62  C   UNL A   1      44.826  25.117  32.625  1.00  0.00     0.034 A 
BRANCH  49  63
ATOM     63  C   UNL A   1      43.522  22.817  27.032  1.00  0.00     0.023 A 
ATOM     64  C   UNL A   1      42.875  21.561  27.020  1.00  0.00     0.031 A 
ATOM     65  C   UNL A   1      44.494  22.991  26.018  1.00  0.00     0.131 A 
ATOM     66  C   UNL A   1      43.206  20.568  26.071  1.00  0.00     0.055 A 
ATOM     67  C   UNL A   1      44.781  22.026  25.044  1.00  0.00     0.041 A 
ATOM     68  F   UNL A   1      45.277  24.070  25.936  1.00  0.00    -0.206 F 
ATOM     69  C   UNL A   1      44.143  20.802  25.070  1.00  0.00     0.022 A 
BRANCH  66  70
ATOM     70  S   UNL A   1      42.454  18.923  26.200  1.00  0.00     0.124 S 
ATOM     71  O   UNL A   1      42.581  18.639  27.626  1.00  0.00    -0.237 OA
ATOM     72  O   UNL A   1      41.104  19.157  25.702  1.00  0.00    -0.237 OA
ATOM     73  O   UNL A   1      43.295  18.097  25.333  1.00  0.00    -0.744 OA
ENDBRANCH  66  70
ENDBRANCH  49  63
BRANCH  50  74
ATOM     74  C   UNL A   1      41.692  30.297  32.907  1.00  0.00     0.023 A 
ATOM     75  C   UNL A   1      41.741  31.709  32.904  1.00  0.00     0.031 A 
ATOM     76  C   UNL A   1      40.438  29.685  33.023  1.00  0.00     0.131 A 
ATOM     77  C   UNL A   1      40.557  32.457  32.832  1.00  0.00     0.055 A 
ATOM     78  C   UNL A   1      39.258  30.443  33.026  1.00  0.00     0.041 A 
ATOM     79  F   UNL A   1      40.324  28.350  32.989  1.00  0.00    -0.206 F 
ATOM     80  C   UNL A   1      39.311  31.832  32.885  1.00  0.00     0.022 A 
BRANCH  77  81
ATOM     81  S   UNL A   1      40.687  34.225  32.428  1.00  0.00     0.124 S 
ATOM     82  O   UNL A   1      42.126  34.401  32.269  1.00  0.00    -0.237 OA
ATOM     83  O   UNL A   1      39.893  34.326  31.205  1.00  0.00    -0.237 OA
ATOM     84  O   UNL A   1      40.099  34.896  33.584  1.00  0.00    -0.744 OA
ENDBRANCH  77  81
ENDBRANCH  50  74
BRANCH  62  85
ATOM     85  C   UNL A   1      45.204  23.910  33.479  1.00  0.00     0.023 A 
ATOM     86  C   UNL A   1      46.477  23.701  34.031  1.00  0.00     0.031 A 
ATOM     87  C   UNL A   1      44.237  22.927  33.824  1.00  0.00     0.131 A 
ATOM     88  C   UNL A   1      46.774  22.553  34.797  1.00  0.00     0.055 A 
ATOM     89  C   UNL A   1      44.513  21.828  34.646  1.00  0.00     0.041 A 
ATOM     90  F   UNL A   1      42.971  22.994  33.390  1.00  0.00    -0.206 F 
ATOM     91  C   UNL A   1      45.795  21.624  35.126  1.00  0.00     0.022 A 
BRANCH  88  92
ATOM     92  S   UNL A   1      48.494  22.278  35.301  1.00  0.00     0.124 S 
ATOM     93  O   UNL A   1      49.231  22.767  34.139  1.00  0.00    -0.237 OA
ATOM     94  O   UNL A   1      48.600  23.095  36.506  1.00  0.00    -0.237 OA
ATOM     95  O   UNL A   1      48.565  20.835  35.520  1.00  0.00    -0.744 OA
ENDBRANCH  88  92
ENDBRANCH  62  85
ENDBRANCH  36  37
ENDBRANCH  28  31
ENDBRANCH  26  27
ENDBRANCH   1  26
TORSDOF 17
ENDMDL
MODEL 2
REMARK VINA RESULT:     -13.0      4.350     10.822
REMARK SMILES Cc1ccc(S(=O)(=O)N(c2ccccc2)[C@H](C)C(=O)NCCCNC(=O)c2ccc(-c3c4nc(c(-c5cc(S(=O)(=O)[O-])ccc5F)c5ccc([nH]5)c(-c5cc(S(=O)(=O)[O-])ccc5F)c5nc(c(-c6cc(S(=O)(=O)[O-])ccc6F)c6ccc3[nH]6)C=C5)C=C4)cc2)cc1
REMARK SMILES IDX 22 1 21 2 20 3 18 4 19 5 16 7 17 8 9 9 6 10 7 11 8 12 5 13
REMARK SMILES IDX 1 14 2 15 3 16 91 17 4 18 90 19 10 20 11 21 15 22 12 23
REMARK SMILES IDX 14 24 13 25 23 26 24 27 25 28 26 30 27 31 28 32 89 33 29 34
REMARK SMILES IDX 88 35 30 36 31 37 32 38 82 39 33 40 87 41 81 42 83 43 34 44
REMARK SMILES IDX 86 45 80 46 79 47 35 49 67 50 47 51 66 52 48 53 51 54 65 55
REMARK SMILES IDX 84 56 49 57 50 58 64 60 85 61 52 62 36 63 37 64 45 65 38 66
REMARK SMILES IDX 44 67 46 68 43 69 39 70 40 71 41 72 42 73 68 74 69 75 77 76
REMARK SMILES IDX 70 77 76 78 78 79 75 80 71 81 72 82 73 83 74 84 53 85 54 86
REMARK SMILES IDX 62 87 55 88 61 89 63 90 60 91 56 92 57 93 58 94 59 95
REMARK H PARENT 20 6 24 29 83 48 51 59
REMARK Flexibility Score: inf
ROOT
ATOM      1  C   UNL A   1      38.213  21.766  25.534  1.00  0.00     0.042 C 
ENDROOT
BRANCH   1   2
ATOM      2  C   UNL A   1      36.705  21.774  25.416  1.00  0.00     0.117 C 
BRANCH   2   3
ATOM      3  N   UNL A   1      36.181  22.238  24.152  1.00  0.00    -0.354 N 
ATOM      4  C   UNL A   1      35.219  23.181  23.920  1.00  0.00     0.243 C 
ATOM      5  O   UNL A   1      35.117  23.593  22.758  1.00  0.00    -0.273 OA
ATOM      6  H   UNL A   1      36.569  21.818  23.350  1.00  0.00     0.163 HD
BRANCH   4   7
ATOM      7  C   UNL A   1      34.206  23.629  24.982  1.00  0.00     0.185 C 
ATOM      8  C   UNL A   1      34.421  25.103  25.349  1.00  0.00     0.043 C 
BRANCH   7   9
ATOM      9  N   UNL A   1      32.754  23.206  24.826  1.00  0.00    -0.254 N 
BRANCH   9  10
ATOM     10  S   UNL A   1      32.408  21.737  25.644  1.00  0.00     0.265 S 
ATOM     11  O   UNL A   1      30.958  21.630  25.699  1.00  0.00    -0.201 OA
ATOM     12  O   UNL A   1      33.171  21.705  26.874  1.00  0.00    -0.201 OA
BRANCH  10  13
ATOM     13  C   UNL A   1      32.950  20.351  24.661  1.00  0.00     0.088 A 
ATOM     14  C   UNL A   1      33.920  16.508  23.004  1.00  0.00     0.044 C 
ATOM     15  C   UNL A   1      33.623  17.875  23.543  1.00  0.00    -0.051 A 
ATOM     16  C   UNL A   1      34.425  18.434  24.543  1.00  0.00     0.005 A 
ATOM     17  C   UNL A   1      32.549  18.619  23.035  1.00  0.00     0.005 A 
ATOM     18  C   UNL A   1      34.079  19.656  25.114  1.00  0.00     0.022 A 
ATOM     19  C   UNL A   1      32.236  19.873  23.566  1.00  0.00     0.022 A 
ENDBRANCH  10  13
ENDBRANCH   9  10
BRANCH   9  20
ATOM     20  C   UNL A   1      31.728  24.212  24.815  1.00  0.00     0.053 A 
ATOM     21  C   UNL A   1      31.249  24.627  23.562  1.00  0.00     0.027 A 
ATOM     22  C   UNL A   1      31.258  24.837  25.973  1.00  0.00     0.027 A 
ATOM     23  C   UNL A   1      30.323  25.665  23.464  1.00  0.00     0.002 A 
ATOM     24  C   UNL A   1      30.336  25.884  25.871  1.00  0.00     0.002 A 
ATOM     25  C   UNL A   1      29.874  26.300  24.620  1.00  0.00     0.000 A 
ENDBRANCH   9  20
ENDBRANCH   7   9
ENDBRANCH   4   7
ENDBRANCH   2   3
ENDBRANCH   1   2
BRANCH   1  26
ATOM     26  C   UNL A   1      38.734  23.097  26.037  1.00  0.00     0.118 C 
BRANCH  26  27
ATOM     27  N   UNL A   1      39.958  23.039  26.846  1.00  0.00    -0.352 N 
ATOM     28  C   UNL A   1      40.603  24.086  27.497  1.00  0.00     0.251 C 
ATOM     29  H   UNL A   1      40.372  22.152  26.940  1.00  0.00     0.163 HD
ATOM     30  O   UNL A   1      41.651  23.913  28.097  1.00  0.00    -0.269 OA
BRANCH  28  31
ATOM     31  C   UNL A   1      39.928  25.410  27.530  1.00  0.00     0.039 A 
ATOM     32  C   UNL A   1      40.439  26.429  26.721  1.00  0.00     0.014 A 
ATOM     33  C   UNL A   1      39.070  25.702  28.582  1.00  0.00     0.014 A 
ATOM     34  C   UNL A   1      40.323  27.748  27.152  1.00  0.00     0.010 A 
ATOM     35  C   UNL A   1      39.103  26.980  29.095  1.00  0.00     0.010 A 
ATOM     36  C   UNL A   1      39.782  27.996  28.410  1.00  0.00    -0.014 A 
BRANCH  36  37
ATOM     37  C   UNL A   1      39.987  29.234  29.159  1.00  0.00     0.031 A 
ATOM     38  C   UNL A   1      38.987  30.323  29.072  1.00  0.00     0.074 A 
ATOM     39  C   UNL A   1      41.023  29.340  30.025  1.00  0.00     0.049 A 
ATOM     40  N   UNL A   1      39.177  31.515  29.518  1.00  0.00    -0.248 NA
ATOM     41  C   UNL A   1      37.699  30.177  28.395  1.00  0.00     0.031 C 
ATOM     42  C   UNL A   1      41.198  30.327  31.089  1.00  0.00     0.029 A 
ATOM     43  N   UNL A   1      42.269  28.713  29.930  1.00  0.00    -0.354 N 
ATOM     44  C   UNL A   1      37.974  32.175  29.482  1.00  0.00     0.074 A 
ATOM     45  C   UNL A   1      37.128  31.354  28.661  1.00  0.00     0.031 C 
ATOM     46  C   UNL A   1      42.505  30.446  31.365  1.00  0.00     0.029 A 
ATOM     47  C   UNL A   1      43.222  29.648  30.389  1.00  0.00     0.049 A 
ATOM     48  H   UNL A   1      42.446  27.800  29.608  1.00  0.00     0.167 HD
ATOM     49  C   UNL A   1      37.813  33.269  30.274  1.00  0.00     0.034 A 
ATOM     50  C   UNL A   1      44.198  30.118  29.562  1.00  0.00     0.034 A 
ATOM     51  C   UNL A   1      39.115  33.790  30.709  1.00  0.00     0.049 A 
ATOM     52  C   UNL A   1      44.141  31.616  29.337  1.00  0.00     0.074 A 
ATOM     53  C   UNL A   1      39.784  33.846  31.918  1.00  0.00     0.029 A 
ATOM     54  N   UNL A   1      40.049  34.139  29.734  1.00  0.00    -0.354 N 
ATOM     55  N   UNL A   1      43.131  32.378  29.664  1.00  0.00    -0.248 NA
ATOM     56  C   UNL A   1      45.220  32.370  28.710  1.00  0.00     0.031 C 
ATOM     57  C   UNL A   1      41.152  34.142  31.647  1.00  0.00     0.029 A 
ATOM     58  C   UNL A   1      41.305  34.314  30.281  1.00  0.00     0.049 A 
ATOM     59  H   UNL A   1      39.841  34.247  28.777  1.00  0.00     0.167 HD
ATOM     60  C   UNL A   1      43.375  33.673  29.273  1.00  0.00     0.074 A 
ATOM     61  C   UNL A   1      44.716  33.616  28.715  1.00  0.00     0.031 C 
ATOM     62  C   UNL A   1      42.440  34.666  29.426  1.00  0.00     0.034 A 
BRANCH  49  63
ATOM     63  C   UNL A   1      36.480  33.763  30.817  1.00  0.00     0.023 A 
ATOM     64  C   UNL A   1      35.513  34.250  29.910  1.00  0.00     0.031 A 
ATOM     65  C   UNL A   1      36.142  33.923  32.183  1.00  0.00     0.131 A 
ATOM     66  C   UNL A   1      34.321  34.862  30.357  1.00  0.00     0.055 A 
ATOM     67  C   UNL A   1      34.935  34.478  32.623  1.00  0.00     0.041 A 
ATOM     68  F   UNL A   1      36.975  33.616  33.181  1.00  0.00    -0.206 F 
ATOM     69  C   UNL A   1      34.018  34.961  31.711  1.00  0.00     0.022 A 
BRANCH  66  70
ATOM     70  S   UNL A   1      33.191  35.607  29.150  1.00  0.00     0.124 S 
ATOM     71  O   UNL A   1      32.650  34.432  28.473  1.00  0.00    -0.237 OA
ATOM     72  O   UNL A   1      32.269  36.349  30.001  1.00  0.00    -0.237 OA
ATOM     73  O   UNL A   1      34.072  36.436  28.328  1.00  0.00    -0.744 OA
ENDBRANCH  66  70
ENDBRANCH  49  63
BRANCH  50  74
ATOM     74  C   UNL A   1      44.666  29.092  28.585  1.00  0.00     0.023 A 
ATOM     75  C   UNL A   1      45.442  28.028  29.097  1.00  0.00     0.031 A 
ATOM     76  C   UNL A   1      44.047  28.912  27.342  1.00  0.00     0.131 A 
ATOM     77  C   UNL A   1      45.433  26.777  28.464  1.00  0.00     0.055 A 
ATOM     78  C   UNL A   1      44.103  27.679  26.675  1.00  0.00     0.041 A 
ATOM     79  F   UNL A   1      43.263  29.867  26.823  1.00  0.00    -0.206 F 
ATOM     80  C   UNL A   1      44.760  26.591  27.256  1.00  0.00     0.022 A 
BRANCH  77  81
ATOM     81  S   UNL A   1      46.112  25.357  29.372  1.00  0.00     0.124 S 
ATOM     82  O   UNL A   1      47.120  25.982  30.219  1.00  0.00    -0.237 OA
ATOM     83  O   UNL A   1      44.934  24.834  30.062  1.00  0.00    -0.237 OA
ATOM     84  O   UNL A   1      46.632  24.483  28.323  1.00  0.00    -0.744 OA
ENDBRANCH  77  81
ENDBRANCH  50  74
BRANCH  62  85
ATOM     85  C   UNL A   1      42.508  36.072  28.839  1.00  0.00     0.023 A 
ATOM     86  C   UNL A   1      43.135  37.161  29.465  1.00  0.00     0.031 A 
ATOM     87  C   UNL A   1      41.974  36.354  27.552  1.00  0.00     0.131 A 
ATOM     88  C   UNL A   1      43.148  38.446  28.882  1.00  0.00     0.055 A 
ATOM     89  C   UNL A   1      42.054  37.612  26.941  1.00  0.00     0.041 A 
ATOM     90  F   UNL A   1      41.360  35.417  26.818  1.00  0.00    -0.206 F 
ATOM     91  C   UNL A   1      42.629  38.675  27.614  1.00  0.00     0.022 A 
BRANCH  88  92
ATOM     92  S   UNL A   1      43.810  39.825  29.856  1.00  0.00     0.124 S 
ATOM     93  O   UNL A   1      43.660  39.329  31.222  1.00  0.00    -0.237 OA
ATOM     94  O   UNL A   1      45.181  39.923  29.366  1.00  0.00    -0.237 OA
ATOM     95  O   UNL A   1      42.942  40.946  29.505  1.00  0.00    -0.744 OA
ENDBRANCH  88  92
ENDBRANCH  62  85
ENDBRANCH  36  37
ENDBRANCH  28  31
ENDBRANCH  26  27
ENDBRANCH   1  26
TORSDOF 17
ENDMDL
MODEL 3
REMARK VINA RESULT:     -12.7      0.986      3.203
REMARK SMILES Cc1ccc(S(=O)(=O)N(c2ccccc2)[C@H](C)C(=O)NCCCNC(=O)c2ccc(-c3c4nc(c(-c5cc(S(=O)(=O)[O-])ccc5F)c5ccc([nH]5)c(-c5cc(S(=O)(=O)[O-])ccc5F)c5nc(c(-c6cc(S(=O)(=O)[O-])ccc6F)c6ccc3[nH]6)C=C5)C=C4)cc2)cc1
REMARK SMILES IDX 22 1 21 2 20 3 18 4 19 5 16 7 17 8 9 9 6 10 7 11 8 12 5 13
REMARK SMILES IDX 1 14 2 15 3 16 91 17 4 18 90 19 10 20 11 21 15 22 12 23
REMARK SMILES IDX 14 24 13 25 23 26 24 27 25 28 26 30 27 31 28 32 89 33 29 34
REMARK SMILES IDX 88 35 30 36 31 37 32 38 82 39 33 40 87 41 81 42 83 43 34 44
REMARK SMILES IDX 86 45 80 46 79 47 35 49 67 50 47 51 66 52 48 53 51 54 65 55
REMARK SMILES IDX 84 56 49 57 50 58 64 60 85 61 52 62 36 63 37 64 45 65 38 66
REMARK SMILES IDX 44 67 46 68 43 69 39 70 40 71 41 72 42 73 68 74 69 75 77 76
REMARK SMILES IDX 70 77 76 78 78 79 75 80 71 81 72 82 73 83 74 84 53 85 54 86
REMARK SMILES IDX 62 87 55 88 61 89 63 90 60 91 56 92 57 93 58 94 59 95
REMARK H PARENT 20 6 24 29 83 48 51 59
REMARK Flexibility Score: inf
ROOT
ATOM      1  C   UNL A   1      34.144  30.445  27.050  1.00  0.00     0.042 C 
ENDROOT
BRANCH   1   2
ATOM      2  C   UNL A   1      34.416  29.033  26.582  1.00  0.00     0.117 C 
BRANCH   2   3
ATOM      3  N   UNL A   1      34.425  28.841  25.150  1.00  0.00    -0.354 N 
ATOM      4  C   UNL A   1      33.372  28.860  24.279  1.00  0.00     0.243 C 
ATOM      5  O   UNL A   1      33.651  28.926  23.075  1.00  0.00    -0.273 OA
ATOM      6  H   UNL A   1      35.308  28.675  24.748  1.00  0.00     0.163 HD
BRANCH   4   7
ATOM      7  C   UNL A   1      31.914  28.670  24.716  1.00  0.00     0.185 C 
ATOM      8  C   UNL A   1      31.316  29.997  25.202  1.00  0.00     0.043 C 
BRANCH   7   9
ATOM      9  N   UNL A   1      30.997  27.828  23.843  1.00  0.00    -0.254 N 
BRANCH   9  10
ATOM     10  S   UNL A   1      30.687  26.281  24.519  1.00  0.00     0.265 S 
ATOM     11  O   UNL A   1      29.833  25.583  23.572  1.00  0.00    -0.201 OA
ATOM     12  O   UNL A   1      30.239  26.459  25.885  1.00  0.00    -0.201 OA
BRANCH  10  13
ATOM     13  C   UNL A   1      32.196  25.333  24.587  1.00  0.00     0.088 A 
ATOM     14  C   UNL A   1      36.207  23.813  24.367  1.00  0.00     0.044 C 
ATOM     15  C   UNL A   1      34.787  24.285  24.449  1.00  0.00    -0.051 A 
ATOM     16  C   UNL A   1      33.984  24.320  23.305  1.00  0.00     0.005 A 
ATOM     17  C   UNL A   1      34.240  24.676  25.679  1.00  0.00     0.005 A 
ATOM     18  C   UNL A   1      32.702  24.861  23.369  1.00  0.00     0.022 A 
ATOM     19  C   UNL A   1      32.932  25.162  25.755  1.00  0.00     0.022 A 
ENDBRANCH  10  13
ENDBRANCH   9  10
BRANCH   9  20
ATOM     20  C   UNL A   1      29.921  28.467  23.137  1.00  0.00     0.053 A 
ATOM     21  C   UNL A   1      30.266  29.394  22.142  1.00  0.00     0.027 A 
ATOM     22  C   UNL A   1      28.574  28.264  23.451  1.00  0.00     0.027 A 
ATOM     23  C   UNL A   1      29.281  30.125  21.478  1.00  0.00     0.002 A 
ATOM     24  C   UNL A   1      27.588  29.005  22.790  1.00  0.00     0.002 A 
ATOM     25  C   UNL A   1      27.941  29.937  21.810  1.00  0.00     0.000 A 
ENDBRANCH   9  20
ENDBRANCH   7   9
ENDBRANCH   4   7
ENDBRANCH   2   3
ENDBRANCH   1   2
BRANCH   1  26
ATOM     26  C   UNL A   1      34.576  30.644  28.489  1.00  0.00     0.118 C 
BRANCH  26  27
ATOM     27  N   UNL A   1      35.601  31.669  28.712  1.00  0.00    -0.352 N 
ATOM     28  C   UNL A   1      36.963  31.484  28.930  1.00  0.00     0.251 C 
ATOM     29  H   UNL A   1      35.288  32.602  28.707  1.00  0.00     0.163 HD
ATOM     30  O   UNL A   1      37.705  32.425  29.157  1.00  0.00    -0.269 OA
BRANCH  28  31
ATOM     31  C   UNL A   1      37.514  30.112  28.776  1.00  0.00     0.039 A 
ATOM     32  C   UNL A   1      37.604  29.308  29.916  1.00  0.00     0.014 A 
ATOM     33  C   UNL A   1      38.232  29.800  27.629  1.00  0.00     0.014 A 
ATOM     34  C   UNL A   1      38.631  28.371  29.996  1.00  0.00     0.010 A 
ATOM     35  C   UNL A   1      39.346  29.002  27.773  1.00  0.00     0.010 A 
ATOM     36  C   UNL A   1      39.581  28.331  28.980  1.00  0.00    -0.014 A 
BRANCH  36  37
ATOM     37  C   UNL A   1      40.908  27.736  29.124  1.00  0.00     0.031 A 
ATOM     38  C   UNL A   1      41.119  26.312  28.781  1.00  0.00     0.074 A 
ATOM     39  C   UNL A   1      41.968  28.514  29.450  1.00  0.00     0.049 A 
ATOM     40  N   UNL A   1      42.185  25.650  29.070  1.00  0.00    -0.248 NA
ATOM     41  C   UNL A   1      40.098  25.480  28.144  1.00  0.00     0.031 C 
ATOM     42  C   UNL A   1      43.387  28.191  29.310  1.00  0.00     0.029 A 
ATOM     43  N   UNL A   1      41.956  29.671  30.235  1.00  0.00    -0.354 N 
ATOM     44  C   UNL A   1      42.130  24.452  28.402  1.00  0.00     0.074 A 
ATOM     45  C   UNL A   1      40.768  24.341  27.955  1.00  0.00     0.031 C 
ATOM     46  C   UNL A   1      44.092  28.930  30.180  1.00  0.00     0.029 A 
ATOM     47  C   UNL A   1      43.138  29.643  31.006  1.00  0.00     0.049 A 
ATOM     48  H   UNL A   1      41.261  30.367  30.246  1.00  0.00     0.167 HD
ATOM     49  C   UNL A   1      43.290  23.771  28.197  1.00  0.00     0.034 A 
ATOM     50  C   UNL A   1      43.087  29.584  32.367  1.00  0.00     0.034 A 
ATOM     51  C   UNL A   1      44.338  24.250  29.107  1.00  0.00     0.049 A 
ATOM     52  C   UNL A   1      43.728  28.340  32.950  1.00  0.00     0.074 A 
ATOM     53  C   UNL A   1      45.512  24.963  28.947  1.00  0.00     0.029 A 
ATOM     54  N   UNL A   1      44.092  24.213  30.480  1.00  0.00    -0.354 N 
ATOM     55  N   UNL A   1      44.071  27.286  32.257  1.00  0.00    -0.248 NA
ATOM     56  C   UNL A   1      44.021  28.186  34.370  1.00  0.00     0.031 C 
ATOM     57  C   UNL A   1      45.918  25.432  30.230  1.00  0.00     0.029 A 
ATOM     58  C   UNL A   1      45.019  24.964  31.176  1.00  0.00     0.049 A 
ATOM     59  H   UNL A   1      43.353  23.716  30.900  1.00  0.00     0.167 HD
ATOM     60  C   UNL A   1      44.571  26.318  33.094  1.00  0.00     0.074 A 
ATOM     61  C   UNL A   1      44.552  26.951  34.402  1.00  0.00     0.031 C 
ATOM     62  C   UNL A   1      44.933  25.077  32.633  1.00  0.00     0.034 A 
BRANCH  49  63
ATOM     63  C   UNL A   1      43.542  22.806  27.050  1.00  0.00     0.023 A 
ATOM     64  C   UNL A   1      42.876  21.560  27.048  1.00  0.00     0.031 A 
ATOM     65  C   UNL A   1      44.505  22.961  26.023  1.00  0.00     0.131 A 
ATOM     66  C   UNL A   1      43.179  20.560  26.098  1.00  0.00     0.055 A 
ATOM     67  C   UNL A   1      44.764  21.990  25.048  1.00  0.00     0.041 A 
ATOM     68  F   UNL A   1      45.303  24.028  25.928  1.00  0.00    -0.206 F 
ATOM     69  C   UNL A   1      44.108  20.776  25.085  1.00  0.00     0.022 A 
BRANCH  66  70
ATOM     70  S   UNL A   1      42.403  18.926  26.240  1.00  0.00     0.124 S 
ATOM     71  O   UNL A   1      41.053  19.186  25.751  1.00  0.00    -0.237 OA
ATOM     72  O   UNL A   1      43.255  18.101  25.392  1.00  0.00    -0.237 OA
ATOM     73  O   UNL A   1      42.492  18.633  27.671  1.00  0.00    -0.744 OA
ENDBRANCH  66  70
ENDBRANCH  49  63
BRANCH  50  74
ATOM     74  C   UNL A   1      41.923  30.329  32.931  1.00  0.00     0.023 A 
ATOM     75  C   UNL A   1      41.996  31.740  32.907  1.00  0.00     0.031 A 
ATOM     76  C   UNL A   1      40.661  29.740  33.072  1.00  0.00     0.131 A 
ATOM     77  C   UNL A   1      40.824  32.507  32.842  1.00  0.00     0.055 A 
ATOM     78  C   UNL A   1      39.494  30.518  33.081  1.00  0.00     0.041 A 
ATOM     79  F   UNL A   1      40.523  28.407  33.058  1.00  0.00    -0.206 F 
ATOM     80  C   UNL A   1      39.569  31.904  32.921  1.00  0.00     0.022 A 
BRANCH  77  81
ATOM     81  S   UNL A   1      40.979  34.266  32.412  1.00  0.00     0.124 S 
ATOM     82  O   UNL A   1      39.795  34.491  31.591  1.00  0.00    -0.237 OA
ATOM     83  O   UNL A   1      40.976  34.911  33.725  1.00  0.00    -0.237 OA
ATOM     84  O   UNL A   1      42.254  34.347  31.705  1.00  0.00    -0.744 OA
ENDBRANCH  77  81
ENDBRANCH  50  74
BRANCH  62  85
ATOM     85  C   UNL A   1      45.288  23.862  33.486  1.00  0.00     0.023 A 
ATOM     86  C   UNL A   1      46.556  23.630  34.042  1.00  0.00     0.031 A 
ATOM     87  C   UNL A   1      44.304  22.895  33.825  1.00  0.00     0.131 A 
ATOM     88  C   UNL A   1      46.830  22.476  34.805  1.00  0.00     0.055 A 
ATOM     89  C   UNL A   1      44.559  21.789  34.646  1.00  0.00     0.041 A 
ATOM     90  F   UNL A   1      43.040  22.984  33.387  1.00  0.00    -0.206 F 
ATOM     91  C   UNL A   1      45.835  21.563  35.129  1.00  0.00     0.022 A 
BRANCH  88  92
ATOM     92  S   UNL A   1      48.544  22.170  35.315  1.00  0.00     0.124 S 
ATOM     93  O   UNL A   1      48.614  20.712  35.278  1.00  0.00    -0.237 OA
ATOM     94  O   UNL A   1      49.306  22.866  34.282  1.00  0.00    -0.237 OA
ATOM     95  O   UNL A   1      48.620  22.762  36.648  1.00  0.00    -0.744 OA
ENDBRANCH  88  92
ENDBRANCH  62  85
ENDBRANCH  36  37
ENDBRANCH  28  31
ENDBRANCH  26  27
ENDBRANCH   1  26
TORSDOF 17
ENDMDL
