MODEL 1
REMARK VINA RESULT:     -13.8      0.000      0.000
REMARK SMILES O=C(NCCCNC(=O)c1ccc(N2C(=O)[C@@H]3CC=CC[C@H]3C2=O)cc1Cl)c1ccc(-c2c3nc(c(-c4cc(S(=O)(=O)[O-])ccc4F)c4ccc([nH]4)c(-c4cc(S(=O)(=O)[O-])ccc4F)c4nc(c(-c5cc(S(=O)(=O)[O-])ccc5F)c5ccc2[nH]5)C=C4)C=C3)cc1
REMARK SMILES IDX 4 1 3 2 1 3 2 4 28 6 29 7 90 8 30 9 89 10 31 11 32 12 33 13
REMARK SMILES IDX 83 14 34 15 88 16 82 17 84 18 35 19 87 20 81 21 80 22 36 24
REMARK SMILES IDX 68 25 48 26 67 27 49 28 52 29 66 30 85 31 50 32 51 33 65 35
REMARK SMILES IDX 86 36 53 37 37 38 38 39 46 40 39 41 45 42 47 43 44 44 40 45
REMARK SMILES IDX 41 46 42 47 43 48 69 49 70 50 78 51 71 52 77 53 79 54 76 55
REMARK SMILES IDX 72 56 73 57 74 58 75 59 54 60 55 61 63 62 56 63 62 64 64 65
REMARK SMILES IDX 61 66 57 67 58 68 59 69 60 70 5 71 6 72 7 73 8 74 9 76 10 77
REMARK SMILES IDX 11 78 26 79 12 80 25 81 27 82 13 83 14 84 15 85 23 86 16 87
REMARK SMILES IDX 17 88 22 89 24 90 18 91 21 92 19 93 20 94
REMARK H PARENT 3 5 84 23 52 34 7 75
REMARK Flexibility Score: inf
ROOT
ATOM      1  C   UNL A   1      36.990  22.401  24.072  1.00  0.00     0.118 C 
ENDROOT
BRANCH   1   2
ATOM      2  N   UNL A   1      37.587  21.215  24.676  1.00  0.00    -0.352 N 
ATOM      3  O   UNL A   1      39.050  19.981  25.866  1.00  0.00    -0.269 OA
ATOM      4  C   UNL A   1      38.619  21.095  25.580  1.00  0.00     0.251 C 
ATOM      5  H   UNL A   1      37.187  20.362  24.391  1.00  0.00     0.163 HD
BRANCH   4   6
ATOM      6  C   UNL A   1      39.231  22.302  26.178  1.00  0.00     0.039 A 
ATOM      7  C   UNL A   1      38.552  23.520  26.176  1.00  0.00     0.014 A 
ATOM      8  C   UNL A   1      40.512  22.223  26.730  1.00  0.00     0.014 A 
ATOM      9  C   UNL A   1      39.229  24.686  26.505  1.00  0.00     0.010 A 
ATOM     10  C   UNL A   1      41.147  23.385  27.185  1.00  0.00     0.010 A 
ATOM     11  C   UNL A   1      40.533  24.637  27.024  1.00  0.00    -0.014 A 
BRANCH  11  12
ATOM     12  C   UNL A   1      41.211  25.908  27.400  1.00  0.00     0.031 A 
ATOM     13  C   UNL A   1      42.566  26.262  26.843  1.00  0.00     0.074 A 
ATOM     14  C   UNL A   1      40.569  26.774  28.210  1.00  0.00     0.049 A 
ATOM     15  N   UNL A   1      43.282  27.341  27.037  1.00  0.00    -0.248 NA
ATOM     16  C   UNL A   1      43.207  25.273  25.965  1.00  0.00     0.031 C 
ATOM     17  C   UNL A   1      39.250  26.545  28.807  1.00  0.00     0.029 A 
ATOM     18  N   UNL A   1      40.914  28.025  28.648  1.00  0.00    -0.354 N 
ATOM     19  C   UNL A   1      44.466  27.152  26.329  1.00  0.00     0.074 A 
ATOM     20  C   UNL A   1      44.384  25.835  25.734  1.00  0.00     0.031 C 
ATOM     21  C   UNL A   1      38.870  27.644  29.472  1.00  0.00     0.029 A 
ATOM     22  C   UNL A   1      39.950  28.622  29.427  1.00  0.00     0.049 A 
ATOM     23  H   UNL A   1      41.772  28.457  28.426  1.00  0.00     0.167 HD
ATOM     24  C   UNL A   1      45.517  27.999  26.187  1.00  0.00     0.034 A 
ATOM     25  C   UNL A   1      39.938  29.813  30.056  1.00  0.00     0.034 A 
ATOM     26  C   UNL A   1      45.576  29.314  26.787  1.00  0.00     0.049 A 
ATOM     27  C   UNL A   1      41.137  30.711  29.922  1.00  0.00     0.074 A 
ATOM     28  C   UNL A   1      46.576  30.266  26.678  1.00  0.00     0.029 A 
ATOM     29  N   UNL A   1      44.606  29.858  27.620  1.00  0.00    -0.354 N 
ATOM     30  N   UNL A   1      42.241  30.523  29.235  1.00  0.00    -0.248 NA
ATOM     31  C   UNL A   1      41.086  31.987  30.645  1.00  0.00     0.031 C 
ATOM     32  C   UNL A   1      46.253  31.342  27.510  1.00  0.00     0.029 A 
ATOM     33  C   UNL A   1      45.002  31.113  28.060  1.00  0.00     0.049 A 
ATOM     34  H   UNL A   1      43.760  29.416  27.862  1.00  0.00     0.167 HD
ATOM     35  C   UNL A   1      42.998  31.677  29.412  1.00  0.00     0.074 A 
ATOM     36  C   UNL A   1      42.216  32.557  30.258  1.00  0.00     0.031 C 
ATOM     37  C   UNL A   1      44.223  31.984  28.912  1.00  0.00     0.034 A 
BRANCH  24  38
ATOM     38  C   UNL A   1      46.713  27.506  25.399  1.00  0.00     0.023 A 
ATOM     39  C   UNL A   1      47.006  27.980  24.107  1.00  0.00     0.031 A 
ATOM     40  C   UNL A   1      47.560  26.523  25.942  1.00  0.00     0.131 A 
ATOM     41  C   UNL A   1      48.060  27.413  23.374  1.00  0.00     0.055 A 
ATOM     42  C   UNL A   1      48.663  26.028  25.241  1.00  0.00     0.041 A 
ATOM     43  F   UNL A   1      47.323  26.012  27.160  1.00  0.00    -0.206 F 
ATOM     44  C   UNL A   1      48.908  26.460  23.942  1.00  0.00     0.022 A 
BRANCH  41  45
ATOM     45  S   UNL A   1      48.206  27.817  21.610  1.00  0.00     0.124 S 
ATOM     46  O   UNL A   1      46.870  28.330  21.313  1.00  0.00    -0.237 OA
ATOM     47  O   UNL A   1      49.284  28.798  21.599  1.00  0.00    -0.237 OA
ATOM     48  O   UNL A   1      48.522  26.532  20.988  1.00  0.00    -0.744 OA
ENDBRANCH  41  45
ENDBRANCH  24  38
BRANCH  25  49
ATOM     49  C   UNL A   1      38.765  30.216  30.882  1.00  0.00     0.023 A 
ATOM     50  C   UNL A   1      37.702  30.943  30.323  1.00  0.00     0.031 A 
ATOM     51  C   UNL A   1      38.706  29.913  32.255  1.00  0.00     0.131 A 
ATOM     52  C   UNL A   1      36.652  31.385  31.141  1.00  0.00     0.055 A 
ATOM     53  C   UNL A   1      37.626  30.299  33.051  1.00  0.00     0.041 A 
ATOM     54  F   UNL A   1      39.695  29.219  32.841  1.00  0.00    -0.206 F 
ATOM     55  C   UNL A   1      36.598  31.053  32.497  1.00  0.00     0.022 A 
BRANCH  52  56
ATOM     56  S   UNL A   1      35.400  32.484  30.425  1.00  0.00     0.124 S 
ATOM     57  O   UNL A   1      35.026  31.758  29.217  1.00  0.00    -0.237 OA
ATOM     58  O   UNL A   1      34.395  32.529  31.483  1.00  0.00    -0.237 OA
ATOM     59  O   UNL A   1      36.129  33.731  30.206  1.00  0.00    -0.744 OA
ENDBRANCH  52  56
ENDBRANCH  25  49
BRANCH  37  60
ATOM     60  C   UNL A   1      44.760  33.364  29.216  1.00  0.00     0.023 A 
ATOM     61  C   UNL A   1      44.447  34.481  28.422  1.00  0.00     0.031 A 
ATOM     62  C   UNL A   1      45.632  33.553  30.303  1.00  0.00     0.131 A 
ATOM     63  C   UNL A   1      45.059  35.717  28.681  1.00  0.00     0.055 A 
ATOM     64  C   UNL A   1      46.178  34.802  30.603  1.00  0.00     0.041 A 
ATOM     65  F   UNL A   1      45.974  32.522  31.094  1.00  0.00    -0.206 F 
ATOM     66  C   UNL A   1      45.907  35.889  29.778  1.00  0.00     0.022 A 
BRANCH  63  67
ATOM     67  S   UNL A   1      44.837  37.066  27.489  1.00  0.00     0.124 S 
ATOM     68  O   UNL A   1      46.059  36.977  26.698  1.00  0.00    -0.237 OA
ATOM     69  O   UNL A   1      43.606  36.680  26.808  1.00  0.00    -0.237 OA
ATOM     70  O   UNL A   1      44.730  38.256  28.333  1.00  0.00    -0.744 OA
ENDBRANCH  63  67
ENDBRANCH  37  60
ENDBRANCH  11  12
ENDBRANCH   4   6
ENDBRANCH   1   2
BRANCH   1  71
ATOM     71  C   UNL A   1      35.469  22.401  24.100  1.00  0.00     0.042 C 
BRANCH  71  72
ATOM     72  C   UNL A   1      34.876  22.216  25.486  1.00  0.00     0.118 C 
BRANCH  72  73
ATOM     73  N   UNL A   1      33.843  21.189  25.521  1.00  0.00    -0.352 N 
ATOM     74  C   UNL A   1      32.509  21.290  25.222  1.00  0.00     0.252 C 
ATOM     75  H   UNL A   1      34.146  20.295  25.799  1.00  0.00     0.163 HD
ATOM     76  O   UNL A   1      31.756  20.333  25.367  1.00  0.00    -0.269 OA
BRANCH  74  77
ATOM     77  C   UNL A   1      31.962  22.573  24.760  1.00  0.00     0.058 A 
ATOM     78  C   UNL A   1      31.569  23.499  25.733  1.00  0.00     0.017 A 
ATOM     79  C   UNL A   1      31.802  22.871  23.408  1.00  0.00     0.055 A 
ATOM     80  C   UNL A   1      31.071  24.750  25.351  1.00  0.00     0.028 A 
ATOM     81  C   UNL A   1      31.302  24.120  23.036  1.00  0.00     0.048 A 
ATOM     82  Cl  UNL A   1      32.180  21.757  22.141  1.00  0.00    -0.083 Cl
ATOM     83  C   UNL A   1      30.926  25.073  23.996  1.00  0.00     0.053 A 
BRANCH  83  84
ATOM     84  N   UNL A   1      30.411  26.326  23.579  1.00  0.00    -0.250 N 
ATOM     85  C   UNL A   1      31.139  27.329  22.950  1.00  0.00     0.238 C 
ATOM     86  C   UNL A   1      29.091  26.716  23.768  1.00  0.00     0.238 C 
ATOM     87  O   UNL A   1      32.345  27.447  22.801  1.00  0.00    -0.274 OA
ATOM     88  C   UNL A   1      30.108  28.244  22.351  1.00  0.00     0.096 C 
ATOM     89  C   UNL A   1      29.035  28.168  23.417  1.00  0.00     0.096 C 
ATOM     90  O   UNL A   1      28.153  26.100  24.250  1.00  0.00    -0.274 OA
ATOM     91  C   UNL A   1      30.450  29.689  22.048  1.00  0.00     0.041 C 
ATOM     92  C   UNL A   1      27.719  28.717  22.909  1.00  0.00     0.041 C 
ATOM     93  C   UNL A   1      29.175  30.488  21.868  1.00  0.00    -0.030 C 
ATOM     94  C   UNL A   1      27.955  30.042  22.226  1.00  0.00    -0.030 C 
ENDBRANCH  83  84
ENDBRANCH  74  77
ENDBRANCH  72  73
ENDBRANCH  71  72
ENDBRANCH   1  71
TORSDOF 14
ENDMDL
MODEL 2
REMARK VINA RESULT:     -13.5      4.991     10.527
REMARK SMILES O=C(NCCCNC(=O)c1ccc(N2C(=O)[C@@H]3CC=CC[C@H]3C2=O)cc1Cl)c1ccc(-c2c3nc(c(-c4cc(S(=O)(=O)[O-])ccc4F)c4ccc([nH]4)c(-c4cc(S(=O)(=O)[O-])ccc4F)c4nc(c(-c5cc(S(=O)(=O)[O-])ccc5F)c5ccc2[nH]5)C=C4)C=C3)cc1
REMARK SMILES IDX 4 1 3 2 1 3 2 4 28 6 29 7 90 8 30 9 89 10 31 11 32 12 33 13
REMARK SMILES IDX 83 14 34 15 88 16 82 17 84 18 35 19 87 20 81 21 80 22 36 24
REMARK SMILES IDX 68 25 48 26 67 27 49 28 52 29 66 30 85 31 50 32 51 33 65 35
REMARK SMILES IDX 86 36 53 37 37 38 38 39 46 40 39 41 45 42 47 43 44 44 40 45
REMARK SMILES IDX 41 46 42 47 43 48 69 49 70 50 78 51 71 52 77 53 79 54 76 55
REMARK SMILES IDX 72 56 73 57 74 58 75 59 54 60 55 61 63 62 56 63 62 64 64 65
REMARK SMILES IDX 61 66 57 67 58 68 59 69 60 70 5 71 6 72 7 73 8 74 9 76 10 77
REMARK SMILES IDX 11 78 26 79 12 80 25 81 27 82 13 83 14 84 15 85 23 86 16 87
REMARK SMILES IDX 17 88 22 89 24 90 18 91 21 92 19 93 20 94
REMARK H PARENT 3 5 84 23 52 34 7 75
REMARK Flexibility Score: inf
ROOT
ATOM      1  C   UNL A   1      32.244  30.447  26.110  1.00  0.00     0.118 C 
ENDROOT
BRANCH   1   2
ATOM      2  N   UNL A   1      32.095  31.844  26.504  1.00  0.00    -0.352 N 
ATOM      3  O   UNL A   1      32.515  33.767  27.602  1.00  0.00    -0.269 OA
ATOM      4  C   UNL A   1      32.896  32.641  27.292  1.00  0.00     0.251 C 
ATOM      5  H   UNL A   1      31.292  32.289  26.150  1.00  0.00     0.163 HD
BRANCH   4   6
ATOM      6  C   UNL A   1      34.192  32.133  27.793  1.00  0.00     0.039 A 
ATOM      7  C   UNL A   1      34.372  30.775  28.051  1.00  0.00     0.014 A 
ATOM      8  C   UNL A   1      35.237  33.029  28.032  1.00  0.00     0.014 A 
ATOM      9  C   UNL A   1      35.492  30.350  28.754  1.00  0.00     0.010 A 
ATOM     10  C   UNL A   1      36.422  32.575  28.622  1.00  0.00     0.010 A 
ATOM     11  C   UNL A   1      36.539  31.241  29.041  1.00  0.00    -0.014 A 
BRANCH  11  12
ATOM     12  C   UNL A   1      37.739  30.738  29.764  1.00  0.00     0.031 A 
ATOM     13  C   UNL A   1      37.989  31.099  31.205  1.00  0.00     0.074 A 
ATOM     14  C   UNL A   1      38.582  29.902  29.123  1.00  0.00     0.049 A 
ATOM     15  N   UNL A   1      38.964  30.720  31.994  1.00  0.00    -0.248 NA
ATOM     16  C   UNL A   1      37.030  32.012  31.841  1.00  0.00     0.031 C 
ATOM     17  C   UNL A   1      38.441  29.473  27.728  1.00  0.00     0.029 A 
ATOM     18  N   UNL A   1      39.699  29.238  29.559  1.00  0.00    -0.354 N 
ATOM     19  C   UNL A   1      38.751  31.367  33.209  1.00  0.00     0.074 A 
ATOM     20  C   UNL A   1      37.574  32.192  33.035  1.00  0.00     0.031 C 
ATOM     21  C   UNL A   1      39.389  28.570  27.447  1.00  0.00     0.029 A 
ATOM     22  C   UNL A   1      40.259  28.418  28.606  1.00  0.00     0.049 A 
ATOM     23  H   UNL A   1      40.066  29.338  30.467  1.00  0.00     0.167 HD
ATOM     24  C   UNL A   1      39.467  31.275  34.359  1.00  0.00     0.034 A 
ATOM     25  C   UNL A   1      41.361  27.645  28.647  1.00  0.00     0.034 A 
ATOM     26  C   UNL A   1      40.637  30.440  34.512  1.00  0.00     0.049 A 
ATOM     27  C   UNL A   1      42.165  27.601  29.919  1.00  0.00     0.074 A 
ATOM     28  C   UNL A   1      41.415  30.246  35.641  1.00  0.00     0.029 A 
ATOM     29  N   UNL A   1      41.209  29.671  33.505  1.00  0.00    -0.354 N 
ATOM     30  N   UNL A   1      41.939  28.207  31.062  1.00  0.00    -0.248 NA
ATOM     31  C   UNL A   1      43.368  26.763  29.905  1.00  0.00     0.031 C 
ATOM     32  C   UNL A   1      42.500  29.434  35.295  1.00  0.00     0.029 A 
ATOM     33  C   UNL A   1      42.349  29.034  33.977  1.00  0.00     0.049 A 
ATOM     34  H   UNL A   1      40.857  29.590  32.589  1.00  0.00     0.167 HD
ATOM     35  C   UNL A   1      42.954  27.789  31.918  1.00  0.00     0.074 A 
ATOM     36  C   UNL A   1      43.781  26.871  31.159  1.00  0.00     0.031 C 
ATOM     37  C   UNL A   1      43.176  28.126  33.214  1.00  0.00     0.034 A 
BRANCH  24  38
ATOM     38  C   UNL A   1      39.038  32.145  35.522  1.00  0.00     0.023 A 
ATOM     39  C   UNL A   1      39.468  33.477  35.659  1.00  0.00     0.031 A 
ATOM     40  C   UNL A   1      38.205  31.620  36.527  1.00  0.00     0.131 A 
ATOM     41  C   UNL A   1      39.133  34.208  36.810  1.00  0.00     0.055 A 
ATOM     42  C   UNL A   1      37.801  32.383  37.626  1.00  0.00     0.041 A 
ATOM     43  F   UNL A   1      37.779  30.349  36.469  1.00  0.00    -0.206 F 
ATOM     44  C   UNL A   1      38.280  33.680  37.781  1.00  0.00     0.022 A 
BRANCH  41  45
ATOM     45  S   UNL A   1      39.963  35.796  37.102  1.00  0.00     0.124 S 
ATOM     46  O   UNL A   1      39.265  36.281  38.291  1.00  0.00    -0.237 OA
ATOM     47  O   UNL A   1      41.351  35.396  37.295  1.00  0.00    -0.237 OA
ATOM     48  O   UNL A   1      39.693  36.553  35.881  1.00  0.00    -0.744 OA
ENDBRANCH  41  45
ENDBRANCH  24  38
BRANCH  25  49
ATOM     49  C   UNL A   1      41.781  26.868  27.447  1.00  0.00     0.023 A 
ATOM     50  C   UNL A   1      41.594  25.478  27.383  1.00  0.00     0.031 A 
ATOM     51  C   UNL A   1      42.410  27.498  26.358  1.00  0.00     0.131 A 
ATOM     52  C   UNL A   1      42.076  24.759  26.279  1.00  0.00     0.055 A 
ATOM     53  C   UNL A   1      42.829  26.786  25.233  1.00  0.00     0.041 A 
ATOM     54  F   UNL A   1      42.613  28.826  26.365  1.00  0.00    -0.206 F 
ATOM     55  C   UNL A   1      42.676  25.405  25.197  1.00  0.00     0.022 A 
BRANCH  52  56
ATOM     56  S   UNL A   1      41.991  22.948  26.323  1.00  0.00     0.124 S 
ATOM     57  O   UNL A   1      42.520  22.596  25.010  1.00  0.00    -0.237 OA
ATOM     58  O   UNL A   1      42.844  22.632  27.464  1.00  0.00    -0.237 OA
ATOM     59  O   UNL A   1      40.568  22.680  26.516  1.00  0.00    -0.744 OA
ENDBRANCH  52  56
ENDBRANCH  25  49
BRANCH  37  60
ATOM     60  C   UNL A   1      44.326  27.439  33.913  1.00  0.00     0.023 A 
ATOM     61  C   UNL A   1      44.211  26.144  34.449  1.00  0.00     0.031 A 
ATOM     62  C   UNL A   1      45.550  28.112  34.076  1.00  0.00     0.131 A 
ATOM     63  C   UNL A   1      45.273  25.594  35.184  1.00  0.00     0.055 A 
ATOM     64  C   UNL A   1      46.630  27.530  34.743  1.00  0.00     0.041 A 
ATOM     65  F   UNL A   1      45.718  29.354  33.593  1.00  0.00    -0.206 F 
ATOM     66  C   UNL A   1      46.488  26.271  35.318  1.00  0.00     0.022 A 
BRANCH  63  67
ATOM     67  S   UNL A   1      45.000  24.039  36.077  1.00  0.00     0.124 S 
ATOM     68  O   UNL A   1      43.592  23.774  35.803  1.00  0.00    -0.237 OA
ATOM     69  O   UNL A   1      45.956  23.141  35.437  1.00  0.00    -0.237 OA
ATOM     70  O   UNL A   1      45.309  24.381  37.465  1.00  0.00    -0.744 OA
ENDBRANCH  63  67
ENDBRANCH  37  60
ENDBRANCH  11  12
ENDBRANCH   4   6
ENDBRANCH   1   2
BRANCH   1  71
ATOM     71  C   UNL A   1      31.029  29.884  25.390  1.00  0.00     0.042 C 
BRANCH  71  72
ATOM     72  C   UNL A   1      31.367  28.942  24.247  1.00  0.00     0.118 C 
BRANCH  72  73
ATOM     73  N   UNL A   1      32.599  29.313  23.562  1.00  0.00    -0.352 N 
ATOM     74  C   UNL A   1      33.673  28.531  23.227  1.00  0.00     0.252 C 
ATOM     75  H   UNL A   1      32.669  30.260  23.304  1.00  0.00     0.163 HD
ATOM     76  O   UNL A   1      34.669  29.020  22.704  1.00  0.00    -0.269 OA
BRANCH  74  77
ATOM     77  C   UNL A   1      33.653  27.094  23.534  1.00  0.00     0.058 A 
ATOM     78  C   UNL A   1      33.392  26.210  22.481  1.00  0.00     0.017 A 
ATOM     79  C   UNL A   1      33.854  26.606  24.823  1.00  0.00     0.055 A 
ATOM     80  C   UNL A   1      33.391  24.829  22.708  1.00  0.00     0.028 A 
ATOM     81  C   UNL A   1      33.849  25.227  25.041  1.00  0.00     0.048 A 
ATOM     82  Cl  UNL A   1      34.098  27.627  26.197  1.00  0.00    -0.083 Cl
ATOM     83  C   UNL A   1      33.615  24.321  23.995  1.00  0.00     0.053 A 
BRANCH  83  84
ATOM     84  N   UNL A   1      33.606  22.929  24.258  1.00  0.00    -0.250 N 
ATOM     85  C   UNL A   1      32.468  22.140  24.393  1.00  0.00     0.238 C 
ATOM     86  C   UNL A   1      34.757  22.171  24.435  1.00  0.00     0.238 C 
ATOM     87  O   UNL A   1      31.298  22.467  24.510  1.00  0.00    -0.274 OA
ATOM     88  C   UNL A   1      32.953  20.725  24.247  1.00  0.00     0.096 C 
ATOM     89  C   UNL A   1      34.301  20.835  24.929  1.00  0.00     0.096 C 
ATOM     90  O   UNL A   1      35.931  22.500  24.360  1.00  0.00    -0.274 OA
ATOM     91  C   UNL A   1      32.156  19.579  24.835  1.00  0.00     0.041 C 
ATOM     92  C   UNL A   1      35.172  19.638  24.617  1.00  0.00     0.041 C 
ATOM     93  C   UNL A   1      33.033  18.347  24.937  1.00  0.00    -0.030 C 
ATOM     94  C   UNL A   1      34.375  18.370  24.811  1.00  0.00    -0.030 C 
ENDBRANCH  83  84
ENDBRANCH  74  77
ENDBRANCH  72  73
ENDBRANCH  71  72
ENDBRANCH   1  71
TORSDOF 14
ENDMDL
MODEL 3
REMARK VINA RESULT:     -13.5      5.015     10.516
REMARK SMILES O=C(NCCCNC(=O)c1ccc(N2C(=O)[C@@H]3CC=CC[C@H]3C2=O)cc1Cl)c1ccc(-c2c3nc(c(-c4cc(S(=O)(=O)[O-])ccc4F)c4ccc([nH]4)c(-c4cc(S(=O)(=O)[O-])ccc4F)c4nc(c(-c5cc(S(=O)(=O)[O-])ccc5F)c5ccc2[nH]5)C=C4)C=C3)cc1
REMARK SMILES IDX 4 1 3 2 1 3 2 4 28 6 29 7 90 8 30 9 89 10 31 11 32 12 33 13
REMARK SMILES IDX 83 14 34 15 88 16 82 17 84 18 35 19 87 20 81 21 80 22 36 24
REMARK SMILES IDX 68 25 48 26 67 27 49 28 52 29 66 30 85 31 50 32 51 33 65 35
REMARK SMILES IDX 86 36 53 37 37 38 38 39 46 40 39 41 45 42 47 43 44 44 40 45
REMARK SMILES IDX 41 46 42 47 43 48 69 49 70 50 78 51 71 52 77 53 79 54 76 55
REMARK SMILES IDX 72 56 73 57 74 58 75 59 54 60 55 61 63 62 56 63 62 64 64 65
REMARK SMILES IDX 61 66 57 67 58 68 59 69 60 70 5 71 6 72 7 73 8 74 9 76 10 77
REMARK SMILES IDX 11 78 26 79 12 80 25 81 27 82 13 83 14 84 15 85 23 86 16 87
REMARK SMILES IDX 17 88 22 89 24 90 18 91 21 92 19 93 20 94
REMARK H PARENT 3 5 84 23 52 34 7 75
REMARK Flexibility Score: inf
ROOT
ATOM      1  C   UNL A   1      32.082  29.359  27.161  1.00  0.00     0.118 C 
ENDROOT
BRANCH   1   2
ATOM      2  N   UNL A   1      32.067  30.804  26.956  1.00  0.00    -0.352 N 
ATOM      3  O   UNL A   1      32.744  32.948  27.108  1.00  0.00    -0.269 OA
ATOM      4  C   UNL A   1      33.015  31.758  27.250  1.00  0.00     0.251 C 
ATOM      5  H   UNL A   1      31.245  31.153  26.542  1.00  0.00     0.163 HD
BRANCH   4   6
ATOM      6  C   UNL A   1      34.341  31.357  27.769  1.00  0.00     0.039 A 
ATOM      7  C   UNL A   1      34.652  30.013  27.966  1.00  0.00     0.014 A 
ATOM      8  C   UNL A   1      35.282  32.341  28.087  1.00  0.00     0.014 A 
ATOM      9  C   UNL A   1      35.789  29.667  28.683  1.00  0.00     0.010 A 
ATOM     10  C   UNL A   1      36.490  31.978  28.693  1.00  0.00     0.010 A 
ATOM     11  C   UNL A   1      36.731  30.641  29.050  1.00  0.00    -0.014 A 
BRANCH  11  12
ATOM     12  C   UNL A   1      37.955  30.224  29.786  1.00  0.00     0.031 A 
ATOM     13  C   UNL A   1      38.181  30.634  31.219  1.00  0.00     0.074 A 
ATOM     14  C   UNL A   1      38.845  29.421  29.168  1.00  0.00     0.049 A 
ATOM     15  N   UNL A   1      39.173  30.331  32.018  1.00  0.00    -0.248 NA
ATOM     16  C   UNL A   1      37.170  31.508  31.830  1.00  0.00     0.031 C 
ATOM     17  C   UNL A   1      38.732  28.951  27.784  1.00  0.00     0.029 A 
ATOM     18  N   UNL A   1      39.996  28.831  29.621  1.00  0.00    -0.354 N 
ATOM     19  C   UNL A   1      38.920  30.994  33.216  1.00  0.00     0.074 A 
ATOM     20  C   UNL A   1      37.700  31.748  33.020  1.00  0.00     0.031 C 
ATOM     21  C   UNL A   1      39.730  28.095  27.526  1.00  0.00     0.029 A 
ATOM     22  C   UNL A   1      40.604  28.021  28.690  1.00  0.00     0.049 A 
ATOM     23  H   UNL A   1      40.355  28.974  30.528  1.00  0.00     0.167 HD
ATOM     24  C   UNL A   1      39.637  30.971  34.369  1.00  0.00     0.034 A 
ATOM     25  C   UNL A   1      41.747  27.312  28.752  1.00  0.00     0.034 A 
ATOM     26  C   UNL A   1      40.852  30.206  34.545  1.00  0.00     0.049 A 
ATOM     27  C   UNL A   1      42.549  27.345  30.025  1.00  0.00     0.074 A 
ATOM     28  C   UNL A   1      41.636  30.084  35.679  1.00  0.00     0.029 A 
ATOM     29  N   UNL A   1      41.469  29.446  33.558  1.00  0.00    -0.354 N 
ATOM     30  N   UNL A   1      42.286  27.965  31.153  1.00  0.00    -0.248 NA
ATOM     31  C   UNL A   1      43.797  26.575  30.035  1.00  0.00     0.031 C 
ATOM     32  C   UNL A   1      42.766  29.327  35.355  1.00  0.00     0.029 A 
ATOM     33  C   UNL A   1      42.641  28.886  34.048  1.00  0.00     0.049 A 
ATOM     34  H   UNL A   1      41.124  29.323  32.644  1.00  0.00     0.167 HD
ATOM     35  C   UNL A   1      43.320  27.626  32.021  1.00  0.00     0.074 A 
ATOM     36  C   UNL A   1      44.199  26.737  31.286  1.00  0.00     0.031 C 
ATOM     37  C   UNL A   1      43.519  28.007  33.309  1.00  0.00     0.034 A 
BRANCH  24  38
ATOM     38  C   UNL A   1      39.158  31.844  35.509  1.00  0.00     0.023 A 
ATOM     39  C   UNL A   1      38.548  31.308  36.658  1.00  0.00     0.031 A 
ATOM     40  C   UNL A   1      39.288  33.243  35.432  1.00  0.00     0.131 A 
ATOM     41  C   UNL A   1      38.021  32.164  37.638  1.00  0.00     0.055 A 
ATOM     42  C   UNL A   1      38.843  34.085  36.454  1.00  0.00     0.041 A 
ATOM     43  F   UNL A   1      39.839  33.820  34.353  1.00  0.00    -0.206 F 
ATOM     44  C   UNL A   1      38.189  33.548  37.558  1.00  0.00     0.022 A 
BRANCH  41  45
ATOM     45  S   UNL A   1      36.968  31.454  38.935  1.00  0.00     0.124 S 
ATOM     46  O   UNL A   1      35.797  32.327  38.876  1.00  0.00    -0.237 OA
ATOM     47  O   UNL A   1      36.768  30.087  38.467  1.00  0.00    -0.237 OA
ATOM     48  O   UNL A   1      37.774  31.590  40.146  1.00  0.00    -0.744 OA
ENDBRANCH  41  45
ENDBRANCH  24  38
BRANCH  25  49
ATOM     49  C   UNL A   1      42.213  26.530  27.572  1.00  0.00     0.023 A 
ATOM     50  C   UNL A   1      41.893  25.170  27.433  1.00  0.00     0.031 A 
ATOM     51  C   UNL A   1      43.019  27.121  26.582  1.00  0.00     0.131 A 
ATOM     52  C   UNL A   1      42.415  24.436  26.358  1.00  0.00     0.055 A 
ATOM     53  C   UNL A   1      43.482  26.402  25.480  1.00  0.00     0.041 A 
ATOM     54  F   UNL A   1      43.355  28.419  26.664  1.00  0.00    -0.206 F 
ATOM     55  C   UNL A   1      43.193  25.047  25.372  1.00  0.00     0.022 A 
BRANCH  52  56
ATOM     56  S   UNL A   1      42.140  22.645  26.318  1.00  0.00     0.124 S 
ATOM     57  O   UNL A   1      40.694  22.564  26.485  1.00  0.00    -0.237 OA
ATOM     58  O   UNL A   1      42.656  22.288  25.000  1.00  0.00    -0.237 OA
ATOM     59  O   UNL A   1      42.929  22.156  27.448  1.00  0.00    -0.744 OA
ENDBRANCH  52  56
ENDBRANCH  25  49
BRANCH  37  60
ATOM     60  C   UNL A   1      44.705  27.403  34.026  1.00  0.00     0.023 A 
ATOM     61  C   UNL A   1      44.626  26.167  34.693  1.00  0.00     0.031 A 
ATOM     62  C   UNL A   1      45.926  28.098  34.071  1.00  0.00     0.131 A 
ATOM     63  C   UNL A   1      45.722  25.703  35.437  1.00  0.00     0.055 A 
ATOM     64  C   UNL A   1      47.038  27.595  34.749  1.00  0.00     0.041 A 
ATOM     65  F   UNL A   1      46.060  29.287  33.460  1.00  0.00    -0.206 F 
ATOM     66  C   UNL A   1      46.933  26.399  35.453  1.00  0.00     0.022 A 
BRANCH  63  67
ATOM     67  S   UNL A   1      45.503  24.243  36.491  1.00  0.00     0.124 S 
ATOM     68  O   UNL A   1      44.050  24.138  36.567  1.00  0.00    -0.237 OA
ATOM     69  O   UNL A   1      46.180  23.202  35.726  1.00  0.00    -0.237 OA
ATOM     70  O   UNL A   1      46.164  24.620  37.741  1.00  0.00    -0.744 OA
ENDBRANCH  63  67
ENDBRANCH  37  60
ENDBRANCH  11  12
ENDBRANCH   4   6
ENDBRANCH   1   2
BRANCH   1  71
ATOM     71  C   UNL A   1      31.664  28.565  25.932  1.00  0.00     0.042 C 
BRANCH  71  72
ATOM     72  C   UNL A   1      32.436  28.920  24.673  1.00  0.00     0.118 C 
BRANCH  72  73
ATOM     73  N   UNL A   1      31.573  29.064  23.508  1.00  0.00    -0.352 N 
ATOM     74  C   UNL A   1      31.029  28.095  22.706  1.00  0.00     0.252 C 
ATOM     75  H   UNL A   1      31.348  29.991  23.262  1.00  0.00     0.163 HD
ATOM     76  O   UNL A   1      30.369  28.393  21.716  1.00  0.00    -0.269 OA
BRANCH  74  77
ATOM     77  C   UNL A   1      31.272  26.678  23.010  1.00  0.00     0.058 A 
ATOM     78  C   UNL A   1      32.501  26.133  22.621  1.00  0.00     0.017 A 
ATOM     79  C   UNL A   1      30.319  25.877  23.635  1.00  0.00     0.055 A 
ATOM     80  C   UNL A   1      32.799  24.797  22.913  1.00  0.00     0.028 A 
ATOM     81  C   UNL A   1      30.624  24.545  23.921  1.00  0.00     0.048 A 
ATOM     82  Cl  UNL A   1      28.744  26.443  24.073  1.00  0.00    -0.083 Cl
ATOM     83  C   UNL A   1      31.860  23.985  23.563  1.00  0.00     0.053 A 
BRANCH  83  84
ATOM     84  N   UNL A   1      32.128  22.625  23.858  1.00  0.00    -0.250 N 
ATOM     85  C   UNL A   1      32.416  22.114  25.118  1.00  0.00     0.238 C 
ATOM     86  C   UNL A   1      32.154  21.620  22.899  1.00  0.00     0.238 C 
ATOM     87  O   UNL A   1      32.686  22.696  26.157  1.00  0.00    -0.274 OA
ATOM     88  C   UNL A   1      32.212  20.630  24.996  1.00  0.00     0.096 C 
ATOM     89  C   UNL A   1      32.709  20.411  23.582  1.00  0.00     0.096 C 
ATOM     90  O   UNL A   1      31.922  21.674  21.700  1.00  0.00    -0.274 OA
ATOM     91  C   UNL A   1      32.905  19.680  25.952  1.00  0.00     0.041 C 
ATOM     92  C   UNL A   1      32.289  19.055  23.058  1.00  0.00     0.041 C 
ATOM     93  C   UNL A   1      32.894  18.279  25.376  1.00  0.00    -0.030 C 
ATOM     94  C   UNL A   1      32.592  17.998  24.093  1.00  0.00    -0.030 C 
ENDBRANCH  83  84
ENDBRANCH  74  77
ENDBRANCH  72  73
ENDBRANCH  71  72
ENDBRANCH   1  71
TORSDOF 14
ENDMDL
