MODEL 1
REMARK VINA RESULT:     -10.7      0.000      0.000
REMARK SMILES CO[C@@H]1C[C@@H](C(=O)NCCCNC(=O)c2ccc(-c3c4nc(c(-c5cc(S(=O)(=O)[O-])ccc5F)c5ccc([nH]5)c(-c5cc(S(=O)(=O)[O-])ccc5F)c5nc(c(-c6cc(S(=O)(=O)[O-])ccc6F)c6ccc3[nH]6)C=C5)C=C4)cc2)N(C(=O)CSc2cccs2)C1
REMARK SMILES IDX 9 1 8 2 6 3 7 4 5 6 3 7 4 8 88 9 78 10 2 11 1 12 79 13 80 14
REMARK SMILES IDX 81 15 82 16 83 17 84 18 87 19 85 20 86 21 10 22 11 23 12 24
REMARK SMILES IDX 13 25 14 27 15 28 16 29 77 30 17 31 76 32 18 33 19 34 20 35
REMARK SMILES IDX 70 36 21 37 75 38 69 39 71 40 22 41 74 42 68 43 67 44 23 46
REMARK SMILES IDX 55 47 35 48 54 49 36 50 39 51 53 52 72 53 37 54 38 55 52 57
REMARK SMILES IDX 73 58 40 59 24 60 25 61 33 62 26 63 32 64 34 65 31 66 27 67
REMARK SMILES IDX 28 68 29 69 30 70 56 71 57 72 65 73 58 74 64 75 66 76 63 77
REMARK SMILES IDX 59 78 60 79 61 80 62 81 41 82 42 83 50 84 43 85 49 86 51 87
REMARK SMILES IDX 48 88 44 89 45 90 46 91 47 92
REMARK H PARENT 8 5 12 26 71 45 39 56
REMARK Flexibility Score: inf
ROOT
ATOM      1  C   UNL A   1      32.933  26.261  26.074  1.00  0.00     0.117 C 
ENDROOT
BRANCH   1   2
ATOM      2  N   UNL A   1      31.911  25.382  26.611  1.00  0.00    -0.354 N 
ATOM      3  C   UNL A   1      31.821  24.027  26.672  1.00  0.00     0.242 C 
ATOM      4  O   UNL A   1      30.880  23.560  27.323  1.00  0.00    -0.273 OA
ATOM      5  H   UNL A   1      31.140  25.854  27.003  1.00  0.00     0.163 HD
BRANCH   3   6
ATOM      6  C   UNL A   1      32.922  23.100  26.142  1.00  0.00     0.177 C 
ATOM      7  C   UNL A   1      35.315  22.843  26.103  1.00  0.00     0.139 C 
ATOM      8  C   UNL A   1      34.188  23.398  26.959  1.00  0.00     0.069 C 
ATOM      9  C   UNL A   1      34.827  23.113  24.673  1.00  0.00     0.152 C 
ATOM     10  N   UNL A   1      33.370  23.191  24.752  1.00  0.00    -0.327 N 
BRANCH   7  11
ATOM     11  O   UNL A   1      35.492  21.437  26.302  1.00  0.00    -0.380 OA
ATOM     12  C   UNL A   1      35.676  20.715  25.088  1.00  0.00     0.195 C 
ENDBRANCH   7  11
BRANCH  10  13
ATOM     13  C   UNL A   1      32.627  22.967  23.606  1.00  0.00     0.233 C 
ATOM     14  O   UNL A   1      32.076  21.878  23.420  1.00  0.00    -0.274 OA
BRANCH  13  15
ATOM     15  C   UNL A   1      32.560  24.046  22.535  1.00  0.00     0.175 C 
BRANCH  15  16
ATOM     16  S   UNL A   1      31.218  25.217  22.862  1.00  0.00    -0.105 SA
BRANCH  16  17
ATOM     17  C   UNL A   1      32.101  26.727  22.731  1.00  0.00     0.060 A 
ATOM     18  C   UNL A   1      33.430  26.844  22.389  1.00  0.00     0.027 A 
ATOM     19  S   UNL A   1      31.378  28.249  23.015  1.00  0.00    -0.137 S 
ATOM     20  C   UNL A   1      33.871  28.199  22.408  1.00  0.00     0.013 A 
ATOM     21  C   UNL A   1      32.856  29.067  22.748  1.00  0.00     0.066 A 
ENDBRANCH  16  17
ENDBRANCH  15  16
ENDBRANCH  13  15
ENDBRANCH  10  13
ENDBRANCH   3   6
ENDBRANCH   1   2
BRANCH   1  22
ATOM     22  C   UNL A   1      32.921  27.654  26.693  1.00  0.00     0.042 C 
BRANCH  22  23
ATOM     23  C   UNL A   1      34.009  28.589  26.172  1.00  0.00     0.118 C 
BRANCH  23  24
ATOM     24  N   UNL A   1      33.798  29.965  26.587  1.00  0.00    -0.352 N 
ATOM     25  C   UNL A   1      34.499  30.714  27.500  1.00  0.00     0.251 C 
ATOM     26  H   UNL A   1      33.044  30.426  26.153  1.00  0.00     0.163 HD
ATOM     27  O   UNL A   1      34.035  31.782  27.885  1.00  0.00    -0.269 OA
BRANCH  25  28
ATOM     28  C   UNL A   1      35.793  30.224  28.025  1.00  0.00     0.039 A 
ATOM     29  C   UNL A   1      35.832  29.656  29.301  1.00  0.00     0.014 A 
ATOM     30  C   UNL A   1      36.968  30.348  27.277  1.00  0.00     0.014 A 
ATOM     31  C   UNL A   1      37.040  29.170  29.808  1.00  0.00     0.010 A 
ATOM     32  C   UNL A   1      38.158  29.806  27.756  1.00  0.00     0.010 A 
ATOM     33  C   UNL A   1      38.209  29.222  29.032  1.00  0.00    -0.014 A 
BRANCH  33  34
ATOM     34  C   UNL A   1      39.499  28.702  29.552  1.00  0.00     0.031 A 
ATOM     35  C   UNL A   1      40.175  29.391  30.707  1.00  0.00     0.074 A 
ATOM     36  C   UNL A   1      40.087  27.645  28.957  1.00  0.00     0.049 A 
ATOM     37  N   UNL A   1      41.334  29.138  31.261  1.00  0.00    -0.248 NA
ATOM     38  C   UNL A   1      39.464  30.535  31.295  1.00  0.00     0.031 C 
ATOM     39  C   UNL A   1      39.547  26.916  27.807  1.00  0.00     0.029 A 
ATOM     40  N   UNL A   1      41.271  27.008  29.227  1.00  0.00    -0.354 N 
ATOM     41  C   UNL A   1      41.497  30.100  32.253  1.00  0.00     0.074 A 
ATOM     42  C   UNL A   1      40.344  30.973  32.182  1.00  0.00     0.031 C 
ATOM     43  C   UNL A   1      40.389  25.922  27.482  1.00  0.00     0.029 A 
ATOM     44  C   UNL A   1      41.546  25.965  28.372  1.00  0.00     0.049 A 
ATOM     45  H   UNL A   1      41.868  27.271  29.964  1.00  0.00     0.167 HD
ATOM     46  C   UNL A   1      42.505  30.231  33.152  1.00  0.00     0.034 A 
ATOM     47  C   UNL A   1      42.614  25.146  28.306  1.00  0.00     0.034 A 
ATOM     48  C   UNL A   1      43.641  29.343  33.219  1.00  0.00     0.049 A 
ATOM     49  C   UNL A   1      43.727  25.316  29.307  1.00  0.00     0.074 A 
ATOM     50  C   UNL A   1      44.688  29.349  34.122  1.00  0.00     0.029 A 
ATOM     51  N   UNL A   1      43.881  28.293  32.342  1.00  0.00    -0.354 N 
ATOM     52  N   UNL A   1      43.845  26.203  30.270  1.00  0.00    -0.248 NA
ATOM     53  C   UNL A   1      44.846  24.368  29.220  1.00  0.00     0.031 C 
ATOM     54  C   UNL A   1      45.590  28.342  33.758  1.00  0.00     0.029 A 
ATOM     55  C   UNL A   1      45.072  27.662  32.667  1.00  0.00     0.049 A 
ATOM     56  H   UNL A   1      43.291  28.035  31.596  1.00  0.00     0.167 HD
ATOM     57  C   UNL A   1      45.038  25.899  30.919  1.00  0.00     0.074 A 
ATOM     58  C   UNL A   1      45.594  24.742  30.248  1.00  0.00     0.031 C 
ATOM     59  C   UNL A   1      45.620  26.517  31.979  1.00  0.00     0.034 A 
BRANCH  46  60
ATOM     60  C   UNL A   1      42.428  31.393  34.113  1.00  0.00     0.023 A 
ATOM     61  C   UNL A   1      41.567  31.376  35.224  1.00  0.00     0.031 A 
ATOM     62  C   UNL A   1      43.199  32.549  33.897  1.00  0.00     0.131 A 
ATOM     63  C   UNL A   1      41.437  32.517  36.030  1.00  0.00     0.055 A 
ATOM     64  C   UNL A   1      43.125  33.652  34.750  1.00  0.00     0.041 A 
ATOM     65  F   UNL A   1      44.025  32.633  32.843  1.00  0.00    -0.206 F 
ATOM     66  C   UNL A   1      42.229  33.647  35.815  1.00  0.00     0.022 A 
BRANCH  63  67
ATOM     67  S   UNL A   1      40.116  32.556  37.271  1.00  0.00     0.124 S 
ATOM     68  O   UNL A   1      39.291  31.423  36.859  1.00  0.00    -0.237 OA
ATOM     69  O   UNL A   1      40.851  32.390  38.520  1.00  0.00    -0.237 OA
ATOM     70  O   UNL A   1      39.502  33.867  37.078  1.00  0.00    -0.744 OA
ENDBRANCH  63  67
ENDBRANCH  46  60
BRANCH  47  71
ATOM     71  C   UNL A   1      42.694  24.097  27.252  1.00  0.00     0.023 A 
ATOM     72  C   UNL A   1      42.022  22.873  27.399  1.00  0.00     0.031 A 
ATOM     73  C   UNL A   1      43.473  24.289  26.098  1.00  0.00     0.131 A 
ATOM     74  C   UNL A   1      42.175  21.871  26.428  1.00  0.00     0.055 A 
ATOM     75  C   UNL A   1      43.585  23.307  25.112  1.00  0.00     0.041 A 
ATOM     76  F   UNL A   1      44.130  25.444  25.908  1.00  0.00    -0.206 F 
ATOM     77  C   UNL A   1      42.943  22.084  25.280  1.00  0.00     0.022 A 
BRANCH  74  78
ATOM     78  S   UNL A   1      41.411  20.252  26.722  1.00  0.00     0.124 S 
ATOM     79  O   UNL A   1      42.158  19.776  27.881  1.00  0.00    -0.237 OA
ATOM     80  O   UNL A   1      40.018  20.614  26.962  1.00  0.00    -0.237 OA
ATOM     81  O   UNL A   1      41.658  19.528  25.478  1.00  0.00    -0.744 OA
ENDBRANCH  74  78
ENDBRANCH  47  71
BRANCH  59  82
ATOM     82  C   UNL A   1      46.903  25.918  32.499  1.00  0.00     0.023 A 
ATOM     83  C   UNL A   1      46.908  24.934  33.503  1.00  0.00     0.031 A 
ATOM     84  C   UNL A   1      48.139  26.353  31.989  1.00  0.00     0.131 A 
ATOM     85  C   UNL A   1      48.127  24.455  34.004  1.00  0.00     0.055 A 
ATOM     86  C   UNL A   1      49.348  25.833  32.453  1.00  0.00     0.041 A 
ATOM     87  F   UNL A   1      48.192  27.292  31.031  1.00  0.00    -0.206 F 
ATOM     88  C   UNL A   1      49.347  24.887  33.475  1.00  0.00     0.022 A 
BRANCH  85  89
ATOM     89  S   UNL A   1      48.104  23.318  35.416  1.00  0.00     0.124 S 
ATOM     90  O   UNL A   1      47.257  22.236  34.922  1.00  0.00    -0.237 OA
ATOM     91  O   UNL A   1      49.517  22.995  35.581  1.00  0.00    -0.237 OA
ATOM     92  O   UNL A   1      47.522  24.117  36.492  1.00  0.00    -0.744 OA
ENDBRANCH  85  89
ENDBRANCH  59  82
ENDBRANCH  33  34
ENDBRANCH  25  28
ENDBRANCH  23  24
ENDBRANCH  22  23
ENDBRANCH   1  22
TORSDOF 18
ENDMDL
MODEL 2
REMARK VINA RESULT:     -10.6      1.503      2.991
REMARK SMILES CO[C@@H]1C[C@@H](C(=O)NCCCNC(=O)c2ccc(-c3c4nc(c(-c5cc(S(=O)(=O)[O-])ccc5F)c5ccc([nH]5)c(-c5cc(S(=O)(=O)[O-])ccc5F)c5nc(c(-c6cc(S(=O)(=O)[O-])ccc6F)c6ccc3[nH]6)C=C5)C=C4)cc2)N(C(=O)CSc2cccs2)C1
REMARK SMILES IDX 9 1 8 2 6 3 7 4 5 6 3 7 4 8 88 9 78 10 2 11 1 12 79 13 80 14
REMARK SMILES IDX 81 15 82 16 83 17 84 18 87 19 85 20 86 21 10 22 11 23 12 24
REMARK SMILES IDX 13 25 14 27 15 28 16 29 77 30 17 31 76 32 18 33 19 34 20 35
REMARK SMILES IDX 70 36 21 37 75 38 69 39 71 40 22 41 74 42 68 43 67 44 23 46
REMARK SMILES IDX 55 47 35 48 54 49 36 50 39 51 53 52 72 53 37 54 38 55 52 57
REMARK SMILES IDX 73 58 40 59 24 60 25 61 33 62 26 63 32 64 34 65 31 66 27 67
REMARK SMILES IDX 28 68 29 69 30 70 56 71 57 72 65 73 58 74 64 75 66 76 63 77
REMARK SMILES IDX 59 78 60 79 61 80 62 81 41 82 42 83 50 84 43 85 49 86 51 87
REMARK SMILES IDX 48 88 44 89 45 90 46 91 47 92
REMARK H PARENT 8 5 12 26 71 45 39 56
REMARK Flexibility Score: inf
ROOT
ATOM      1  C   UNL A   1      31.788  28.319  27.463  1.00  0.00     0.117 C 
ENDROOT
BRANCH   1   2
ATOM      2  N   UNL A   1      31.051  27.119  27.114  1.00  0.00    -0.354 N 
ATOM      3  C   UNL A   1      30.719  26.576  25.913  1.00  0.00     0.242 C 
ATOM      4  O   UNL A   1      30.197  25.456  25.933  1.00  0.00    -0.273 OA
ATOM      5  H   UNL A   1      30.732  26.603  27.890  1.00  0.00     0.163 HD
BRANCH   3   6
ATOM      6  C   UNL A   1      31.136  27.205  24.578  1.00  0.00     0.177 C 
ATOM      7  C   UNL A   1      30.252  27.818  22.424  1.00  0.00     0.139 C 
ATOM      8  C   UNL A   1      29.847  27.668  23.881  1.00  0.00     0.069 C 
ATOM      9  C   UNL A   1      31.274  26.689  22.232  1.00  0.00     0.152 C 
ATOM     10  N   UNL A   1      31.821  26.410  23.558  1.00  0.00    -0.327 N 
BRANCH   7  11
ATOM     11  O   UNL A   1      30.869  29.084  22.169  1.00  0.00    -0.380 OA
ATOM     12  C   UNL A   1      29.934  30.146  22.015  1.00  0.00     0.195 C 
ENDBRANCH   7  11
BRANCH  10  13
ATOM     13  C   UNL A   1      33.056  25.792  23.655  1.00  0.00     0.233 C 
ATOM     14  O   UNL A   1      34.035  26.414  24.078  1.00  0.00    -0.274 OA
BRANCH  13  15
ATOM     15  C   UNL A   1      33.218  24.363  23.157  1.00  0.00     0.175 C 
BRANCH  15  16
ATOM     16  S   UNL A   1      31.751  23.367  23.525  1.00  0.00    -0.105 SA
BRANCH  16  17
ATOM     17  C   UNL A   1      32.479  22.125  24.529  1.00  0.00     0.060 A 
ATOM     18  C   UNL A   1      32.963  22.316  25.803  1.00  0.00     0.027 A 
ATOM     19  S   UNL A   1      32.659  20.507  24.011  1.00  0.00    -0.137 S 
ATOM     20  C   UNL A   1      33.532  21.126  26.344  1.00  0.00     0.013 A 
ATOM     21  C   UNL A   1      33.446  20.068  25.465  1.00  0.00     0.066 A 
ENDBRANCH  16  17
ENDBRANCH  15  16
ENDBRANCH  13  15
ENDBRANCH  10  13
ENDBRANCH   3   6
ENDBRANCH   1   2
BRANCH   1  22
ATOM     22  C   UNL A   1      33.290  28.200  27.225  1.00  0.00     0.042 C 
BRANCH  22  23
ATOM     23  C   UNL A   1      33.867  29.247  26.279  1.00  0.00     0.118 C 
BRANCH  23  24
ATOM     24  N   UNL A   1      33.679  30.600  26.773  1.00  0.00    -0.352 N 
ATOM     25  C   UNL A   1      34.370  31.271  27.752  1.00  0.00     0.251 C 
ATOM     26  H   UNL A   1      32.951  31.108  26.346  1.00  0.00     0.163 HD
ATOM     27  O   UNL A   1      33.922  32.325  28.189  1.00  0.00    -0.269 OA
BRANCH  25  28
ATOM     28  C   UNL A   1      35.634  30.713  28.284  1.00  0.00     0.039 A 
ATOM     29  C   UNL A   1      35.588  29.901  29.419  1.00  0.00     0.014 A 
ATOM     30  C   UNL A   1      36.862  31.012  27.684  1.00  0.00     0.014 A 
ATOM     31  C   UNL A   1      36.767  29.350  29.926  1.00  0.00     0.010 A 
ATOM     32  C   UNL A   1      38.028  30.411  28.151  1.00  0.00     0.010 A 
ATOM     33  C   UNL A   1      37.995  29.583  29.284  1.00  0.00    -0.014 A 
BRANCH  33  34
ATOM     34  C   UNL A   1      39.257  28.997  29.805  1.00  0.00     0.031 A 
ATOM     35  C   UNL A   1      39.936  29.616  30.997  1.00  0.00     0.074 A 
ATOM     36  C   UNL A   1      39.818  27.945  29.177  1.00  0.00     0.049 A 
ATOM     37  N   UNL A   1      41.074  29.300  31.560  1.00  0.00    -0.248 NA
ATOM     38  C   UNL A   1      39.254  30.760  31.618  1.00  0.00     0.031 C 
ATOM     39  C   UNL A   1      39.273  27.281  27.990  1.00  0.00     0.029 A 
ATOM     40  N   UNL A   1      40.973  27.255  29.442  1.00  0.00    -0.354 N 
ATOM     41  C   UNL A   1      41.253  30.216  32.592  1.00  0.00     0.074 A 
ATOM     42  C   UNL A   1      40.133  31.131  32.537  1.00  0.00     0.031 C 
ATOM     43  C   UNL A   1      40.086  26.271  27.640  1.00  0.00     0.029 A 
ATOM     44  C   UNL A   1      41.228  26.238  28.550  1.00  0.00     0.049 A 
ATOM     45  H   UNL A   1      41.566  27.468  30.198  1.00  0.00     0.167 HD
ATOM     46  C   UNL A   1      42.248  30.276  33.512  1.00  0.00     0.034 A 
ATOM     47  C   UNL A   1      42.267  25.385  28.469  1.00  0.00     0.034 A 
ATOM     48  C   UNL A   1      43.351  29.346  33.562  1.00  0.00     0.049 A 
ATOM     49  C   UNL A   1      43.368  25.475  29.495  1.00  0.00     0.074 A 
ATOM     50  C   UNL A   1      44.382  29.278  34.482  1.00  0.00     0.029 A 
ATOM     51  N   UNL A   1      43.570  28.323  32.648  1.00  0.00    -0.354 N 
ATOM     52  N   UNL A   1      43.499  26.319  30.494  1.00  0.00    -0.248 NA
ATOM     53  C   UNL A   1      44.454  24.492  29.389  1.00  0.00     0.031 C 
ATOM     54  C   UNL A   1      45.254  28.255  34.094  1.00  0.00     0.029 A 
ATOM     55  C   UNL A   1      44.733  27.638  32.968  1.00  0.00     0.049 A 
ATOM     56  H   UNL A   1      42.985  28.115  31.883  1.00  0.00     0.167 HD
ATOM     57  C   UNL A   1      44.669  25.947  31.150  1.00  0.00     0.074 A 
ATOM     58  C   UNL A   1      45.196  24.799  30.443  1.00  0.00     0.031 C 
ATOM     59  C   UNL A   1      45.252  26.501  32.244  1.00  0.00     0.034 A 
BRANCH  46  60
ATOM     60  C   UNL A   1      42.195  31.400  34.518  1.00  0.00     0.023 A 
ATOM     61  C   UNL A   1      41.230  31.432  35.539  1.00  0.00     0.031 A 
ATOM     62  C   UNL A   1      43.097  32.476  34.433  1.00  0.00     0.131 A 
ATOM     63  C   UNL A   1      41.137  32.548  36.385  1.00  0.00     0.055 A 
ATOM     64  C   UNL A   1      43.052  33.547  35.328  1.00  0.00     0.041 A 
ATOM     65  F   UNL A   1      44.028  32.512  33.467  1.00  0.00    -0.206 F 
ATOM     66  C   UNL A   1      42.058  33.595  36.301  1.00  0.00     0.022 A 
BRANCH  63  67
ATOM     67  S   UNL A   1      39.710  32.679  37.495  1.00  0.00     0.124 S 
ATOM     68  O   UNL A   1      40.355  32.667  38.806  1.00  0.00    -0.237 OA
ATOM     69  O   UNL A   1      39.108  33.943  37.089  1.00  0.00    -0.237 OA
ATOM     70  O   UNL A   1      38.924  31.486  37.186  1.00  0.00    -0.744 OA
ENDBRANCH  63  67
ENDBRANCH  46  60
BRANCH  47  71
ATOM     71  C   UNL A   1      42.329  24.375  27.375  1.00  0.00     0.023 A 
ATOM     72  C   UNL A   1      41.632  23.161  27.473  1.00  0.00     0.031 A 
ATOM     73  C   UNL A   1      43.116  24.597  26.232  1.00  0.00     0.131 A 
ATOM     74  C   UNL A   1      41.768  22.194  26.464  1.00  0.00     0.055 A 
ATOM     75  C   UNL A   1      43.212  23.651  25.209  1.00  0.00     0.041 A 
ATOM     76  F   UNL A   1      43.797  25.744  26.088  1.00  0.00    -0.206 F 
ATOM     77  C   UNL A   1      42.545  22.436  25.328  1.00  0.00     0.022 A 
BRANCH  74  78
ATOM     78  S   UNL A   1      40.970  20.581  26.693  1.00  0.00     0.124 S 
ATOM     79  O   UNL A   1      40.817  20.527  28.143  1.00  0.00    -0.237 OA
ATOM     80  O   UNL A   1      39.740  20.740  25.924  1.00  0.00    -0.237 OA
ATOM     81  O   UNL A   1      41.936  19.641  26.131  1.00  0.00    -0.744 OA
ENDBRANCH  74  78
ENDBRANCH  47  71
BRANCH  59  82
ATOM     82  C   UNL A   1      46.504  25.838  32.760  1.00  0.00     0.023 A 
ATOM     83  C   UNL A   1      46.454  24.781  33.686  1.00  0.00     0.031 A 
ATOM     84  C   UNL A   1      47.766  26.283  32.328  1.00  0.00     0.131 A 
ATOM     85  C   UNL A   1      47.645  24.239  34.191  1.00  0.00     0.055 A 
ATOM     86  C   UNL A   1      48.947  25.703  32.793  1.00  0.00     0.041 A 
ATOM     87  F   UNL A   1      47.871  27.290  31.447  1.00  0.00    -0.206 F 
ATOM     88  C   UNL A   1      48.891  24.683  33.739  1.00  0.00     0.022 A 
BRANCH  85  89
ATOM     89  S   UNL A   1      47.549  22.999  35.511  1.00  0.00     0.124 S 
ATOM     90  O   UNL A   1      47.273  21.777  34.762  1.00  0.00    -0.237 OA
ATOM     91  O   UNL A   1      48.872  23.088  36.120  1.00  0.00    -0.237 OA
ATOM     92  O   UNL A   1      46.450  23.474  36.349  1.00  0.00    -0.744 OA
ENDBRANCH  85  89
ENDBRANCH  59  82
ENDBRANCH  33  34
ENDBRANCH  25  28
ENDBRANCH  23  24
ENDBRANCH  22  23
ENDBRANCH   1  22
TORSDOF 18
ENDMDL
MODEL 3
REMARK VINA RESULT:     -10.5      1.252      2.361
REMARK SMILES CO[C@@H]1C[C@@H](C(=O)NCCCNC(=O)c2ccc(-c3c4nc(c(-c5cc(S(=O)(=O)[O-])ccc5F)c5ccc([nH]5)c(-c5cc(S(=O)(=O)[O-])ccc5F)c5nc(c(-c6cc(S(=O)(=O)[O-])ccc6F)c6ccc3[nH]6)C=C5)C=C4)cc2)N(C(=O)CSc2cccs2)C1
REMARK SMILES IDX 9 1 8 2 6 3 7 4 5 6 3 7 4 8 88 9 78 10 2 11 1 12 79 13 80 14
REMARK SMILES IDX 81 15 82 16 83 17 84 18 87 19 85 20 86 21 10 22 11 23 12 24
REMARK SMILES IDX 13 25 14 27 15 28 16 29 77 30 17 31 76 32 18 33 19 34 20 35
REMARK SMILES IDX 70 36 21 37 75 38 69 39 71 40 22 41 74 42 68 43 67 44 23 46
REMARK SMILES IDX 55 47 35 48 54 49 36 50 39 51 53 52 72 53 37 54 38 55 52 57
REMARK SMILES IDX 73 58 40 59 24 60 25 61 33 62 26 63 32 64 34 65 31 66 27 67
REMARK SMILES IDX 28 68 29 69 30 70 56 71 57 72 65 73 58 74 64 75 66 76 63 77
REMARK SMILES IDX 59 78 60 79 61 80 62 81 41 82 42 83 50 84 43 85 49 86 51 87
REMARK SMILES IDX 48 88 44 89 45 90 46 91 47 92
REMARK H PARENT 8 5 12 26 71 45 39 56
REMARK Flexibility Score: inf
ROOT
ATOM      1  C   UNL A   1      32.864  26.409  25.973  1.00  0.00     0.117 C 
ENDROOT
BRANCH   1   2
ATOM      2  N   UNL A   1      32.040  25.442  26.675  1.00  0.00    -0.354 N 
ATOM      3  C   UNL A   1      32.056  24.083  26.697  1.00  0.00     0.242 C 
ATOM      4  O   UNL A   1      31.309  23.530  27.511  1.00  0.00    -0.273 OA
ATOM      5  H   UNL A   1      31.341  25.845  27.240  1.00  0.00     0.163 HD
BRANCH   3   6
ATOM      6  C   UNL A   1      33.079  23.256  25.908  1.00  0.00     0.177 C 
ATOM      7  C   UNL A   1      35.451  22.993  25.589  1.00  0.00     0.139 C 
ATOM      8  C   UNL A   1      34.425  23.398  26.635  1.00  0.00     0.069 C 
ATOM      9  C   UNL A   1      34.834  23.511  24.283  1.00  0.00     0.152 C 
ATOM     10  N   UNL A   1      33.393  23.585  24.517  1.00  0.00    -0.327 N 
BRANCH   7  11
ATOM     11  O   UNL A   1      35.613  21.573  25.524  1.00  0.00    -0.380 OA
ATOM     12  C   UNL A   1      36.935  21.172  25.181  1.00  0.00     0.195 C 
ENDBRANCH   7  11
BRANCH  10  13
ATOM     13  C   UNL A   1      32.538  23.568  23.429  1.00  0.00     0.233 C 
ATOM     14  O   UNL A   1      32.568  24.480  22.596  1.00  0.00    -0.274 OA
BRANCH  13  15
ATOM     15  C   UNL A   1      31.502  22.460  23.309  1.00  0.00     0.175 C 
BRANCH  15  16
ATOM     16  S   UNL A   1      32.063  21.154  22.187  1.00  0.00    -0.105 SA
BRANCH  16  17
ATOM     17  C   UNL A   1      32.322  19.859  23.342  1.00  0.00     0.060 A 
ATOM     18  C   UNL A   1      32.475  20.025  24.700  1.00  0.00     0.027 A 
ATOM     19  S   UNL A   1      32.404  18.215  22.885  1.00  0.00    -0.137 S 
ATOM     20  C   UNL A   1      32.712  18.788  25.368  1.00  0.00     0.013 A 
ATOM     21  C   UNL A   1      32.713  17.722  24.494  1.00  0.00     0.066 A 
ENDBRANCH  16  17
ENDBRANCH  15  16
ENDBRANCH  13  15
ENDBRANCH  10  13
ENDBRANCH   3   6
ENDBRANCH   1   2
BRANCH   1  22
ATOM     22  C   UNL A   1      32.945  27.760  26.675  1.00  0.00     0.042 C 
BRANCH  22  23
ATOM     23  C   UNL A   1      33.989  28.712  26.100  1.00  0.00     0.118 C 
BRANCH  23  24
ATOM     24  N   UNL A   1      33.781  30.083  26.532  1.00  0.00    -0.352 N 
ATOM     25  C   UNL A   1      34.477  30.815  27.463  1.00  0.00     0.251 C 
ATOM     26  H   UNL A   1      33.036  30.555  26.095  1.00  0.00     0.163 HD
ATOM     27  O   UNL A   1      34.014  31.880  27.858  1.00  0.00    -0.269 OA
BRANCH  25  28
ATOM     28  C   UNL A   1      35.761  30.309  27.997  1.00  0.00     0.039 A 
ATOM     29  C   UNL A   1      35.777  29.699  29.253  1.00  0.00     0.014 A 
ATOM     30  C   UNL A   1      36.950  30.460  27.275  1.00  0.00     0.014 A 
ATOM     31  C   UNL A   1      36.976  29.199  29.767  1.00  0.00     0.010 A 
ATOM     32  C   UNL A   1      38.132  29.904  27.759  1.00  0.00     0.010 A 
ATOM     33  C   UNL A   1      38.160  29.278  29.016  1.00  0.00    -0.014 A 
BRANCH  33  34
ATOM     34  C   UNL A   1      39.441  28.743  29.543  1.00  0.00     0.031 A 
ATOM     35  C   UNL A   1      40.110  29.414  30.712  1.00  0.00     0.074 A 
ATOM     36  C   UNL A   1      40.027  27.689  28.941  1.00  0.00     0.049 A 
ATOM     37  N   UNL A   1      41.260  29.146  31.275  1.00  0.00    -0.248 NA
ATOM     38  C   UNL A   1      39.400  30.556  31.306  1.00  0.00     0.031 C 
ATOM     39  C   UNL A   1      39.494  26.978  27.777  1.00  0.00     0.029 A 
ATOM     40  N   UNL A   1      41.204  27.040  29.216  1.00  0.00    -0.354 N 
ATOM     41  C   UNL A   1      41.421  30.095  32.280  1.00  0.00     0.074 A 
ATOM     42  C   UNL A   1      40.274  30.977  32.208  1.00  0.00     0.031 C 
ATOM     43  C   UNL A   1      40.333  25.982  27.449  1.00  0.00     0.029 A 
ATOM     44  C   UNL A   1      41.481  26.006  28.351  1.00  0.00     0.049 A 
ATOM     45  H   UNL A   1      41.795  27.291  29.961  1.00  0.00     0.167 HD
ATOM     46  C   UNL A   1      42.420  30.209  33.191  1.00  0.00     0.034 A 
ATOM     47  C   UNL A   1      42.544  25.181  28.286  1.00  0.00     0.034 A 
ATOM     48  C   UNL A   1      43.548  29.312  33.259  1.00  0.00     0.049 A 
ATOM     49  C   UNL A   1      43.648  25.331  29.301  1.00  0.00     0.074 A 
ATOM     50  C   UNL A   1      44.587  29.300  34.173  1.00  0.00     0.029 A 
ATOM     51  N   UNL A   1      43.791  28.271  32.372  1.00  0.00    -0.354 N 
ATOM     52  N   UNL A   1      43.762  26.205  30.275  1.00  0.00    -0.248 NA
ATOM     53  C   UNL A   1      44.760  24.376  29.215  1.00  0.00     0.031 C 
ATOM     54  C   UNL A   1      45.485  28.291  33.807  1.00  0.00     0.029 A 
ATOM     55  C   UNL A   1      44.974  27.628  32.702  1.00  0.00     0.049 A 
ATOM     56  H   UNL A   1      43.207  28.025  31.618  1.00  0.00     0.167 HD
ATOM     57  C   UNL A   1      44.946  25.886  30.934  1.00  0.00     0.074 A 
ATOM     58  C   UNL A   1      45.501  24.733  30.254  1.00  0.00     0.031 C 
ATOM     59  C   UNL A   1      45.521  26.486  32.007  1.00  0.00     0.034 A 
BRANCH  46  60
ATOM     60  C   UNL A   1      42.341  31.359  34.165  1.00  0.00     0.023 A 
ATOM     61  C   UNL A   1      41.458  31.342  35.259  1.00  0.00     0.031 A 
ATOM     62  C   UNL A   1      43.132  32.507  33.978  1.00  0.00     0.131 A 
ATOM     63  C   UNL A   1      41.329  32.475  36.076  1.00  0.00     0.055 A 
ATOM     64  C   UNL A   1      43.058  33.601  34.843  1.00  0.00     0.041 A 
ATOM     65  F   UNL A   1      43.980  32.591  32.942  1.00  0.00    -0.206 F 
ATOM     66  C   UNL A   1      42.142  33.595  35.891  1.00  0.00     0.022 A 
BRANCH  63  67
ATOM     67  S   UNL A   1      39.985  32.518  37.292  1.00  0.00     0.124 S 
ATOM     68  O   UNL A   1      39.421  33.846  37.062  1.00  0.00    -0.237 OA
ATOM     69  O   UNL A   1      39.154  31.392  36.884  1.00  0.00    -0.237 OA
ATOM     70  O   UNL A   1      40.673  32.355  38.571  1.00  0.00    -0.744 OA
ENDBRANCH  63  67
ENDBRANCH  46  60
BRANCH  47  71
ATOM     71  C   UNL A   1      42.627  24.143  27.221  1.00  0.00     0.023 A 
ATOM     72  C   UNL A   1      41.988  22.902  27.370  1.00  0.00     0.031 A 
ATOM     73  C   UNL A   1      43.377  24.365  26.053  1.00  0.00     0.131 A 
ATOM     74  C   UNL A   1      42.145  21.913  26.386  1.00  0.00     0.055 A 
ATOM     75  C   UNL A   1      43.493  23.395  25.056  1.00  0.00     0.041 A 
ATOM     76  F   UNL A   1      44.002  25.537  25.861  1.00  0.00    -0.206 F 
ATOM     77  C   UNL A   1      42.884  22.155  25.225  1.00  0.00     0.022 A 
BRANCH  74  78
ATOM     78  S   UNL A   1      41.428  20.273  26.681  1.00  0.00     0.124 S 
ATOM     79  O   UNL A   1      42.180  19.823  27.846  1.00  0.00    -0.237 OA
ATOM     80  O   UNL A   1      40.023  20.595  26.910  1.00  0.00    -0.237 OA
ATOM     81  O   UNL A   1      41.704  19.553  25.440  1.00  0.00    -0.744 OA
ENDBRANCH  74  78
ENDBRANCH  47  71
BRANCH  59  82
ATOM     82  C   UNL A   1      46.794  25.873  32.532  1.00  0.00     0.023 A 
ATOM     83  C   UNL A   1      46.782  24.878  33.525  1.00  0.00     0.031 A 
ATOM     84  C   UNL A   1      48.039  26.305  32.040  1.00  0.00     0.131 A 
ATOM     85  C   UNL A   1      47.993  24.384  34.033  1.00  0.00     0.055 A 
ATOM     86  C   UNL A   1      49.239  25.771  32.511  1.00  0.00     0.041 A 
ATOM     87  F   UNL A   1      48.107  27.254  31.094  1.00  0.00    -0.206 F 
ATOM     88  C   UNL A   1      49.221  24.813  33.521  1.00  0.00     0.022 A 
BRANCH  85  89
ATOM     89  S   UNL A   1      47.947  23.231  35.431  1.00  0.00     0.124 S 
ATOM     90  O   UNL A   1      46.512  23.071  35.647  1.00  0.00    -0.237 OA
ATOM     91  O   UNL A   1      48.644  22.065  34.898  1.00  0.00    -0.237 OA
ATOM     92  O   UNL A   1      48.657  23.945  36.490  1.00  0.00    -0.744 OA
ENDBRANCH  85  89
ENDBRANCH  59  82
ENDBRANCH  33  34
ENDBRANCH  25  28
ENDBRANCH  23  24
ENDBRANCH  22  23
ENDBRANCH   1  22
TORSDOF 18
ENDMDL
