MODEL 1
REMARK VINA RESULT:     -12.2      0.000      0.000
REMARK SMILES COc1ccc(C(=O)N[C@H](C(=O)NCCCNC(=O)c2ccc(-c3c4nc(c(-c5cc(S(=O)(=O)[O-])ccc5F)c5ccc([nH]5)c(-c5cc(S(=O)(=O)[O-])ccc5F)c5nc(c(-c6cc(S(=O)(=O)[O-])ccc6F)c6ccc3[nH]6)C=C5)C=C4)cc2)C2=C(C)N=N[C@H]2C)c(F)c1F
REMARK SMILES IDX 15 1 14 2 13 3 11 4 12 5 10 7 9 8 7 9 8 10 6 12 3 13 4 14
REMARK SMILES IDX 92 15 5 16 90 17 93 18 91 19 2 20 1 21 83 22 84 23 88 24
REMARK SMILES IDX 85 25 86 26 87 27 89 28 16 29 17 30 18 31 19 33 20 34 21 35
REMARK SMILES IDX 82 36 22 37 81 38 23 39 24 40 25 41 75 42 26 43 80 44 74 45
REMARK SMILES IDX 76 46 27 47 79 48 73 49 72 50 28 52 60 53 40 54 59 55 41 56
REMARK SMILES IDX 44 57 58 58 77 59 42 60 43 61 57 63 78 64 45 65 29 66 30 67
REMARK SMILES IDX 38 68 31 69 37 70 39 71 36 72 32 73 33 74 34 75 35 76 61 77
REMARK SMILES IDX 62 78 70 79 63 80 69 81 71 82 68 83 64 84 65 85 66 86 67 87
REMARK SMILES IDX 46 88 47 89 55 90 48 91 54 92 56 93 53 94 49 95 50 96 51 97
REMARK SMILES IDX 52 98
REMARK H PARENT 13 6 9 11 17 32 76 51 44 62
REMARK Flexibility Score: inf
ROOT
ATOM      1  C   UNL A   1      31.627  30.122  25.696  1.00  0.00     0.042 C 
ENDROOT
BRANCH   1   2
ATOM      2  C   UNL A   1      31.944  28.954  24.780  1.00  0.00     0.117 C 
BRANCH   2   3
ATOM      3  N   UNL A   1      30.809  28.065  24.560  1.00  0.00    -0.354 N 
ATOM      4  C   UNL A   1      30.623  26.754  24.902  1.00  0.00     0.247 C 
ATOM      5  O   UNL A   1      29.480  26.302  24.771  1.00  0.00    -0.272 OA
ATOM      6  H   UNL A   1      30.050  28.478  24.086  1.00  0.00     0.163 HD
BRANCH   4   7
ATOM      7  C   UNL A   1      31.800  25.852  25.379  1.00  0.00     0.202 C 
BRANCH   7   8
ATOM      8  N   UNL A   1      31.312  24.830  26.320  1.00  0.00    -0.336 N 
ATOM      9  C   UNL A   1      31.705  23.598  26.770  1.00  0.00     0.255 C 
ATOM     10  O   UNL A   1      30.967  23.101  27.631  1.00  0.00    -0.269 OA
ATOM     11  H   UNL A   1      30.469  25.110  26.742  1.00  0.00     0.165 HD
BRANCH   9  12
ATOM     12  C   UNL A   1      32.887  22.784  26.356  1.00  0.00     0.078 A 
ATOM     13  C   UNL A   1      35.261  21.408  25.633  1.00  0.00     0.157 A 
ATOM     14  C   UNL A   1      35.343  22.585  26.364  1.00  0.00     0.050 A 
ATOM     15  C   UNL A   1      34.019  20.936  25.249  1.00  0.00     0.201 A 
ATOM     16  C   UNL A   1      34.165  23.262  26.723  1.00  0.00     0.021 A 
ATOM     17  C   UNL A   1      32.859  21.615  25.616  1.00  0.00     0.175 A 
ATOM     18  F   UNL A   1      33.915  19.810  24.526  1.00  0.00    -0.200 F 
ATOM     19  F   UNL A   1      31.720  21.083  25.214  1.00  0.00    -0.203 F 
BRANCH  13  20
ATOM     20  O   UNL A   1      36.393  20.764  25.223  1.00  0.00    -0.494 OA
ATOM     21  C   UNL A   1      37.444  21.698  24.974  1.00  0.00     0.278 C 
ENDBRANCH  13  20
ENDBRANCH   9  12
ENDBRANCH   7   8
BRANCH   7  22
ATOM     22  C   UNL A   1      32.381  25.181  24.157  1.00  0.00     0.011 C 
ATOM     23  C   UNL A   1      31.931  24.272  23.278  1.00  0.00     0.064 C 
ATOM     24  C   UNL A   1      33.769  25.499  23.685  1.00  0.00     0.156 C 
ATOM     25  C   UNL A   1      30.607  23.601  23.149  1.00  0.00     0.069 C 
ATOM     26  N   UNL A   1      32.877  23.939  22.337  1.00  0.00    -0.160 NA
ATOM     27  N   UNL A   1      33.939  24.581  22.531  1.00  0.00    -0.181 NA
ATOM     28  C   UNL A   1      33.968  26.918  23.176  1.00  0.00     0.040 C 
ENDBRANCH   7  22
ENDBRANCH   4   7
ENDBRANCH   2   3
ENDBRANCH   1   2
BRANCH   1  29
ATOM     29  C   UNL A   1      32.773  30.479  26.627  1.00  0.00     0.118 C 
BRANCH  29  30
ATOM     30  N   UNL A   1      32.836  31.903  26.922  1.00  0.00    -0.352 N 
ATOM     31  C   UNL A   1      33.734  32.624  27.677  1.00  0.00     0.251 C 
ATOM     32  H   UNL A   1      32.118  32.439  26.513  1.00  0.00     0.163 HD
ATOM     33  O   UNL A   1      33.481  33.797  27.938  1.00  0.00    -0.269 OA
BRANCH  31  34
ATOM     34  C   UNL A   1      34.967  31.994  28.208  1.00  0.00     0.039 A 
ATOM     35  C   UNL A   1      36.147  32.744  28.241  1.00  0.00     0.014 A 
ATOM     36  C   UNL A   1      34.984  30.673  28.654  1.00  0.00     0.014 A 
ATOM     37  C   UNL A   1      37.309  32.191  28.788  1.00  0.00     0.010 A 
ATOM     38  C   UNL A   1      36.102  30.170  29.315  1.00  0.00     0.010 A 
ATOM     39  C   UNL A   1      37.287  30.914  29.372  1.00  0.00    -0.014 A 
BRANCH  39  40
ATOM     40  C   UNL A   1      38.498  30.337  30.017  1.00  0.00     0.031 A 
ATOM     41  C   UNL A   1      38.885  30.750  31.415  1.00  0.00     0.074 A 
ATOM     42  C   UNL A   1      39.276  29.477  29.327  1.00  0.00     0.049 A 
ATOM     43  N   UNL A   1      39.917  30.381  32.132  1.00  0.00    -0.248 NA
ATOM     44  C   UNL A   1      38.021  31.737  32.079  1.00  0.00     0.031 C 
ATOM     45  C   UNL A   1      39.046  29.052  27.944  1.00  0.00     0.029 A 
ATOM     46  N   UNL A   1      40.416  28.805  29.692  1.00  0.00    -0.354 N 
ATOM     47  C   UNL A   1      39.833  31.103  33.319  1.00  0.00     0.074 A 
ATOM     48  C   UNL A   1      38.694  31.985  33.192  1.00  0.00     0.031 C 
ATOM     49  C   UNL A   1      39.988  28.163  27.593  1.00  0.00     0.029 A 
ATOM     50  C   UNL A   1      40.916  27.986  28.706  1.00  0.00     0.049 A 
ATOM     51  H   UNL A   1      40.837  28.900  30.577  1.00  0.00     0.167 HD
ATOM     52  C   UNL A   1      40.614  31.017  34.425  1.00  0.00     0.034 A 
ATOM     53  C   UNL A   1      42.000  27.185  28.695  1.00  0.00     0.034 A 
ATOM     54  C   UNL A   1      41.731  30.113  34.544  1.00  0.00     0.049 A 
ATOM     55  C   UNL A   1      42.847  27.097  29.938  1.00  0.00     0.074 A 
ATOM     56  C   UNL A   1      42.541  29.883  35.643  1.00  0.00     0.029 A 
ATOM     57  N   UNL A   1      42.201  29.291  33.527  1.00  0.00    -0.354 N 
ATOM     58  N   UNL A   1      42.708  27.730  31.080  1.00  0.00    -0.248 NA
ATOM     59  C   UNL A   1      43.988  26.174  29.895  1.00  0.00     0.031 C 
ATOM     60  C   UNL A   1      43.543  28.981  35.269  1.00  0.00     0.029 A 
ATOM     61  C   UNL A   1      43.313  28.583  33.961  1.00  0.00     0.049 A 
ATOM     62  H   UNL A   1      41.804  29.222  32.629  1.00  0.00     0.167 HD
ATOM     63  C   UNL A   1      43.734  27.266  31.898  1.00  0.00     0.074 A 
ATOM     64  C   UNL A   1      44.464  26.281  31.126  1.00  0.00     0.031 C 
ATOM     65  C   UNL A   1      44.045  27.620  33.171  1.00  0.00     0.034 A 
BRANCH  52  66
ATOM     66  C   UNL A   1      40.292  31.941  35.578  1.00  0.00     0.023 A 
ATOM     67  C   UNL A   1      39.238  31.675  36.470  1.00  0.00     0.031 A 
ATOM     68  C   UNL A   1      41.032  33.120  35.774  1.00  0.00     0.131 A 
ATOM     69  C   UNL A   1      38.898  32.612  37.458  1.00  0.00     0.055 A 
ATOM     70  C   UNL A   1      40.745  34.008  36.814  1.00  0.00     0.041 A 
ATOM     71  F   UNL A   1      42.038  33.442  34.945  1.00  0.00    -0.206 F 
ATOM     72  C   UNL A   1      39.662  33.765  37.653  1.00  0.00     0.022 A 
BRANCH  69  73
ATOM     73  S   UNL A   1      37.355  32.376  38.383  1.00  0.00     0.124 S 
ATOM     74  O   UNL A   1      37.196  30.925  38.325  1.00  0.00    -0.237 OA
ATOM     75  O   UNL A   1      37.683  32.932  39.690  1.00  0.00    -0.237 OA
ATOM     76  O   UNL A   1      36.374  33.135  37.609  1.00  0.00    -0.744 OA
ENDBRANCH  69  73
ENDBRANCH  52  66
BRANCH  53  77
ATOM     77  C   UNL A   1      42.350  26.405  27.471  1.00  0.00     0.023 A 
ATOM     78  C   UNL A   1      42.017  25.046  27.356  1.00  0.00     0.031 A 
ATOM     79  C   UNL A   1      43.052  27.005  26.410  1.00  0.00     0.131 A 
ATOM     80  C   UNL A   1      42.424  24.320  26.225  1.00  0.00     0.055 A 
ATOM     81  C   UNL A   1      43.408  26.291  25.264  1.00  0.00     0.041 A 
ATOM     82  F   UNL A   1      43.387  28.303  26.466  1.00  0.00    -0.206 F 
ATOM     83  C   UNL A   1      43.104  24.936  25.173  1.00  0.00     0.022 A 
BRANCH  80  84
ATOM     84  S   UNL A   1      42.115  22.533  26.183  1.00  0.00     0.124 S 
ATOM     85  O   UNL A   1      40.661  22.479  26.281  1.00  0.00    -0.237 OA
ATOM     86  O   UNL A   1      42.687  22.157  24.894  1.00  0.00    -0.237 OA
ATOM     87  O   UNL A   1      42.839  22.035  27.351  1.00  0.00    -0.744 OA
ENDBRANCH  80  84
ENDBRANCH  53  77
BRANCH  65  88
ATOM     88  C   UNL A   1      45.215  26.911  33.810  1.00  0.00     0.023 A 
ATOM     89  C   UNL A   1      45.048  25.713  34.526  1.00  0.00     0.031 A 
ATOM     90  C   UNL A   1      46.509  27.454  33.722  1.00  0.00     0.131 A 
ATOM     91  C   UNL A   1      46.143  25.133  35.183  1.00  0.00     0.055 A 
ATOM     92  C   UNL A   1      47.607  26.836  34.321  1.00  0.00     0.041 A 
ATOM     93  F   UNL A   1      46.727  28.598  33.053  1.00  0.00    -0.206 F 
ATOM     94  C   UNL A   1      47.426  25.677  35.070  1.00  0.00     0.022 A 
BRANCH  91  95
ATOM     95  S   UNL A   1      45.850  23.718  36.279  1.00  0.00     0.124 S 
ATOM     96  O   UNL A   1      45.202  22.768  35.380  1.00  0.00    -0.237 OA
ATOM     97  O   UNL A   1      47.202  23.369  36.706  1.00  0.00    -0.237 OA
ATOM     98  O   UNL A   1      44.992  24.267  37.326  1.00  0.00    -0.744 OA
ENDBRANCH  91  95
ENDBRANCH  65  88
ENDBRANCH  39  40
ENDBRANCH  31  34
ENDBRANCH  29  30
ENDBRANCH   1  29
TORSDOF 17
ENDMDL
MODEL 2
REMARK VINA RESULT:     -12.2      4.807      9.787
REMARK SMILES COc1ccc(C(=O)N[C@H](C(=O)NCCCNC(=O)c2ccc(-c3c4nc(c(-c5cc(S(=O)(=O)[O-])ccc5F)c5ccc([nH]5)c(-c5cc(S(=O)(=O)[O-])ccc5F)c5nc(c(-c6cc(S(=O)(=O)[O-])ccc6F)c6ccc3[nH]6)C=C5)C=C4)cc2)C2=C(C)N=N[C@H]2C)c(F)c1F
REMARK SMILES IDX 15 1 14 2 13 3 11 4 12 5 10 7 9 8 7 9 8 10 6 12 3 13 4 14
REMARK SMILES IDX 92 15 5 16 90 17 93 18 91 19 2 20 1 21 83 22 84 23 88 24
REMARK SMILES IDX 85 25 86 26 87 27 89 28 16 29 17 30 18 31 19 33 20 34 21 35
REMARK SMILES IDX 82 36 22 37 81 38 23 39 24 40 25 41 75 42 26 43 80 44 74 45
REMARK SMILES IDX 76 46 27 47 79 48 73 49 72 50 28 52 60 53 40 54 59 55 41 56
REMARK SMILES IDX 44 57 58 58 77 59 42 60 43 61 57 63 78 64 45 65 29 66 30 67
REMARK SMILES IDX 38 68 31 69 37 70 39 71 36 72 32 73 33 74 34 75 35 76 61 77
REMARK SMILES IDX 62 78 70 79 63 80 69 81 71 82 68 83 64 84 65 85 66 86 67 87
REMARK SMILES IDX 46 88 47 89 55 90 48 91 54 92 56 93 53 94 49 95 50 96 51 97
REMARK SMILES IDX 52 98
REMARK H PARENT 13 6 9 11 17 32 76 51 44 62
REMARK Flexibility Score: inf
ROOT
ATOM      1  C   UNL A   1      36.935  23.516  24.790  1.00  0.00     0.042 C 
ENDROOT
BRANCH   1   2
ATOM      2  C   UNL A   1      36.575  22.602  23.633  1.00  0.00     0.117 C 
BRANCH   2   3
ATOM      3  N   UNL A   1      35.284  21.944  23.794  1.00  0.00    -0.354 N 
ATOM      4  C   UNL A   1      34.024  22.466  23.892  1.00  0.00     0.247 C 
ATOM      5  O   UNL A   1      33.084  21.665  23.819  1.00  0.00    -0.272 OA
ATOM      6  H   UNL A   1      35.327  20.961  23.839  1.00  0.00     0.163 HD
BRANCH   4   7
ATOM      7  C   UNL A   1      33.776  23.982  24.143  1.00  0.00     0.202 C 
BRANCH   7   8
ATOM      8  N   UNL A   1      33.642  24.697  22.862  1.00  0.00    -0.336 N 
ATOM      9  C   UNL A   1      33.348  25.965  22.435  1.00  0.00     0.255 C 
ATOM     10  O   UNL A   1      33.390  26.121  21.207  1.00  0.00    -0.269 OA
ATOM     11  H   UNL A   1      33.811  24.096  22.101  1.00  0.00     0.165 HD
BRANCH   9  12
ATOM     12  C   UNL A   1      32.980  27.163  23.246  1.00  0.00     0.078 A 
ATOM     13  C   UNL A   1      32.461  29.400  24.914  1.00  0.00     0.157 A 
ATOM     14  C   UNL A   1      33.677  28.737  25.010  1.00  0.00     0.050 A 
ATOM     15  C   UNL A   1      31.510  28.943  24.018  1.00  0.00     0.201 A 
ATOM     16  C   UNL A   1      33.932  27.632  24.180  1.00  0.00     0.021 A 
ATOM     17  C   UNL A   1      31.779  27.849  23.199  1.00  0.00     0.175 A 
ATOM     18  F   UNL A   1      30.321  29.556  23.919  1.00  0.00    -0.200 F 
ATOM     19  F   UNL A   1      30.817  27.492  22.368  1.00  0.00    -0.203 F 
BRANCH  13  20
ATOM     20  O   UNL A   1      32.168  30.440  25.748  1.00  0.00    -0.494 OA
ATOM     21  C   UNL A   1      31.934  29.971  27.077  1.00  0.00     0.278 C 
ENDBRANCH  13  20
ENDBRANCH   9  12
ENDBRANCH   7   8
BRANCH   7  22
ATOM     22  C   UNL A   1      32.494  24.109  24.930  1.00  0.00     0.011 C 
ATOM     23  C   UNL A   1      31.192  24.158  24.608  1.00  0.00     0.064 C 
ATOM     24  C   UNL A   1      32.510  24.210  26.426  1.00  0.00     0.156 C 
ATOM     25  C   UNL A   1      30.499  24.042  23.294  1.00  0.00     0.069 C 
ATOM     26  N   UNL A   1      30.385  24.325  25.709  1.00  0.00    -0.160 NA
ATOM     27  N   UNL A   1      31.074  24.385  26.758  1.00  0.00    -0.181 NA
ATOM     28  C   UNL A   1      33.001  22.967  27.152  1.00  0.00     0.040 C 
ENDBRANCH   7  22
ENDBRANCH   4   7
ENDBRANCH   2   3
ENDBRANCH   1   2
BRANCH   1  29
ATOM     29  C   UNL A   1      37.192  22.767  26.086  1.00  0.00     0.118 C 
BRANCH  29  30
ATOM     30  N   UNL A   1      38.453  22.040  26.077  1.00  0.00    -0.352 N 
ATOM     31  C   UNL A   1      39.739  22.471  26.313  1.00  0.00     0.251 C 
ATOM     32  H   UNL A   1      38.373  21.080  25.867  1.00  0.00     0.163 HD
ATOM     33  O   UNL A   1      40.673  21.713  26.066  1.00  0.00    -0.269 OA
BRANCH  31  34
ATOM     34  C   UNL A   1      40.007  23.840  26.815  1.00  0.00     0.039 A 
ATOM     35  C   UNL A   1      40.104  24.047  28.194  1.00  0.00     0.014 A 
ATOM     36  C   UNL A   1      40.145  24.926  25.950  1.00  0.00     0.014 A 
ATOM     37  C   UNL A   1      40.411  25.317  28.689  1.00  0.00     0.010 A 
ATOM     38  C   UNL A   1      40.577  26.158  26.434  1.00  0.00     0.010 A 
ATOM     39  C   UNL A   1      40.696  26.377  27.813  1.00  0.00    -0.014 A 
BRANCH  39  40
ATOM     40  C   UNL A   1      41.088  27.719  28.323  1.00  0.00     0.031 A 
ATOM     41  C   UNL A   1      42.544  28.093  28.438  1.00  0.00     0.074 A 
ATOM     42  C   UNL A   1      40.135  28.584  28.727  1.00  0.00     0.049 A 
ATOM     43  N   UNL A   1      43.083  29.200  28.885  1.00  0.00    -0.248 NA
ATOM     44  C   UNL A   1      43.525  27.075  28.034  1.00  0.00     0.031 C 
ATOM     45  C   UNL A   1      38.694  28.315  28.730  1.00  0.00     0.029 A 
ATOM     46  N   UNL A   1      40.230  29.865  29.213  1.00  0.00    -0.354 N 
ATOM     47  C   UNL A   1      44.459  29.002  28.832  1.00  0.00     0.074 A 
ATOM     48  C   UNL A   1      44.669  27.643  28.383  1.00  0.00     0.031 C 
ATOM     49  C   UNL A   1      38.042  29.408  29.154  1.00  0.00     0.029 A 
ATOM     50  C   UNL A   1      39.014  30.442  29.497  1.00  0.00     0.049 A 
ATOM     51  H   UNL A   1      41.089  30.328  29.346  1.00  0.00     0.167 HD
ATOM     52  C   UNL A   1      45.457  29.881  29.102  1.00  0.00     0.034 A 
ATOM     53  C   UNL A   1      38.713  31.663  29.982  1.00  0.00     0.034 A 
ATOM     54  C   UNL A   1      45.230  31.240  29.525  1.00  0.00     0.049 A 
ATOM     55  C   UNL A   1      39.836  32.626  30.266  1.00  0.00     0.074 A 
ATOM     56  C   UNL A   1      46.160  32.240  29.750  1.00  0.00     0.029 A 
ATOM     57  N   UNL A   1      43.983  31.792  29.793  1.00  0.00    -0.354 N 
ATOM     58  N   UNL A   1      41.131  32.447  30.137  1.00  0.00    -0.248 NA
ATOM     59  C   UNL A   1      39.456  33.960  30.746  1.00  0.00     0.031 C 
ATOM     60  C   UNL A   1      45.483  33.371  30.223  1.00  0.00     0.029 A 
ATOM     61  C   UNL A   1      44.123  33.105  30.217  1.00  0.00     0.049 A 
ATOM     62  H   UNL A   1      43.125  31.320  29.697  1.00  0.00     0.167 HD
ATOM     63  C   UNL A   1      41.718  33.656  30.502  1.00  0.00     0.074 A 
ATOM     64  C   UNL A   1      40.634  34.560  30.828  1.00  0.00     0.031 C 
ATOM     65  C   UNL A   1      43.033  33.989  30.562  1.00  0.00     0.034 A 
BRANCH  52  66
ATOM     66  C   UNL A   1      46.879  29.383  28.967  1.00  0.00     0.023 A 
ATOM     67  C   UNL A   1      47.504  29.256  27.714  1.00  0.00     0.031 A 
ATOM     68  C   UNL A   1      47.612  29.002  30.105  1.00  0.00     0.131 A 
ATOM     69  C   UNL A   1      48.783  28.685  27.620  1.00  0.00     0.055 A 
ATOM     70  C   UNL A   1      48.918  28.515  30.013  1.00  0.00     0.041 A 
ATOM     71  F   UNL A   1      47.064  29.080  31.329  1.00  0.00    -0.206 F 
ATOM     72  C   UNL A   1      49.505  28.338  28.764  1.00  0.00     0.022 A 
BRANCH  69  73
ATOM     73  S   UNL A   1      49.424  28.260  25.977  1.00  0.00     0.124 S 
ATOM     74  O   UNL A   1      50.419  29.310  25.769  1.00  0.00    -0.237 OA
ATOM     75  O   UNL A   1      49.947  26.915  26.180  1.00  0.00    -0.237 OA
ATOM     76  O   UNL A   1      48.246  28.350  25.116  1.00  0.00    -0.744 OA
ENDBRANCH  69  73
ENDBRANCH  52  66
BRANCH  53  77
ATOM     77  C   UNL A   1      37.292  32.046  30.233  1.00  0.00     0.023 A 
ATOM     78  C   UNL A   1      36.527  32.685  29.246  1.00  0.00     0.031 A 
ATOM     79  C   UNL A   1      36.689  31.803  31.481  1.00  0.00     0.131 A 
ATOM     80  C   UNL A   1      35.217  33.100  29.535  1.00  0.00     0.055 A 
ATOM     81  C   UNL A   1      35.369  32.170  31.746  1.00  0.00     0.041 A 
ATOM     82  F   UNL A   1      37.374  31.187  32.457  1.00  0.00    -0.206 F 
ATOM     83  C   UNL A   1      34.628  32.834  30.773  1.00  0.00     0.022 A 
BRANCH  80  84
ATOM     84  S   UNL A   1      34.314  34.062  28.290  1.00  0.00     0.124 S 
ATOM     85  O   UNL A   1      35.338  34.269  27.273  1.00  0.00    -0.237 OA
ATOM     86  O   UNL A   1      33.229  33.154  27.934  1.00  0.00    -0.237 OA
ATOM     87  O   UNL A   1      33.905  35.261  29.019  1.00  0.00    -0.744 OA
ENDBRANCH  80  84
ENDBRANCH  53  77
BRANCH  65  88
ATOM     88  C   UNL A   1      43.360  35.404  30.973  1.00  0.00     0.023 A 
ATOM     89  C   UNL A   1      43.475  36.438  30.028  1.00  0.00     0.031 A 
ATOM     90  C   UNL A   1      43.583  35.716  32.326  1.00  0.00     0.131 A 
ATOM     91  C   UNL A   1      43.871  37.719  30.439  1.00  0.00     0.055 A 
ATOM     92  C   UNL A   1      43.910  37.009  32.737  1.00  0.00     0.041 A 
ATOM     93  F   UNL A   1      43.490  34.768  33.272  1.00  0.00    -0.206 F 
ATOM     94  C   UNL A   1      44.072  38.016  31.790  1.00  0.00     0.022 A 
BRANCH  91  95
ATOM     95  S   UNL A   1      44.227  38.967  29.172  1.00  0.00     0.124 S 
ATOM     96  O   UNL A   1      44.035  38.210  27.939  1.00  0.00    -0.237 OA
ATOM     97  O   UNL A   1      43.226  39.991  29.453  1.00  0.00    -0.237 OA
ATOM     98  O   UNL A   1      45.607  39.357  29.453  1.00  0.00    -0.744 OA
ENDBRANCH  91  95
ENDBRANCH  65  88
ENDBRANCH  39  40
ENDBRANCH  31  34
ENDBRANCH  29  30
ENDBRANCH   1  29
TORSDOF 17
ENDMDL
MODEL 3
REMARK VINA RESULT:     -12.1      4.766     10.013
REMARK SMILES COc1ccc(C(=O)N[C@H](C(=O)NCCCNC(=O)c2ccc(-c3c4nc(c(-c5cc(S(=O)(=O)[O-])ccc5F)c5ccc([nH]5)c(-c5cc(S(=O)(=O)[O-])ccc5F)c5nc(c(-c6cc(S(=O)(=O)[O-])ccc6F)c6ccc3[nH]6)C=C5)C=C4)cc2)C2=C(C)N=N[C@H]2C)c(F)c1F
REMARK SMILES IDX 15 1 14 2 13 3 11 4 12 5 10 7 9 8 7 9 8 10 6 12 3 13 4 14
REMARK SMILES IDX 92 15 5 16 90 17 93 18 91 19 2 20 1 21 83 22 84 23 88 24
REMARK SMILES IDX 85 25 86 26 87 27 89 28 16 29 17 30 18 31 19 33 20 34 21 35
REMARK SMILES IDX 82 36 22 37 81 38 23 39 24 40 25 41 75 42 26 43 80 44 74 45
REMARK SMILES IDX 76 46 27 47 79 48 73 49 72 50 28 52 60 53 40 54 59 55 41 56
REMARK SMILES IDX 44 57 58 58 77 59 42 60 43 61 57 63 78 64 45 65 29 66 30 67
REMARK SMILES IDX 38 68 31 69 37 70 39 71 36 72 32 73 33 74 34 75 35 76 61 77
REMARK SMILES IDX 62 78 70 79 63 80 69 81 71 82 68 83 64 84 65 85 66 86 67 87
REMARK SMILES IDX 46 88 47 89 55 90 48 91 54 92 56 93 53 94 49 95 50 96 51 97
REMARK SMILES IDX 52 98
REMARK H PARENT 13 6 9 11 17 32 76 51 44 62
REMARK Flexibility Score: inf
ROOT
ATOM      1  C   UNL A   1      35.488  21.653  25.932  1.00  0.00     0.042 C 
ENDROOT
BRANCH   1   2
ATOM      2  C   UNL A   1      35.253  20.933  24.617  1.00  0.00     0.117 C 
BRANCH   2   3
ATOM      3  N   UNL A   1      33.854  20.916  24.206  1.00  0.00    -0.354 N 
ATOM      4  C   UNL A   1      32.992  21.942  23.936  1.00  0.00     0.247 C 
ATOM      5  O   UNL A   1      31.914  21.638  23.411  1.00  0.00    -0.272 OA
ATOM      6  H   UNL A   1      33.466  20.016  24.108  1.00  0.00     0.163 HD
BRANCH   4   7
ATOM      7  C   UNL A   1      33.317  23.415  24.319  1.00  0.00     0.202 C 
BRANCH   7   8
ATOM      8  N   UNL A   1      33.486  24.234  23.106  1.00  0.00    -0.336 N 
ATOM      9  C   UNL A   1      33.556  25.563  22.782  1.00  0.00     0.255 C 
ATOM     10  O   UNL A   1      33.751  25.794  21.582  1.00  0.00    -0.269 OA
ATOM     11  H   UNL A   1      33.573  23.669  22.306  1.00  0.00     0.165 HD
BRANCH   9  12
ATOM     12  C   UNL A   1      33.419  26.751  23.676  1.00  0.00     0.078 A 
ATOM     13  C   UNL A   1      33.072  29.119  25.203  1.00  0.00     0.157 A 
ATOM     14  C   UNL A   1      32.484  29.015  23.950  1.00  0.00     0.050 A 
ATOM     15  C   UNL A   1      33.838  28.070  25.679  1.00  0.00     0.201 A 
ATOM     16  C   UNL A   1      32.656  27.840  23.198  1.00  0.00     0.021 A 
ATOM     17  C   UNL A   1      33.996  26.910  24.924  1.00  0.00     0.175 A 
ATOM     18  F   UNL A   1      34.431  28.154  26.880  1.00  0.00    -0.200 F 
ATOM     19  F   UNL A   1      34.736  25.958  25.465  1.00  0.00    -0.203 F 
BRANCH  13  20
ATOM     20  O   UNL A   1      32.967  30.271  25.926  1.00  0.00    -0.494 OA
ATOM     21  C   UNL A   1      31.867  30.200  26.834  1.00  0.00     0.278 C 
ENDBRANCH  13  20
ENDBRANCH   9  12
ENDBRANCH   7   8
BRANCH   7  22
ATOM     22  C   UNL A   1      32.156  23.941  25.127  1.00  0.00     0.011 C 
ATOM     23  C   UNL A   1      30.939  24.421  24.827  1.00  0.00     0.064 C 
ATOM     24  C   UNL A   1      32.219  24.003  26.625  1.00  0.00     0.156 C 
ATOM     25  C   UNL A   1      30.234  24.565  23.522  1.00  0.00     0.069 C 
ATOM     26  N   UNL A   1      30.243  24.824  25.942  1.00  0.00    -0.160 NA
ATOM     27  N   UNL A   1      30.924  24.634  26.981  1.00  0.00    -0.181 NA
ATOM     28  C   UNL A   1      32.281  22.654  27.325  1.00  0.00     0.040 C 
ENDBRANCH   7  22
ENDBRANCH   4   7
ENDBRANCH   2   3
ENDBRANCH   1   2
BRANCH   1  29
ATOM     29  C   UNL A   1      36.815  22.390  25.982  1.00  0.00     0.118 C 
BRANCH  29  30
ATOM     30  N   UNL A   1      37.957  21.490  26.046  1.00  0.00    -0.352 N 
ATOM     31  C   UNL A   1      39.282  21.740  26.324  1.00  0.00     0.251 C 
ATOM     32  H   UNL A   1      37.747  20.546  25.860  1.00  0.00     0.163 HD
ATOM     33  O   UNL A   1      40.105  20.849  26.138  1.00  0.00    -0.269 OA
BRANCH  31  34
ATOM     34  C   UNL A   1      39.726  23.074  26.798  1.00  0.00     0.039 A 
ATOM     35  C   UNL A   1      40.667  23.144  27.830  1.00  0.00     0.014 A 
ATOM     36  C   UNL A   1      39.217  24.254  26.256  1.00  0.00     0.014 A 
ATOM     37  C   UNL A   1      41.142  24.387  28.256  1.00  0.00     0.010 A 
ATOM     38  C   UNL A   1      39.784  25.481  26.589  1.00  0.00     0.010 A 
ATOM     39  C   UNL A   1      40.740  25.568  27.610  1.00  0.00    -0.014 A 
BRANCH  39  40
ATOM     40  C   UNL A   1      41.285  26.893  28.008  1.00  0.00     0.031 A 
ATOM     41  C   UNL A   1      42.713  27.257  27.682  1.00  0.00     0.074 A 
ATOM     42  C   UNL A   1      40.512  27.752  28.703  1.00  0.00     0.049 A 
ATOM     43  N   UNL A   1      43.376  28.349  27.970  1.00  0.00    -0.248 NA
ATOM     44  C   UNL A   1      43.511  26.246  26.974  1.00  0.00     0.031 C 
ATOM     45  C   UNL A   1      39.138  27.490  29.139  1.00  0.00     0.029 A 
ATOM     46  N   UNL A   1      40.767  29.018  29.168  1.00  0.00    -0.354 N 
ATOM     47  C   UNL A   1      44.668  28.146  27.496  1.00  0.00     0.074 A 
ATOM     48  C   UNL A   1      44.714  26.799  26.972  1.00  0.00     0.031 C 
ATOM     49  C   UNL A   1      38.660  28.574  29.768  1.00  0.00     0.029 A 
ATOM     50  C   UNL A   1      39.703  29.594  29.824  1.00  0.00     0.049 A 
ATOM     51  H   UNL A   1      41.632  29.473  29.044  1.00  0.00     0.167 HD
ATOM     52  C   UNL A   1      45.712  29.012  27.470  1.00  0.00     0.034 A 
ATOM     53  C   UNL A   1      39.579  30.803  30.406  1.00  0.00     0.034 A 
ATOM     54  C   UNL A   1      45.641  30.361  27.974  1.00  0.00     0.049 A 
ATOM     55  C   UNL A   1      40.748  31.752  30.358  1.00  0.00     0.074 A 
ATOM     56  C   UNL A   1      46.609  31.350  27.929  1.00  0.00     0.029 A 
ATOM     57  N   UNL A   1      44.542  30.912  28.623  1.00  0.00    -0.354 N 
ATOM     58  N   UNL A   1      41.939  31.571  29.836  1.00  0.00    -0.248 NA
ATOM     59  C   UNL A   1      40.550  33.075  30.963  1.00  0.00     0.031 C 
ATOM     60  C   UNL A   1      46.123  32.471  28.613  1.00  0.00     0.029 A 
ATOM     61  C   UNL A   1      44.823  32.212  29.016  1.00  0.00     0.049 A 
ATOM     62  H   UNL A   1      43.690  30.446  28.781  1.00  0.00     0.167 HD
ATOM     63  C   UNL A   1      42.625  32.766  30.033  1.00  0.00     0.074 A 
ATOM     64  C   UNL A   1      41.704  33.666  30.696  1.00  0.00     0.031 C 
ATOM     65  C   UNL A   1      43.900  33.091  29.698  1.00  0.00     0.034 A 
BRANCH  52  66
ATOM     66  C   UNL A   1      47.019  28.512  26.896  1.00  0.00     0.023 A 
ATOM     67  C   UNL A   1      47.222  28.391  25.510  1.00  0.00     0.031 A 
ATOM     68  C   UNL A   1      48.068  28.122  27.747  1.00  0.00     0.131 A 
ATOM     69  C   UNL A   1      48.405  27.816  25.019  1.00  0.00     0.055 A 
ATOM     70  C   UNL A   1      49.278  27.631  27.250  1.00  0.00     0.041 A 
ATOM     71  F   UNL A   1      47.929  28.194  29.081  1.00  0.00    -0.206 F 
ATOM     72  C   UNL A   1      49.446  27.460  25.879  1.00  0.00     0.022 A 
BRANCH  69  73
ATOM     73  S   UNL A   1      48.500  27.400  23.256  1.00  0.00     0.124 S 
ATOM     74  O   UNL A   1      47.356  28.134  22.719  1.00  0.00    -0.237 OA
ATOM     75  O   UNL A   1      49.816  27.906  22.883  1.00  0.00    -0.237 OA
ATOM     76  O   UNL A   1      48.361  25.946  23.239  1.00  0.00    -0.744 OA
ENDBRANCH  69  73
ENDBRANCH  52  66
BRANCH  53  77
ATOM     77  C   UNL A   1      38.308  31.186  31.088  1.00  0.00     0.023 A 
ATOM     78  C   UNL A   1      37.268  31.815  30.385  1.00  0.00     0.031 A 
ATOM     79  C   UNL A   1      38.128  30.953  32.463  1.00  0.00     0.131 A 
ATOM     80  C   UNL A   1      36.113  32.230  31.067  1.00  0.00     0.055 A 
ATOM     81  C   UNL A   1      36.956  31.321  33.127  1.00  0.00     0.041 A 
ATOM     82  F   UNL A   1      39.087  30.348  33.181  1.00  0.00    -0.206 F 
ATOM     83  C   UNL A   1      35.945  31.975  32.430  1.00  0.00     0.022 A 
BRANCH  80  84
ATOM     84  S   UNL A   1      34.861  33.179  30.161  1.00  0.00     0.124 S 
ATOM     85  O   UNL A   1      34.028  33.685  31.245  1.00  0.00    -0.237 OA
ATOM     86  O   UNL A   1      35.677  34.166  29.462  1.00  0.00    -0.237 OA
ATOM     87  O   UNL A   1      34.231  32.176  29.303  1.00  0.00    -0.744 OA
ENDBRANCH  80  84
ENDBRANCH  53  77
BRANCH  65  88
ATOM     88  C   UNL A   1      44.355  34.493  30.024  1.00  0.00     0.023 A 
ATOM     89  C   UNL A   1      44.116  35.567  29.150  1.00  0.00     0.031 A 
ATOM     90  C   UNL A   1      45.059  34.753  31.213  1.00  0.00     0.131 A 
ATOM     91  C   UNL A   1      44.634  36.837  29.444  1.00  0.00     0.055 A 
ATOM     92  C   UNL A   1      45.514  36.032  31.534  1.00  0.00     0.041 A 
ATOM     93  F   UNL A   1      45.319  33.764  32.084  1.00  0.00    -0.206 F 
ATOM     94  C   UNL A   1      45.317  37.081  30.639  1.00  0.00     0.022 A 
BRANCH  91  95
ATOM     95  S   UNL A   1      44.500  38.143  28.192  1.00  0.00     0.124 S 
ATOM     96  O   UNL A   1      43.075  38.114  27.876  1.00  0.00    -0.237 OA
ATOM     97  O   UNL A   1      44.967  39.319  28.918  1.00  0.00    -0.237 OA
ATOM     98  O   UNL A   1      45.383  37.683  27.122  1.00  0.00    -0.744 OA
ENDBRANCH  91  95
ENDBRANCH  65  88
ENDBRANCH  39  40
ENDBRANCH  31  34
ENDBRANCH  29  30
ENDBRANCH   1  29
TORSDOF 17
ENDMDL
