MODEL 1
REMARK VINA RESULT:     -11.9      0.000      0.000
REMARK SMILES O=C(NCCCNC(=O)c1cc(F)ccc1NS(=O)(=O)c1ccc(Cl)s1)c1ccc(-c2c3nc(c(-c4cc(S(=O)(=O)[O-])ccc4F)c4ccc([nH]4)c(-c4cc(S(=O)(=O)[O-])ccc4F)c4nc(c(-c5cc(S(=O)(=O)[O-])ccc5F)c5ccc2[nH]5)C=C4)C=C3)cc1
REMARK SMILES IDX 5 1 4 2 3 3 1 4 2 5 27 7 28 8 89 9 29 10 88 11 30 12 31 13
REMARK SMILES IDX 32 14 82 15 33 16 87 17 81 18 83 19 34 20 86 21 80 22 79 23
REMARK SMILES IDX 35 25 67 26 47 27 66 28 48 29 51 30 65 31 84 32 49 33 50 34
REMARK SMILES IDX 64 36 85 37 52 38 36 39 37 40 45 41 38 42 44 43 46 44 43 45
REMARK SMILES IDX 39 46 40 47 41 48 42 49 68 50 69 51 77 52 70 53 76 54 78 55
REMARK SMILES IDX 75 56 71 57 72 58 73 59 74 60 53 61 54 62 62 63 55 64 61 65
REMARK SMILES IDX 63 66 60 67 56 68 57 69 58 70 59 71 6 72 7 73 8 74 9 76
REMARK SMILES IDX 10 77 11 78 16 79 12 80 15 81 13 82 14 83 17 84 18 86 19 87
REMARK SMILES IDX 20 88 21 89 22 90 26 91 23 92 24 93 25 94
REMARK H PARENT 3 6 83 24 51 35 7 75 17 85
REMARK Flexibility Score: inf
ROOT
ATOM      1  C   UNL A   1      31.387  31.924  26.473  1.00  0.00     0.042 C 
ENDROOT
BRANCH   1   2
ATOM      2  C   UNL A   1      32.666  32.399  27.149  1.00  0.00     0.118 C 
BRANCH   2   3
ATOM      3  N   UNL A   1      32.579  33.783  27.598  1.00  0.00    -0.352 N 
ATOM      4  O   UNL A   1      32.884  35.552  28.949  1.00  0.00    -0.269 OA
ATOM      5  C   UNL A   1      33.254  34.433  28.602  1.00  0.00     0.251 C 
ATOM      6  H   UNL A   1      31.935  34.339  27.102  1.00  0.00     0.163 HD
BRANCH   5   7
ATOM      7  C   UNL A   1      34.408  33.791  29.271  1.00  0.00     0.039 A 
ATOM      8  C   UNL A   1      35.712  34.200  28.995  1.00  0.00     0.014 A 
ATOM      9  C   UNL A   1      34.178  32.788  30.219  1.00  0.00     0.014 A 
ATOM     10  C   UNL A   1      36.786  33.511  29.544  1.00  0.00     0.010 A 
ATOM     11  C   UNL A   1      35.260  32.159  30.846  1.00  0.00     0.010 A 
ATOM     12  C   UNL A   1      36.574  32.499  30.494  1.00  0.00    -0.014 A 
BRANCH  12  13
ATOM     13  C   UNL A   1      37.749  31.867  31.149  1.00  0.00     0.031 A 
ATOM     14  C   UNL A   1      38.137  32.219  32.557  1.00  0.00     0.074 A 
ATOM     15  C   UNL A   1      38.434  30.926  30.469  1.00  0.00     0.049 A 
ATOM     16  N   UNL A   1      39.125  31.751  33.276  1.00  0.00    -0.248 NA
ATOM     17  C   UNL A   1      37.318  33.226  33.248  1.00  0.00     0.031 C 
ATOM     18  C   UNL A   1      38.139  30.498  29.098  1.00  0.00     0.029 A 
ATOM     19  N   UNL A   1      39.492  30.136  30.840  1.00  0.00    -0.354 N 
ATOM     20  C   UNL A   1      39.059  32.414  34.497  1.00  0.00     0.074 A 
ATOM     21  C   UNL A   1      37.946  33.336  34.412  1.00  0.00     0.031 C 
ATOM     22  C   UNL A   1      38.949  29.482  28.770  1.00  0.00     0.029 A 
ATOM     23  C   UNL A   1      39.870  29.234  29.872  1.00  0.00     0.049 A 
ATOM     24  H   UNL A   1      39.937  30.208  31.714  1.00  0.00     0.167 HD
ATOM     25  C   UNL A   1      39.852  32.260  35.585  1.00  0.00     0.034 A 
ATOM     26  C   UNL A   1      40.859  28.321  29.861  1.00  0.00     0.034 A 
ATOM     27  C   UNL A   1      40.950  31.326  35.658  1.00  0.00     0.049 A 
ATOM     28  C   UNL A   1      41.748  28.202  31.064  1.00  0.00     0.074 A 
ATOM     29  C   UNL A   1      41.802  31.083  36.723  1.00  0.00     0.029 A 
ATOM     30  N   UNL A   1      41.349  30.483  34.630  1.00  0.00    -0.354 N 
ATOM     31  N   UNL A   1      41.692  28.865  32.195  1.00  0.00    -0.248 NA
ATOM     32  C   UNL A   1      42.842  27.226  30.986  1.00  0.00     0.031 C 
ATOM     33  C   UNL A   1      42.749  30.135  36.319  1.00  0.00     0.029 A 
ATOM     34  C   UNL A   1      42.450  29.739  35.026  1.00  0.00     0.049 A 
ATOM     35  H   UNL A   1      40.914  30.423  33.749  1.00  0.00     0.167 HD
ATOM     36  C   UNL A   1      42.742  28.382  32.967  1.00  0.00     0.074 A 
ATOM     37  C   UNL A   1      43.407  27.364  32.178  1.00  0.00     0.031 C 
ATOM     38  C   UNL A   1      43.117  28.748  34.217  1.00  0.00     0.034 A 
BRANCH  25  39
ATOM     39  C   UNL A   1      39.590  33.146  36.776  1.00  0.00     0.023 A 
ATOM     40  C   UNL A   1      40.292  34.346  36.973  1.00  0.00     0.031 A 
ATOM     41  C   UNL A   1      38.599  32.795  37.711  1.00  0.00     0.131 A 
ATOM     42  C   UNL A   1      40.018  35.136  38.100  1.00  0.00     0.055 A 
ATOM     43  C   UNL A   1      38.291  33.614  38.798  1.00  0.00     0.041 A 
ATOM     44  F   UNL A   1      37.911  31.649  37.578  1.00  0.00    -0.206 F 
ATOM     45  C   UNL A   1      39.007  34.790  39.002  1.00  0.00     0.022 A 
BRANCH  42  46
ATOM     46  S   UNL A   1      41.052  36.591  38.418  1.00  0.00     0.124 S 
ATOM     47  O   UNL A   1      40.051  37.593  38.777  1.00  0.00    -0.237 OA
ATOM     48  O   UNL A   1      41.918  36.138  39.500  1.00  0.00    -0.237 OA
ATOM     49  O   UNL A   1      41.724  36.821  37.140  1.00  0.00    -0.744 OA
ENDBRANCH  42  46
ENDBRANCH  25  39
BRANCH  26  50
ATOM     50  C   UNL A   1      41.072  27.482  28.652  1.00  0.00     0.023 A 
ATOM     51  C   UNL A   1      42.076  27.792  27.724  1.00  0.00     0.031 A 
ATOM     52  C   UNL A   1      40.288  26.336  28.428  1.00  0.00     0.131 A 
ATOM     53  C   UNL A   1      42.264  26.967  26.604  1.00  0.00     0.055 A 
ATOM     54  C   UNL A   1      40.504  25.499  27.334  1.00  0.00     0.041 A 
ATOM     55  F   UNL A   1      39.323  25.994  29.297  1.00  0.00    -0.206 F 
ATOM     56  C   UNL A   1      41.495  25.815  26.411  1.00  0.00     0.022 A 
BRANCH  53  57
ATOM     57  S   UNL A   1      43.528  27.426  25.386  1.00  0.00     0.124 S 
ATOM     58  O   UNL A   1      44.225  28.506  26.074  1.00  0.00    -0.237 OA
ATOM     59  O   UNL A   1      44.270  26.178  25.230  1.00  0.00    -0.237 OA
ATOM     60  O   UNL A   1      42.745  27.830  24.220  1.00  0.00    -0.744 OA
ENDBRANCH  53  57
ENDBRANCH  26  50
BRANCH  38  61
ATOM     61  C   UNL A   1      44.293  28.027  34.816  1.00  0.00     0.023 A 
ATOM     62  C   UNL A   1      44.130  26.834  35.539  1.00  0.00     0.031 A 
ATOM     63  C   UNL A   1      45.594  28.529  34.636  1.00  0.00     0.131 A 
ATOM     64  C   UNL A   1      45.252  26.193  36.084  1.00  0.00     0.055 A 
ATOM     65  C   UNL A   1      46.710  27.865  35.143  1.00  0.00     0.041 A 
ATOM     66  F   UNL A   1      45.798  29.665  33.951  1.00  0.00    -0.206 F 
ATOM     67  C   UNL A   1      46.542  26.693  35.877  1.00  0.00     0.022 A 
BRANCH  64  68
ATOM     68  S   UNL A   1      45.006  24.709  37.096  1.00  0.00     0.124 S 
ATOM     69  O   UNL A   1      46.289  24.598  37.783  1.00  0.00    -0.237 OA
ATOM     70  O   UNL A   1      43.867  25.080  37.929  1.00  0.00    -0.237 OA
ATOM     71  O   UNL A   1      44.737  23.664  36.111  1.00  0.00    -0.744 OA
ENDBRANCH  64  68
ENDBRANCH  38  61
ENDBRANCH  12  13
ENDBRANCH   5   7
ENDBRANCH   2   3
ENDBRANCH   1   2
BRANCH   1  72
ATOM     72  C   UNL A   1      31.371  30.430  26.175  1.00  0.00     0.118 C 
BRANCH  72  73
ATOM     73  N   UNL A   1      32.302  30.082  25.106  1.00  0.00    -0.352 N 
ATOM     74  C   UNL A   1      32.096  29.255  24.031  1.00  0.00     0.253 C 
ATOM     75  H   UNL A   1      33.193  30.496  25.164  1.00  0.00     0.163 HD
ATOM     76  O   UNL A   1      33.041  28.797  23.399  1.00  0.00    -0.269 OA
BRANCH  74  77
ATOM     77  C   UNL A   1      30.721  28.882  23.661  1.00  0.00     0.066 A 
ATOM     78  C   UNL A   1      29.848  29.906  23.258  1.00  0.00     0.055 A 
ATOM     79  C   UNL A   1      30.284  27.550  23.754  1.00  0.00     0.062 A 
ATOM     80  C   UNL A   1      28.511  29.616  23.048  1.00  0.00     0.124 A 
ATOM     81  C   UNL A   1      28.918  27.305  23.579  1.00  0.00     0.030 A 
ATOM     82  F   UNL A   1      27.662  30.598  22.726  1.00  0.00    -0.207 F 
ATOM     83  C   UNL A   1      28.034  28.327  23.222  1.00  0.00     0.041 A 
BRANCH  79  84
ATOM     84  N   UNL A   1      31.170  26.479  24.152  1.00  0.00    -0.278 N 
ATOM     85  H   UNL A   1      31.550  26.447  25.060  1.00  0.00     0.180 HD
BRANCH  84  86
ATOM     86  S   UNL A   1      31.537  25.270  23.004  1.00  0.00     0.271 S 
ATOM     87  O   UNL A   1      30.648  24.150  23.227  1.00  0.00    -0.200 OA
ATOM     88  O   UNL A   1      31.627  25.908  21.709  1.00  0.00    -0.200 OA
BRANCH  86  89
ATOM     89  C   UNL A   1      33.153  24.604  23.322  1.00  0.00     0.141 A 
ATOM     90  C   UNL A   1      33.852  23.575  22.710  1.00  0.00     0.036 A 
ATOM     91  S   UNL A   1      34.019  25.247  24.655  1.00  0.00    -0.110 S 
ATOM     92  C   UNL A   1      35.035  23.230  23.424  1.00  0.00     0.034 A 
ATOM     93  C   UNL A   1      35.206  24.046  24.512  1.00  0.00     0.094 A 
ATOM     94  Cl  UNL A   1      36.452  23.926  25.687  1.00  0.00    -0.072 Cl
ENDBRANCH  86  89
ENDBRANCH  84  86
ENDBRANCH  79  84
ENDBRANCH  74  77
ENDBRANCH  72  73
ENDBRANCH   1  72
TORSDOF 16
ENDMDL
MODEL 2
REMARK VINA RESULT:     -11.8      5.718     10.447
REMARK SMILES O=C(NCCCNC(=O)c1cc(F)ccc1NS(=O)(=O)c1ccc(Cl)s1)c1ccc(-c2c3nc(c(-c4cc(S(=O)(=O)[O-])ccc4F)c4ccc([nH]4)c(-c4cc(S(=O)(=O)[O-])ccc4F)c4nc(c(-c5cc(S(=O)(=O)[O-])ccc5F)c5ccc2[nH]5)C=C4)C=C3)cc1
REMARK SMILES IDX 5 1 4 2 3 3 1 4 2 5 27 7 28 8 89 9 29 10 88 11 30 12 31 13
REMARK SMILES IDX 32 14 82 15 33 16 87 17 81 18 83 19 34 20 86 21 80 22 79 23
REMARK SMILES IDX 35 25 67 26 47 27 66 28 48 29 51 30 65 31 84 32 49 33 50 34
REMARK SMILES IDX 64 36 85 37 52 38 36 39 37 40 45 41 38 42 44 43 46 44 43 45
REMARK SMILES IDX 39 46 40 47 41 48 42 49 68 50 69 51 77 52 70 53 76 54 78 55
REMARK SMILES IDX 75 56 71 57 72 58 73 59 74 60 53 61 54 62 62 63 55 64 61 65
REMARK SMILES IDX 63 66 60 67 56 68 57 69 58 70 59 71 6 72 7 73 8 74 9 76
REMARK SMILES IDX 10 77 11 78 16 79 12 80 15 81 13 82 14 83 17 84 18 86 19 87
REMARK SMILES IDX 20 88 21 89 22 90 26 91 23 92 24 93 25 94
REMARK H PARENT 3 6 83 24 51 35 7 75 17 85
REMARK Flexibility Score: inf
ROOT
ATOM      1  C   UNL A   1      34.868  22.058  26.661  1.00  0.00     0.042 C 
ENDROOT
BRANCH   1   2
ATOM      2  C   UNL A   1      36.136  22.404  25.894  1.00  0.00     0.118 C 
BRANCH   2   3
ATOM      3  N   UNL A   1      37.090  21.302  25.866  1.00  0.00    -0.352 N 
ATOM      4  O   UNL A   1      39.090  20.289  25.729  1.00  0.00    -0.269 OA
ATOM      5  C   UNL A   1      38.459  21.311  25.982  1.00  0.00     0.251 C 
ATOM      6  H   UNL A   1      36.689  20.411  25.746  1.00  0.00     0.163 HD
BRANCH   5   7
ATOM      7  C   UNL A   1      39.171  22.541  26.396  1.00  0.00     0.039 A 
ATOM      8  C   UNL A   1      38.721  23.798  25.990  1.00  0.00     0.014 A 
ATOM      9  C   UNL A   1      40.286  22.438  27.234  1.00  0.00     0.014 A 
ATOM     10  C   UNL A   1      39.465  24.931  26.292  1.00  0.00     0.010 A 
ATOM     11  C   UNL A   1      40.979  23.591  27.618  1.00  0.00     0.010 A 
ATOM     12  C   UNL A   1      40.589  24.845  27.128  1.00  0.00    -0.014 A 
BRANCH  12  13
ATOM     13  C   UNL A   1      41.289  26.094  27.527  1.00  0.00     0.031 A 
ATOM     14  C   UNL A   1      42.665  26.413  27.015  1.00  0.00     0.074 A 
ATOM     15  C   UNL A   1      40.639  26.968  28.322  1.00  0.00     0.049 A 
ATOM     16  N   UNL A   1      43.406  27.463  27.257  1.00  0.00    -0.248 NA
ATOM     17  C   UNL A   1      43.293  25.428  26.122  1.00  0.00     0.031 C 
ATOM     18  C   UNL A   1      39.294  26.767  28.871  1.00  0.00     0.029 A 
ATOM     19  N   UNL A   1      40.998  28.210  28.781  1.00  0.00    -0.354 N 
ATOM     20  C   UNL A   1      44.594  27.263  26.562  1.00  0.00     0.074 A 
ATOM     21  C   UNL A   1      44.482  25.977  25.905  1.00  0.00     0.031 C 
ATOM     22  C   UNL A   1      38.918  27.869  29.532  1.00  0.00     0.029 A 
ATOM     23  C   UNL A   1      40.018  28.826  29.522  1.00  0.00     0.049 A 
ATOM     24  H   UNL A   1      41.873  28.620  28.596  1.00  0.00     0.167 HD
ATOM     25  C   UNL A   1      45.671  28.082  26.476  1.00  0.00     0.034 A 
ATOM     26  C   UNL A   1      40.007  30.021  30.143  1.00  0.00     0.034 A 
ATOM     27  C   UNL A   1      45.761  29.366  27.126  1.00  0.00     0.049 A 
ATOM     28  C   UNL A   1      41.229  30.888  30.068  1.00  0.00     0.074 A 
ATOM     29  C   UNL A   1      46.803  30.278  27.087  1.00  0.00     0.029 A 
ATOM     30  N   UNL A   1      44.777  29.924  27.931  1.00  0.00    -0.354 N 
ATOM     31  N   UNL A   1      42.357  30.663  29.434  1.00  0.00    -0.248 NA
ATOM     32  C   UNL A   1      41.187  32.159  30.800  1.00  0.00     0.031 C 
ATOM     33  C   UNL A   1      46.472  31.359  27.912  1.00  0.00     0.029 A 
ATOM     34  C   UNL A   1      45.198  31.153  28.414  1.00  0.00     0.049 A 
ATOM     35  H   UNL A   1      43.907  29.507  28.129  1.00  0.00     0.167 HD
ATOM     36  C   UNL A   1      43.158  31.770  29.689  1.00  0.00     0.074 A 
ATOM     37  C   UNL A   1      42.381  32.666  30.523  1.00  0.00     0.031 C 
ATOM     38  C   UNL A   1      44.421  32.021  29.266  1.00  0.00     0.034 A 
BRANCH  25  39
ATOM     39  C   UNL A   1      46.859  27.599  25.684  1.00  0.00     0.023 A 
ATOM     40  C   UNL A   1      47.035  27.939  24.333  1.00  0.00     0.031 A 
ATOM     41  C   UNL A   1      47.844  26.809  26.303  1.00  0.00     0.131 A 
ATOM     42  C   UNL A   1      48.153  27.461  23.633  1.00  0.00     0.055 A 
ATOM     43  C   UNL A   1      48.984  26.384  25.618  1.00  0.00     0.041 A 
ATOM     44  F   UNL A   1      47.715  26.439  27.588  1.00  0.00    -0.206 F 
ATOM     45  C   UNL A   1      49.140  26.705  24.273  1.00  0.00     0.022 A 
BRANCH  42  46
ATOM     46  S   UNL A   1      48.270  27.777  21.852  1.00  0.00     0.124 S 
ATOM     47  O   UNL A   1      48.518  26.436  21.330  1.00  0.00    -0.237 OA
ATOM     48  O   UNL A   1      46.965  28.351  21.544  1.00  0.00    -0.237 OA
ATOM     49  O   UNL A   1      49.397  28.701  21.740  1.00  0.00    -0.744 OA
ENDBRANCH  42  46
ENDBRANCH  25  39
BRANCH  26  50
ATOM     50  C   UNL A   1      38.806  30.437  30.917  1.00  0.00     0.023 A 
ATOM     51  C   UNL A   1      37.792  31.201  30.323  1.00  0.00     0.031 A 
ATOM     52  C   UNL A   1      38.647  30.043  32.258  1.00  0.00     0.131 A 
ATOM     53  C   UNL A   1      36.662  31.558  31.076  1.00  0.00     0.055 A 
ATOM     54  C   UNL A   1      37.505  30.368  32.989  1.00  0.00     0.041 A 
ATOM     55  F   UNL A   1      39.587  29.299  32.862  1.00  0.00    -0.206 F 
ATOM     56  C   UNL A   1      36.505  31.135  32.399  1.00  0.00     0.022 A 
BRANCH  53  57
ATOM     57  S   UNL A   1      35.394  32.601  30.304  1.00  0.00     0.124 S 
ATOM     58  O   UNL A   1      34.390  32.676  31.358  1.00  0.00    -0.237 OA
ATOM     59  O   UNL A   1      36.133  33.830  30.031  1.00  0.00    -0.237 OA
ATOM     60  O   UNL A   1      35.003  31.839  29.120  1.00  0.00    -0.744 OA
ENDBRANCH  53  57
ENDBRANCH  26  50
BRANCH  38  61
ATOM     61  C   UNL A   1      45.036  33.327  29.687  1.00  0.00     0.023 A 
ATOM     62  C   UNL A   1      44.867  34.494  28.925  1.00  0.00     0.031 A 
ATOM     63  C   UNL A   1      45.776  33.407  30.879  1.00  0.00     0.131 A 
ATOM     64  C   UNL A   1      45.458  35.693  29.349  1.00  0.00     0.055 A 
ATOM     65  C   UNL A   1      46.325  34.611  31.319  1.00  0.00     0.041 A 
ATOM     66  F   UNL A   1      45.962  32.318  31.641  1.00  0.00    -0.206 F 
ATOM     67  C   UNL A   1      46.173  35.761  30.550  1.00  0.00     0.022 A 
BRANCH  64  68
ATOM     68  S   UNL A   1      45.309  37.163  28.298  1.00  0.00     0.124 S 
ATOM     69  O   UNL A   1      44.823  36.590  27.047  1.00  0.00    -0.237 OA
ATOM     70  O   UNL A   1      44.355  37.984  29.036  1.00  0.00    -0.237 OA
ATOM     71  O   UNL A   1      46.671  37.690  28.252  1.00  0.00    -0.744 OA
ENDBRANCH  64  68
ENDBRANCH  38  61
ENDBRANCH  12  13
ENDBRANCH   5   7
ENDBRANCH   2   3
ENDBRANCH   1   2
BRANCH   1  72
ATOM     72  C   UNL A   1      33.906  23.229  26.814  1.00  0.00     0.118 C 
BRANCH  72  73
ATOM     73  N   UNL A   1      32.600  22.797  27.300  1.00  0.00    -0.352 N 
ATOM     74  C   UNL A   1      31.360  23.271  26.953  1.00  0.00     0.253 C 
ATOM     75  H   UNL A   1      32.610  22.069  27.963  1.00  0.00     0.163 HD
ATOM     76  O   UNL A   1      30.383  23.054  27.660  1.00  0.00    -0.269 OA
BRANCH  74  77
ATOM     77  C   UNL A   1      31.215  24.087  25.736  1.00  0.00     0.066 A 
ATOM     78  C   UNL A   1      31.152  25.482  25.884  1.00  0.00     0.055 A 
ATOM     79  C   UNL A   1      31.097  23.484  24.473  1.00  0.00     0.062 A 
ATOM     80  C   UNL A   1      30.866  26.270  24.782  1.00  0.00     0.124 A 
ATOM     81  C   UNL A   1      30.763  24.308  23.393  1.00  0.00     0.030 A 
ATOM     82  F   UNL A   1      30.742  27.594  24.927  1.00  0.00    -0.207 F 
ATOM     83  C   UNL A   1      30.654  25.693  23.540  1.00  0.00     0.041 A 
BRANCH  79  84
ATOM     84  N   UNL A   1      31.174  22.050  24.298  1.00  0.00    -0.278 N 
ATOM     85  H   UNL A   1      30.582  21.446  24.801  1.00  0.00     0.180 HD
BRANCH  84  86
ATOM     86  S   UNL A   1      32.320  21.437  23.191  1.00  0.00     0.271 S 
ATOM     87  O   UNL A   1      31.722  21.439  21.873  1.00  0.00    -0.200 OA
ATOM     88  O   UNL A   1      33.576  22.107  23.444  1.00  0.00    -0.200 OA
BRANCH  86  89
ATOM     89  C   UNL A   1      32.620  19.717  23.523  1.00  0.00     0.141 A 
ATOM     90  C   UNL A   1      32.589  18.609  22.690  1.00  0.00     0.036 A 
ATOM     91  S   UNL A   1      32.929  19.274  25.150  1.00  0.00    -0.110 S 
ATOM     92  C   UNL A   1      32.684  17.389  23.417  1.00  0.00     0.034 A 
ATOM     93  C   UNL A   1      32.835  17.627  24.759  1.00  0.00     0.094 A 
ATOM     94  Cl  UNL A   1      32.907  16.445  26.000  1.00  0.00    -0.072 Cl
ENDBRANCH  86  89
ENDBRANCH  84  86
ENDBRANCH  79  84
ENDBRANCH  74  77
ENDBRANCH  72  73
ENDBRANCH   1  72
TORSDOF 16
ENDMDL
MODEL 3
REMARK VINA RESULT:     -11.7      5.624      8.129
REMARK SMILES O=C(NCCCNC(=O)c1cc(F)ccc1NS(=O)(=O)c1ccc(Cl)s1)c1ccc(-c2c3nc(c(-c4cc(S(=O)(=O)[O-])ccc4F)c4ccc([nH]4)c(-c4cc(S(=O)(=O)[O-])ccc4F)c4nc(c(-c5cc(S(=O)(=O)[O-])ccc5F)c5ccc2[nH]5)C=C4)C=C3)cc1
REMARK SMILES IDX 5 1 4 2 3 3 1 4 2 5 27 7 28 8 89 9 29 10 88 11 30 12 31 13
REMARK SMILES IDX 32 14 82 15 33 16 87 17 81 18 83 19 34 20 86 21 80 22 79 23
REMARK SMILES IDX 35 25 67 26 47 27 66 28 48 29 51 30 65 31 84 32 49 33 50 34
REMARK SMILES IDX 64 36 85 37 52 38 36 39 37 40 45 41 38 42 44 43 46 44 43 45
REMARK SMILES IDX 39 46 40 47 41 48 42 49 68 50 69 51 77 52 70 53 76 54 78 55
REMARK SMILES IDX 75 56 71 57 72 58 73 59 74 60 53 61 54 62 62 63 55 64 61 65
REMARK SMILES IDX 63 66 60 67 56 68 57 69 58 70 59 71 6 72 7 73 8 74 9 76
REMARK SMILES IDX 10 77 11 78 16 79 12 80 15 81 13 82 14 83 17 84 18 86 19 87
REMARK SMILES IDX 20 88 21 89 22 90 26 91 23 92 24 93 25 94
REMARK H PARENT 3 6 83 24 51 35 7 75 17 85
REMARK Flexibility Score: inf
ROOT
ATOM      1  C   UNL A   1      35.109  23.099  25.020  1.00  0.00     0.042 C 
ENDROOT
BRANCH   1   2
ATOM      2  C   UNL A   1      35.660  22.414  26.263  1.00  0.00     0.118 C 
BRANCH   2   3
ATOM      3  N   UNL A   1      36.617  21.362  25.942  1.00  0.00    -0.352 N 
ATOM      4  O   UNL A   1      38.577  20.456  25.322  1.00  0.00    -0.269 OA
ATOM      5  C   UNL A   1      37.982  21.421  25.794  1.00  0.00     0.251 C 
ATOM      6  H   UNL A   1      36.223  20.470  25.811  1.00  0.00     0.163 HD
BRANCH   5   7
ATOM      7  C   UNL A   1      38.729  22.637  26.185  1.00  0.00     0.039 A 
ATOM      8  C   UNL A   1      38.340  23.895  25.725  1.00  0.00     0.014 A 
ATOM      9  C   UNL A   1      39.817  22.521  27.057  1.00  0.00     0.014 A 
ATOM     10  C   UNL A   1      39.119  25.009  26.009  1.00  0.00     0.010 A 
ATOM     11  C   UNL A   1      40.544  23.659  27.422  1.00  0.00     0.010 A 
ATOM     12  C   UNL A   1      40.216  24.910  26.879  1.00  0.00    -0.014 A 
BRANCH  12  13
ATOM     13  C   UNL A   1      40.953  26.145  27.255  1.00  0.00     0.031 A 
ATOM     14  C   UNL A   1      40.334  27.178  28.152  1.00  0.00     0.074 A 
ATOM     15  C   UNL A   1      42.218  26.296  26.813  1.00  0.00     0.049 A 
ATOM     16  N   UNL A   1      40.847  28.302  28.583  1.00  0.00    -0.248 NA
ATOM     17  C   UNL A   1      38.965  26.924  28.624  1.00  0.00     0.031 C 
ATOM     18  C   UNL A   1      42.924  25.350  25.944  1.00  0.00     0.029 A 
ATOM     19  N   UNL A   1      43.147  27.275  27.057  1.00  0.00    -0.354 N 
ATOM     20  C   UNL A   1      39.862  28.899  29.363  1.00  0.00     0.074 A 
ATOM     21  C   UNL A   1      38.711  28.021  29.327  1.00  0.00     0.031 C 
ATOM     22  C   UNL A   1      44.189  25.759  25.783  1.00  0.00     0.029 A 
ATOM     23  C   UNL A   1      44.368  27.031  26.471  1.00  0.00     0.049 A 
ATOM     24  H   UNL A   1      42.958  28.073  27.599  1.00  0.00     0.167 HD
ATOM     25  C   UNL A   1      39.920  30.067  30.049  1.00  0.00     0.034 A 
ATOM     26  C   UNL A   1      45.501  27.758  26.470  1.00  0.00     0.034 A 
ATOM     27  C   UNL A   1      41.080  30.923  30.086  1.00  0.00     0.049 A 
ATOM     28  C   UNL A   1      45.524  29.068  27.201  1.00  0.00     0.074 A 
ATOM     29  C   UNL A   1      41.244  32.120  30.765  1.00  0.00     0.029 A 
ATOM     30  N   UNL A   1      42.273  30.680  29.417  1.00  0.00    -0.354 N 
ATOM     31  N   UNL A   1      44.568  29.632  27.903  1.00  0.00    -0.248 NA
ATOM     32  C   UNL A   1      46.766  29.846  27.130  1.00  0.00     0.031 C 
ATOM     33  C   UNL A   1      42.514  32.625  30.464  1.00  0.00     0.029 A 
ATOM     34  C   UNL A   1      43.166  31.715  29.648  1.00  0.00     0.049 A 
ATOM     35  H   UNL A   1      42.457  29.889  28.862  1.00  0.00     0.167 HD
ATOM     36  C   UNL A   1      45.098  30.832  28.362  1.00  0.00     0.074 A 
ATOM     37  C   UNL A   1      46.459  30.905  27.868  1.00  0.00     0.031 C 
ATOM     38  C   UNL A   1      44.510  31.785  29.126  1.00  0.00     0.034 A 
BRANCH  25  39
ATOM     39  C   UNL A   1      38.682  30.511  30.786  1.00  0.00     0.023 A 
ATOM     40  C   UNL A   1      37.670  31.248  30.152  1.00  0.00     0.031 A 
ATOM     41  C   UNL A   1      38.504  30.161  32.137  1.00  0.00     0.131 A 
ATOM     42  C   UNL A   1      36.537  31.646  30.880  1.00  0.00     0.055 A 
ATOM     43  C   UNL A   1      37.349  30.509  32.839  1.00  0.00     0.041 A 
ATOM     44  F   UNL A   1      39.451  29.472  32.795  1.00  0.00    -0.206 F 
ATOM     45  C   UNL A   1      36.360  31.262  32.213  1.00  0.00     0.022 A 
BRANCH  42  46
ATOM     46  S   UNL A   1      35.327  32.736  30.085  1.00  0.00     0.124 S 
ATOM     47  O   UNL A   1      34.694  31.829  29.131  1.00  0.00    -0.237 OA
ATOM     48  O   UNL A   1      34.498  33.163  31.206  1.00  0.00    -0.237 OA
ATOM     49  O   UNL A   1      36.151  33.785  29.486  1.00  0.00    -0.744 OA
ENDBRANCH  42  46
ENDBRANCH  25  39
BRANCH  26  50
ATOM     50  C   UNL A   1      46.687  27.269  25.716  1.00  0.00     0.023 A 
ATOM     51  C   UNL A   1      46.963  27.733  24.422  1.00  0.00     0.031 A 
ATOM     52  C   UNL A   1      47.579  26.351  26.299  1.00  0.00     0.131 A 
ATOM     53  C   UNL A   1      48.102  27.268  23.746  1.00  0.00     0.055 A 
ATOM     54  C   UNL A   1      48.729  25.921  25.639  1.00  0.00     0.041 A 
ATOM     55  F   UNL A   1      47.360  25.890  27.542  1.00  0.00    -0.206 F 
ATOM     56  C   UNL A   1      48.994  26.377  24.351  1.00  0.00     0.022 A 
BRANCH  53  57
ATOM     57  S   UNL A   1      48.402  27.835  22.049  1.00  0.00     0.124 S 
ATOM     58  O   UNL A   1      49.706  28.474  22.177  1.00  0.00    -0.237 OA
ATOM     59  O   UNL A   1      48.369  26.584  21.298  1.00  0.00    -0.237 OA
ATOM     60  O   UNL A   1      47.284  28.741  21.792  1.00  0.00    -0.744 OA
ENDBRANCH  53  57
ENDBRANCH  26  50
BRANCH  38  61
ATOM     61  C   UNL A   1      45.344  32.981  29.489  1.00  0.00     0.023 A 
ATOM     62  C   UNL A   1      45.326  34.149  28.709  1.00  0.00     0.031 A 
ATOM     63  C   UNL A   1      46.146  32.959  30.643  1.00  0.00     0.131 A 
ATOM     64  C   UNL A   1      46.121  35.244  29.079  1.00  0.00     0.055 A 
ATOM     65  C   UNL A   1      46.901  34.066  31.030  1.00  0.00     0.041 A 
ATOM     66  F   UNL A   1      46.193  31.865  31.420  1.00  0.00    -0.206 F 
ATOM     67  C   UNL A   1      46.896  35.214  30.243  1.00  0.00     0.022 A 
BRANCH  64  68
ATOM     68  S   UNL A   1      46.156  36.703  28.003  1.00  0.00     0.124 S 
ATOM     69  O   UNL A   1      45.145  37.555  28.619  1.00  0.00    -0.237 OA
ATOM     70  O   UNL A   1      47.537  37.158  28.133  1.00  0.00    -0.237 OA
ATOM     71  O   UNL A   1      45.803  36.169  26.690  1.00  0.00    -0.744 OA
ENDBRANCH  64  68
ENDBRANCH  38  61
ENDBRANCH  12  13
ENDBRANCH   5   7
ENDBRANCH   2   3
ENDBRANCH   1   2
BRANCH   1  72
ATOM     72  C   UNL A   1      34.716  24.553  25.247  1.00  0.00     0.118 C 
BRANCH  72  73
ATOM     73  N   UNL A   1      34.195  25.168  24.030  1.00  0.00    -0.352 N 
ATOM     74  C   UNL A   1      33.295  26.198  23.912  1.00  0.00     0.253 C 
ATOM     75  H   UNL A   1      34.534  24.797  23.184  1.00  0.00     0.163 HD
ATOM     76  O   UNL A   1      32.704  26.399  22.858  1.00  0.00    -0.269 OA
BRANCH  74  77
ATOM     77  C   UNL A   1      33.010  27.043  25.082  1.00  0.00     0.066 A 
ATOM     78  C   UNL A   1      33.949  28.029  25.426  1.00  0.00     0.055 A 
ATOM     79  C   UNL A   1      31.856  26.838  25.857  1.00  0.00     0.062 A 
ATOM     80  C   UNL A   1      33.789  28.741  26.603  1.00  0.00     0.124 A 
ATOM     81  C   UNL A   1      31.754  27.543  27.062  1.00  0.00     0.030 A 
ATOM     82  F   UNL A   1      34.713  29.637  26.967  1.00  0.00    -0.207 F 
ATOM     83  C   UNL A   1      32.708  28.494  27.433  1.00  0.00     0.041 A 
BRANCH  79  84
ATOM     84  N   UNL A   1      30.869  25.839  25.513  1.00  0.00    -0.278 N 
ATOM     85  H   UNL A   1      30.233  25.988  24.776  1.00  0.00     0.180 HD
BRANCH  84  86
ATOM     86  S   UNL A   1      30.840  24.392  26.419  1.00  0.00     0.271 S 
ATOM     87  O   UNL A   1      31.930  24.432  27.370  1.00  0.00    -0.200 OA
ATOM     88  O   UNL A   1      29.477  24.173  26.851  1.00  0.00    -0.200 OA
BRANCH  86  89
ATOM     89  C   UNL A   1      31.237  23.014  25.370  1.00  0.00     0.141 A 
ATOM     90  C   UNL A   1      31.749  21.761  25.667  1.00  0.00     0.036 A 
ATOM     91  S   UNL A   1      31.052  23.235  23.679  1.00  0.00    -0.110 S 
ATOM     92  C   UNL A   1      32.115  21.039  24.495  1.00  0.00     0.034 A 
ATOM     93  C   UNL A   1      31.816  21.755  23.365  1.00  0.00     0.094 A 
ATOM     94  Cl  UNL A   1      32.163  21.295  21.748  1.00  0.00    -0.072 Cl
ENDBRANCH  86  89
ENDBRANCH  84  86
ENDBRANCH  79  84
ENDBRANCH  74  77
ENDBRANCH  72  73
ENDBRANCH   1  72
TORSDOF 16
ENDMDL
