MODEL 1
REMARK VINA RESULT:     -11.9      0.000      0.000
REMARK SMILES O=C(C[C@H]1CN(S(=O)(=O)c2cc(F)cc(F)c2)CCO1)NCCCNC(=O)c1ccc(-c2c3nc(c(-c4cc(S(=O)(=O)[O-])ccc4F)c4ccc([nH]4)c(-c4cc(S(=O)(=O)[O-])ccc4F)c4nc(c(-c5cc(S(=O)(=O)[O-])ccc5F)c5ccc2[nH]5)C=C4)C=C3)cc1
REMARK SMILES IDX 23 1 22 2 21 3 1 4 2 5 3 7 4 8 5 9 20 10 6 11 19 12 18 13
REMARK SMILES IDX 7 14 8 15 9 16 10 17 11 18 17 19 12 20 15 21 13 22 14 23
REMARK SMILES IDX 16 24 24 25 25 26 26 27 27 29 28 30 29 31 90 32 30 33 89 34
REMARK SMILES IDX 31 35 32 36 33 37 83 38 34 39 88 40 82 41 84 42 35 43 87 44
REMARK SMILES IDX 81 45 80 46 36 48 68 49 48 50 67 51 49 52 52 53 66 54 85 55
REMARK SMILES IDX 50 56 51 57 65 59 86 60 53 61 37 62 38 63 46 64 39 65 45 66
REMARK SMILES IDX 47 67 44 68 40 69 41 70 42 71 43 72 69 73 70 74 78 75 71 76
REMARK SMILES IDX 77 77 79 78 76 79 72 80 73 81 74 82 75 83 54 84 55 85 63 86
REMARK SMILES IDX 56 87 62 88 64 89 61 90 57 91 58 92 59 93 60 94
REMARK H PARENT 21 6 25 28 84 47 52 58
REMARK Flexibility Score: inf
ROOT
ATOM      1  C   UNL A   1      32.913  28.611  24.929  1.00  0.00     0.042 C 
ENDROOT
BRANCH   1   2
ATOM      2  C   UNL A   1      33.584  27.934  23.737  1.00  0.00     0.117 C 
BRANCH   2   3
ATOM      3  N   UNL A   1      33.615  26.489  23.798  1.00  0.00    -0.356 N 
ATOM      4  O   UNL A   1      33.687  26.156  21.539  1.00  0.00    -0.275 OA
ATOM      5  C   UNL A   1      33.736  25.704  22.680  1.00  0.00     0.222 C 
ATOM      6  H   UNL A   1      33.545  26.051  24.677  1.00  0.00     0.163 HD
BRANCH   5   7
ATOM      7  C   UNL A   1      33.764  24.211  22.934  1.00  0.00     0.133 C 
BRANCH   7   8
ATOM      8  C   UNL A   1      32.452  23.414  23.040  1.00  0.00     0.142 C 
ATOM      9  C   UNL A   1      32.488  22.206  24.009  1.00  0.00     0.135 C 
ATOM     10  O   UNL A   1      31.247  24.188  23.153  1.00  0.00    -0.375 OA
ATOM     11  N   UNL A   1      32.094  22.517  25.417  1.00  0.00    -0.193 NA
ATOM     12  C   UNL A   1      30.890  24.508  24.507  1.00  0.00     0.177 C 
ATOM     13  C   UNL A   1      30.779  23.252  25.376  1.00  0.00     0.131 C 
BRANCH  11  14
ATOM     14  S   UNL A   1      33.198  23.209  26.518  1.00  0.00     0.243 S 
ATOM     15  O   UNL A   1      33.201  24.641  26.313  1.00  0.00    -0.207 OA
ATOM     16  O   UNL A   1      32.868  22.663  27.814  1.00  0.00    -0.207 OA
BRANCH  14  17
ATOM     17  C   UNL A   1      34.833  22.634  26.121  1.00  0.00     0.088 A 
ATOM     18  C   UNL A   1      35.064  21.314  25.729  1.00  0.00     0.061 A 
ATOM     19  C   UNL A   1      35.868  23.572  26.023  1.00  0.00     0.061 A 
ATOM     20  C   UNL A   1      36.334  20.931  25.308  1.00  0.00     0.127 A 
ATOM     21  C   UNL A   1      37.117  23.170  25.558  1.00  0.00     0.127 A 
ATOM     22  F   UNL A   1      36.551  19.655  24.969  1.00  0.00    -0.207 F 
ATOM     23  C   UNL A   1      37.367  21.849  25.211  1.00  0.00     0.078 A 
ATOM     24  F   UNL A   1      38.090  24.079  25.418  1.00  0.00    -0.207 F 
ENDBRANCH  14  17
ENDBRANCH  11  14
ENDBRANCH   7   8
ENDBRANCH   5   7
ENDBRANCH   2   3
ENDBRANCH   1   2
BRANCH   1  25
ATOM     25  C   UNL A   1      33.822  28.867  26.127  1.00  0.00     0.118 C 
BRANCH  25  26
ATOM     26  N   UNL A   1      33.729  30.226  26.635  1.00  0.00    -0.352 N 
ATOM     27  C   UNL A   1      34.518  30.897  27.535  1.00  0.00     0.251 C 
ATOM     28  H   UNL A   1      32.978  30.750  26.273  1.00  0.00     0.163 HD
ATOM     29  O   UNL A   1      34.169  32.013  27.915  1.00  0.00    -0.269 OA
BRANCH  27  30
ATOM     30  C   UNL A   1      35.759  30.287  28.067  1.00  0.00     0.039 A 
ATOM     31  C   UNL A   1      36.923  30.363  27.294  1.00  0.00     0.014 A 
ATOM     32  C   UNL A   1      35.782  29.614  29.292  1.00  0.00     0.014 A 
ATOM     33  C   UNL A   1      38.117  29.819  27.774  1.00  0.00     0.010 A 
ATOM     34  C   UNL A   1      36.988  29.127  29.798  1.00  0.00     0.010 A 
ATOM     35  C   UNL A   1      38.166  29.221  29.043  1.00  0.00    -0.014 A 
BRANCH  35  36
ATOM     36  C   UNL A   1      39.443  28.685  29.584  1.00  0.00     0.031 A 
ATOM     37  C   UNL A   1      40.096  29.335  30.773  1.00  0.00     0.074 A 
ATOM     38  C   UNL A   1      40.040  27.644  28.971  1.00  0.00     0.049 A 
ATOM     39  N   UNL A   1      41.229  29.042  31.361  1.00  0.00    -0.248 NA
ATOM     40  C   UNL A   1      39.393  30.484  31.361  1.00  0.00     0.031 C 
ATOM     41  C   UNL A   1      39.533  26.962  27.777  1.00  0.00     0.029 A 
ATOM     42  N   UNL A   1      41.207  26.984  29.260  1.00  0.00    -0.354 N 
ATOM     43  C   UNL A   1      41.384  29.981  32.376  1.00  0.00     0.074 A 
ATOM     44  C   UNL A   1      40.252  30.881  32.287  1.00  0.00     0.031 C 
ATOM     45  C   UNL A   1      40.375  25.969  27.449  1.00  0.00     0.029 A 
ATOM     46  C   UNL A   1      41.493  25.961  28.386  1.00  0.00     0.049 A 
ATOM     47  H   UNL A   1      41.786  27.220  30.020  1.00  0.00     0.167 HD
ATOM     48  C   UNL A   1      42.368  30.072  33.306  1.00  0.00     0.034 A 
ATOM     49  C   UNL A   1      42.541  25.115  28.343  1.00  0.00     0.034 A 
ATOM     50  C   UNL A   1      43.482  29.158  33.393  1.00  0.00     0.049 A 
ATOM     51  C   UNL A   1      43.609  25.220  29.398  1.00  0.00     0.074 A 
ATOM     52  C   UNL A   1      44.503  29.125  34.326  1.00  0.00     0.029 A 
ATOM     53  N   UNL A   1      43.722  28.114  32.507  1.00  0.00    -0.354 N 
ATOM     54  N   UNL A   1      43.716  26.081  30.383  1.00  0.00    -0.248 NA
ATOM     55  C   UNL A   1      44.689  24.226  29.346  1.00  0.00     0.031 C 
ATOM     56  C   UNL A   1      45.385  28.094  33.979  1.00  0.00     0.029 A 
ATOM     57  C   UNL A   1      44.884  27.445  32.863  1.00  0.00     0.049 A 
ATOM     58  H   UNL A   1      43.151  27.884  31.740  1.00  0.00     0.167 HD
ATOM     59  C   UNL A   1      44.864  25.718  31.080  1.00  0.00     0.074 A 
ATOM     60  C   UNL A   1      45.405  24.551  30.412  1.00  0.00     0.031 C 
ATOM     61  C   UNL A   1      45.418  26.292  32.177  1.00  0.00     0.034 A 
BRANCH  48  62
ATOM     62  C   UNL A   1      42.286  31.220  34.284  1.00  0.00     0.023 A 
ATOM     63  C   UNL A   1      41.317  31.255  35.300  1.00  0.00     0.031 A 
ATOM     64  C   UNL A   1      43.161  32.315  34.171  1.00  0.00     0.131 A 
ATOM     65  C   UNL A   1      41.191  32.394  36.112  1.00  0.00     0.055 A 
ATOM     66  C   UNL A   1      43.083  33.412  35.033  1.00  0.00     0.041 A 
ATOM     67  F   UNL A   1      44.096  32.348  33.207  1.00  0.00    -0.206 F 
ATOM     68  C   UNL A   1      42.083  33.462  36.000  1.00  0.00     0.022 A 
BRANCH  65  69
ATOM     69  S   UNL A   1      39.757  32.517  37.214  1.00  0.00     0.124 S 
ATOM     70  O   UNL A   1      40.399  32.612  38.523  1.00  0.00    -0.237 OA
ATOM     71  O   UNL A   1      39.095  33.726  36.737  1.00  0.00    -0.237 OA
ATOM     72  O   UNL A   1      39.031  31.272  36.974  1.00  0.00    -0.744 OA
ENDBRANCH  65  69
ENDBRANCH  48  62
BRANCH  49  73
ATOM     73  C   UNL A   1      42.634  24.091  27.267  1.00  0.00     0.023 A 
ATOM     74  C   UNL A   1      42.024  22.836  27.411  1.00  0.00     0.031 A 
ATOM     75  C   UNL A   1      43.362  24.344  26.092  1.00  0.00     0.131 A 
ATOM     76  C   UNL A   1      42.185  21.863  26.413  1.00  0.00     0.055 A 
ATOM     77  C   UNL A   1      43.486  23.389  25.083  1.00  0.00     0.041 A 
ATOM     78  F   UNL A   1      43.955  25.535  25.905  1.00  0.00    -0.206 F 
ATOM     79  C   UNL A   1      42.904  22.135  25.246  1.00  0.00     0.022 A 
BRANCH  76  80
ATOM     80  S   UNL A   1      41.490  20.211  26.690  1.00  0.00     0.124 S 
ATOM     81  O   UNL A   1      41.787  19.546  25.426  1.00  0.00    -0.237 OA
ATOM     82  O   UNL A   1      42.249  19.755  27.850  1.00  0.00    -0.237 OA
ATOM     83  O   UNL A   1      40.075  20.475  26.940  1.00  0.00    -0.744 OA
ENDBRANCH  76  80
ENDBRANCH  49  73
BRANCH  61  84
ATOM     84  C   UNL A   1      46.653  25.634  32.736  1.00  0.00     0.023 A 
ATOM     85  C   UNL A   1      46.572  24.633  33.721  1.00  0.00     0.031 A 
ATOM     86  C   UNL A   1      47.927  26.035  32.299  1.00  0.00     0.131 A 
ATOM     87  C   UNL A   1      47.748  24.105  34.277  1.00  0.00     0.055 A 
ATOM     88  C   UNL A   1      49.091  25.470  32.819  1.00  0.00     0.041 A 
ATOM     89  F   UNL A   1      48.058  26.988  31.361  1.00  0.00    -0.206 F 
ATOM     90  C   UNL A   1      49.006  24.509  33.823  1.00  0.00     0.022 A 
BRANCH  87  91
ATOM     91  S   UNL A   1      47.611  22.943  35.662  1.00  0.00     0.124 S 
ATOM     92  O   UNL A   1      47.832  21.658  35.005  1.00  0.00    -0.237 OA
ATOM     93  O   UNL A   1      48.674  23.394  36.554  1.00  0.00    -0.237 OA
ATOM     94  O   UNL A   1      46.253  23.159  36.159  1.00  0.00    -0.744 OA
ENDBRANCH  87  91
ENDBRANCH  61  84
ENDBRANCH  35  36
ENDBRANCH  27  30
ENDBRANCH  25  26
ENDBRANCH   1  25
TORSDOF 16
ENDMDL
MODEL 2
REMARK VINA RESULT:     -11.7      2.571      3.341
REMARK SMILES O=C(C[C@H]1CN(S(=O)(=O)c2cc(F)cc(F)c2)CCO1)NCCCNC(=O)c1ccc(-c2c3nc(c(-c4cc(S(=O)(=O)[O-])ccc4F)c4ccc([nH]4)c(-c4cc(S(=O)(=O)[O-])ccc4F)c4nc(c(-c5cc(S(=O)(=O)[O-])ccc5F)c5ccc2[nH]5)C=C4)C=C3)cc1
REMARK SMILES IDX 23 1 22 2 21 3 1 4 2 5 3 7 4 8 5 9 20 10 6 11 19 12 18 13
REMARK SMILES IDX 7 14 8 15 9 16 10 17 11 18 17 19 12 20 15 21 13 22 14 23
REMARK SMILES IDX 16 24 24 25 25 26 26 27 27 29 28 30 29 31 90 32 30 33 89 34
REMARK SMILES IDX 31 35 32 36 33 37 83 38 34 39 88 40 82 41 84 42 35 43 87 44
REMARK SMILES IDX 81 45 80 46 36 48 68 49 48 50 67 51 49 52 52 53 66 54 85 55
REMARK SMILES IDX 50 56 51 57 65 59 86 60 53 61 37 62 38 63 46 64 39 65 45 66
REMARK SMILES IDX 47 67 44 68 40 69 41 70 42 71 43 72 69 73 70 74 78 75 71 76
REMARK SMILES IDX 77 77 79 78 76 79 72 80 73 81 74 82 75 83 54 84 55 85 63 86
REMARK SMILES IDX 56 87 62 88 64 89 61 90 57 91 58 92 59 93 60 94
REMARK H PARENT 21 6 25 28 84 47 52 58
REMARK Flexibility Score: inf
ROOT
ATOM      1  C   UNL A   1      33.193  28.298  27.201  1.00  0.00     0.042 C 
ENDROOT
BRANCH   1   2
ATOM      2  C   UNL A   1      32.259  27.461  26.331  1.00  0.00     0.117 C 
BRANCH   2   3
ATOM      3  N   UNL A   1      32.498  26.035  26.381  1.00  0.00    -0.356 N 
ATOM      4  O   UNL A   1      30.298  25.426  26.455  1.00  0.00    -0.275 OA
ATOM      5  C   UNL A   1      31.483  25.113  26.368  1.00  0.00     0.222 C 
ATOM      6  H   UNL A   1      33.428  25.712  26.428  1.00  0.00     0.163 HD
BRANCH   5   7
ATOM      7  C   UNL A   1      31.919  23.664  26.414  1.00  0.00     0.133 C 
BRANCH   7   8
ATOM      8  C   UNL A   1      33.275  23.277  27.032  1.00  0.00     0.142 C 
ATOM      9  C   UNL A   1      33.432  21.781  27.398  1.00  0.00     0.135 C 
ATOM     10  O   UNL A   1      34.440  23.826  26.397  1.00  0.00    -0.375 OA
ATOM     11  N   UNL A   1      33.993  20.923  26.310  1.00  0.00    -0.193 NA
ATOM     12  C   UNL A   1      34.957  23.010  25.334  1.00  0.00     0.177 C 
ATOM     13  C   UNL A   1      35.250  21.582  25.804  1.00  0.00     0.131 C 
BRANCH  11  14
ATOM     14  S   UNL A   1      33.009  20.329  25.048  1.00  0.00     0.243 S 
ATOM     15  O   UNL A   1      31.626  20.535  25.422  1.00  0.00    -0.207 OA
ATOM     16  O   UNL A   1      33.526  20.909  23.831  1.00  0.00    -0.207 OA
BRANCH  14  17
ATOM     17  C   UNL A   1      33.248  18.572  24.921  1.00  0.00     0.088 A 
ATOM     18  C   UNL A   1      32.637  17.689  25.812  1.00  0.00     0.061 A 
ATOM     19  C   UNL A   1      33.908  18.065  23.794  1.00  0.00     0.061 A 
ATOM     20  C   UNL A   1      32.746  16.316  25.609  1.00  0.00     0.127 A 
ATOM     21  C   UNL A   1      33.966  16.689  23.594  1.00  0.00     0.127 A 
ATOM     22  F   UNL A   1      32.186  15.480  26.491  1.00  0.00    -0.207 F 
ATOM     23  C   UNL A   1      33.402  15.803  24.501  1.00  0.00     0.078 A 
ATOM     24  F   UNL A   1      34.555  16.210  22.491  1.00  0.00    -0.207 F 
ENDBRANCH  14  17
ENDBRANCH  11  14
ENDBRANCH   7   8
ENDBRANCH   5   7
ENDBRANCH   2   3
ENDBRANCH   1   2
BRANCH   1  25
ATOM     25  C   UNL A   1      33.992  29.363  26.458  1.00  0.00     0.118 C 
BRANCH  25  26
ATOM     26  N   UNL A   1      33.798  30.701  26.995  1.00  0.00    -0.352 N 
ATOM     27  C   UNL A   1      34.525  31.402  27.925  1.00  0.00     0.251 C 
ATOM     28  H   UNL A   1      33.020  31.182  26.632  1.00  0.00     0.163 HD
ATOM     29  O   UNL A   1      34.094  32.482  28.324  1.00  0.00    -0.269 OA
BRANCH  27  30
ATOM     30  C   UNL A   1      35.795  30.864  28.466  1.00  0.00     0.039 A 
ATOM     31  C   UNL A   1      35.733  29.918  29.495  1.00  0.00     0.014 A 
ATOM     32  C   UNL A   1      37.038  31.304  28.002  1.00  0.00     0.014 A 
ATOM     33  C   UNL A   1      36.909  29.373  30.015  1.00  0.00     0.010 A 
ATOM     34  C   UNL A   1      38.210  30.713  28.478  1.00  0.00     0.010 A 
ATOM     35  C   UNL A   1      38.157  29.745  29.491  1.00  0.00    -0.014 A 
BRANCH  35  36
ATOM     36  C   UNL A   1      39.412  29.133  30.002  1.00  0.00     0.031 A 
ATOM     37  C   UNL A   1      40.086  29.692  31.225  1.00  0.00     0.074 A 
ATOM     38  C   UNL A   1      39.971  28.105  29.333  1.00  0.00     0.049 A 
ATOM     39  N   UNL A   1      41.207  29.326  31.795  1.00  0.00    -0.248 NA
ATOM     40  C   UNL A   1      39.426  30.833  31.874  1.00  0.00     0.031 C 
ATOM     41  C   UNL A   1      39.441  27.508  28.104  1.00  0.00     0.029 A 
ATOM     42  N   UNL A   1      41.113  27.387  29.585  1.00  0.00    -0.354 N 
ATOM     43  C   UNL A   1      41.395  30.202  32.860  1.00  0.00     0.074 A 
ATOM     44  C   UNL A   1      40.298  31.146  32.821  1.00  0.00     0.031 C 
ATOM     45  C   UNL A   1      40.246  26.504  27.722  1.00  0.00     0.029 A 
ATOM     46  C   UNL A   1      41.362  26.403  28.656  1.00  0.00     0.049 A 
ATOM     47  H   UNL A   1      41.698  27.560  30.357  1.00  0.00     0.167 HD
ATOM     48  C   UNL A   1      42.380  30.205  33.794  1.00  0.00     0.034 A 
ATOM     49  C   UNL A   1      42.377  25.522  28.567  1.00  0.00     0.034 A 
ATOM     50  C   UNL A   1      43.459  29.247  33.830  1.00  0.00     0.049 A 
ATOM     51  C   UNL A   1      43.447  25.530  29.627  1.00  0.00     0.074 A 
ATOM     52  C   UNL A   1      44.476  29.125  34.760  1.00  0.00     0.029 A 
ATOM     53  N   UNL A   1      43.662  28.245  32.889  1.00  0.00    -0.354 N 
ATOM     54  N   UNL A   1      43.584  26.332  30.657  1.00  0.00    -0.248 NA
ATOM     55  C   UNL A   1      44.489  24.501  29.520  1.00  0.00     0.031 C 
ATOM     56  C   UNL A   1      45.321  28.082  34.357  1.00  0.00     0.029 A 
ATOM     57  C   UNL A   1      44.797  27.514  33.207  1.00  0.00     0.049 A 
ATOM     58  H   UNL A   1      43.083  28.077  32.110  1.00  0.00     0.167 HD
ATOM     59  C   UNL A   1      44.716  25.889  31.333  1.00  0.00     0.074 A 
ATOM     60  C   UNL A   1      45.214  24.740  30.602  1.00  0.00     0.031 C 
ATOM     61  C   UNL A   1      45.290  26.381  32.459  1.00  0.00     0.034 A 
BRANCH  48  62
ATOM     62  C   UNL A   1      42.339  31.300  34.832  1.00  0.00     0.023 A 
ATOM     63  C   UNL A   1      43.029  32.511  34.653  1.00  0.00     0.031 A 
ATOM     64  C   UNL A   1      41.637  31.114  36.036  1.00  0.00     0.131 A 
ATOM     65  C   UNL A   1      43.070  33.455  35.691  1.00  0.00     0.055 A 
ATOM     66  C   UNL A   1      41.616  32.091  37.034  1.00  0.00     0.041 A 
ATOM     67  F   UNL A   1      40.975  29.970  36.273  1.00  0.00    -0.206 F 
ATOM     68  C   UNL A   1      42.349  33.264  36.871  1.00  0.00     0.022 A 
BRANCH  65  69
ATOM     69  S   UNL A   1      44.196  34.868  35.533  1.00  0.00     0.124 S 
ATOM     70  O   UNL A   1      44.941  34.793  36.787  1.00  0.00    -0.237 OA
ATOM     71  O   UNL A   1      44.943  34.542  34.324  1.00  0.00    -0.237 OA
ATOM     72  O   UNL A   1      43.295  36.014  35.420  1.00  0.00    -0.744 OA
ENDBRANCH  65  69
ENDBRANCH  48  62
BRANCH  49  73
ATOM     73  C   UNL A   1      42.435  24.556  27.437  1.00  0.00     0.023 A 
ATOM     74  C   UNL A   1      41.656  23.388  27.447  1.00  0.00     0.031 A 
ATOM     75  C   UNL A   1      43.292  24.773  26.346  1.00  0.00     0.131 A 
ATOM     76  C   UNL A   1      41.780  22.459  26.403  1.00  0.00     0.055 A 
ATOM     77  C   UNL A   1      43.381  23.866  25.289  1.00  0.00     0.041 A 
ATOM     78  F   UNL A   1      44.048  25.881  26.288  1.00  0.00    -0.206 F 
ATOM     79  C   UNL A   1      42.631  22.695  25.319  1.00  0.00     0.022 A 
BRANCH  76  80
ATOM     80  S   UNL A   1      40.855  20.902  26.512  1.00  0.00     0.124 S 
ATOM     81  O   UNL A   1      41.687  20.005  25.718  1.00  0.00    -0.237 OA
ATOM     82  O   UNL A   1      40.840  20.660  27.951  1.00  0.00    -0.237 OA
ATOM     83  O   UNL A   1      39.559  21.235  25.925  1.00  0.00    -0.744 OA
ENDBRANCH  76  80
ENDBRANCH  49  73
BRANCH  61  84
ATOM     84  C   UNL A   1      46.498  25.647  32.982  1.00  0.00     0.023 A 
ATOM     85  C   UNL A   1      47.790  25.916  32.496  1.00  0.00     0.031 A 
ATOM     86  C   UNL A   1      46.348  24.646  33.956  1.00  0.00     0.131 A 
ATOM     87  C   UNL A   1      48.876  25.151  32.948  1.00  0.00     0.055 A 
ATOM     88  C   UNL A   1      47.440  23.924  34.438  1.00  0.00     0.041 A 
ATOM     89  F   UNL A   1      45.135  24.351  34.451  1.00  0.00    -0.206 F 
ATOM     90  C   UNL A   1      48.711  24.166  33.924  1.00  0.00     0.022 A 
BRANCH  87  91
ATOM     91  S   UNL A   1      50.500  25.405  32.179  1.00  0.00     0.124 S 
ATOM     92  O   UNL A   1      50.387  26.770  31.674  1.00  0.00    -0.237 OA
ATOM     93  O   UNL A   1      51.410  25.215  33.303  1.00  0.00    -0.237 OA
ATOM     94  O   UNL A   1      50.559  24.367  31.151  1.00  0.00    -0.744 OA
ENDBRANCH  87  91
ENDBRANCH  61  84
ENDBRANCH  35  36
ENDBRANCH  27  30
ENDBRANCH  25  26
ENDBRANCH   1  25
TORSDOF 16
ENDMDL
MODEL 3
REMARK VINA RESULT:     -11.7      1.814      7.683
REMARK SMILES O=C(C[C@H]1CN(S(=O)(=O)c2cc(F)cc(F)c2)CCO1)NCCCNC(=O)c1ccc(-c2c3nc(c(-c4cc(S(=O)(=O)[O-])ccc4F)c4ccc([nH]4)c(-c4cc(S(=O)(=O)[O-])ccc4F)c4nc(c(-c5cc(S(=O)(=O)[O-])ccc5F)c5ccc2[nH]5)C=C4)C=C3)cc1
REMARK SMILES IDX 23 1 22 2 21 3 1 4 2 5 3 7 4 8 5 9 20 10 6 11 19 12 18 13
REMARK SMILES IDX 7 14 8 15 9 16 10 17 11 18 17 19 12 20 15 21 13 22 14 23
REMARK SMILES IDX 16 24 24 25 25 26 26 27 27 29 28 30 29 31 90 32 30 33 89 34
REMARK SMILES IDX 31 35 32 36 33 37 83 38 34 39 88 40 82 41 84 42 35 43 87 44
REMARK SMILES IDX 81 45 80 46 36 48 68 49 48 50 67 51 49 52 52 53 66 54 85 55
REMARK SMILES IDX 50 56 51 57 65 59 86 60 53 61 37 62 38 63 46 64 39 65 45 66
REMARK SMILES IDX 47 67 44 68 40 69 41 70 42 71 43 72 69 73 70 74 78 75 71 76
REMARK SMILES IDX 77 77 79 78 76 79 72 80 73 81 74 82 75 83 54 84 55 85 63 86
REMARK SMILES IDX 56 87 62 88 64 89 61 90 57 91 58 92 59 93 60 94
REMARK H PARENT 21 6 25 28 84 47 52 58
REMARK Flexibility Score: inf
ROOT
ATOM      1  C   UNL A   1      32.523  28.870  24.202  1.00  0.00     0.042 C 
ENDROOT
BRANCH   1   2
ATOM      2  C   UNL A   1      33.596  28.131  23.407  1.00  0.00     0.117 C 
BRANCH   2   3
ATOM      3  N   UNL A   1      33.583  26.692  23.560  1.00  0.00    -0.356 N 
ATOM      4  O   UNL A   1      33.645  26.213  21.328  1.00  0.00    -0.275 OA
ATOM      5  C   UNL A   1      33.680  25.834  22.495  1.00  0.00     0.222 C 
ATOM      6  H   UNL A   1      33.499  26.314  24.465  1.00  0.00     0.163 HD
BRANCH   5   7
ATOM      7  C   UNL A   1      33.662  24.360  22.844  1.00  0.00     0.133 C 
BRANCH   7   8
ATOM      8  C   UNL A   1      32.326  23.605  22.966  1.00  0.00     0.142 C 
ATOM      9  C   UNL A   1      32.328  22.413  23.956  1.00  0.00     0.135 C 
ATOM     10  O   UNL A   1      31.146  24.416  23.066  1.00  0.00    -0.375 OA
ATOM     11  N   UNL A   1      31.946  22.760  25.358  1.00  0.00    -0.193 NA
ATOM     12  C   UNL A   1      30.799  24.769  24.414  1.00  0.00     0.177 C 
ATOM     13  C   UNL A   1      30.653  23.533  25.306  1.00  0.00     0.131 C 
BRANCH  11  14
ATOM     14  S   UNL A   1      33.071  23.438  26.447  1.00  0.00     0.243 S 
ATOM     15  O   UNL A   1      33.133  24.863  26.200  1.00  0.00    -0.207 OA
ATOM     16  O   UNL A   1      32.712  22.943  27.755  1.00  0.00    -0.207 OA
BRANCH  14  17
ATOM     17  C   UNL A   1      34.683  22.786  26.076  1.00  0.00     0.088 A 
ATOM     18  C   UNL A   1      34.861  21.450  25.713  1.00  0.00     0.061 A 
ATOM     19  C   UNL A   1      35.759  23.677  25.969  1.00  0.00     0.061 A 
ATOM     20  C   UNL A   1      36.117  21.005  25.312  1.00  0.00     0.127 A 
ATOM     21  C   UNL A   1      36.993  23.213  25.524  1.00  0.00     0.127 A 
ATOM     22  F   UNL A   1      36.282  19.714  25.000  1.00  0.00    -0.207 F 
ATOM     23  C   UNL A   1      37.189  21.876  25.207  1.00  0.00     0.078 A 
ATOM     24  F   UNL A   1      38.005  24.076  25.376  1.00  0.00    -0.207 F 
ENDBRANCH  14  17
ENDBRANCH  11  14
ENDBRANCH   7   8
ENDBRANCH   5   7
ENDBRANCH   2   3
ENDBRANCH   1   2
BRANCH   1  25
ATOM     25  C   UNL A   1      32.884  29.173  25.653  1.00  0.00     0.118 C 
BRANCH  25  26
ATOM     26  N   UNL A   1      32.535  30.526  26.058  1.00  0.00    -0.352 N 
ATOM     27  C   UNL A   1      33.119  31.358  26.979  1.00  0.00     0.251 C 
ATOM     28  H   UNL A   1      31.754  30.905  25.595  1.00  0.00     0.163 HD
ATOM     29  O   UNL A   1      32.568  32.423  27.250  1.00  0.00    -0.269 OA
BRANCH  27  30
ATOM     30  C   UNL A   1      34.378  30.980  27.663  1.00  0.00     0.039 A 
ATOM     31  C   UNL A   1      35.398  31.933  27.754  1.00  0.00     0.014 A 
ATOM     32  C   UNL A   1      34.579  29.697  28.178  1.00  0.00     0.014 A 
ATOM     33  C   UNL A   1      36.591  31.619  28.410  1.00  0.00     0.010 A 
ATOM     34  C   UNL A   1      35.745  29.404  28.889  1.00  0.00     0.010 A 
ATOM     35  C   UNL A   1      36.763  30.361  29.009  1.00  0.00    -0.014 A 
BRANCH  35  36
ATOM     36  C   UNL A   1      38.007  30.035  29.754  1.00  0.00     0.031 A 
ATOM     37  C   UNL A   1      38.993  29.048  29.191  1.00  0.00     0.074 A 
ATOM     38  C   UNL A   1      38.223  30.590  30.963  1.00  0.00     0.049 A 
ATOM     39  N   UNL A   1      40.108  28.601  29.710  1.00  0.00    -0.248 NA
ATOM     40  C   UNL A   1      38.664  28.467  27.882  1.00  0.00     0.031 C 
ATOM     41  C   UNL A   1      37.316  31.521  31.640  1.00  0.00     0.029 A 
ATOM     42  N   UNL A   1      39.266  30.445  31.842  1.00  0.00    -0.354 N 
ATOM     43  C   UNL A   1      40.606  27.673  28.801  1.00  0.00     0.074 A 
ATOM     44  C   UNL A   1      39.642  27.588  27.724  1.00  0.00     0.031 C 
ATOM     45  C   UNL A   1      37.852  31.877  32.818  1.00  0.00     0.029 A 
ATOM     46  C   UNL A   1      39.123  31.181  32.996  1.00  0.00     0.049 A 
ATOM     47  H   UNL A   1      40.045  29.870  31.664  1.00  0.00     0.167 HD
ATOM     48  C   UNL A   1      41.768  26.974  28.851  1.00  0.00     0.034 A 
ATOM     49  C   UNL A   1      39.923  31.280  34.075  1.00  0.00     0.034 A 
ATOM     50  C   UNL A   1      42.728  27.081  29.923  1.00  0.00     0.049 A 
ATOM     51  C   UNL A   1      41.217  30.511  34.098  1.00  0.00     0.074 A 
ATOM     52  C   UNL A   1      43.960  26.461  30.047  1.00  0.00     0.029 A 
ATOM     53  N   UNL A   1      42.562  27.860  31.061  1.00  0.00    -0.354 N 
ATOM     54  N   UNL A   1      41.699  29.676  33.207  1.00  0.00    -0.248 NA
ATOM     55  C   UNL A   1      42.083  30.713  35.267  1.00  0.00     0.031 C 
ATOM     56  C   UNL A   1      44.516  26.826  31.280  1.00  0.00     0.029 A 
ATOM     57  C   UNL A   1      43.658  27.721  31.899  1.00  0.00     0.049 A 
ATOM     58  H   UNL A   1      41.780  28.428  31.246  1.00  0.00     0.167 HD
ATOM     59  C   UNL A   1      42.936  29.271  33.699  1.00  0.00     0.074 A 
ATOM     60  C   UNL A   1      43.131  29.965  34.956  1.00  0.00     0.031 C 
ATOM     61  C   UNL A   1      43.832  28.408  33.158  1.00  0.00     0.034 A 
BRANCH  48  62
ATOM     62  C   UNL A   1      42.041  26.012  27.719  1.00  0.00     0.023 A 
ATOM     63  C   UNL A   1      41.575  24.686  27.749  1.00  0.00     0.031 A 
ATOM     64  C   UNL A   1      42.813  26.413  26.614  1.00  0.00     0.131 A 
ATOM     65  C   UNL A   1      41.952  23.787  26.740  1.00  0.00     0.055 A 
ATOM     66  C   UNL A   1      43.118  25.535  25.572  1.00  0.00     0.041 A 
ATOM     67  F   UNL A   1      43.301  27.662  26.538  1.00  0.00    -0.206 F 
ATOM     68  C   UNL A   1      42.701  24.208  25.639  1.00  0.00     0.022 A 
BRANCH  65  69
ATOM     69  S   UNL A   1      41.571  22.028  26.961  1.00  0.00     0.124 S 
ATOM     70  O   UNL A   1      40.126  22.064  27.172  1.00  0.00    -0.237 OA
ATOM     71  O   UNL A   1      42.019  21.447  25.700  1.00  0.00    -0.237 OA
ATOM     72  O   UNL A   1      42.356  21.652  28.136  1.00  0.00    -0.744 OA
ENDBRANCH  65  69
ENDBRANCH  48  62
BRANCH  49  73
ATOM     73  C   UNL A   1      39.529  32.139  35.224  1.00  0.00     0.023 A 
ATOM     74  C   UNL A   1      38.761  31.624  36.280  1.00  0.00     0.031 A 
ATOM     75  C   UNL A   1      39.890  33.496  35.267  1.00  0.00     0.131 A 
ATOM     76  C   UNL A   1      38.344  32.472  37.317  1.00  0.00     0.055 A 
ATOM     77  C   UNL A   1      39.508  34.326  36.321  1.00  0.00     0.041 A 
ATOM     78  F   UNL A   1      40.633  34.031  34.285  1.00  0.00    -0.206 F 
ATOM     79  C   UNL A   1      38.720  33.817  37.349  1.00  0.00     0.022 A 
BRANCH  76  80
ATOM     80  S   UNL A   1      37.246  31.802  38.597  1.00  0.00     0.124 S 
ATOM     81  O   UNL A   1      36.102  32.702  38.509  1.00  0.00    -0.237 OA
ATOM     82  O   UNL A   1      37.029  30.439  38.125  1.00  0.00    -0.237 OA
ATOM     83  O   UNL A   1      38.039  31.917  39.818  1.00  0.00    -0.744 OA
ENDBRANCH  76  80
ENDBRANCH  49  73
BRANCH  61  84
ATOM     84  C   UNL A   1      45.119  28.205  33.914  1.00  0.00     0.023 A 
ATOM     85  C   UNL A   1      45.252  27.197  34.885  1.00  0.00     0.031 A 
ATOM     86  C   UNL A   1      46.216  29.052  33.681  1.00  0.00     0.131 A 
ATOM     87  C   UNL A   1      46.439  27.096  35.627  1.00  0.00     0.055 A 
ATOM     88  C   UNL A   1      47.412  28.915  34.386  1.00  0.00     0.041 A 
ATOM     89  F   UNL A   1      46.139  30.032  32.764  1.00  0.00    -0.206 F 
ATOM     90  C   UNL A   1      47.523  27.940  35.375  1.00  0.00     0.022 A 
BRANCH  87  91
ATOM     91  S   UNL A   1      46.517  25.898  36.987  1.00  0.00     0.124 S 
ATOM     92  O   UNL A   1      47.828  26.179  37.565  1.00  0.00    -0.237 OA
ATOM     93  O   UNL A   1      45.367  26.274  37.801  1.00  0.00    -0.237 OA
ATOM     94  O   UNL A   1      46.402  24.606  36.313  1.00  0.00    -0.744 OA
ENDBRANCH  87  91
ENDBRANCH  61  84
ENDBRANCH  35  36
ENDBRANCH  27  30
ENDBRANCH  25  26
ENDBRANCH   1  25
TORSDOF 16
ENDMDL
