MODEL 1
REMARK VINA RESULT:     -11.7      0.000      0.000
REMARK SMILES C[C@@H](c1cccc(F)c1)[C@@](C)(O)C(=O)NCCCNC(=O)c1ccc(-c2c3nc(c(-c4cc(S(=O)(=O)[O-])ccc4F)c4ccc([nH]4)c(-c4cc(S(=O)(=O)[O-])ccc4F)c4nc(c(-c5cc(S(=O)(=O)[O-])ccc5F)c5ccc2[nH]5)C=C4)C=C3)cc1
REMARK SMILES IDX 17 1 16 2 15 3 13 4 14 5 10 7 11 8 2 9 1 10 3 11 4 12 9 13
REMARK SMILES IDX 5 14 7 15 6 16 8 17 12 18 18 20 19 21 20 22 21 24 22 25
REMARK SMILES IDX 23 26 84 27 24 28 83 29 25 30 26 31 27 32 77 33 28 34 82 35
REMARK SMILES IDX 76 36 78 37 29 38 81 39 75 40 74 41 30 43 62 44 42 45 61 46
REMARK SMILES IDX 43 47 46 48 60 49 79 50 44 51 45 52 59 54 80 55 47 56 31 57
REMARK SMILES IDX 32 58 40 59 33 60 39 61 41 62 38 63 34 64 35 65 36 66 37 67
REMARK SMILES IDX 63 68 64 69 72 70 65 71 71 72 73 73 70 74 66 75 67 76 68 77
REMARK SMILES IDX 69 78 48 79 49 80 57 81 50 82 56 83 58 84 55 85 51 86 52 87
REMARK SMILES IDX 53 88 54 89
REMARK H PARENT 15 6 12 19 19 23 78 42 46 53
REMARK Flexibility Score: inf
ROOT
ATOM      1  C   UNL A   1      32.031  29.710  25.399  1.00  0.00     0.042 C 
ENDROOT
BRANCH   1   2
ATOM      2  C   UNL A   1      32.767  28.383  25.261  1.00  0.00     0.117 C 
BRANCH   2   3
ATOM      3  N   UNL A   1      32.163  27.315  26.040  1.00  0.00    -0.354 N 
ATOM      4  C   UNL A   1      32.015  25.983  25.777  1.00  0.00     0.252 C 
ATOM      5  O   UNL A   1      31.526  25.304  26.685  1.00  0.00    -0.272 OA
ATOM      6  H   UNL A   1      31.798  27.602  26.908  1.00  0.00     0.163 HD
BRANCH   4   7
ATOM      7  C   UNL A   1      32.550  25.354  24.454  1.00  0.00     0.146 C 
ATOM      8  C   UNL A   1      33.190  23.998  24.807  1.00  0.00     0.053 C 
BRANCH   7   9
ATOM      9  C   UNL A   1      31.419  25.160  23.373  1.00  0.00     0.057 C 
ATOM     10  C   UNL A   1      30.653  23.827  23.496  1.00  0.00     0.016 C 
BRANCH   9  11
ATOM     11  C   UNL A   1      30.489  26.367  23.207  1.00  0.00    -0.039 A 
ATOM     12  C   UNL A   1      29.221  26.358  23.817  1.00  0.00     0.004 A 
ATOM     13  C   UNL A   1      30.856  27.510  22.479  1.00  0.00     0.043 A 
ATOM     14  C   UNL A   1      28.353  27.449  23.708  1.00  0.00     0.003 A 
ATOM     15  C   UNL A   1      29.989  28.596  22.382  1.00  0.00     0.123 A 
ATOM     16  C   UNL A   1      28.741  28.577  22.991  1.00  0.00     0.039 A 
ATOM     17  F   UNL A   1      30.368  29.683  21.696  1.00  0.00    -0.207 F 
ENDBRANCH   9  11
ENDBRANCH   7   9
BRANCH   7  18
ATOM     18  O   UNL A   1      33.586  26.163  23.874  1.00  0.00    -0.380 OA
ATOM     19  H   UNL A   1      34.051  26.646  24.576  1.00  0.00     0.212 HD
ENDBRANCH   7  18
ENDBRANCH   4   7
ENDBRANCH   2   3
ENDBRANCH   1   2
BRANCH   1  20
ATOM     20  C   UNL A   1      31.939  30.245  26.825  1.00  0.00     0.118 C 
BRANCH  20  21
ATOM     21  N   UNL A   1      31.990  31.700  26.902  1.00  0.00    -0.352 N 
ATOM     22  C   UNL A   1      32.954  32.538  27.408  1.00  0.00     0.251 C 
ATOM     23  H   UNL A   1      31.202  32.159  26.529  1.00  0.00     0.163 HD
ATOM     24  O   UNL A   1      32.714  33.739  27.511  1.00  0.00    -0.269 OA
BRANCH  22  25
ATOM     25  C   UNL A   1      34.255  32.001  27.864  1.00  0.00     0.039 A 
ATOM     26  C   UNL A   1      35.338  32.874  27.995  1.00  0.00     0.014 A 
ATOM     27  C   UNL A   1      34.407  30.648  28.177  1.00  0.00     0.014 A 
ATOM     28  C   UNL A   1      36.535  32.416  28.547  1.00  0.00     0.010 A 
ATOM     29  C   UNL A   1      35.576  30.208  28.795  1.00  0.00     0.010 A 
ATOM     30  C   UNL A   1      36.640  31.095  29.013  1.00  0.00    -0.014 A 
BRANCH  30  31
ATOM     31  C   UNL A   1      37.818  30.642  29.797  1.00  0.00     0.031 A 
ATOM     32  C   UNL A   1      38.824  29.701  29.200  1.00  0.00     0.074 A 
ATOM     33  C   UNL A   1      37.930  31.016  31.086  1.00  0.00     0.049 A 
ATOM     34  N   UNL A   1      39.840  29.108  29.772  1.00  0.00    -0.248 NA
ATOM     35  C   UNL A   1      38.650  29.369  27.780  1.00  0.00     0.031 C 
ATOM     36  C   UNL A   1      37.005  31.908  31.791  1.00  0.00     0.029 A 
ATOM     37  N   UNL A   1      38.866  30.693  32.036  1.00  0.00    -0.354 N 
ATOM     38  C   UNL A   1      40.427  28.325  28.784  1.00  0.00     0.074 A 
ATOM     39  C   UNL A   1      39.617  28.483  27.592  1.00  0.00     0.031 C 
ATOM     40  C   UNL A   1      37.440  32.090  33.047  1.00  0.00     0.029 A 
ATOM     41  C   UNL A   1      38.641  31.288  33.255  1.00  0.00     0.049 A 
ATOM     42  H   UNL A   1      39.626  30.093  31.861  1.00  0.00     0.167 HD
ATOM     43  C   UNL A   1      41.546  27.561  28.860  1.00  0.00     0.034 A 
ATOM     44  C   UNL A   1      39.316  31.192  34.417  1.00  0.00     0.034 A 
ATOM     45  C   UNL A   1      42.339  27.406  30.055  1.00  0.00     0.049 A 
ATOM     46  C   UNL A   1      40.527  30.308  34.495  1.00  0.00     0.074 A 
ATOM     47  C   UNL A   1      43.492  26.660  30.236  1.00  0.00     0.029 A 
ATOM     48  N   UNL A   1      42.064  28.007  31.279  1.00  0.00    -0.354 N 
ATOM     49  N   UNL A   1      41.052  29.549  33.562  1.00  0.00    -0.248 NA
ATOM     50  C   UNL A   1      41.234  30.268  35.780  1.00  0.00     0.031 C 
ATOM     51  C   UNL A   1      43.882  26.766  31.576  1.00  0.00     0.029 A 
ATOM     52  C   UNL A   1      43.015  27.636  32.218  1.00  0.00     0.049 A 
ATOM     53  H   UNL A   1      41.305  28.608  31.453  1.00  0.00     0.167 HD
ATOM     54  C   UNL A   1      42.171  28.960  34.141  1.00  0.00     0.074 A 
ATOM     55  C   UNL A   1      42.239  29.447  35.505  1.00  0.00     0.031 C 
ATOM     56  C   UNL A   1      43.065  28.106  33.583  1.00  0.00     0.034 A 
BRANCH  43  57
ATOM     57  C   UNL A   1      41.952  26.815  27.612  1.00  0.00     0.023 A 
ATOM     58  C   UNL A   1      41.699  25.440  27.465  1.00  0.00     0.031 A 
ATOM     59  C   UNL A   1      42.626  27.477  26.571  1.00  0.00     0.131 A 
ATOM     60  C   UNL A   1      42.180  24.756  26.339  1.00  0.00     0.055 A 
ATOM     61  C   UNL A   1      43.034  26.806  25.416  1.00  0.00     0.041 A 
ATOM     62  F   UNL A   1      42.912  28.785  26.665  1.00  0.00    -0.206 F 
ATOM     63  C   UNL A   1      42.824  25.434  25.301  1.00  0.00     0.022 A 
BRANCH  60  64
ATOM     64  S   UNL A   1      42.062  22.947  26.307  1.00  0.00     0.124 S 
ATOM     65  O   UNL A   1      40.622  22.745  26.457  1.00  0.00    -0.237 OA
ATOM     66  O   UNL A   1      42.622  22.615  25.003  1.00  0.00    -0.237 OA
ATOM     67  O   UNL A   1      42.865  22.532  27.456  1.00  0.00    -0.744 OA
ENDBRANCH  60  64
ENDBRANCH  43  57
BRANCH  44  68
ATOM     68  C   UNL A   1      38.855  31.977  35.590  1.00  0.00     0.023 A 
ATOM     69  C   UNL A   1      38.149  31.356  36.631  1.00  0.00     0.031 A 
ATOM     70  C   UNL A   1      39.166  33.342  35.715  1.00  0.00     0.131 A 
ATOM     71  C   UNL A   1      37.771  32.103  37.757  1.00  0.00     0.055 A 
ATOM     72  C   UNL A   1      38.811  34.074  36.849  1.00  0.00     0.041 A 
ATOM     73  F   UNL A   1      39.859  33.969  34.752  1.00  0.00    -0.206 F 
ATOM     74  C   UNL A   1      38.109  33.454  37.878  1.00  0.00     0.022 A 
BRANCH  71  75
ATOM     75  S   UNL A   1      36.848  31.278  39.082  1.00  0.00     0.124 S 
ATOM     76  O   UNL A   1      35.666  32.126  39.191  1.00  0.00    -0.237 OA
ATOM     77  O   UNL A   1      36.635  29.946  38.528  1.00  0.00    -0.237 OA
ATOM     78  O   UNL A   1      37.765  31.334  40.219  1.00  0.00    -0.744 OA
ENDBRANCH  71  75
ENDBRANCH  44  68
BRANCH  56  79
ATOM     79  C   UNL A   1      44.230  27.677  34.438  1.00  0.00     0.023 A 
ATOM     80  C   UNL A   1      44.190  26.509  35.219  1.00  0.00     0.031 A 
ATOM     81  C   UNL A   1      45.406  28.449  34.457  1.00  0.00     0.131 A 
ATOM     82  C   UNL A   1      45.292  26.167  36.018  1.00  0.00     0.055 A 
ATOM     83  C   UNL A   1      46.516  28.078  35.216  1.00  0.00     0.041 A 
ATOM     84  F   UNL A   1      45.494  29.574  33.730  1.00  0.00    -0.206 F 
ATOM     85  C   UNL A   1      46.460  26.936  36.008  1.00  0.00     0.022 A 
BRANCH  82  86
ATOM     86  S   UNL A   1      45.163  24.729  37.116  1.00  0.00     0.124 S 
ATOM     87  O   UNL A   1      44.183  25.186  38.096  1.00  0.00    -0.237 OA
ATOM     88  O   UNL A   1      44.716  23.678  36.209  1.00  0.00    -0.237 OA
ATOM     89  O   UNL A   1      46.523  24.567  37.630  1.00  0.00    -0.744 OA
ENDBRANCH  82  86
ENDBRANCH  56  79
ENDBRANCH  30  31
ENDBRANCH  22  25
ENDBRANCH  20  21
ENDBRANCH   1  20
TORSDOF 16
ENDMDL
MODEL 2
REMARK VINA RESULT:     -11.7      5.392     10.506
REMARK SMILES C[C@@H](c1cccc(F)c1)[C@@](C)(O)C(=O)NCCCNC(=O)c1ccc(-c2c3nc(c(-c4cc(S(=O)(=O)[O-])ccc4F)c4ccc([nH]4)c(-c4cc(S(=O)(=O)[O-])ccc4F)c4nc(c(-c5cc(S(=O)(=O)[O-])ccc5F)c5ccc2[nH]5)C=C4)C=C3)cc1
REMARK SMILES IDX 17 1 16 2 15 3 13 4 14 5 10 7 11 8 2 9 1 10 3 11 4 12 9 13
REMARK SMILES IDX 5 14 7 15 6 16 8 17 12 18 18 20 19 21 20 22 21 24 22 25
REMARK SMILES IDX 23 26 84 27 24 28 83 29 25 30 26 31 27 32 77 33 28 34 82 35
REMARK SMILES IDX 76 36 78 37 29 38 81 39 75 40 74 41 30 43 62 44 42 45 61 46
REMARK SMILES IDX 43 47 46 48 60 49 79 50 44 51 45 52 59 54 80 55 47 56 31 57
REMARK SMILES IDX 32 58 40 59 33 60 39 61 41 62 38 63 34 64 35 65 36 66 37 67
REMARK SMILES IDX 63 68 64 69 72 70 65 71 71 72 73 73 70 74 66 75 67 76 68 77
REMARK SMILES IDX 69 78 48 79 49 80 57 81 50 82 56 83 58 84 55 85 51 86 52 87
REMARK SMILES IDX 53 88 54 89
REMARK H PARENT 15 6 12 19 19 23 78 42 46 53
REMARK Flexibility Score: inf
ROOT
ATOM      1  C   UNL A   1      36.037  22.314  24.206  1.00  0.00     0.042 C 
ENDROOT
BRANCH   1   2
ATOM      2  C   UNL A   1      34.545  22.577  24.042  1.00  0.00     0.117 C 
BRANCH   2   3
ATOM      3  N   UNL A   1      33.726  21.422  24.371  1.00  0.00    -0.354 N 
ATOM      4  C   UNL A   1      32.570  21.315  25.091  1.00  0.00     0.252 C 
ATOM      5  O   UNL A   1      32.057  20.192  25.125  1.00  0.00    -0.272 OA
ATOM      6  H   UNL A   1      34.062  20.570  24.011  1.00  0.00     0.163 HD
BRANCH   4   7
ATOM      7  C   UNL A   1      31.888  22.568  25.719  1.00  0.00     0.146 C 
ATOM      8  C   UNL A   1      32.670  22.934  26.996  1.00  0.00     0.053 C 
BRANCH   7   9
ATOM      9  C   UNL A   1      31.848  23.797  24.733  1.00  0.00     0.057 C 
ATOM     10  C   UNL A   1      30.676  23.764  23.733  1.00  0.00     0.016 C 
BRANCH   9  11
ATOM     11  C   UNL A   1      32.010  25.161  25.415  1.00  0.00    -0.039 A 
ATOM     12  C   UNL A   1      30.902  25.761  26.043  1.00  0.00     0.004 A 
ATOM     13  C   UNL A   1      33.236  25.842  25.462  1.00  0.00     0.043 A 
ATOM     14  C   UNL A   1      31.015  26.992  26.695  1.00  0.00     0.003 A 
ATOM     15  C   UNL A   1      33.341  27.066  26.122  1.00  0.00     0.123 A 
ATOM     16  C   UNL A   1      32.242  27.646  26.739  1.00  0.00     0.039 A 
ATOM     17  F   UNL A   1      34.526  27.689  26.168  1.00  0.00    -0.207 F 
ENDBRANCH   9  11
ENDBRANCH   7   9
BRANCH   7  18
ATOM     18  O   UNL A   1      30.541  22.279  26.127  1.00  0.00    -0.380 OA
ATOM     19  H   UNL A   1      30.110  21.729  25.453  1.00  0.00     0.212 HD
ENDBRANCH   7  18
ENDBRANCH   4   7
ENDBRANCH   2   3
ENDBRANCH   1   2
BRANCH   1  20
ATOM     20  C   UNL A   1      36.463  21.903  25.612  1.00  0.00     0.118 C 
BRANCH  20  21
ATOM     21  N   UNL A   1      37.550  20.930  25.627  1.00  0.00    -0.352 N 
ATOM     22  C   UNL A   1      38.876  21.072  25.958  1.00  0.00     0.251 C 
ATOM     23  H   UNL A   1      37.290  20.021  25.353  1.00  0.00     0.163 HD
ATOM     24  O   UNL A   1      39.652  20.143  25.745  1.00  0.00    -0.269 OA
BRANCH  22  25
ATOM     25  C   UNL A   1      39.378  22.342  26.528  1.00  0.00     0.039 A 
ATOM     26  C   UNL A   1      40.401  22.297  27.479  1.00  0.00     0.014 A 
ATOM     27  C   UNL A   1      38.858  23.572  26.119  1.00  0.00     0.014 A 
ATOM     28  C   UNL A   1      40.979  23.484  27.932  1.00  0.00     0.010 A 
ATOM     29  C   UNL A   1      39.482  24.753  26.515  1.00  0.00     0.010 A 
ATOM     30  C   UNL A   1      40.568  24.719  27.402  1.00  0.00    -0.014 A 
BRANCH  30  31
ATOM     31  C   UNL A   1      41.306  25.974  27.700  1.00  0.00     0.031 A 
ATOM     32  C   UNL A   1      40.671  27.065  28.511  1.00  0.00     0.074 A 
ATOM     33  C   UNL A   1      42.526  26.160  27.160  1.00  0.00     0.049 A 
ATOM     34  N   UNL A   1      41.115  28.270  28.766  1.00  0.00    -0.248 NA
ATOM     35  C   UNL A   1      39.354  26.770  29.093  1.00  0.00     0.031 C 
ATOM     36  C   UNL A   1      43.242  25.185  26.333  1.00  0.00     0.029 A 
ATOM     37  N   UNL A   1      43.379  27.233  27.220  1.00  0.00    -0.354 N 
ATOM     38  C   UNL A   1      40.131  28.882  29.534  1.00  0.00     0.074 A 
ATOM     39  C   UNL A   1      39.045  27.929  29.657  1.00  0.00     0.031 C 
ATOM     40  C   UNL A   1      44.438  25.689  25.996  1.00  0.00     0.029 A 
ATOM     41  C   UNL A   1      44.555  27.040  26.535  1.00  0.00     0.049 A 
ATOM     42  H   UNL A   1      43.169  28.061  27.709  1.00  0.00     0.167 HD
ATOM     43  C   UNL A   1      40.140  30.116  30.098  1.00  0.00     0.034 A 
ATOM     44  C   UNL A   1      45.606  27.860  26.346  1.00  0.00     0.034 A 
ATOM     45  C   UNL A   1      41.225  31.059  29.961  1.00  0.00     0.049 A 
ATOM     46  C   UNL A   1      45.581  29.238  26.941  1.00  0.00     0.074 A 
ATOM     47  C   UNL A   1      41.334  32.331  30.496  1.00  0.00     0.029 A 
ATOM     48  N   UNL A   1      42.390  30.835  29.237  1.00  0.00    -0.354 N 
ATOM     49  N   UNL A   1      44.631  29.816  27.639  1.00  0.00    -0.248 NA
ATOM     50  C   UNL A   1      46.769  30.073  26.725  1.00  0.00     0.031 C 
ATOM     51  C   UNL A   1      42.537  32.895  30.053  1.00  0.00     0.029 A 
ATOM     52  C   UNL A   1      43.213  31.949  29.300  1.00  0.00     0.049 A 
ATOM     53  H   UNL A   1      42.600  30.005  28.750  1.00  0.00     0.167 HD
ATOM     54  C   UNL A   1      45.118  31.076  27.968  1.00  0.00     0.074 A 
ATOM     55  C   UNL A   1      46.443  31.176  27.387  1.00  0.00     0.031 C 
ATOM     56  C   UNL A   1      44.523  32.052  28.699  1.00  0.00     0.034 A 
BRANCH  43  57
ATOM     57  C   UNL A   1      38.920  30.517  30.890  1.00  0.00     0.023 A 
ATOM     58  C   UNL A   1      37.910  31.316  30.327  1.00  0.00     0.031 A 
ATOM     59  C   UNL A   1      38.777  30.121  32.231  1.00  0.00     0.131 A 
ATOM     60  C   UNL A   1      36.840  31.755  31.121  1.00  0.00     0.055 A 
ATOM     61  C   UNL A   1      37.669  30.498  32.995  1.00  0.00     0.041 A 
ATOM     62  F   UNL A   1      39.718  29.373  32.828  1.00  0.00    -0.206 F 
ATOM     63  C   UNL A   1      36.699  31.331  32.444  1.00  0.00     0.022 A 
BRANCH  60  64
ATOM     64  S   UNL A   1      35.702  32.990  30.436  1.00  0.00     0.124 S 
ATOM     65  O   UNL A   1      34.404  32.424  30.798  1.00  0.00    -0.237 OA
ATOM     66  O   UNL A   1      36.090  34.205  31.142  1.00  0.00    -0.237 OA
ATOM     67  O   UNL A   1      36.003  32.976  29.005  1.00  0.00    -0.744 OA
ENDBRANCH  60  64
ENDBRANCH  43  57
BRANCH  44  68
ATOM     68  C   UNL A   1      46.774  27.376  25.567  1.00  0.00     0.023 A 
ATOM     69  C   UNL A   1      46.964  27.783  24.238  1.00  0.00     0.031 A 
ATOM     70  C   UNL A   1      47.746  26.551  26.159  1.00  0.00     0.131 A 
ATOM     71  C   UNL A   1      48.102  27.358  23.537  1.00  0.00     0.055 A 
ATOM     72  C   UNL A   1      48.891  26.153  25.466  1.00  0.00     0.041 A 
ATOM     73  F   UNL A   1      47.614  26.156  27.435  1.00  0.00    -0.206 F 
ATOM     74  C   UNL A   1      49.073  26.557  24.146  1.00  0.00     0.022 A 
BRANCH  71  75
ATOM     75  S   UNL A   1      48.316  27.888  21.816  1.00  0.00     0.124 S 
ATOM     76  O   UNL A   1      47.142  28.730  21.618  1.00  0.00    -0.237 OA
ATOM     77  O   UNL A   1      49.602  28.577  21.863  1.00  0.00    -0.237 OA
ATOM     78  O   UNL A   1      48.317  26.630  21.073  1.00  0.00    -0.744 OA
ENDBRANCH  71  75
ENDBRANCH  44  68
BRANCH  56  79
ATOM     79  C   UNL A   1      45.324  33.303  28.954  1.00  0.00     0.023 A 
ATOM     80  C   UNL A   1      45.349  34.369  28.039  1.00  0.00     0.031 A 
ATOM     81  C   UNL A   1      46.063  33.431  30.144  1.00  0.00     0.131 A 
ATOM     82  C   UNL A   1      46.131  35.503  28.312  1.00  0.00     0.055 A 
ATOM     83  C   UNL A   1      46.800  34.580  30.431  1.00  0.00     0.041 A 
ATOM     84  F   UNL A   1      46.072  32.440  31.050  1.00  0.00    -0.206 F 
ATOM     85  C   UNL A   1      46.843  35.621  29.509  1.00  0.00     0.022 A 
BRANCH  82  86
ATOM     86  S   UNL A   1      46.252  36.805  27.054  1.00  0.00     0.124 S 
ATOM     87  O   UNL A   1      46.403  36.028  25.829  1.00  0.00    -0.237 OA
ATOM     88  O   UNL A   1      44.986  37.512  27.209  1.00  0.00    -0.237 OA
ATOM     89  O   UNL A   1      47.437  37.562  27.457  1.00  0.00    -0.744 OA
ENDBRANCH  82  86
ENDBRANCH  56  79
ENDBRANCH  30  31
ENDBRANCH  22  25
ENDBRANCH  20  21
ENDBRANCH   1  20
TORSDOF 16
ENDMDL
MODEL 3
REMARK VINA RESULT:     -11.6      5.989     12.494
REMARK SMILES C[C@@H](c1cccc(F)c1)[C@@](C)(O)C(=O)NCCCNC(=O)c1ccc(-c2c3nc(c(-c4cc(S(=O)(=O)[O-])ccc4F)c4ccc([nH]4)c(-c4cc(S(=O)(=O)[O-])ccc4F)c4nc(c(-c5cc(S(=O)(=O)[O-])ccc5F)c5ccc2[nH]5)C=C4)C=C3)cc1
REMARK SMILES IDX 17 1 16 2 15 3 13 4 14 5 10 7 11 8 2 9 1 10 3 11 4 12 9 13
REMARK SMILES IDX 5 14 7 15 6 16 8 17 12 18 18 20 19 21 20 22 21 24 22 25
REMARK SMILES IDX 23 26 84 27 24 28 83 29 25 30 26 31 27 32 77 33 28 34 82 35
REMARK SMILES IDX 76 36 78 37 29 38 81 39 75 40 74 41 30 43 62 44 42 45 61 46
REMARK SMILES IDX 43 47 46 48 60 49 79 50 44 51 45 52 59 54 80 55 47 56 31 57
REMARK SMILES IDX 32 58 40 59 33 60 39 61 41 62 38 63 34 64 35 65 36 66 37 67
REMARK SMILES IDX 63 68 64 69 72 70 65 71 71 72 73 73 70 74 66 75 67 76 68 77
REMARK SMILES IDX 69 78 48 79 49 80 57 81 50 82 56 83 58 84 55 85 51 86 52 87
REMARK SMILES IDX 53 88 54 89
REMARK H PARENT 15 6 12 19 19 23 78 42 46 53
REMARK Flexibility Score: inf
ROOT
ATOM      1  C   UNL A   1      41.612  19.257  26.202  1.00  0.00     0.042 C 
ENDROOT
BRANCH   1   2
ATOM      2  C   UNL A   1      43.122  19.243  25.995  1.00  0.00     0.117 C 
BRANCH   2   3
ATOM      3  N   UNL A   1      43.503  19.218  24.592  1.00  0.00    -0.354 N 
ATOM      4  C   UNL A   1      44.573  19.762  23.942  1.00  0.00     0.252 C 
ATOM      5  O   UNL A   1      44.668  19.494  22.740  1.00  0.00    -0.272 OA
ATOM      6  H   UNL A   1      42.881  18.724  24.011  1.00  0.00     0.163 HD
BRANCH   4   7
ATOM      7  C   UNL A   1      45.667  20.564  24.711  1.00  0.00     0.146 C 
ATOM      8  C   UNL A   1      47.016  20.300  24.015  1.00  0.00     0.053 C 
BRANCH   7   9
ATOM      9  C   UNL A   1      45.369  22.112  24.752  1.00  0.00     0.057 C 
ATOM     10  C   UNL A   1      44.141  22.539  23.923  1.00  0.00     0.016 C 
BRANCH   9  11
ATOM     11  C   UNL A   1      45.376  22.719  26.160  1.00  0.00    -0.039 A 
ATOM     12  C   UNL A   1      46.440  23.553  26.552  1.00  0.00     0.004 A 
ATOM     13  C   UNL A   1      44.345  22.495  27.086  1.00  0.00     0.043 A 
ATOM     14  C   UNL A   1      46.471  24.144  27.819  1.00  0.00     0.003 A 
ATOM     15  C   UNL A   1      44.381  23.095  28.343  1.00  0.00     0.123 A 
ATOM     16  C   UNL A   1      45.434  23.918  28.718  1.00  0.00     0.039 A 
ATOM     17  F   UNL A   1      43.376  22.881  29.204  1.00  0.00    -0.207 F 
ENDBRANCH   9  11
ENDBRANCH   7   9
BRANCH   7  18
ATOM     18  O   UNL A   1      45.800  20.099  26.064  1.00  0.00    -0.380 OA
ATOM     19  H   UNL A   1      45.294  20.678  26.656  1.00  0.00     0.212 HD
ENDBRANCH   7  18
ENDBRANCH   4   7
ENDBRANCH   2   3
ENDBRANCH   1   2
BRANCH   1  20
ATOM     20  C   UNL A   1      41.038  20.604  26.627  1.00  0.00     0.118 C 
BRANCH  20  21
ATOM     21  N   UNL A   1      39.677  20.829  26.153  1.00  0.00    -0.352 N 
ATOM     22  C   UNL A   1      38.882  21.949  26.207  1.00  0.00     0.251 C 
ATOM     23  H   UNL A   1      39.258  20.048  25.723  1.00  0.00     0.163 HD
ATOM     24  O   UNL A   1      37.700  21.864  25.882  1.00  0.00    -0.269 OA
BRANCH  22  25
ATOM     25  C   UNL A   1      39.427  23.236  26.689  1.00  0.00     0.039 A 
ATOM     26  C   UNL A   1      40.257  23.239  27.813  1.00  0.00     0.014 A 
ATOM     27  C   UNL A   1      39.138  24.434  26.031  1.00  0.00     0.014 A 
ATOM     28  C   UNL A   1      40.887  24.421  28.207  1.00  0.00     0.010 A 
ATOM     29  C   UNL A   1      39.822  25.597  26.380  1.00  0.00     0.010 A 
ATOM     30  C   UNL A   1      40.726  25.595  27.452  1.00  0.00    -0.014 A 
BRANCH  30  31
ATOM     31  C   UNL A   1      41.547  26.805  27.716  1.00  0.00     0.031 A 
ATOM     32  C   UNL A   1      41.004  27.940  28.533  1.00  0.00     0.074 A 
ATOM     33  C   UNL A   1      42.761  26.911  27.140  1.00  0.00     0.049 A 
ATOM     34  N   UNL A   1      41.527  29.117  28.762  1.00  0.00    -0.248 NA
ATOM     35  C   UNL A   1      39.688  27.732  29.154  1.00  0.00     0.031 C 
ATOM     36  C   UNL A   1      43.392  25.887  26.304  1.00  0.00     0.029 A 
ATOM     37  N   UNL A   1      43.679  27.930  27.166  1.00  0.00    -0.354 N 
ATOM     38  C   UNL A   1      40.605  29.796  29.551  1.00  0.00     0.074 A 
ATOM     39  C   UNL A   1      39.467  28.912  29.713  1.00  0.00     0.031 C 
ATOM     40  C   UNL A   1      44.607  26.313  25.929  1.00  0.00     0.029 A 
ATOM     41  C   UNL A   1      44.821  27.660  26.450  1.00  0.00     0.049 A 
ATOM     42  H   UNL A   1      43.534  28.774  27.651  1.00  0.00     0.167 HD
ATOM     43  C   UNL A   1      40.705  31.032  30.101  1.00  0.00     0.034 A 
ATOM     44  C   UNL A   1      45.915  28.412  26.224  1.00  0.00     0.034 A 
ATOM     45  C   UNL A   1      41.841  31.905  29.925  1.00  0.00     0.049 A 
ATOM     46  C   UNL A   1      45.991  29.794  26.805  1.00  0.00     0.074 A 
ATOM     47  C   UNL A   1      42.043  33.173  30.443  1.00  0.00     0.029 A 
ATOM     48  N   UNL A   1      42.969  31.603  29.171  1.00  0.00    -0.354 N 
ATOM     49  N   UNL A   1      45.098  30.435  27.523  1.00  0.00    -0.248 NA
ATOM     50  C   UNL A   1      47.221  30.552  26.547  1.00  0.00     0.031 C 
ATOM     51  C   UNL A   1      43.265  33.658  29.961  1.00  0.00     0.029 A 
ATOM     52  C   UNL A   1      43.861  32.666  29.200  1.00  0.00     0.049 A 
ATOM     53  H   UNL A   1      43.115  30.758  28.687  1.00  0.00     0.167 HD
ATOM     54  C   UNL A   1      45.670  31.666  27.825  1.00  0.00     0.074 A 
ATOM     55  C   UNL A   1      46.982  31.679  27.206  1.00  0.00     0.031 C 
ATOM     56  C   UNL A   1      45.157  32.683  28.562  1.00  0.00     0.034 A 
BRANCH  43  57
ATOM     57  C   UNL A   1      39.534  31.514  30.922  1.00  0.00     0.023 A 
ATOM     58  C   UNL A   1      39.554  31.464  32.327  1.00  0.00     0.031 A 
ATOM     59  C   UNL A   1      38.373  32.000  30.296  1.00  0.00     0.131 A 
ATOM     60  C   UNL A   1      38.411  31.824  33.057  1.00  0.00     0.055 A 
ATOM     61  C   UNL A   1      37.267  32.430  31.031  1.00  0.00     0.041 A 
ATOM     62  F   UNL A   1      38.290  32.052  28.957  1.00  0.00    -0.206 F 
ATOM     63  C   UNL A   1      37.276  32.330  32.420  1.00  0.00     0.022 A 
BRANCH  60  64
ATOM     64  S   UNL A   1      38.386  31.502  34.841  1.00  0.00     0.124 S 
ATOM     65  O   UNL A   1      37.184  32.224  35.251  1.00  0.00    -0.237 OA
ATOM     66  O   UNL A   1      38.309  30.047  34.900  1.00  0.00    -0.237 OA
ATOM     67  O   UNL A   1      39.643  32.080  35.312  1.00  0.00    -0.744 OA
ENDBRANCH  60  64
ENDBRANCH  43  57
BRANCH  44  68
ATOM     68  C   UNL A   1      47.029  27.850  25.418  1.00  0.00     0.023 A 
ATOM     69  C   UNL A   1      47.097  28.081  24.037  1.00  0.00     0.031 A 
ATOM     70  C   UNL A   1      48.069  27.127  26.027  1.00  0.00     0.131 A 
ATOM     71  C   UNL A   1      48.186  27.588  23.303  1.00  0.00     0.055 A 
ATOM     72  C   UNL A   1      49.164  26.662  25.298  1.00  0.00     0.041 A 
ATOM     73  F   UNL A   1      48.054  26.902  27.351  1.00  0.00    -0.206 F 
ATOM     74  C   UNL A   1      49.226  26.892  23.926  1.00  0.00     0.022 A 
BRANCH  71  75
ATOM     75  S   UNL A   1      48.244  27.890  21.515  1.00  0.00     0.124 S 
ATOM     76  O   UNL A   1      46.884  28.347  21.249  1.00  0.00    -0.237 OA
ATOM     77  O   UNL A   1      49.294  28.897  21.406  1.00  0.00    -0.237 OA
ATOM     78  O   UNL A   1      48.584  26.582  20.962  1.00  0.00    -0.744 OA
ENDBRANCH  71  75
ENDBRANCH  44  68
BRANCH  56  79
ATOM     79  C   UNL A   1      46.039  33.884  28.781  1.00  0.00     0.023 A 
ATOM     80  C   UNL A   1      45.960  35.025  27.964  1.00  0.00     0.031 A 
ATOM     81  C   UNL A   1      46.967  33.888  29.839  1.00  0.00     0.131 A 
ATOM     82  C   UNL A   1      46.822  36.109  28.195  1.00  0.00     0.055 A 
ATOM     83  C   UNL A   1      47.788  34.987  30.092  1.00  0.00     0.041 A 
ATOM     84  F   UNL A   1      47.083  32.822  30.647  1.00  0.00    -0.206 F 
ATOM     85  C   UNL A   1      47.723  36.102  29.264  1.00  0.00     0.022 A 
BRANCH  82  86
ATOM     86  S   UNL A   1      46.790  37.512  27.045  1.00  0.00     0.124 S 
ATOM     87  O   UNL A   1      47.439  38.558  27.829  1.00  0.00    -0.237 OA
ATOM     88  O   UNL A   1      47.548  37.004  25.907  1.00  0.00    -0.237 OA
ATOM     89  O   UNL A   1      45.364  37.719  26.797  1.00  0.00    -0.744 OA
ENDBRANCH  82  86
ENDBRANCH  56  79
ENDBRANCH  30  31
ENDBRANCH  22  25
ENDBRANCH  20  21
ENDBRANCH   1  20
TORSDOF 16
ENDMDL
