MODEL 1
REMARK VINA RESULT:     -14.2      0.000      0.000
REMARK SMILES Cc1ccc(S(=O)(=O)n2cc(C(=O)C(=O)N[C@@H](Cc3cnc[nH]3)C(=O)NCCCNC(=O)c3ccc(-c4c5nc(c(-c6cc(S(=O)(=O)[O-])ccc6F)c6ccc([nH]6)c(-c6cc(S(=O)(=O)[O-])ccc6F)c6nc(c(-c7cc(S(=O)(=O)[O-])ccc7F)c7ccc4[nH]7)C=C6)C=C5)cc3)c3ccccc32)cc1
REMARK SMILES IDX 27 1 26 2 24 3 25 4 17 6 16 7 14 8 15 9 12 11 13 12 11 13
REMARK SMILES IDX 9 14 10 15 101 16 96 17 100 18 97 19 99 20 98 21 6 22 7 23
REMARK SMILES IDX 8 24 5 25 1 26 2 27 3 28 103 29 4 30 102 31 18 32 19 33
REMARK SMILES IDX 20 34 23 35 21 36 22 37 28 39 29 40 30 41 31 42 32 44 33 45
REMARK SMILES IDX 34 46 95 47 35 48 94 49 36 50 37 51 38 52 88 53 39 54 93 55
REMARK SMILES IDX 87 56 89 57 40 58 92 59 86 60 85 61 41 63 73 64 53 65 72 66
REMARK SMILES IDX 54 67 57 68 71 69 90 70 55 71 56 72 70 74 91 75 58 76 42 77
REMARK SMILES IDX 43 78 51 79 44 80 50 81 52 82 49 83 45 84 46 85 47 86 48 87
REMARK SMILES IDX 74 88 75 89 83 90 76 91 82 92 84 93 81 94 77 95 78 96 79 97
REMARK SMILES IDX 80 98 59 99 60 100 68 101 61 102 67 103 69 104 66 105 62 106
REMARK SMILES IDX 63 107 64 108 65 109
REMARK H PARENT 26 5 16 10 23 38 30 43 89 62 57 73
REMARK Flexibility Score: inf
ROOT
ATOM      1  C   UNL A   1      33.048  29.980  25.705  1.00  0.00     0.117 C 
ENDROOT
BRANCH   1   2
ATOM      2  N   UNL A   1      33.258  29.621  24.319  1.00  0.00    -0.354 N 
ATOM      3  C   UNL A   1      32.451  28.904  23.483  1.00  0.00     0.242 C 
ATOM      4  O   UNL A   1      32.691  28.960  22.273  1.00  0.00    -0.273 OA
ATOM      5  H   UNL A   1      34.101  29.939  23.923  1.00  0.00     0.163 HD
BRANCH   3   6
ATOM      6  C   UNL A   1      31.261  28.048  23.993  1.00  0.00     0.177 C 
BRANCH   6   7
ATOM      7  N   UNL A   1      31.116  28.159  25.457  1.00  0.00    -0.337 N 
ATOM      8  C   UNL A   1      31.048  27.176  26.433  1.00  0.00     0.293 C 
ATOM      9  O   UNL A   1      31.188  27.518  27.605  1.00  0.00    -0.265 OA
ATOM     10  H   UNL A   1      31.057  29.081  25.796  1.00  0.00     0.164 HD
BRANCH   8  11
ATOM     11  C   UNL A   1      30.746  25.686  26.092  1.00  0.00     0.252 C 
ATOM     12  O   UNL A   1      29.594  25.282  26.202  1.00  0.00    -0.283 OA
BRANCH  11  13
ATOM     13  C   UNL A   1      31.803  24.722  25.713  1.00  0.00     0.054 A 
ATOM     14  N   UNL A   1      33.363  23.118  25.737  1.00  0.00    -0.240 N 
ATOM     15  C   UNL A   1      32.553  23.891  26.530  1.00  0.00     0.117 A 
ATOM     16  C   UNL A   1      33.183  23.405  24.401  1.00  0.00     0.065 A 
ATOM     17  C   UNL A   1      32.246  24.446  24.362  1.00  0.00     0.012 A 
ATOM     18  C   UNL A   1      33.757  22.875  23.229  1.00  0.00     0.028 A 
ATOM     19  C   UNL A   1      31.908  24.988  23.100  1.00  0.00     0.011 A 
ATOM     20  C   UNL A   1      33.402  23.437  22.001  1.00  0.00     0.002 A 
ATOM     21  C   UNL A   1      32.495  24.486  21.935  1.00  0.00     0.001 A 
BRANCH  14  22
ATOM     22  S   UNL A   1      34.446  21.942  26.329  1.00  0.00     0.268 S 
ATOM     23  O   UNL A   1      34.090  21.754  27.714  1.00  0.00    -0.201 OA
ATOM     24  O   UNL A   1      35.778  22.388  25.931  1.00  0.00    -0.201 OA
BRANCH  22  25
ATOM     25  C   UNL A   1      34.138  20.413  25.481  1.00  0.00     0.088 A 
ATOM     26  C   UNL A   1      33.679  16.572  23.593  1.00  0.00     0.044 C 
ATOM     27  C   UNL A   1      33.832  17.915  24.243  1.00  0.00    -0.051 A 
ATOM     28  C   UNL A   1      35.104  18.484  24.378  1.00  0.00     0.005 A 
ATOM     29  C   UNL A   1      32.716  18.623  24.706  1.00  0.00     0.005 A 
ATOM     30  C   UNL A   1      35.259  19.725  25.000  1.00  0.00     0.022 A 
ATOM     31  C   UNL A   1      32.862  19.874  25.315  1.00  0.00     0.022 A 
ENDBRANCH  22  25
ENDBRANCH  14  22
ENDBRANCH  11  13
ENDBRANCH   8  11
ENDBRANCH   6   7
BRANCH   6  32
ATOM     32  C   UNL A   1      29.947  28.134  23.175  1.00  0.00     0.090 C 
BRANCH  32  33
ATOM     33  C   UNL A   1      29.152  29.397  23.239  1.00  0.00     0.037 A 
ATOM     34  C   UNL A   1      27.800  29.650  23.095  1.00  0.00     0.134 A 
ATOM     35  N   UNL A   1      29.702  30.632  23.526  1.00  0.00    -0.348 N 
ATOM     36  N   UNL A   1      27.512  30.955  23.395  1.00  0.00    -0.245 NA
ATOM     37  C   UNL A   1      28.668  31.520  23.663  1.00  0.00     0.196 A 
ATOM     38  H   UNL A   1      30.661  30.836  23.615  1.00  0.00     0.167 HD
ENDBRANCH  32  33
ENDBRANCH   6  32
ENDBRANCH   3   6
ENDBRANCH   1   2
BRANCH   1  39
ATOM     39  C   UNL A   1      34.192  29.661  26.639  1.00  0.00     0.042 C 
BRANCH  39  40
ATOM     40  C   UNL A   1      34.015  30.327  27.984  1.00  0.00     0.118 C 
BRANCH  40  41
ATOM     41  N   UNL A   1      34.946  31.417  28.288  1.00  0.00    -0.352 N 
ATOM     42  C   UNL A   1      36.271  31.331  28.704  1.00  0.00     0.251 C 
ATOM     43  H   UNL A   1      34.587  32.329  28.186  1.00  0.00     0.163 HD
ATOM     44  O   UNL A   1      36.913  32.335  28.997  1.00  0.00    -0.269 OA
BRANCH  42  45
ATOM     45  C   UNL A   1      36.942  30.008  28.679  1.00  0.00     0.039 A 
ATOM     46  C   UNL A   1      37.066  29.299  29.881  1.00  0.00     0.014 A 
ATOM     47  C   UNL A   1      37.718  29.668  27.584  1.00  0.00     0.014 A 
ATOM     48  C   UNL A   1      38.170  28.469  30.062  1.00  0.00     0.010 A 
ATOM     49  C   UNL A   1      38.909  29.034  27.831  1.00  0.00     0.010 A 
ATOM     50  C   UNL A   1      39.156  28.462  29.082  1.00  0.00    -0.014 A 
BRANCH  50  51
ATOM     51  C   UNL A   1      40.510  27.953  29.259  1.00  0.00     0.031 A 
ATOM     52  C   UNL A   1      40.834  26.597  28.764  1.00  0.00     0.074 A 
ATOM     53  C   UNL A   1      41.485  28.784  29.693  1.00  0.00     0.049 A 
ATOM     54  N   UNL A   1      41.915  25.963  29.043  1.00  0.00    -0.248 NA
ATOM     55  C   UNL A   1      39.930  25.822  27.916  1.00  0.00     0.031 C 
ATOM     56  C   UNL A   1      42.929  28.588  29.594  1.00  0.00     0.029 A 
ATOM     57  N   UNL A   1      41.346  29.889  30.534  1.00  0.00    -0.354 N 
ATOM     58  C   UNL A   1      41.984  24.853  28.233  1.00  0.00     0.074 A 
ATOM     59  C   UNL A   1      40.711  24.798  27.563  1.00  0.00     0.031 C 
ATOM     60  C   UNL A   1      43.536  29.331  30.533  1.00  0.00     0.029 A 
ATOM     61  C   UNL A   1      42.494  29.912  31.357  1.00  0.00     0.049 A 
ATOM     62  H   UNL A   1      40.596  30.526  30.552  1.00  0.00     0.167 HD
ATOM     63  C   UNL A   1      43.160  24.174  28.157  1.00  0.00     0.034 A 
ATOM     64  C   UNL A   1      42.384  29.755  32.708  1.00  0.00     0.034 A 
ATOM     65  C   UNL A   1      44.126  24.711  29.114  1.00  0.00     0.049 A 
ATOM     66  C   UNL A   1      43.080  28.510  33.224  1.00  0.00     0.074 A 
ATOM     67  C   UNL A   1      45.184  25.597  29.008  1.00  0.00     0.029 A 
ATOM     68  N   UNL A   1      43.857  24.577  30.470  1.00  0.00    -0.354 N 
ATOM     69  N   UNL A   1      43.480  27.527  32.462  1.00  0.00    -0.248 NA
ATOM     70  C   UNL A   1      43.394  28.276  34.630  1.00  0.00     0.031 C 
ATOM     71  C   UNL A   1      45.503  26.051  30.316  1.00  0.00     0.029 A 
ATOM     72  C   UNL A   1      44.667  25.409  31.214  1.00  0.00     0.049 A 
ATOM     73  H   UNL A   1      43.181  23.969  30.848  1.00  0.00     0.167 HD
ATOM     74  C   UNL A   1      44.081  26.553  33.224  1.00  0.00     0.074 A 
ATOM     75  C   UNL A   1      44.014  27.082  34.575  1.00  0.00     0.031 C 
ATOM     76  C   UNL A   1      44.571  25.400  32.668  1.00  0.00     0.034 A 
BRANCH  63  77
ATOM     77  C   UNL A   1      43.529  23.188  27.075  1.00  0.00     0.023 A 
ATOM     78  C   UNL A   1      42.945  21.905  27.112  1.00  0.00     0.031 A 
ATOM     79  C   UNL A   1      44.446  23.403  26.030  1.00  0.00     0.131 A 
ATOM     80  C   UNL A   1      43.326  20.895  26.210  1.00  0.00     0.055 A 
ATOM     81  C   UNL A   1      44.865  22.386  25.162  1.00  0.00     0.041 A 
ATOM     82  F   UNL A   1      44.939  24.617  25.757  1.00  0.00    -0.206 F 
ATOM     83  C   UNL A   1      44.310  21.119  25.253  1.00  0.00     0.022 A 
BRANCH  80  84
ATOM     84  S   UNL A   1      42.511  19.279  26.310  1.00  0.00     0.124 S 
ATOM     85  O   UNL A   1      42.019  19.266  27.683  1.00  0.00    -0.237 OA
ATOM     86  O   UNL A   1      41.503  19.375  25.261  1.00  0.00    -0.237 OA
ATOM     87  O   UNL A   1      43.596  18.336  26.036  1.00  0.00    -0.744 OA
ENDBRANCH  80  84
ENDBRANCH  63  77
BRANCH  64  88
ATOM     88  C   UNL A   1      41.144  30.395  33.242  1.00  0.00     0.023 A 
ATOM     89  C   UNL A   1      41.148  31.809  33.305  1.00  0.00     0.031 A 
ATOM     90  C   UNL A   1      39.902  29.748  33.210  1.00  0.00     0.131 A 
ATOM     91  C   UNL A   1      39.958  32.532  33.132  1.00  0.00     0.055 A 
ATOM     92  C   UNL A   1      38.707  30.478  33.119  1.00  0.00     0.041 A 
ATOM     93  F   UNL A   1      39.830  28.411  33.110  1.00  0.00    -0.206 F 
ATOM     94  C   UNL A   1      38.734  31.873  33.025  1.00  0.00     0.022 A 
BRANCH  91  95
ATOM     95  S   UNL A   1      40.081  34.313  32.771  1.00  0.00     0.124 S 
ATOM     96  O   UNL A   1      39.043  34.496  31.763  1.00  0.00    -0.237 OA
ATOM     97  O   UNL A   1      39.818  34.930  34.070  1.00  0.00    -0.237 OA
ATOM     98  O   UNL A   1      41.452  34.488  32.299  1.00  0.00    -0.744 OA
ENDBRANCH  91  95
ENDBRANCH  64  88
BRANCH  76  99
ATOM     99  C   UNL A   1      45.053  24.158  33.402  1.00  0.00     0.023 A 
ATOM    100  C   UNL A   1      46.350  24.005  33.907  1.00  0.00     0.031 A 
ATOM    101  C   UNL A   1      44.158  23.096  33.702  1.00  0.00     0.131 A 
ATOM    102  C   UNL A   1      46.727  22.842  34.608  1.00  0.00     0.055 A 
ATOM    103  C   UNL A   1      44.510  21.985  34.475  1.00  0.00     0.041 A 
ATOM    104  F   UNL A   1      42.889  23.087  33.268  1.00  0.00    -0.206 F 
ATOM    105  C   UNL A   1      45.809  21.845  34.924  1.00  0.00     0.022 A 
BRANCH 102 106
ATOM    106  S   UNL A   1      48.474  22.632  35.041  1.00  0.00     0.124 S 
ATOM    107  O   UNL A   1      49.059  23.867  34.525  1.00  0.00    -0.237 OA
ATOM    108  O   UNL A   1      48.424  22.516  36.496  1.00  0.00    -0.237 OA
ATOM    109  O   UNL A   1      48.863  21.416  34.332  1.00  0.00    -0.744 OA
ENDBRANCH 102 106
ENDBRANCH  76  99
ENDBRANCH  50  51
ENDBRANCH  42  45
ENDBRANCH  40  41
ENDBRANCH  39  40
ENDBRANCH   1  39
TORSDOF 20
ENDMDL
MODEL 2
REMARK VINA RESULT:     -13.6      1.678      2.792
REMARK SMILES Cc1ccc(S(=O)(=O)n2cc(C(=O)C(=O)N[C@@H](Cc3cnc[nH]3)C(=O)NCCCNC(=O)c3ccc(-c4c5nc(c(-c6cc(S(=O)(=O)[O-])ccc6F)c6ccc([nH]6)c(-c6cc(S(=O)(=O)[O-])ccc6F)c6nc(c(-c7cc(S(=O)(=O)[O-])ccc7F)c7ccc4[nH]7)C=C6)C=C5)cc3)c3ccccc32)cc1
REMARK SMILES IDX 27 1 26 2 24 3 25 4 17 6 16 7 14 8 15 9 12 11 13 12 11 13
REMARK SMILES IDX 9 14 10 15 101 16 96 17 100 18 97 19 99 20 98 21 6 22 7 23
REMARK SMILES IDX 8 24 5 25 1 26 2 27 3 28 103 29 4 30 102 31 18 32 19 33
REMARK SMILES IDX 20 34 23 35 21 36 22 37 28 39 29 40 30 41 31 42 32 44 33 45
REMARK SMILES IDX 34 46 95 47 35 48 94 49 36 50 37 51 38 52 88 53 39 54 93 55
REMARK SMILES IDX 87 56 89 57 40 58 92 59 86 60 85 61 41 63 73 64 53 65 72 66
REMARK SMILES IDX 54 67 57 68 71 69 90 70 55 71 56 72 70 74 91 75 58 76 42 77
REMARK SMILES IDX 43 78 51 79 44 80 50 81 52 82 49 83 45 84 46 85 47 86 48 87
REMARK SMILES IDX 74 88 75 89 83 90 76 91 82 92 84 93 81 94 77 95 78 96 79 97
REMARK SMILES IDX 80 98 59 99 60 100 68 101 61 102 67 103 69 104 66 105 62 106
REMARK SMILES IDX 63 107 64 108 65 109
REMARK H PARENT 26 5 16 10 23 38 30 43 89 62 57 73
REMARK Flexibility Score: inf
ROOT
ATOM      1  C   UNL A   1      33.188  30.252  26.832  1.00  0.00     0.117 C 
ENDROOT
BRANCH   1   2
ATOM      2  N   UNL A   1      32.127  29.507  27.473  1.00  0.00    -0.354 N 
ATOM      3  C   UNL A   1      31.567  28.316  27.107  1.00  0.00     0.242 C 
ATOM      4  O   UNL A   1      30.879  27.728  27.947  1.00  0.00    -0.273 OA
ATOM      5  H   UNL A   1      31.755  29.915  28.287  1.00  0.00     0.163 HD
BRANCH   3   6
ATOM      6  C   UNL A   1      31.773  27.687  25.704  1.00  0.00     0.177 C 
BRANCH   6   7
ATOM      7  N   UNL A   1      31.057  28.454  24.667  1.00  0.00    -0.337 N 
ATOM      8  C   UNL A   1      29.918  28.141  23.940  1.00  0.00     0.293 C 
ATOM      9  O   UNL A   1      29.363  29.046  23.321  1.00  0.00    -0.265 OA
ATOM     10  H   UNL A   1      31.452  29.331  24.458  1.00  0.00     0.164 HD
BRANCH   8  11
ATOM     11  C   UNL A   1      29.368  26.686  23.841  1.00  0.00     0.252 C 
ATOM     12  O   UNL A   1      28.155  26.521  23.800  1.00  0.00    -0.283 OA
BRANCH  11  13
ATOM     13  C   UNL A   1      30.246  25.495  23.867  1.00  0.00     0.054 A 
ATOM     14  N   UNL A   1      31.768  23.931  23.372  1.00  0.00    -0.240 N 
ATOM     15  C   UNL A   1      31.102  25.026  22.883  1.00  0.00     0.117 A 
ATOM     16  C   UNL A   1      31.384  23.643  24.664  1.00  0.00     0.065 A 
ATOM     17  C   UNL A   1      30.390  24.579  24.980  1.00  0.00     0.012 A 
ATOM     18  C   UNL A   1      31.789  22.650  25.577  1.00  0.00     0.028 A 
ATOM     19  C   UNL A   1      29.767  24.483  26.245  1.00  0.00     0.011 A 
ATOM     20  C   UNL A   1      31.149  22.584  26.816  1.00  0.00     0.002 A 
ATOM     21  C   UNL A   1      30.144  23.483  27.146  1.00  0.00     0.001 A 
BRANCH  14  22
ATOM     22  S   UNL A   1      32.933  23.046  22.497  1.00  0.00     0.268 S 
ATOM     23  O   UNL A   1      33.281  23.878  21.371  1.00  0.00    -0.201 OA
ATOM     24  O   UNL A   1      32.373  21.710  22.322  1.00  0.00    -0.201 OA
BRANCH  22  25
ATOM     25  C   UNL A   1      34.384  22.871  23.505  1.00  0.00     0.088 A 
ATOM     26  C   UNL A   1      37.962  22.134  25.781  1.00  0.00     0.044 C 
ATOM     27  C   UNL A   1      36.711  22.399  24.996  1.00  0.00    -0.051 A 
ATOM     28  C   UNL A   1      35.814  21.355  24.740  1.00  0.00     0.005 A 
ATOM     29  C   UNL A   1      36.416  23.684  24.524  1.00  0.00     0.005 A 
ATOM     30  C   UNL A   1      34.658  21.587  23.992  1.00  0.00     0.022 A 
ATOM     31  C   UNL A   1      35.250  23.927  23.788  1.00  0.00     0.022 A 
ENDBRANCH  22  25
ENDBRANCH  14  22
ENDBRANCH  11  13
ENDBRANCH   8  11
ENDBRANCH   6   7
BRANCH   6  32
ATOM     32  C   UNL A   1      33.218  27.252  25.346  1.00  0.00     0.090 C 
BRANCH  32  33
ATOM     33  C   UNL A   1      33.741  27.576  23.986  1.00  0.00     0.037 A 
ATOM     34  C   UNL A   1      33.682  26.898  22.783  1.00  0.00     0.134 A 
ATOM     35  N   UNL A   1      34.398  28.754  23.680  1.00  0.00    -0.348 N 
ATOM     36  N   UNL A   1      34.172  27.667  21.761  1.00  0.00    -0.245 NA
ATOM     37  C   UNL A   1      34.583  28.782  22.324  1.00  0.00     0.196 A 
ATOM     38  H   UNL A   1      34.680  29.446  24.322  1.00  0.00     0.167 HD
ENDBRANCH  32  33
ENDBRANCH   6  32
ENDBRANCH   3   6
ENDBRANCH   1   2
BRANCH   1  39
ATOM     39  C   UNL A   1      34.535  30.182  27.514  1.00  0.00     0.042 C 
BRANCH  39  40
ATOM     40  C   UNL A   1      35.226  31.526  27.521  1.00  0.00     0.118 C 
BRANCH  40  41
ATOM     41  N   UNL A   1      35.689  32.004  28.826  1.00  0.00    -0.352 N 
ATOM     42  C   UNL A   1      36.527  31.362  29.734  1.00  0.00     0.251 C 
ATOM     43  H   UNL A   1      35.365  32.894  29.097  1.00  0.00     0.163 HD
ATOM     44  O   UNL A   1      36.771  31.853  30.831  1.00  0.00    -0.269 OA
BRANCH  42  45
ATOM     45  C   UNL A   1      37.218  30.120  29.312  1.00  0.00     0.039 A 
ATOM     46  C   UNL A   1      37.220  29.025  30.185  1.00  0.00     0.014 A 
ATOM     47  C   UNL A   1      38.117  30.175  28.259  1.00  0.00     0.014 A 
ATOM     48  C   UNL A   1      38.309  28.158  30.177  1.00  0.00     0.010 A 
ATOM     49  C   UNL A   1      39.283  29.466  28.392  1.00  0.00     0.010 A 
ATOM     50  C   UNL A   1      39.399  28.478  29.375  1.00  0.00    -0.014 A 
BRANCH  50  51
ATOM     51  C   UNL A   1      40.733  27.907  29.505  1.00  0.00     0.031 A 
ATOM     52  C   UNL A   1      40.981  26.545  28.982  1.00  0.00     0.074 A 
ATOM     53  C   UNL A   1      41.756  28.686  29.921  1.00  0.00     0.049 A 
ATOM     54  N   UNL A   1      42.040  25.859  29.221  1.00  0.00    -0.248 NA
ATOM     55  C   UNL A   1      40.020  25.823  28.151  1.00  0.00     0.031 C 
ATOM     56  C   UNL A   1      43.187  28.428  29.777  1.00  0.00     0.029 A 
ATOM     57  N   UNL A   1      41.691  29.784  30.781  1.00  0.00    -0.354 N 
ATOM     58  C   UNL A   1      42.036  24.759  28.395  1.00  0.00     0.074 A 
ATOM     59  C   UNL A   1      40.743  24.771  27.762  1.00  0.00     0.031 C 
ATOM     60  C   UNL A   1      43.853  29.129  30.708  1.00  0.00     0.029 A 
ATOM     61  C   UNL A   1      42.862  29.744  31.570  1.00  0.00     0.049 A 
ATOM     62  H   UNL A   1      40.971  30.454  30.829  1.00  0.00     0.167 HD
ATOM     63  C   UNL A   1      43.178  24.030  28.275  1.00  0.00     0.034 A 
ATOM     64  C   UNL A   1      42.784  29.572  32.922  1.00  0.00     0.034 A 
ATOM     65  C   UNL A   1      44.193  24.508  29.211  1.00  0.00     0.049 A 
ATOM     66  C   UNL A   1      43.438  28.290  33.400  1.00  0.00     0.074 A 
ATOM     67  C   UNL A   1      45.287  25.348  29.086  1.00  0.00     0.029 A 
ATOM     68  N   UNL A   1      43.958  24.367  30.572  1.00  0.00    -0.354 N 
ATOM     69  N   UNL A   1      43.771  27.301  32.614  1.00  0.00    -0.248 NA
ATOM     70  C   UNL A   1      43.781  28.021  34.793  1.00  0.00     0.031 C 
ATOM     71  C   UNL A   1      45.663  25.768  30.390  1.00  0.00     0.029 A 
ATOM     72  C   UNL A   1      44.825  25.151  31.304  1.00  0.00     0.049 A 
ATOM     73  H   UNL A   1      43.266  23.784  30.962  1.00  0.00     0.167 HD
ATOM     74  C   UNL A   1      44.349  26.291  33.345  1.00  0.00     0.074 A 
ATOM     75  C   UNL A   1      44.345  26.802  34.704  1.00  0.00     0.031 C 
ATOM     76  C   UNL A   1      44.770  25.125  32.759  1.00  0.00     0.034 A 
BRANCH  63  77
ATOM     77  C   UNL A   1      43.471  23.044  27.171  1.00  0.00     0.023 A 
ATOM     78  C   UNL A   1      42.819  21.793  27.199  1.00  0.00     0.031 A 
ATOM     79  C   UNL A   1      44.376  23.228  26.110  1.00  0.00     0.131 A 
ATOM     80  C   UNL A   1      43.127  20.780  26.273  1.00  0.00     0.055 A 
ATOM     81  C   UNL A   1      44.722  22.204  25.216  1.00  0.00     0.041 A 
ATOM     82  F   UNL A   1      44.928  24.418  25.846  1.00  0.00    -0.206 F 
ATOM     83  C   UNL A   1      44.102  20.967  25.299  1.00  0.00     0.022 A 
BRANCH  80  84
ATOM     84  S   UNL A   1      42.229  19.208  26.365  1.00  0.00     0.124 S 
ATOM     85  O   UNL A   1      43.048  18.335  25.531  1.00  0.00    -0.237 OA
ATOM     86  O   UNL A   1      42.237  18.930  27.796  1.00  0.00    -0.237 OA
ATOM     87  O   UNL A   1      40.916  19.537  25.809  1.00  0.00    -0.744 OA
ENDBRANCH  80  84
ENDBRANCH  63  77
BRANCH  64  88
ATOM     88  C   UNL A   1      41.590  30.259  33.500  1.00  0.00     0.023 A 
ATOM     89  C   UNL A   1      41.671  31.667  33.610  1.00  0.00     0.031 A 
ATOM     90  C   UNL A   1      40.314  29.681  33.471  1.00  0.00     0.131 A 
ATOM     91  C   UNL A   1      40.519  32.459  33.483  1.00  0.00     0.055 A 
ATOM     92  C   UNL A   1      39.159  30.476  33.426  1.00  0.00     0.041 A 
ATOM     93  F   UNL A   1      40.168  28.354  33.328  1.00  0.00    -0.206 F 
ATOM     94  C   UNL A   1      39.260  31.870  33.378  1.00  0.00     0.022 A 
BRANCH  91  95
ATOM     95  S   UNL A   1      40.732  34.241  33.179  1.00  0.00     0.124 S 
ATOM     96  O   UNL A   1      41.724  34.610  34.183  1.00  0.00    -0.237 OA
ATOM     97  O   UNL A   1      41.190  34.286  31.790  1.00  0.00    -0.237 OA
ATOM     98  O   UNL A   1      39.398  34.801  33.381  1.00  0.00    -0.744 OA
ENDBRANCH  91  95
ENDBRANCH  64  88
BRANCH  76  99
ATOM     99  C   UNL A   1      45.217  23.853  33.462  1.00  0.00     0.023 A 
ATOM    100  C   UNL A   1      46.517  23.639  33.938  1.00  0.00     0.031 A 
ATOM    101  C   UNL A   1      44.286  22.821  33.764  1.00  0.00     0.131 A 
ATOM    102  C   UNL A   1      46.861  22.449  34.611  1.00  0.00     0.055 A 
ATOM    103  C   UNL A   1      44.608  21.684  34.510  1.00  0.00     0.041 A 
ATOM    104  F   UNL A   1      43.010  22.871  33.356  1.00  0.00    -0.206 F 
ATOM    105  C   UNL A   1      45.910  21.484  34.929  1.00  0.00     0.022 A 
BRANCH 102 106
ATOM    106  S   UNL A   1      48.606  22.163  35.005  1.00  0.00     0.124 S 
ATOM    107  O   UNL A   1      48.822  20.829  34.449  1.00  0.00    -0.237 OA
ATOM    108  O   UNL A   1      49.269  23.256  34.300  1.00  0.00    -0.237 OA
ATOM    109  O   UNL A   1      48.651  22.243  36.463  1.00  0.00    -0.744 OA
ENDBRANCH 102 106
ENDBRANCH  76  99
ENDBRANCH  50  51
ENDBRANCH  42  45
ENDBRANCH  40  41
ENDBRANCH  39  40
ENDBRANCH   1  39
TORSDOF 20
ENDMDL
MODEL 3
REMARK VINA RESULT:     -13.5      2.859      4.343
REMARK SMILES Cc1ccc(S(=O)(=O)n2cc(C(=O)C(=O)N[C@@H](Cc3cnc[nH]3)C(=O)NCCCNC(=O)c3ccc(-c4c5nc(c(-c6cc(S(=O)(=O)[O-])ccc6F)c6ccc([nH]6)c(-c6cc(S(=O)(=O)[O-])ccc6F)c6nc(c(-c7cc(S(=O)(=O)[O-])ccc7F)c7ccc4[nH]7)C=C6)C=C5)cc3)c3ccccc32)cc1
REMARK SMILES IDX 27 1 26 2 24 3 25 4 17 6 16 7 14 8 15 9 12 11 13 12 11 13
REMARK SMILES IDX 9 14 10 15 101 16 96 17 100 18 97 19 99 20 98 21 6 22 7 23
REMARK SMILES IDX 8 24 5 25 1 26 2 27 3 28 103 29 4 30 102 31 18 32 19 33
REMARK SMILES IDX 20 34 23 35 21 36 22 37 28 39 29 40 30 41 31 42 32 44 33 45
REMARK SMILES IDX 34 46 95 47 35 48 94 49 36 50 37 51 38 52 88 53 39 54 93 55
REMARK SMILES IDX 87 56 89 57 40 58 92 59 86 60 85 61 41 63 73 64 53 65 72 66
REMARK SMILES IDX 54 67 57 68 71 69 90 70 55 71 56 72 70 74 91 75 58 76 42 77
REMARK SMILES IDX 43 78 51 79 44 80 50 81 52 82 49 83 45 84 46 85 47 86 48 87
REMARK SMILES IDX 74 88 75 89 83 90 76 91 82 92 84 93 81 94 77 95 78 96 79 97
REMARK SMILES IDX 80 98 59 99 60 100 68 101 61 102 67 103 69 104 66 105 62 106
REMARK SMILES IDX 63 107 64 108 65 109
REMARK H PARENT 26 5 16 10 23 38 30 43 89 62 57 73
REMARK Flexibility Score: inf
ROOT
ATOM      1  C   UNL A   1      32.997  30.451  26.779  1.00  0.00     0.117 C 
ENDROOT
BRANCH   1   2
ATOM      2  N   UNL A   1      32.040  29.613  27.467  1.00  0.00    -0.354 N 
ATOM      3  C   UNL A   1      31.586  28.369  27.131  1.00  0.00     0.242 C 
ATOM      4  O   UNL A   1      30.992  27.726  28.003  1.00  0.00    -0.273 OA
ATOM      5  H   UNL A   1      31.661  29.992  28.292  1.00  0.00     0.163 HD
BRANCH   3   6
ATOM      6  C   UNL A   1      31.798  27.748  25.726  1.00  0.00     0.177 C 
BRANCH   6   7
ATOM      7  N   UNL A   1      31.046  28.491  24.697  1.00  0.00    -0.337 N 
ATOM      8  C   UNL A   1      29.911  28.141  23.981  1.00  0.00     0.293 C 
ATOM      9  O   UNL A   1      29.320  29.027  23.369  1.00  0.00    -0.265 OA
ATOM     10  H   UNL A   1      31.409  29.381  24.485  1.00  0.00     0.164 HD
BRANCH   8  11
ATOM     11  C   UNL A   1      29.409  26.669  23.887  1.00  0.00     0.252 C 
ATOM     12  O   UNL A   1      28.202  26.463  23.850  1.00  0.00    -0.283 OA
BRANCH  11  13
ATOM     13  C   UNL A   1      30.326  25.507  23.911  1.00  0.00     0.054 A 
ATOM     14  N   UNL A   1      31.927  24.017  23.434  1.00  0.00    -0.240 N 
ATOM     15  C   UNL A   1      31.248  25.110  22.955  1.00  0.00     0.117 A 
ATOM     16  C   UNL A   1      31.486  23.662  24.691  1.00  0.00     0.065 A 
ATOM     17  C   UNL A   1      30.445  24.550  24.991  1.00  0.00     0.012 A 
ATOM     18  C   UNL A   1      31.878  22.645  25.583  1.00  0.00     0.028 A 
ATOM     19  C   UNL A   1      29.760  24.379  26.216  1.00  0.00     0.011 A 
ATOM     20  C   UNL A   1      31.177  22.504  26.782  1.00  0.00     0.002 A 
ATOM     21  C   UNL A   1      30.125  23.354  27.094  1.00  0.00     0.001 A 
BRANCH  14  22
ATOM     22  S   UNL A   1      33.167  23.210  22.587  1.00  0.00     0.268 S 
ATOM     23  O   UNL A   1      33.338  23.949  21.360  1.00  0.00    -0.201 OA
ATOM     24  O   UNL A   1      32.798  21.798  22.589  1.00  0.00    -0.201 OA
BRANCH  22  25
ATOM     25  C   UNL A   1      34.671  23.354  23.517  1.00  0.00     0.088 A 
ATOM     26  C   UNL A   1      38.118  23.701  26.073  1.00  0.00     0.044 C 
ATOM     27  C   UNL A   1      36.923  23.584  25.173  1.00  0.00    -0.051 A 
ATOM     28  C   UNL A   1      35.770  24.330  25.444  1.00  0.00     0.005 A 
ATOM     29  C   UNL A   1      36.946  22.748  24.050  1.00  0.00     0.005 A 
ATOM     30  C   UNL A   1      34.645  24.212  24.625  1.00  0.00     0.022 A 
ATOM     31  C   UNL A   1      35.829  22.637  23.215  1.00  0.00     0.022 A 
ENDBRANCH  22  25
ENDBRANCH  14  22
ENDBRANCH  11  13
ENDBRANCH   8  11
ENDBRANCH   6   7
BRANCH   6  32
ATOM     32  C   UNL A   1      33.253  27.362  25.352  1.00  0.00     0.090 C 
BRANCH  32  33
ATOM     33  C   UNL A   1      33.748  27.699  23.985  1.00  0.00     0.037 A 
ATOM     34  C   UNL A   1      33.677  27.024  22.780  1.00  0.00     0.134 A 
ATOM     35  N   UNL A   1      34.386  28.885  23.673  1.00  0.00    -0.348 N 
ATOM     36  N   UNL A   1      34.140  27.804  21.753  1.00  0.00    -0.245 NA
ATOM     37  C   UNL A   1      34.547  28.921  22.314  1.00  0.00     0.196 A 
ATOM     38  H   UNL A   1      34.671  29.578  24.313  1.00  0.00     0.167 HD
ENDBRANCH  32  33
ENDBRANCH   6  32
ENDBRANCH   3   6
ENDBRANCH   1   2
BRANCH   1  39
ATOM     39  C   UNL A   1      34.448  30.177  27.100  1.00  0.00     0.042 C 
BRANCH  39  40
ATOM     40  C   UNL A   1      35.001  31.187  28.080  1.00  0.00     0.118 C 
BRANCH  40  41
ATOM     41  N   UNL A   1      34.105  32.289  28.440  1.00  0.00    -0.352 N 
ATOM     42  C   UNL A   1      34.343  33.346  29.315  1.00  0.00     0.251 C 
ATOM     43  H   UNL A   1      33.220  32.281  28.009  1.00  0.00     0.163 HD
ATOM     44  O   UNL A   1      33.466  34.161  29.581  1.00  0.00    -0.269 OA
BRANCH  42  45
ATOM     45  C   UNL A   1      35.716  33.542  29.840  1.00  0.00     0.039 A 
ATOM     46  C   UNL A   1      36.711  33.989  28.961  1.00  0.00     0.014 A 
ATOM     47  C   UNL A   1      36.061  32.967  31.052  1.00  0.00     0.014 A 
ATOM     48  C   UNL A   1      38.026  33.579  29.168  1.00  0.00     0.010 A 
ATOM     49  C   UNL A   1      37.299  32.383  31.139  1.00  0.00     0.010 A 
ATOM     50  C   UNL A   1      38.277  32.658  30.178  1.00  0.00    -0.014 A 
BRANCH  50  51
ATOM     51  C   UNL A   1      39.491  31.862  30.305  1.00  0.00     0.031 A 
ATOM     52  C   UNL A   1      39.494  30.476  29.790  1.00  0.00     0.074 A 
ATOM     53  C   UNL A   1      40.638  32.453  30.711  1.00  0.00     0.049 A 
ATOM     54  N   UNL A   1      40.418  29.616  30.027  1.00  0.00    -0.248 NA
ATOM     55  C   UNL A   1      38.416  29.929  28.968  1.00  0.00     0.031 C 
ATOM     56  C   UNL A   1      42.000  31.948  30.562  1.00  0.00     0.029 A 
ATOM     57  N   UNL A   1      40.771  33.549  31.564  1.00  0.00    -0.354 N 
ATOM     58  C   UNL A   1      40.216  28.529  29.209  1.00  0.00     0.074 A 
ATOM     59  C   UNL A   1      38.941  28.764  28.581  1.00  0.00     0.031 C 
ATOM     60  C   UNL A   1      42.785  32.525  31.484  1.00  0.00     0.029 A 
ATOM     61  C   UNL A   1      41.922  33.310  32.347  1.00  0.00     0.049 A 
ATOM     62  H   UNL A   1      40.180  34.335  31.612  1.00  0.00     0.167 HD
ATOM     63  C   UNL A   1      41.212  27.611  29.087  1.00  0.00     0.034 A 
ATOM     64  C   UNL A   1      41.823  33.161  33.701  1.00  0.00     0.034 A 
ATOM     65  C   UNL A   1      42.301  27.909  30.014  1.00  0.00     0.049 A 
ATOM     66  C   UNL A   1      42.245  31.787  34.184  1.00  0.00     0.074 A 
ATOM     67  C   UNL A   1      43.524  28.544  29.878  1.00  0.00     0.029 A 
ATOM     68  N   UNL A   1      42.053  27.818  31.378  1.00  0.00    -0.354 N 
ATOM     69  N   UNL A   1      42.396  30.751  33.402  1.00  0.00    -0.248 NA
ATOM     70  C   UNL A   1      42.545  31.469  35.576  1.00  0.00     0.031 C 
ATOM     71  C   UNL A   1      43.977  28.899  31.178  1.00  0.00     0.029 A 
ATOM     72  C   UNL A   1      43.049  28.442  32.100  1.00  0.00     0.049 A 
ATOM     73  H   UNL A   1      41.272  27.368  31.775  1.00  0.00     0.167 HD
ATOM     74  C   UNL A   1      42.792  29.659  34.136  1.00  0.00     0.074 A 
ATOM     75  C   UNL A   1      42.886  30.170  35.492  1.00  0.00     0.031 C 
ATOM     76  C   UNL A   1      42.999  28.434  33.556  1.00  0.00     0.034 A 
BRANCH  63  77
ATOM     77  C   UNL A   1      41.321  26.583  27.987  1.00  0.00     0.023 A 
ATOM     78  C   UNL A   1      41.561  25.240  28.346  1.00  0.00     0.031 A 
ATOM     79  C   UNL A   1      41.246  26.833  26.605  1.00  0.00     0.131 A 
ATOM     80  C   UNL A   1      41.791  24.247  27.377  1.00  0.00     0.055 A 
ATOM     81  C   UNL A   1      41.523  25.857  25.638  1.00  0.00     0.041 A 
ATOM     82  F   UNL A   1      40.844  28.012  26.117  1.00  0.00    -0.206 F 
ATOM     83  C   UNL A   1      41.807  24.555  26.021  1.00  0.00     0.022 A 
BRANCH  80  84
ATOM     84  S   UNL A   1      42.071  22.541  27.922  1.00  0.00     0.124 S 
ATOM     85  O   UNL A   1      42.738  22.732  29.204  1.00  0.00    -0.237 OA
ATOM     86  O   UNL A   1      40.715  22.006  27.970  1.00  0.00    -0.237 OA
ATOM     87  O   UNL A   1      42.915  21.984  26.865  1.00  0.00    -0.744 OA
ENDBRANCH  80  84
ENDBRANCH  63  77
BRANCH  64  88
ATOM     88  C   UNL A   1      40.771  34.050  34.281  1.00  0.00     0.023 A 
ATOM     89  C   UNL A   1      39.706  33.403  34.950  1.00  0.00     0.031 A 
ATOM     90  C   UNL A   1      41.027  35.389  34.605  1.00  0.00     0.131 A 
ATOM     91  C   UNL A   1      39.072  34.018  36.041  1.00  0.00     0.055 A 
ATOM     92  C   UNL A   1      40.333  36.028  35.644  1.00  0.00     0.041 A 
ATOM     93  F   UNL A   1      42.048  36.047  34.034  1.00  0.00    -0.206 F 
ATOM     94  C   UNL A   1      39.390  35.327  36.401  1.00  0.00     0.022 A 
BRANCH  91  95
ATOM     95  S   UNL A   1      38.045  32.984  37.131  1.00  0.00     0.124 S 
ATOM     96  O   UNL A   1      36.756  33.002  36.449  1.00  0.00    -0.237 OA
ATOM     97  O   UNL A   1      38.747  31.701  37.126  1.00  0.00    -0.237 OA
ATOM     98  O   UNL A   1      38.082  33.674  38.418  1.00  0.00    -0.744 OA
ENDBRANCH  91  95
ENDBRANCH  64  88
BRANCH  76  99
ATOM     99  C   UNL A   1      43.221  27.107  34.265  1.00  0.00     0.023 A 
ATOM    100  C   UNL A   1      44.390  26.345  34.148  1.00  0.00     0.031 A 
ATOM    101  C   UNL A   1      42.260  26.602  35.183  1.00  0.00     0.131 A 
ATOM    102  C   UNL A   1      44.548  25.137  34.857  1.00  0.00     0.055 A 
ATOM    103  C   UNL A   1      42.458  25.452  35.953  1.00  0.00     0.041 A 
ATOM    104  F   UNL A   1      41.081  27.207  35.387  1.00  0.00    -0.206 F 
ATOM    105  C   UNL A   1      43.605  24.701  35.783  1.00  0.00     0.022 A 
BRANCH 102 106
ATOM    106  S   UNL A   1      45.995  24.111  34.487  1.00  0.00     0.124 S 
ATOM    107  O   UNL A   1      46.934  25.098  33.961  1.00  0.00    -0.237 OA
ATOM    108  O   UNL A   1      46.328  23.557  35.796  1.00  0.00    -0.237 OA
ATOM    109  O   UNL A   1      45.495  23.146  33.511  1.00  0.00    -0.744 OA
ENDBRANCH 102 106
ENDBRANCH  76  99
ENDBRANCH  50  51
ENDBRANCH  42  45
ENDBRANCH  40  41
ENDBRANCH  39  40
ENDBRANCH   1  39
TORSDOF 20
ENDMDL
