MODEL 1
REMARK VINA RESULT:     -12.4      0.000      0.000
REMARK SMILES CCc1cc(S(F)(F)(F)(F)F)cc2c1O[C@@H](C(F)(F)F)C(C(=O)NCCCNC(=O)c1ccc(-c3c4nc(c(-c5cc(S(=O)(=O)[O-])ccc5F)c5ccc([nH]5)c(-c5cc(S(=O)(=O)[O-])ccc5F)c5nc(c(-c6cc(S(=O)(=O)[O-])ccc6F)c6ccc3[nH]6)C=C5)C=C4)cc1)=C2
REMARK SMILES IDX 27 1 26 2 25 3 24 4 22 5 23 6 21 8 3 9 4 10 14 11 5 12 13 13
REMARK SMILES IDX 15 14 12 15 94 16 16 17 2 18 1 19 6 20 7 21 8 22 9 23 10 24
REMARK SMILES IDX 11 25 17 26 18 27 19 28 20 29 28 30 29 31 30 33 31 34 32 35
REMARK SMILES IDX 93 36 33 37 92 38 34 39 35 40 36 41 86 42 37 43 91 44 85 45
REMARK SMILES IDX 87 46 38 47 90 48 84 49 83 50 39 52 71 53 51 54 70 55 52 56
REMARK SMILES IDX 55 57 69 58 88 59 53 60 54 61 68 63 89 64 56 65 40 66 41 67
REMARK SMILES IDX 49 68 42 69 48 70 50 71 47 72 43 73 44 74 45 75 46 76 72 77
REMARK SMILES IDX 73 78 81 79 74 80 80 81 82 82 79 83 75 84 76 85 77 86 78 87
REMARK SMILES IDX 57 88 58 89 66 90 59 91 65 92 67 93 64 94 60 95 61 96 62 97
REMARK SMILES IDX 63 98
REMARK H PARENT 24 7 28 32 87 51 55 62
REMARK Flexibility Score: inf
ROOT
ATOM      1  C   UNL A   1      37.132  23.260  25.526  1.00  0.00     0.118 C 
ENDROOT
BRANCH   1   2
ATOM      2  C   UNL A   1      36.966  23.411  24.023  1.00  0.00     0.042 C 
BRANCH   2   3
ATOM      3  C   UNL A   1      35.587  22.916  23.614  1.00  0.00     0.118 C 
BRANCH   3   4
ATOM      4  N   UNL A   1      35.142  21.875  24.550  1.00  0.00    -0.352 N 
ATOM      5  C   UNL A   1      33.931  22.082  25.357  1.00  0.00     0.251 C 
ATOM      6  O   UNL A   1      33.547  21.181  26.168  1.00  0.00    -0.270 OA
ATOM      7  H   UNL A   1      35.655  21.039  24.637  1.00  0.00     0.163 HD
BRANCH   5   8
ATOM      8  C   UNL A   1      33.139  23.373  25.224  1.00  0.00     0.067 C 
ATOM      9  C   UNL A   1      31.175  26.964  24.390  1.00  0.00    -0.004 A 
ATOM     10  C   UNL A   1      31.495  28.106  25.100  1.00  0.00     0.032 A 
ATOM     11  C   UNL A   1      31.874  25.809  24.647  1.00  0.00     0.131 A 
ATOM     12  C   UNL A   1      32.492  28.096  26.039  1.00  0.00     0.108 A 
ATOM     13  C   UNL A   1      32.874  25.756  25.602  1.00  0.00     0.019 A 
ATOM     14  O   UNL A   1      31.622  24.714  23.858  1.00  0.00    -0.475 OA
ATOM     15  C   UNL A   1      33.174  26.923  26.294  1.00  0.00     0.036 A 
ATOM     16  C   UNL A   1      33.581  24.498  25.773  1.00  0.00     0.025 C 
ATOM     17  C   UNL A   1      31.824  23.403  24.456  1.00  0.00     0.314 C 
BRANCH   9  18
ATOM     18  C   UNL A   1      29.944  27.036  23.501  1.00  0.00     0.036 C 
ATOM     19  C   UNL A   1      29.670  28.485  23.132  1.00  0.00     0.009 C 
ENDBRANCH   9  18
BRANCH  12  20
ATOM     20  S   UNL A   1      32.912  29.608  26.941  1.00  0.00     0.310 S 
ATOM     21  F   UNL A   1      33.549  28.759  28.120  1.00  0.00    -0.094 F 
ATOM     22  F   UNL A   1      31.524  29.449  27.669  1.00  0.00    -0.094 F 
ATOM     23  F   UNL A   1      33.232  30.885  27.770  1.00  0.00    -0.094 F 
ATOM     24  F   UNL A   1      34.356  29.670  26.303  1.00  0.00    -0.094 F 
ATOM     25  F   UNL A   1      32.648  28.250  26.176  1.00  0.00    -0.094 F 
ENDBRANCH  12  20
BRANCH  17  26
ATOM     26  C   UNL A   1      31.868  22.356  23.356  1.00  0.00     0.429 C 
ATOM     27  F   UNL A   1      31.985  21.147  23.898  1.00  0.00    -0.167 F 
ATOM     28  F   UNL A   1      30.747  22.415  22.643  1.00  0.00    -0.167 F 
ATOM     29  F   UNL A   1      32.909  22.589  22.562  1.00  0.00    -0.167 F 
ENDBRANCH  17  26
ENDBRANCH   5   8
ENDBRANCH   3   4
ENDBRANCH   2   3
ENDBRANCH   1   2
BRANCH   1  30
ATOM     30  N   UNL A   1      38.037  22.136  25.809  1.00  0.00    -0.352 N 
ATOM     31  C   UNL A   1      39.288  22.367  26.545  1.00  0.00     0.251 C 
ATOM     32  H   UNL A   1      37.805  21.229  25.505  1.00  0.00     0.163 HD
ATOM     33  O   UNL A   1      40.070  21.396  26.790  1.00  0.00    -0.269 OA
BRANCH  31  34
ATOM     34  C   UNL A   1      39.645  23.768  27.015  1.00  0.00     0.039 A 
ATOM     35  C   UNL A   1      39.502  24.122  28.346  1.00  0.00     0.014 A 
ATOM     36  C   UNL A   1      40.157  24.614  26.129  1.00  0.00     0.014 A 
ATOM     37  C   UNL A   1      39.662  25.506  28.592  1.00  0.00     0.010 A 
ATOM     38  C   UNL A   1      40.416  25.918  26.476  1.00  0.00     0.010 A 
ATOM     39  C   UNL A   1      40.241  26.352  27.760  1.00  0.00    -0.014 A 
BRANCH  39  40
ATOM     40  C   UNL A   1      40.688  27.735  28.207  1.00  0.00     0.031 A 
ATOM     41  C   UNL A   1      39.689  28.642  28.562  1.00  0.00     0.074 A 
ATOM     42  C   UNL A   1      42.038  28.038  28.190  1.00  0.00     0.049 A 
ATOM     43  N   UNL A   1      39.842  29.904  28.967  1.00  0.00    -0.248 NA
ATOM     44  C   UNL A   1      38.251  28.333  28.547  1.00  0.00     0.031 C 
ATOM     45  C   UNL A   1      43.055  27.126  27.842  1.00  0.00     0.029 A 
ATOM     46  N   UNL A   1      42.639  29.239  28.498  1.00  0.00    -0.354 N 
ATOM     47  C   UNL A   1      38.653  30.449  29.235  1.00  0.00     0.074 A 
ATOM     48  C   UNL A   1      37.612  29.449  28.962  1.00  0.00     0.031 C 
ATOM     49  C   UNL A   1      44.247  27.771  27.926  1.00  0.00     0.029 A 
ATOM     50  C   UNL A   1      43.999  29.096  28.330  1.00  0.00     0.049 A 
ATOM     51  H   UNL A   1      42.176  30.059  28.788  1.00  0.00     0.167 HD
ATOM     52  C   UNL A   1      38.397  31.741  29.698  1.00  0.00     0.034 A 
ATOM     53  C   UNL A   1      44.982  30.056  28.511  1.00  0.00     0.034 A 
ATOM     54  C   UNL A   1      39.385  32.688  29.921  1.00  0.00     0.049 A 
ATOM     55  C   UNL A   1      44.720  31.367  28.918  1.00  0.00     0.074 A 
ATOM     56  C   UNL A   1      39.144  33.991  30.394  1.00  0.00     0.029 A 
ATOM     57  N   UNL A   1      40.741  32.552  29.729  1.00  0.00    -0.354 N 
ATOM     58  N   UNL A   1      43.536  31.899  29.223  1.00  0.00    -0.248 NA
ATOM     59  C   UNL A   1      45.749  32.401  29.082  1.00  0.00     0.031 C 
ATOM     60  C   UNL A   1      40.337  34.637  30.479  1.00  0.00     0.029 A 
ATOM     61  C   UNL A   1      41.343  33.746  30.058  1.00  0.00     0.049 A 
ATOM     62  H   UNL A   1      41.201  31.742  29.412  1.00  0.00     0.167 HD
ATOM     63  C   UNL A   1      43.686  33.174  29.589  1.00  0.00     0.074 A 
ATOM     64  C   UNL A   1      45.111  33.517  29.496  1.00  0.00     0.031 C 
ATOM     65  C   UNL A   1      42.692  34.064  30.000  1.00  0.00     0.034 A 
BRANCH  52  66
ATOM     66  C   UNL A   1      36.954  32.131  29.973  1.00  0.00     0.023 A 
ATOM     67  C   UNL A   1      36.181  32.737  28.995  1.00  0.00     0.031 A 
ATOM     68  C   UNL A   1      36.440  31.806  31.153  1.00  0.00     0.131 A 
ATOM     69  C   UNL A   1      34.940  33.226  29.467  1.00  0.00     0.055 A 
ATOM     70  C   UNL A   1      35.170  32.200  31.496  1.00  0.00     0.041 A 
ATOM     71  F   UNL A   1      37.163  31.092  32.012  1.00  0.00    -0.206 F 
ATOM     72  C   UNL A   1      34.371  32.855  30.600  1.00  0.00     0.022 A 
BRANCH  69  73
ATOM     73  S   UNL A   1      34.071  34.443  28.448  1.00  0.00     0.124 S 
ATOM     74  O   UNL A   1      34.884  34.721  27.182  1.00  0.00    -0.237 OA
ATOM     75  O   UNL A   1      32.695  33.894  28.060  1.00  0.00    -0.237 OA
ATOM     76  O   UNL A   1      33.877  35.894  29.332  1.00  0.00    -0.744 OA
ENDBRANCH  69  73
ENDBRANCH  52  66
BRANCH  53  77
ATOM     77  C   UNL A   1      46.426  29.661  28.252  1.00  0.00     0.023 A 
ATOM     78  C   UNL A   1      46.878  29.435  26.962  1.00  0.00     0.031 A 
ATOM     79  C   UNL A   1      47.215  29.465  29.302  1.00  0.00     0.131 A 
ATOM     80  C   UNL A   1      48.098  28.720  26.899  1.00  0.00     0.055 A 
ATOM     81  C   UNL A   1      48.450  28.885  29.150  1.00  0.00     0.041 A 
ATOM     82  F   UNL A   1      46.803  29.833  30.512  1.00  0.00    -0.206 F 
ATOM     83  C   UNL A   1      48.937  28.581  27.909  1.00  0.00     0.022 A 
BRANCH  80  84
ATOM     84  S   UNL A   1      48.539  27.944  25.325  1.00  0.00     0.124 S 
ATOM     85  O   UNL A   1      48.428  26.423  25.457  1.00  0.00    -0.237 OA
ATOM     86  O   UNL A   1      47.586  28.431  24.230  1.00  0.00    -0.237 OA
ATOM     87  O   UNL A   1      50.145  28.363  24.913  1.00  0.00    -0.744 OA
ENDBRANCH  80  84
ENDBRANCH  53  77
BRANCH  65  88
ATOM     88  C   UNL A   1      43.113  35.466  30.408  1.00  0.00     0.023 A 
ATOM     89  C   UNL A   1      43.109  36.490  29.477  1.00  0.00     0.031 A 
ATOM     90  C   UNL A   1      43.440  35.689  31.676  1.00  0.00     0.131 A 
ATOM     91  C   UNL A   1      43.749  37.672  29.920  1.00  0.00     0.055 A 
ATOM     92  C   UNL A   1      43.933  36.911  32.067  1.00  0.00     0.041 A 
ATOM     93  F   UNL A   1      43.290  34.721  32.576  1.00  0.00    -0.206 F 
ATOM     94  C   UNL A   1      44.012  37.952  31.184  1.00  0.00     0.022 A 
BRANCH  91  95
ATOM     95  S   UNL A   1      44.243  38.883  28.669  1.00  0.00     0.124 S 
ATOM     96  O   UNL A   1      45.593  39.493  29.054  1.00  0.00    -0.237 OA
ATOM     97  O   UNL A   1      44.365  38.191  27.309  1.00  0.00    -0.237 OA
ATOM     98  O   UNL A   1      43.065  40.119  28.577  1.00  0.00    -0.744 OA
ENDBRANCH  91  95
ENDBRANCH  65  88
ENDBRANCH  39  40
ENDBRANCH  31  34
ENDBRANCH   1  30
TORSDOF 16
ENDMDL
MODEL 2
REMARK VINA RESULT:     -12.4      1.337      7.407
REMARK SMILES CCc1cc(S(F)(F)(F)(F)F)cc2c1O[C@@H](C(F)(F)F)C(C(=O)NCCCNC(=O)c1ccc(-c3c4nc(c(-c5cc(S(=O)(=O)[O-])ccc5F)c5ccc([nH]5)c(-c5cc(S(=O)(=O)[O-])ccc5F)c5nc(c(-c6cc(S(=O)(=O)[O-])ccc6F)c6ccc3[nH]6)C=C5)C=C4)cc1)=C2
REMARK SMILES IDX 27 1 26 2 25 3 24 4 22 5 23 6 21 8 3 9 4 10 14 11 5 12 13 13
REMARK SMILES IDX 15 14 12 15 94 16 16 17 2 18 1 19 6 20 7 21 8 22 9 23 10 24
REMARK SMILES IDX 11 25 17 26 18 27 19 28 20 29 28 30 29 31 30 33 31 34 32 35
REMARK SMILES IDX 93 36 33 37 92 38 34 39 35 40 36 41 86 42 37 43 91 44 85 45
REMARK SMILES IDX 87 46 38 47 90 48 84 49 83 50 39 52 71 53 51 54 70 55 52 56
REMARK SMILES IDX 55 57 69 58 88 59 53 60 54 61 68 63 89 64 56 65 40 66 41 67
REMARK SMILES IDX 49 68 42 69 48 70 50 71 47 72 43 73 44 74 45 75 46 76 72 77
REMARK SMILES IDX 73 78 81 79 74 80 80 81 82 82 79 83 75 84 76 85 77 86 78 87
REMARK SMILES IDX 57 88 58 89 66 90 59 91 65 92 67 93 64 94 60 95 61 96 62 97
REMARK SMILES IDX 63 98
REMARK H PARENT 24 7 28 32 87 51 55 62
REMARK Flexibility Score: inf
ROOT
ATOM      1  C   UNL A   1      37.210  23.047  25.783  1.00  0.00     0.118 C 
ENDROOT
BRANCH   1   2
ATOM      2  C   UNL A   1      37.058  23.428  24.319  1.00  0.00     0.042 C 
BRANCH   2   3
ATOM      3  C   UNL A   1      35.776  22.823  23.768  1.00  0.00     0.118 C 
BRANCH   3   4
ATOM      4  N   UNL A   1      35.290  21.785  24.688  1.00  0.00    -0.352 N 
ATOM      5  C   UNL A   1      34.032  21.984  25.422  1.00  0.00     0.251 C 
ATOM      6  O   UNL A   1      33.612  21.086  26.217  1.00  0.00    -0.270 OA
ATOM      7  H   UNL A   1      35.807  20.956  24.811  1.00  0.00     0.163 HD
BRANCH   5   8
ATOM      8  C   UNL A   1      33.235  23.264  25.232  1.00  0.00     0.067 C 
ATOM      9  C   UNL A   1      31.285  26.827  24.256  1.00  0.00    -0.004 A 
ATOM     10  C   UNL A   1      31.541  27.975  24.984  1.00  0.00     0.032 A 
ATOM     11  C   UNL A   1      31.980  25.682  24.564  1.00  0.00     0.131 A 
ATOM     12  C   UNL A   1      32.473  27.979  25.989  1.00  0.00     0.108 A 
ATOM     13  C   UNL A   1      32.913  25.645  25.584  1.00  0.00     0.019 A 
ATOM     14  O   UNL A   1      31.797  24.583  23.762  1.00  0.00    -0.475 OA
ATOM     15  C   UNL A   1      33.150  26.817  26.292  1.00  0.00     0.036 A 
ATOM     16  C   UNL A   1      33.623  24.395  25.806  1.00  0.00     0.025 C 
ATOM     17  C   UNL A   1      31.974  23.276  24.376  1.00  0.00     0.314 C 
BRANCH   9  18
ATOM     18  C   UNL A   1      30.117  26.882  23.286  1.00  0.00     0.036 C 
ATOM     19  C   UNL A   1      28.836  26.511  24.014  1.00  0.00     0.009 C 
ENDBRANCH   9  18
BRANCH  12  20
ATOM     20  S   UNL A   1      32.811  29.499  26.913  1.00  0.00     0.310 S 
ATOM     21  F   UNL A   1      33.666  28.692  27.977  1.00  0.00    -0.094 F 
ATOM     22  F   UNL A   1      31.538  29.149  27.773  1.00  0.00    -0.094 F 
ATOM     23  F   UNL A   1      33.069  30.775  27.764  1.00  0.00    -0.094 F 
ATOM     24  F   UNL A   1      34.159  29.756  26.132  1.00  0.00    -0.094 F 
ATOM     25  F   UNL A   1      32.624  28.147  26.115  1.00  0.00    -0.094 F 
ENDBRANCH  12  20
BRANCH  17  26
ATOM     26  C   UNL A   1      32.106  22.227  23.284  1.00  0.00     0.429 C 
ATOM     27  F   UNL A   1      32.262  21.027  23.837  1.00  0.00    -0.167 F 
ATOM     28  F   UNL A   1      31.010  22.230  22.532  1.00  0.00    -0.167 F 
ATOM     29  F   UNL A   1      33.163  22.507  22.526  1.00  0.00    -0.167 F 
ENDBRANCH  17  26
ENDBRANCH   5   8
ENDBRANCH   3   4
ENDBRANCH   2   3
ENDBRANCH   1   2
BRANCH   1  30
ATOM     30  N   UNL A   1      38.220  21.987  25.911  1.00  0.00    -0.352 N 
ATOM     31  C   UNL A   1      39.538  22.293  26.486  1.00  0.00     0.251 C 
ATOM     32  H   UNL A   1      38.015  21.072  25.612  1.00  0.00     0.163 HD
ATOM     33  O   UNL A   1      40.411  21.377  26.598  1.00  0.00    -0.269 OA
BRANCH  31  34
ATOM     34  C   UNL A   1      39.855  23.706  26.949  1.00  0.00     0.039 A 
ATOM     35  C   UNL A   1      39.802  24.034  28.294  1.00  0.00     0.014 A 
ATOM     36  C   UNL A   1      40.245  24.590  26.040  1.00  0.00     0.014 A 
ATOM     37  C   UNL A   1      39.905  25.422  28.550  1.00  0.00     0.010 A 
ATOM     38  C   UNL A   1      40.459  25.903  26.387  1.00  0.00     0.010 A 
ATOM     39  C   UNL A   1      40.366  26.310  27.688  1.00  0.00    -0.014 A 
BRANCH  39  40
ATOM     40  C   UNL A   1      40.771  27.710  28.120  1.00  0.00     0.031 A 
ATOM     41  C   UNL A   1      42.138  27.995  28.152  1.00  0.00     0.074 A 
ATOM     42  C   UNL A   1      39.786  28.603  28.504  1.00  0.00     0.049 A 
ATOM     43  N   UNL A   1      42.721  29.140  28.509  1.00  0.00    -0.248 NA
ATOM     44  C   UNL A   1      43.189  27.037  27.778  1.00  0.00     0.031 C 
ATOM     45  C   UNL A   1      38.404  28.326  28.466  1.00  0.00     0.029 A 
ATOM     46  N   UNL A   1      39.945  29.885  28.979  1.00  0.00    -0.354 N 
ATOM     47  C   UNL A   1      44.047  29.037  28.392  1.00  0.00     0.074 A 
ATOM     48  C   UNL A   1      44.367  27.681  27.926  1.00  0.00     0.031 C 
ATOM     49  C   UNL A   1      37.743  29.421  28.923  1.00  0.00     0.029 A 
ATOM     50  C   UNL A   1      38.697  30.401  29.253  1.00  0.00     0.049 A 
ATOM     51  H   UNL A   1      40.803  30.353  29.101  1.00  0.00     0.167 HD
ATOM     52  C   UNL A   1      45.002  30.021  28.653  1.00  0.00     0.034 A 
ATOM     53  C   UNL A   1      38.390  31.652  29.764  1.00  0.00     0.034 A 
ATOM     54  C   UNL A   1      44.691  31.288  29.124  1.00  0.00     0.049 A 
ATOM     55  C   UNL A   1      39.349  32.617  30.081  1.00  0.00     0.074 A 
ATOM     56  C   UNL A   1      45.640  32.294  29.385  1.00  0.00     0.029 A 
ATOM     57  N   UNL A   1      43.445  31.794  29.421  1.00  0.00    -0.354 N 
ATOM     58  N   UNL A   1      40.671  32.527  29.927  1.00  0.00    -0.248 NA
ATOM     59  C   UNL A   1      39.037  33.933  30.654  1.00  0.00     0.031 C 
ATOM     60  C   UNL A   1      44.978  33.390  29.842  1.00  0.00     0.029 A 
ATOM     61  C   UNL A   1      43.603  33.085  29.875  1.00  0.00     0.049 A 
ATOM     62  H   UNL A   1      42.590  31.317  29.325  1.00  0.00     0.167 HD
ATOM     63  C   UNL A   1      41.258  33.659  30.323  1.00  0.00     0.074 A 
ATOM     64  C   UNL A   1      40.216  34.577  30.804  1.00  0.00     0.031 C 
ATOM     65  C   UNL A   1      42.619  33.964  30.300  1.00  0.00     0.034 A 
BRANCH  52  66
ATOM     66  C   UNL A   1      46.464  29.686  28.409  1.00  0.00     0.023 A 
ATOM     67  C   UNL A   1      47.225  29.062  29.384  1.00  0.00     0.031 A 
ATOM     68  C   UNL A   1      46.964  29.945  27.206  1.00  0.00     0.131 A 
ATOM     69  C   UNL A   1      48.607  29.010  29.087  1.00  0.00     0.055 A 
ATOM     70  C   UNL A   1      48.297  29.742  26.944  1.00  0.00     0.041 A 
ATOM     71  F   UNL A   1      46.167  30.407  26.246  1.00  0.00    -0.206 F 
ATOM     72  C   UNL A   1      49.121  29.184  27.883  1.00  0.00     0.022 A 
BRANCH  69  73
ATOM     73  S   UNL A   1      49.750  28.680  30.450  1.00  0.00     0.124 S 
ATOM     74  O   UNL A   1      50.764  29.822  30.553  1.00  0.00    -0.237 OA
ATOM     75  O   UNL A   1      48.965  28.576  31.761  1.00  0.00    -0.237 OA
ATOM     76  O   UNL A   1      50.574  27.210  30.162  1.00  0.00    -0.744 OA
ENDBRANCH  69  73
ENDBRANCH  52  66
BRANCH  53  77
ATOM     77  C   UNL A   1      36.927  31.993  29.993  1.00  0.00     0.023 A 
ATOM     78  C   UNL A   1      36.174  32.592  28.996  1.00  0.00     0.031 A 
ATOM     79  C   UNL A   1      36.418  31.770  31.200  1.00  0.00     0.131 A 
ATOM     80  C   UNL A   1      34.978  33.188  29.461  1.00  0.00     0.055 A 
ATOM     81  C   UNL A   1      35.184  32.267  31.542  1.00  0.00     0.041 A 
ATOM     82  F   UNL A   1      37.112  31.060  32.085  1.00  0.00    -0.206 F 
ATOM     83  C   UNL A   1      34.411  32.921  30.624  1.00  0.00     0.022 A 
BRANCH  80  84
ATOM     84  S   UNL A   1      34.168  34.400  28.388  1.00  0.00     0.124 S 
ATOM     85  O   UNL A   1      34.024  35.728  29.135  1.00  0.00    -0.237 OA
ATOM     86  O   UNL A   1      35.013  34.612  27.129  1.00  0.00    -0.237 OA
ATOM     87  O   UNL A   1      32.620  33.825  27.946  1.00  0.00    -0.744 OA
ENDBRANCH  80  84
ENDBRANCH  53  77
BRANCH  65  88
ATOM     88  C   UNL A   1      43.050  35.344  30.770  1.00  0.00     0.023 A 
ATOM     89  C   UNL A   1      43.170  36.381  29.860  1.00  0.00     0.031 A 
ATOM     90  C   UNL A   1      43.263  35.538  32.067  1.00  0.00     0.131 A 
ATOM     91  C   UNL A   1      43.807  37.532  30.382  1.00  0.00     0.055 A 
ATOM     92  C   UNL A   1      43.760  36.735  32.523  1.00  0.00     0.041 A 
ATOM     93  F   UNL A   1      42.994  34.563  32.932  1.00  0.00    -0.206 F 
ATOM     94  C   UNL A   1      43.959  37.784  31.670  1.00  0.00     0.022 A 
BRANCH  91  95
ATOM     95  S   UNL A   1      44.460  38.741  29.204  1.00  0.00     0.124 S 
ATOM     96  O   UNL A   1      43.541  38.808  27.981  1.00  0.00    -0.237 OA
ATOM     97  O   UNL A   1      44.525  40.118  29.869  1.00  0.00    -0.237 OA
ATOM     98  O   UNL A   1      46.028  38.270  28.713  1.00  0.00    -0.744 OA
ENDBRANCH  91  95
ENDBRANCH  65  88
ENDBRANCH  39  40
ENDBRANCH  31  34
ENDBRANCH   1  30
TORSDOF 16
ENDMDL
MODEL 3
REMARK VINA RESULT:     -12.3      5.028      9.756
REMARK SMILES CCc1cc(S(F)(F)(F)(F)F)cc2c1O[C@@H](C(F)(F)F)C(C(=O)NCCCNC(=O)c1ccc(-c3c4nc(c(-c5cc(S(=O)(=O)[O-])ccc5F)c5ccc([nH]5)c(-c5cc(S(=O)(=O)[O-])ccc5F)c5nc(c(-c6cc(S(=O)(=O)[O-])ccc6F)c6ccc3[nH]6)C=C5)C=C4)cc1)=C2
REMARK SMILES IDX 27 1 26 2 25 3 24 4 22 5 23 6 21 8 3 9 4 10 14 11 5 12 13 13
REMARK SMILES IDX 15 14 12 15 94 16 16 17 2 18 1 19 6 20 7 21 8 22 9 23 10 24
REMARK SMILES IDX 11 25 17 26 18 27 19 28 20 29 28 30 29 31 30 33 31 34 32 35
REMARK SMILES IDX 93 36 33 37 92 38 34 39 35 40 36 41 86 42 37 43 91 44 85 45
REMARK SMILES IDX 87 46 38 47 90 48 84 49 83 50 39 52 71 53 51 54 70 55 52 56
REMARK SMILES IDX 55 57 69 58 88 59 53 60 54 61 68 63 89 64 56 65 40 66 41 67
REMARK SMILES IDX 49 68 42 69 48 70 50 71 47 72 43 73 44 74 45 75 46 76 72 77
REMARK SMILES IDX 73 78 81 79 74 80 80 81 82 82 79 83 75 84 76 85 77 86 78 87
REMARK SMILES IDX 57 88 58 89 66 90 59 91 65 92 67 93 64 94 60 95 61 96 62 97
REMARK SMILES IDX 63 98
REMARK H PARENT 24 7 28 32 87 51 55 62
REMARK Flexibility Score: inf
ROOT
ATOM      1  C   UNL A   1      33.959  29.115  25.772  1.00  0.00     0.118 C 
ENDROOT
BRANCH   1   2
ATOM      2  C   UNL A   1      32.982  27.951  25.775  1.00  0.00     0.042 C 
BRANCH   2   3
ATOM      3  C   UNL A   1      33.569  26.794  24.982  1.00  0.00     0.118 C 
BRANCH   3   4
ATOM      4  N   UNL A   1      33.558  27.127  23.551  1.00  0.00    -0.352 N 
ATOM      5  C   UNL A   1      33.602  26.054  22.546  1.00  0.00     0.251 C 
ATOM      6  O   UNL A   1      33.592  26.343  21.308  1.00  0.00    -0.270 OA
ATOM      7  H   UNL A   1      33.520  28.068  23.264  1.00  0.00     0.163 HD
BRANCH   5   8
ATOM      8  C   UNL A   1      33.661  24.601  22.988  1.00  0.00     0.067 C 
ATOM      9  C   UNL A   1      33.613  20.766  24.645  1.00  0.00    -0.004 A 
ATOM     10  C   UNL A   1      34.803  20.132  24.951  1.00  0.00     0.032 A 
ATOM     11  C   UNL A   1      33.656  22.048  24.151  1.00  0.00     0.131 A 
ATOM     12  C   UNL A   1      36.005  20.766  24.774  1.00  0.00     0.108 A 
ATOM     13  C   UNL A   1      34.852  22.712  23.941  1.00  0.00     0.019 A 
ATOM     14  O   UNL A   1      32.465  22.704  23.957  1.00  0.00    -0.475 OA
ATOM     15  C   UNL A   1      36.029  22.048  24.264  1.00  0.00     0.036 A 
ATOM     16  C   UNL A   1      34.790  24.079  23.452  1.00  0.00     0.025 C 
ATOM     17  C   UNL A   1      32.426  23.713  22.909  1.00  0.00     0.314 C 
BRANCH   9  18
ATOM     18  C   UNL A   1      32.353  19.920  24.712  1.00  0.00     0.036 C 
ATOM     19  C   UNL A   1      32.590  18.601  23.995  1.00  0.00     0.009 C 
ENDBRANCH   9  18
BRANCH  12  20
ATOM     20  S   UNL A   1      37.551  19.928  25.204  1.00  0.00     0.310 S 
ATOM     21  F   UNL A   1      37.989  19.897  23.680  1.00  0.00    -0.094 F 
ATOM     22  F   UNL A   1      36.784  18.577  24.940  1.00  0.00    -0.094 F 
ATOM     23  F   UNL A   1      38.859  19.153  25.532  1.00  0.00    -0.094 F 
ATOM     24  F   UNL A   1      38.338  21.292  25.327  1.00  0.00    -0.094 F 
ATOM     25  F   UNL A   1      36.261  20.729  24.764  1.00  0.00    -0.094 F 
ENDBRANCH  12  20
BRANCH  17  26
ATOM     26  C   UNL A   1      31.185  24.572  23.094  1.00  0.00     0.429 C 
ATOM     27  F   UNL A   1      31.117  25.468  22.113  1.00  0.00    -0.167 F 
ATOM     28  F   UNL A   1      30.103  23.800  23.064  1.00  0.00    -0.167 F 
ATOM     29  F   UNL A   1      31.250  25.199  24.265  1.00  0.00    -0.167 F 
ENDBRANCH  17  26
ENDBRANCH   5   8
ENDBRANCH   3   4
ENDBRANCH   2   3
ENDBRANCH   1   2
BRANCH   1  30
ATOM     30  N   UNL A   1      33.258  30.345  26.167  1.00  0.00    -0.352 N 
ATOM     31  C   UNL A   1      33.799  31.186  27.245  1.00  0.00     0.251 C 
ATOM     32  H   UNL A   1      32.426  30.606  25.711  1.00  0.00     0.163 HD
ATOM     33  O   UNL A   1      33.193  32.250  27.586  1.00  0.00    -0.269 OA
BRANCH  31  34
ATOM     34  C   UNL A   1      35.084  30.784  27.949  1.00  0.00     0.039 A 
ATOM     35  C   UNL A   1      35.136  29.630  28.713  1.00  0.00     0.014 A 
ATOM     36  C   UNL A   1      36.164  31.532  27.758  1.00  0.00     0.014 A 
ATOM     37  C   UNL A   1      36.319  29.501  29.479  1.00  0.00     0.010 A 
ATOM     38  C   UNL A   1      37.329  31.266  28.438  1.00  0.00     0.010 A 
ATOM     39  C   UNL A   1      37.433  30.176  29.255  1.00  0.00    -0.014 A 
BRANCH  39  40
ATOM     40  C   UNL A   1      38.758  29.763  29.875  1.00  0.00     0.031 A 
ATOM     41  C   UNL A   1      39.519  28.822  29.179  1.00  0.00     0.074 A 
ATOM     42  C   UNL A   1      39.115  30.292  31.103  1.00  0.00     0.049 A 
ATOM     43  N   UNL A   1      40.696  28.305  29.534  1.00  0.00    -0.248 NA
ATOM     44  C   UNL A   1      39.125  28.233  27.890  1.00  0.00     0.031 C 
ATOM     45  C   UNL A   1      38.358  31.249  31.808  1.00  0.00     0.029 A 
ATOM     46  N   UNL A   1      40.234  30.005  31.854  1.00  0.00    -0.354 N 
ATOM     47  C   UNL A   1      41.123  27.449  28.602  1.00  0.00     0.074 A 
ATOM     48  C   UNL A   1      40.115  27.385  27.535  1.00  0.00     0.031 C 
ATOM     49  C   UNL A   1      39.003  31.524  32.971  1.00  0.00     0.029 A 
ATOM     50  C   UNL A   1      40.176  30.747  33.013  1.00  0.00     0.049 A 
ATOM     51  H   UNL A   1      40.951  29.378  31.605  1.00  0.00     0.167 HD
ATOM     52  C   UNL A   1      42.314  26.721  28.600  1.00  0.00     0.034 A 
ATOM     53  C   UNL A   1      41.083  30.757  34.061  1.00  0.00     0.034 A 
ATOM     54  C   UNL A   1      43.243  26.764  29.629  1.00  0.00     0.049 A 
ATOM     55  C   UNL A   1      42.247  29.983  34.085  1.00  0.00     0.074 A 
ATOM     56  C   UNL A   1      44.452  26.043  29.639  1.00  0.00     0.029 A 
ATOM     57  N   UNL A   1      43.173  27.487  30.799  1.00  0.00    -0.354 N 
ATOM     58  N   UNL A   1      42.692  29.159  33.137  1.00  0.00    -0.248 NA
ATOM     59  C   UNL A   1      43.199  29.961  35.203  1.00  0.00     0.031 C 
ATOM     60  C   UNL A   1      45.098  26.319  30.803  1.00  0.00     0.029 A 
ATOM     61  C   UNL A   1      44.302  27.217  31.539  1.00  0.00     0.049 A 
ATOM     62  H   UNL A   1      42.442  28.092  31.060  1.00  0.00     0.167 HD
ATOM     63  C   UNL A   1      43.851  28.610  33.511  1.00  0.00     0.074 A 
ATOM     64  C   UNL A   1      44.189  29.113  34.849  1.00  0.00     0.031 C 
ATOM     65  C   UNL A   1      44.640  27.714  32.789  1.00  0.00     0.034 A 
BRANCH  52  66
ATOM     66  C   UNL A   1      42.609  25.831  27.405  1.00  0.00     0.023 A 
ATOM     67  C   UNL A   1      42.108  24.541  27.335  1.00  0.00     0.031 A 
ATOM     68  C   UNL A   1      43.299  26.356  26.399  1.00  0.00     0.131 A 
ATOM     69  C   UNL A   1      42.640  23.776  26.271  1.00  0.00     0.055 A 
ATOM     70  C   UNL A   1      43.670  25.584  25.325  1.00  0.00     0.041 A 
ATOM     71  F   UNL A   1      43.637  27.643  26.433  1.00  0.00    -0.206 F 
ATOM     72  C   UNL A   1      43.259  24.283  25.221  1.00  0.00     0.022 A 
BRANCH  69  73
ATOM     73  S   UNL A   1      42.458  21.977  26.354  1.00  0.00     0.124 S 
ATOM     74  O   UNL A   1      42.786  21.496  27.769  1.00  0.00    -0.237 OA
ATOM     75  O   UNL A   1      41.017  21.593  26.006  1.00  0.00    -0.237 OA
ATOM     76  O   UNL A   1      43.528  21.244  25.239  1.00  0.00    -0.744 OA
ENDBRANCH  69  73
ENDBRANCH  52  66
BRANCH  53  77
ATOM     77  C   UNL A   1      40.797  31.659  35.249  1.00  0.00     0.023 A 
ATOM     78  C   UNL A   1      39.893  31.277  36.227  1.00  0.00     0.031 A 
ATOM     79  C   UNL A   1      41.379  32.852  35.278  1.00  0.00     0.131 A 
ATOM     80  C   UNL A   1      39.446  32.343  37.043  1.00  0.00     0.055 A 
ATOM     81  C   UNL A   1      40.986  33.800  36.191  1.00  0.00     0.041 A 
ATOM     82  F   UNL A   1      42.350  33.131  34.414  1.00  0.00    -0.206 F 
ATOM     83  C   UNL A   1      40.055  33.510  37.149  1.00  0.00     0.022 A 
BRANCH  80  84
ATOM     84  S   UNL A   1      37.936  32.090  38.008  1.00  0.00     0.124 S 
ATOM     85  O   UNL A   1      36.861  33.075  37.543  1.00  0.00    -0.237 OA
ATOM     86  O   UNL A   1      37.437  30.657  37.808  1.00  0.00    -0.237 OA
ATOM     87  O   UNL A   1      38.269  32.352  39.665  1.00  0.00    -0.744 OA
ENDBRANCH  80  84
ENDBRANCH  53  77
BRANCH  65  88
ATOM     88  C   UNL A   1      45.948  27.254  33.411  1.00  0.00     0.023 A 
ATOM     89  C   UNL A   1      45.992  26.080  34.144  1.00  0.00     0.031 A 
ATOM     90  C   UNL A   1      47.043  27.975  33.199  1.00  0.00     0.131 A 
ATOM     91  C   UNL A   1      47.197  25.898  34.864  1.00  0.00     0.055 A 
ATOM     92  C   UNL A   1      48.222  27.660  33.831  1.00  0.00     0.041 A 
ATOM     93  F   UNL A   1      46.998  29.014  32.368  1.00  0.00    -0.206 F 
ATOM     94  C   UNL A   1      48.321  26.546  34.618  1.00  0.00     0.022 A 
BRANCH  91  95
ATOM     95  S   UNL A   1      47.198  24.693  36.215  1.00  0.00     0.124 S 
ATOM     96  O   UNL A   1      45.880  23.914  36.203  1.00  0.00    -0.237 OA
ATOM     97  O   UNL A   1      48.367  23.722  36.032  1.00  0.00    -0.237 OA
ATOM     98  O   UNL A   1      47.363  25.511  37.707  1.00  0.00    -0.744 OA
ENDBRANCH  91  95
ENDBRANCH  65  88
ENDBRANCH  39  40
ENDBRANCH  31  34
ENDBRANCH   1  30
TORSDOF 16
ENDMDL
