MODEL 1
REMARK VINA RESULT:     -12.0      0.000      0.000
REMARK SMILES COc1cccc(CC2(CO)CCN(c3nc(C)ccc3C(=O)NCCCNC(=O)c3ccc(-c4c5nc(c(-c6cc(S(=O)(=O)[O-])ccc6F)c6ccc([nH]6)c(-c6cc(S(=O)(=O)[O-])ccc6F)c6nc(c(-c7cc(S(=O)(=O)[O-])ccc7F)c7ccc4[nH]7)C=C6)C=C5)cc3)CC2)c1
REMARK SMILES IDX 25 1 24 2 22 3 23 4 21 6 15 7 16 8 17 9 20 10 18 11 19 12
REMARK SMILES IDX 14 13 9 14 12 15 95 16 13 17 94 18 8 19 7 20 3 21 4 22 96 23
REMARK SMILES IDX 5 24 6 25 2 26 1 27 10 28 11 29 26 31 27 32 28 33 29 34
REMARK SMILES IDX 30 36 31 37 32 38 93 39 33 40 92 41 34 42 35 43 36 44 86 45
REMARK SMILES IDX 37 46 91 47 85 48 87 49 38 50 90 51 84 52 83 53 39 55 71 56
REMARK SMILES IDX 51 57 70 58 52 59 55 60 69 61 88 62 53 63 54 64 68 66 89 67
REMARK SMILES IDX 56 68 40 69 41 70 49 71 42 72 48 73 50 74 47 75 43 76 44 77
REMARK SMILES IDX 45 78 46 79 72 80 73 81 81 82 74 83 80 84 82 85 79 86 75 87
REMARK SMILES IDX 76 88 77 89 78 90 57 91 58 92 66 93 59 94 65 95 67 96 64 97
REMARK SMILES IDX 60 98 61 99 62 100 63 101
REMARK H PARENT 24 5 11 30 28 35 87 54 55 65
REMARK Flexibility Score: inf
ROOT
ATOM      1  C   UNL A   1      33.806  30.701  27.248  1.00  0.00     0.118 C 
ENDROOT
BRANCH   1   2
ATOM      2  N   UNL A   1      33.147  29.465  27.622  1.00  0.00    -0.352 N 
ATOM      3  C   UNL A   1      32.114  28.699  27.143  1.00  0.00     0.255 C 
ATOM      4  O   UNL A   1      31.838  27.781  27.916  1.00  0.00    -0.269 OA
ATOM      5  H   UNL A   1      33.545  29.073  28.433  1.00  0.00     0.163 HD
BRANCH   3   6
ATOM      6  C   UNL A   1      31.406  28.895  25.831  1.00  0.00     0.082 A 
ATOM      7  C   UNL A   1      31.336  27.909  24.818  1.00  0.00     0.141 A 
ATOM      8  N   UNL A   1      30.915  28.243  23.559  1.00  0.00    -0.235 NA
ATOM      9  C   UNL A   1      30.479  29.486  23.277  1.00  0.00     0.040 A 
ATOM     10  C   UNL A   1      30.839  30.144  25.529  1.00  0.00     0.019 A 
ATOM     11  C   UNL A   1      30.079  29.751  21.860  1.00  0.00     0.067 C 
ATOM     12  C   UNL A   1      30.387  30.454  24.250  1.00  0.00     0.024 A 
BRANCH   7  13
ATOM     13  N   UNL A   1      31.619  26.562  24.914  1.00  0.00    -0.356 N 
ATOM     14  C   UNL A   1      32.054  23.737  25.629  1.00  0.00     0.001 C 
ATOM     15  C   UNL A   1      30.654  24.405  25.628  1.00  0.00     0.031 C 
ATOM     16  C   UNL A   1      33.143  24.831  25.748  1.00  0.00     0.031 C 
ATOM     17  C   UNL A   1      30.495  25.656  24.760  1.00  0.00     0.119 C 
ATOM     18  C   UNL A   1      32.959  26.013  24.803  1.00  0.00     0.119 C 
BRANCH  14  19
ATOM     19  C   UNL A   1      32.273  22.750  24.424  1.00  0.00     0.045 C 
BRANCH  19  20
ATOM     20  C   UNL A   1      33.071  21.481  24.608  1.00  0.00    -0.044 A 
ATOM     21  C   UNL A   1      35.183  20.350  24.999  1.00  0.00     0.119 A 
ATOM     22  C   UNL A   1      34.588  19.119  24.751  1.00  0.00     0.046 A 
ATOM     23  C   UNL A   1      34.440  21.530  24.918  1.00  0.00     0.050 A 
ATOM     24  C   UNL A   1      33.218  19.053  24.512  1.00  0.00     0.004 A 
ATOM     25  C   UNL A   1      32.460  20.227  24.475  1.00  0.00     0.004 A 
BRANCH  21  26
ATOM     26  O   UNL A   1      36.531  20.368  25.238  1.00  0.00    -0.497 OA
ATOM     27  C   UNL A   1      37.143  21.483  24.593  1.00  0.00     0.278 C 
ENDBRANCH  21  26
ENDBRANCH  19  20
ENDBRANCH  14  19
BRANCH  14  28
ATOM     28  C   UNL A   1      32.177  22.868  26.918  1.00  0.00     0.163 C 
BRANCH  28  29
ATOM     29  O   UNL A   1      30.946  22.774  27.626  1.00  0.00    -0.396 OA
ATOM     30  H   UNL A   1      30.557  23.658  27.719  1.00  0.00     0.210 HD
ENDBRANCH  28  29
ENDBRANCH  14  28
ENDBRANCH   7  13
ENDBRANCH   3   6
ENDBRANCH   1   2
BRANCH   1  31
ATOM     31  C   UNL A   1      33.087  31.903  27.864  1.00  0.00     0.042 C 
BRANCH  31  32
ATOM     32  C   UNL A   1      33.036  33.123  26.940  1.00  0.00     0.118 C 
BRANCH  32  33
ATOM     33  N   UNL A   1      32.753  34.347  27.676  1.00  0.00    -0.352 N 
ATOM     34  C   UNL A   1      33.200  34.766  28.902  1.00  0.00     0.251 C 
ATOM     35  H   UNL A   1      32.143  34.973  27.222  1.00  0.00     0.163 HD
ATOM     36  O   UNL A   1      32.616  35.700  29.458  1.00  0.00    -0.269 OA
BRANCH  34  37
ATOM     37  C   UNL A   1      34.357  34.121  29.562  1.00  0.00     0.039 A 
ATOM     38  C   UNL A   1      34.131  33.324  30.689  1.00  0.00     0.014 A 
ATOM     39  C   UNL A   1      35.667  34.355  29.130  1.00  0.00     0.014 A 
ATOM     40  C   UNL A   1      35.209  32.731  31.354  1.00  0.00     0.010 A 
ATOM     41  C   UNL A   1      36.735  33.710  29.754  1.00  0.00     0.010 A 
ATOM     42  C   UNL A   1      36.519  32.901  30.880  1.00  0.00    -0.014 A 
BRANCH  42  43
ATOM     43  C   UNL A   1      37.672  32.260  31.569  1.00  0.00     0.031 A 
ATOM     44  C   UNL A   1      38.419  31.133  30.906  1.00  0.00     0.074 A 
ATOM     45  C   UNL A   1      38.017  32.664  32.807  1.00  0.00     0.049 A 
ATOM     46  N   UNL A   1      39.404  30.405  31.366  1.00  0.00    -0.248 NA
ATOM     47  C   UNL A   1      37.976  30.756  29.555  1.00  0.00     0.031 C 
ATOM     48  C   UNL A   1      37.346  33.719  33.569  1.00  0.00     0.029 A 
ATOM     49  N   UNL A   1      39.012  32.232  33.648  1.00  0.00    -0.354 N 
ATOM     50  C   UNL A   1      39.694  29.480  30.369  1.00  0.00     0.074 A 
ATOM     51  C   UNL A   1      38.734  29.699  29.307  1.00  0.00     0.031 C 
ATOM     52  C   UNL A   1      37.958  33.862  34.755  1.00  0.00     0.029 A 
ATOM     53  C   UNL A   1      39.038  32.887  34.857  1.00  0.00     0.049 A 
ATOM     54  H   UNL A   1      39.647  31.518  33.408  1.00  0.00     0.167 HD
ATOM     55  C   UNL A   1      40.682  28.551  30.329  1.00  0.00     0.034 A 
ATOM     56  C   UNL A   1      39.835  32.715  35.930  1.00  0.00     0.034 A 
ATOM     57  C   UNL A   1      41.636  28.349  31.395  1.00  0.00     0.049 A 
ATOM     58  C   UNL A   1      40.924  31.674  35.867  1.00  0.00     0.074 A 
ATOM     59  C   UNL A   1      42.693  27.458  31.452  1.00  0.00     0.029 A 
ATOM     60  N   UNL A   1      41.645  29.049  32.596  1.00  0.00    -0.354 N 
ATOM     61  N   UNL A   1      41.208  30.832  34.900  1.00  0.00    -0.248 NA
ATOM     62  C   UNL A   1      41.811  31.576  37.033  1.00  0.00     0.031 C 
ATOM     63  C   UNL A   1      43.306  27.580  32.705  1.00  0.00     0.029 A 
ATOM     64  C   UNL A   1      42.678  28.598  33.404  1.00  0.00     0.049 A 
ATOM     65  H   UNL A   1      41.012  29.762  32.837  1.00  0.00     0.167 HD
ATOM     66  C   UNL A   1      42.328  30.125  35.330  1.00  0.00     0.074 A 
ATOM     67  C   UNL A   1      42.675  30.654  36.634  1.00  0.00     0.031 C 
ATOM     68  C   UNL A   1      43.008  29.130  34.706  1.00  0.00     0.034 A 
BRANCH  55  69
ATOM     69  C   UNL A   1      40.760  27.674  29.100  1.00  0.00     0.023 A 
ATOM     70  C   UNL A   1      41.689  27.925  28.074  1.00  0.00     0.031 A 
ATOM     71  C   UNL A   1      39.875  26.595  28.930  1.00  0.00     0.131 A 
ATOM     72  C   UNL A   1      41.655  27.167  26.894  1.00  0.00     0.055 A 
ATOM     73  C   UNL A   1      39.903  25.789  27.789  1.00  0.00     0.041 A 
ATOM     74  F   UNL A   1      38.952  26.314  29.865  1.00  0.00    -0.206 F 
ATOM     75  C   UNL A   1      40.786  26.085  26.755  1.00  0.00     0.022 A 
BRANCH  72  76
ATOM     76  S   UNL A   1      42.661  27.714  25.486  1.00  0.00     0.124 S 
ATOM     77  O   UNL A   1      42.631  26.532  24.628  1.00  0.00    -0.237 OA
ATOM     78  O   UNL A   1      41.922  28.874  25.002  1.00  0.00    -0.237 OA
ATOM     79  O   UNL A   1      43.961  28.006  26.086  1.00  0.00    -0.744 OA
ENDBRANCH  72  76
ENDBRANCH  55  69
BRANCH  56  80
ATOM     80  C   UNL A   1      39.638  33.539  37.157  1.00  0.00     0.023 A 
ATOM     81  C   UNL A   1      38.918  33.044  38.255  1.00  0.00     0.031 A 
ATOM     82  C   UNL A   1      40.131  34.855  37.231  1.00  0.00     0.131 A 
ATOM     83  C   UNL A   1      38.668  33.873  39.360  1.00  0.00     0.055 A 
ATOM     84  C   UNL A   1      39.925  35.658  38.353  1.00  0.00     0.041 A 
ATOM     85  F   UNL A   1      40.833  35.375  36.211  1.00  0.00    -0.206 F 
ATOM     86  C   UNL A   1      39.176  35.173  39.421  1.00  0.00     0.022 A 
BRANCH  83  87
ATOM     87  S   UNL A   1      37.589  33.257  40.682  1.00  0.00     0.124 S 
ATOM     88  O   UNL A   1      36.453  32.745  39.925  1.00  0.00    -0.237 OA
ATOM     89  O   UNL A   1      38.438  32.257  41.322  1.00  0.00    -0.237 OA
ATOM     90  O   UNL A   1      37.320  34.448  41.484  1.00  0.00    -0.744 OA
ENDBRANCH  83  87
ENDBRANCH  56  80
BRANCH  68  91
ATOM     91  C   UNL A   1      44.227  28.590  35.415  1.00  0.00     0.023 A 
ATOM     92  C   UNL A   1      44.134  27.565  36.373  1.00  0.00     0.031 A 
ATOM     93  C   UNL A   1      45.497  29.133  35.148  1.00  0.00     0.131 A 
ATOM     94  C   UNL A   1      45.278  27.163  37.079  1.00  0.00     0.055 A 
ATOM     95  C   UNL A   1      46.641  28.685  35.808  1.00  0.00     0.041 A 
ATOM     96  F   UNL A   1      45.644  30.114  34.244  1.00  0.00    -0.206 F 
ATOM     97  C   UNL A   1      46.533  27.705  36.791  1.00  0.00     0.022 A 
BRANCH  94  98
ATOM     98  S   UNL A   1      45.086  25.997  38.456  1.00  0.00     0.124 S 
ATOM     99  O   UNL A   1      46.418  26.009  39.052  1.00  0.00    -0.237 OA
ATOM    100  O   UNL A   1      44.029  26.620  39.245  1.00  0.00    -0.237 OA
ATOM    101  O   UNL A   1      44.712  24.747  37.798  1.00  0.00    -0.744 OA
ENDBRANCH  94  98
ENDBRANCH  68  91
ENDBRANCH  42  43
ENDBRANCH  34  37
ENDBRANCH  32  33
ENDBRANCH  31  32
ENDBRANCH   1  31
TORSDOF 19
ENDMDL
MODEL 2
REMARK VINA RESULT:     -11.5      1.226      7.599
REMARK SMILES COc1cccc(CC2(CO)CCN(c3nc(C)ccc3C(=O)NCCCNC(=O)c3ccc(-c4c5nc(c(-c6cc(S(=O)(=O)[O-])ccc6F)c6ccc([nH]6)c(-c6cc(S(=O)(=O)[O-])ccc6F)c6nc(c(-c7cc(S(=O)(=O)[O-])ccc7F)c7ccc4[nH]7)C=C6)C=C5)cc3)CC2)c1
REMARK SMILES IDX 25 1 24 2 22 3 23 4 21 6 15 7 16 8 17 9 20 10 18 11 19 12
REMARK SMILES IDX 14 13 9 14 12 15 95 16 13 17 94 18 8 19 7 20 3 21 4 22 96 23
REMARK SMILES IDX 5 24 6 25 2 26 1 27 10 28 11 29 26 31 27 32 28 33 29 34
REMARK SMILES IDX 30 36 31 37 32 38 93 39 33 40 92 41 34 42 35 43 36 44 86 45
REMARK SMILES IDX 37 46 91 47 85 48 87 49 38 50 90 51 84 52 83 53 39 55 71 56
REMARK SMILES IDX 51 57 70 58 52 59 55 60 69 61 88 62 53 63 54 64 68 66 89 67
REMARK SMILES IDX 56 68 40 69 41 70 49 71 42 72 48 73 50 74 47 75 43 76 44 77
REMARK SMILES IDX 45 78 46 79 72 80 73 81 81 82 74 83 80 84 82 85 79 86 75 87
REMARK SMILES IDX 76 88 77 89 78 90 57 91 58 92 66 93 59 94 65 95 67 96 64 97
REMARK SMILES IDX 60 98 61 99 62 100 63 101
REMARK H PARENT 24 5 11 30 28 35 87 54 55 65
REMARK Flexibility Score: inf
ROOT
ATOM      1  C   UNL A   1      33.869  31.040  27.273  1.00  0.00     0.118 C 
ENDROOT
BRANCH   1   2
ATOM      2  N   UNL A   1      33.420  29.704  27.612  1.00  0.00    -0.352 N 
ATOM      3  C   UNL A   1      32.486  28.814  27.141  1.00  0.00     0.255 C 
ATOM      4  O   UNL A   1      32.391  27.831  27.876  1.00  0.00    -0.269 OA
ATOM      5  H   UNL A   1      33.914  29.339  28.381  1.00  0.00     0.163 HD
BRANCH   3   6
ATOM      6  C   UNL A   1      31.688  28.961  25.876  1.00  0.00     0.082 A 
ATOM      7  C   UNL A   1      31.609  27.965  24.873  1.00  0.00     0.141 A 
ATOM      8  N   UNL A   1      31.093  28.265  23.642  1.00  0.00    -0.235 NA
ATOM      9  C   UNL A   1      30.573  29.481  23.382  1.00  0.00     0.040 A 
ATOM     10  C   UNL A   1      31.037  30.175  25.604  1.00  0.00     0.019 A 
ATOM     11  C   UNL A   1      30.071  29.713  21.992  1.00  0.00     0.067 C 
ATOM     12  C   UNL A   1      30.489  30.450  24.355  1.00  0.00     0.024 A 
BRANCH   7  13
ATOM     13  N   UNL A   1      31.971  26.636  24.957  1.00  0.00    -0.356 N 
ATOM     14  C   UNL A   1      32.688  23.801  24.598  1.00  0.00     0.001 C 
ATOM     15  C   UNL A   1      33.526  24.967  24.012  1.00  0.00     0.031 C 
ATOM     16  C   UNL A   1      31.247  24.294  24.875  1.00  0.00     0.031 C 
ATOM     17  C   UNL A   1      33.366  26.331  24.689  1.00  0.00     0.119 C 
ATOM     18  C   UNL A   1      31.164  25.624  25.616  1.00  0.00     0.119 C 
BRANCH  14  19
ATOM     19  C   UNL A   1      33.370  23.104  25.832  1.00  0.00     0.045 C 
BRANCH  19  20
ATOM     20  C   UNL A   1      34.652  22.325  25.660  1.00  0.00    -0.044 A 
ATOM     21  C   UNL A   1      37.078  22.227  25.618  1.00  0.00     0.119 A 
ATOM     22  C   UNL A   1      37.033  20.922  25.142  1.00  0.00     0.046 A 
ATOM     23  C   UNL A   1      35.900  22.936  25.866  1.00  0.00     0.050 A 
ATOM     24  C   UNL A   1      35.804  20.284  25.000  1.00  0.00     0.004 A 
ATOM     25  C   UNL A   1      34.623  20.973  25.290  1.00  0.00     0.004 A 
BRANCH  21  26
ATOM     26  O   UNL A   1      38.307  22.813  25.751  1.00  0.00    -0.497 OA
ATOM     27  C   UNL A   1      39.286  21.849  26.133  1.00  0.00     0.278 C 
ENDBRANCH  21  26
ENDBRANCH  19  20
ENDBRANCH  14  19
BRANCH  14  28
ATOM     28  C   UNL A   1      32.560  22.697  23.503  1.00  0.00     0.163 C 
BRANCH  28  29
ATOM     29  O   UNL A   1      32.161  23.228  22.244  1.00  0.00    -0.396 OA
ATOM     30  H   UNL A   1      32.945  23.367  21.689  1.00  0.00     0.210 HD
ENDBRANCH  28  29
ENDBRANCH  14  28
ENDBRANCH   7  13
ENDBRANCH   3   6
ENDBRANCH   1   2
BRANCH   1  31
ATOM     31  C   UNL A   1      32.987  32.092  27.949  1.00  0.00     0.042 C 
BRANCH  31  32
ATOM     32  C   UNL A   1      33.263  33.520  27.469  1.00  0.00     0.118 C 
BRANCH  32  33
ATOM     33  N   UNL A   1      32.935  34.506  28.489  1.00  0.00    -0.352 N 
ATOM     34  C   UNL A   1      33.384  34.628  29.778  1.00  0.00     0.251 C 
ATOM     35  H   UNL A   1      32.289  35.194  28.209  1.00  0.00     0.163 HD
ATOM     36  O   UNL A   1      32.767  35.363  30.553  1.00  0.00    -0.269 OA
BRANCH  34  37
ATOM     37  C   UNL A   1      34.582  33.898  30.250  1.00  0.00     0.039 A 
ATOM     38  C   UNL A   1      34.425  32.905  31.222  1.00  0.00     0.014 A 
ATOM     39  C   UNL A   1      35.864  34.234  29.802  1.00  0.00     0.014 A 
ATOM     40  C   UNL A   1      35.543  32.223  31.712  1.00  0.00     0.010 A 
ATOM     41  C   UNL A   1      36.971  33.508  30.244  1.00  0.00     0.010 A 
ATOM     42  C   UNL A   1      36.824  32.504  31.212  1.00  0.00    -0.014 A 
BRANCH  42  43
ATOM     43  C   UNL A   1      38.020  31.772  31.713  1.00  0.00     0.031 A 
ATOM     44  C   UNL A   1      38.673  32.185  33.006  1.00  0.00     0.074 A 
ATOM     45  C   UNL A   1      38.541  30.767  30.984  1.00  0.00     0.049 A 
ATOM     46  N   UNL A   1      39.755  31.718  33.576  1.00  0.00    -0.248 NA
ATOM     47  C   UNL A   1      38.039  33.291  33.739  1.00  0.00     0.031 C 
ATOM     48  C   UNL A   1      38.020  30.301  29.696  1.00  0.00     0.029 A 
ATOM     49  N   UNL A   1      39.627  29.961  31.212  1.00  0.00    -0.354 N 
ATOM     50  C   UNL A   1      39.938  32.477  34.727  1.00  0.00     0.074 A 
ATOM     51  C   UNL A   1      38.890  33.478  34.737  1.00  0.00     0.031 C 
ATOM     52  C   UNL A   1      38.777  29.281  29.260  1.00  0.00     0.029 A 
ATOM     53  C   UNL A   1      39.857  29.045  30.211  1.00  0.00     0.049 A 
ATOM     54  H   UNL A   1      40.190  30.031  32.017  1.00  0.00     0.167 HD
ATOM     55  C   UNL A   1      40.875  32.340  35.699  1.00  0.00     0.034 A 
ATOM     56  C   UNL A   1      40.833  28.126  30.070  1.00  0.00     0.034 A 
ATOM     57  C   UNL A   1      41.910  31.333  35.678  1.00  0.00     0.049 A 
ATOM     58  C   UNL A   1      41.867  27.993  31.159  1.00  0.00     0.074 A 
ATOM     59  C   UNL A   1      42.893  31.083  36.619  1.00  0.00     0.029 A 
ATOM     60  N   UNL A   1      42.097  30.407  34.658  1.00  0.00    -0.354 N 
ATOM     61  N   UNL A   1      42.004  28.695  32.261  1.00  0.00    -0.248 NA
ATOM     62  C   UNL A   1      42.867  26.930  30.994  1.00  0.00     0.031 C 
ATOM     63  C   UNL A   1      43.706  30.047  36.143  1.00  0.00     0.029 A 
ATOM     64  C   UNL A   1      43.188  29.598  34.939  1.00  0.00     0.049 A 
ATOM     65  H   UNL A   1      41.535  30.335  33.853  1.00  0.00     0.167 HD
ATOM     66  C   UNL A   1      43.086  28.136  32.935  1.00  0.00     0.074 A 
ATOM     67  C   UNL A   1      43.552  27.030  32.124  1.00  0.00     0.031 C 
ATOM     68  C   UNL A   1      43.645  28.503  34.117  1.00  0.00     0.034 A 
BRANCH  55  69
ATOM     69  C   UNL A   1      40.828  33.318  36.851  1.00  0.00     0.023 A 
ATOM     70  C   UNL A   1      40.296  32.957  38.102  1.00  0.00     0.031 A 
ATOM     71  C   UNL A   1      41.286  34.638  36.691  1.00  0.00     0.131 A 
ATOM     72  C   UNL A   1      40.157  33.922  39.111  1.00  0.00     0.055 A 
ATOM     73  C   UNL A   1      41.223  35.571  37.728  1.00  0.00     0.041 A 
ATOM     74  F   UNL A   1      41.787  35.050  35.515  1.00  0.00    -0.206 F 
ATOM     75  C   UNL A   1      40.640  35.220  38.942  1.00  0.00     0.022 A 
BRANCH  72  76
ATOM     76  S   UNL A   1      39.198  33.494  40.591  1.00  0.00     0.124 S 
ATOM     77  O   UNL A   1      37.937  34.186  40.335  1.00  0.00    -0.237 OA
ATOM     78  O   UNL A   1      39.152  32.038  40.527  1.00  0.00    -0.237 OA
ATOM     79  O   UNL A   1      39.992  34.047  41.686  1.00  0.00    -0.744 OA
ENDBRANCH  72  76
ENDBRANCH  55  69
BRANCH  56  80
ATOM     80  C   UNL A   1      40.888  27.263  28.856  1.00  0.00     0.023 A 
ATOM     81  C   UNL A   1      41.853  27.474  27.859  1.00  0.00     0.031 A 
ATOM     82  C   UNL A   1      39.946  26.238  28.656  1.00  0.00     0.131 A 
ATOM     83  C   UNL A   1      41.824  26.706  26.683  1.00  0.00     0.055 A 
ATOM     84  C   UNL A   1      39.954  25.442  27.510  1.00  0.00     0.041 A 
ATOM     85  F   UNL A   1      39.008  25.987  29.583  1.00  0.00    -0.206 F 
ATOM     86  C   UNL A   1      40.889  25.685  26.508  1.00  0.00     0.022 A 
BRANCH  83  87
ATOM     87  S   UNL A   1      42.976  27.125  25.346  1.00  0.00     0.124 S 
ATOM     88  O   UNL A   1      44.160  27.538  26.089  1.00  0.00    -0.237 OA
ATOM     89  O   UNL A   1      43.077  25.857  24.629  1.00  0.00    -0.237 OA
ATOM     90  O   UNL A   1      42.286  28.192  24.625  1.00  0.00    -0.744 OA
ENDBRANCH  83  87
ENDBRANCH  56  80
BRANCH  68  91
ATOM     91  C   UNL A   1      44.793  27.659  34.618  1.00  0.00     0.023 A 
ATOM     92  C   UNL A   1      44.585  26.544  35.449  1.00  0.00     0.031 A 
ATOM     93  C   UNL A   1      46.116  27.997  34.281  1.00  0.00     0.131 A 
ATOM     94  C   UNL A   1      45.686  25.849  35.972  1.00  0.00     0.055 A 
ATOM     95  C   UNL A   1      47.205  27.262  34.753  1.00  0.00     0.041 A 
ATOM     96  F   UNL A   1      46.373  29.051  33.492  1.00  0.00    -0.206 F 
ATOM     97  C   UNL A   1      46.993  26.191  35.616  1.00  0.00     0.022 A 
BRANCH  94  98
ATOM     98  S   UNL A   1      45.390  24.556  37.211  1.00  0.00     0.124 S 
ATOM     99  O   UNL A   1      44.077  24.926  37.728  1.00  0.00    -0.237 OA
ATOM    100  O   UNL A   1      45.440  23.339  36.409  1.00  0.00    -0.237 OA
ATOM    101  O   UNL A   1      46.496  24.724  38.152  1.00  0.00    -0.744 OA
ENDBRANCH  94  98
ENDBRANCH  68  91
ENDBRANCH  42  43
ENDBRANCH  34  37
ENDBRANCH  32  33
ENDBRANCH  31  32
ENDBRANCH   1  31
TORSDOF 19
ENDMDL
MODEL 3
REMARK VINA RESULT:     -11.2      3.073      8.132
REMARK SMILES COc1cccc(CC2(CO)CCN(c3nc(C)ccc3C(=O)NCCCNC(=O)c3ccc(-c4c5nc(c(-c6cc(S(=O)(=O)[O-])ccc6F)c6ccc([nH]6)c(-c6cc(S(=O)(=O)[O-])ccc6F)c6nc(c(-c7cc(S(=O)(=O)[O-])ccc7F)c7ccc4[nH]7)C=C6)C=C5)cc3)CC2)c1
REMARK SMILES IDX 25 1 24 2 22 3 23 4 21 6 15 7 16 8 17 9 20 10 18 11 19 12
REMARK SMILES IDX 14 13 9 14 12 15 95 16 13 17 94 18 8 19 7 20 3 21 4 22 96 23
REMARK SMILES IDX 5 24 6 25 2 26 1 27 10 28 11 29 26 31 27 32 28 33 29 34
REMARK SMILES IDX 30 36 31 37 32 38 93 39 33 40 92 41 34 42 35 43 36 44 86 45
REMARK SMILES IDX 37 46 91 47 85 48 87 49 38 50 90 51 84 52 83 53 39 55 71 56
REMARK SMILES IDX 51 57 70 58 52 59 55 60 69 61 88 62 53 63 54 64 68 66 89 67
REMARK SMILES IDX 56 68 40 69 41 70 49 71 42 72 48 73 50 74 47 75 43 76 44 77
REMARK SMILES IDX 45 78 46 79 72 80 73 81 81 82 74 83 80 84 82 85 79 86 75 87
REMARK SMILES IDX 76 88 77 89 78 90 57 91 58 92 66 93 59 94 65 95 67 96 64 97
REMARK SMILES IDX 60 98 61 99 62 100 63 101
REMARK H PARENT 24 5 11 30 28 35 87 54 55 65
REMARK Flexibility Score: inf
ROOT
ATOM      1  C   UNL A   1      34.229  29.432  26.973  1.00  0.00     0.118 C 
ENDROOT
BRANCH   1   2
ATOM      2  N   UNL A   1      33.333  28.343  27.308  1.00  0.00    -0.352 N 
ATOM      3  C   UNL A   1      32.164  27.822  26.814  1.00  0.00     0.255 C 
ATOM      4  O   UNL A   1      31.710  26.949  27.554  1.00  0.00    -0.269 OA
ATOM      5  H   UNL A   1      33.647  27.845  28.098  1.00  0.00     0.163 HD
BRANCH   3   6
ATOM      6  C   UNL A   1      31.504  28.209  25.519  1.00  0.00     0.082 A 
ATOM      7  C   UNL A   1      31.470  27.380  24.372  1.00  0.00     0.141 A 
ATOM      8  N   UNL A   1      31.096  27.894  23.161  1.00  0.00    -0.235 NA
ATOM      9  C   UNL A   1      30.672  29.168  23.045  1.00  0.00     0.040 A 
ATOM     10  C   UNL A   1      30.951  29.493  25.380  1.00  0.00     0.019 A 
ATOM     11  C   UNL A   1      30.324  29.637  21.668  1.00  0.00     0.067 C 
ATOM     12  C   UNL A   1      30.546  29.986  24.144  1.00  0.00     0.024 A 
BRANCH   7  13
ATOM     13  N   UNL A   1      31.748  26.031  24.283  1.00  0.00    -0.356 N 
ATOM     14  C   UNL A   1      32.483  23.266  23.583  1.00  0.00     0.001 C 
ATOM     15  C   UNL A   1      33.501  24.436  23.596  1.00  0.00     0.031 C 
ATOM     16  C   UNL A   1      31.050  23.835  23.443  1.00  0.00     0.031 C 
ATOM     17  C   UNL A   1      33.138  25.648  24.456  1.00  0.00     0.119 C 
ATOM     18  C   UNL A   1      30.736  24.995  24.382  1.00  0.00     0.119 C 
BRANCH  14  19
ATOM     19  C   UNL A   1      32.659  22.275  24.793  1.00  0.00     0.045 C 
BRANCH  19  20
ATOM     20  C   UNL A   1      33.637  21.128  24.707  1.00  0.00    -0.044 A 
ATOM     21  C   UNL A   1      34.098  18.754  24.489  1.00  0.00     0.119 A 
ATOM     22  C   UNL A   1      35.445  18.976  24.750  1.00  0.00     0.046 A 
ATOM     23  C   UNL A   1      33.190  19.816  24.478  1.00  0.00     0.050 A 
ATOM     24  C   UNL A   1      35.909  20.278  24.909  1.00  0.00     0.004 A 
ATOM     25  C   UNL A   1      35.013  21.349  24.854  1.00  0.00     0.004 A 
BRANCH  21  26
ATOM     26  O   UNL A   1      33.686  17.459  24.330  1.00  0.00    -0.497 OA
ATOM     27  C   UNL A   1      33.053  16.982  25.516  1.00  0.00     0.278 C 
ENDBRANCH  21  26
ENDBRANCH  19  20
ENDBRANCH  14  19
BRANCH  14  28
ATOM     28  C   UNL A   1      32.734  22.417  22.299  1.00  0.00     0.163 C 
BRANCH  28  29
ATOM     29  O   UNL A   1      31.622  21.591  21.971  1.00  0.00    -0.396 OA
ATOM     30  H   UNL A   1      31.048  22.056  21.342  1.00  0.00     0.210 HD
ENDBRANCH  28  29
ENDBRANCH  14  28
ENDBRANCH   7  13
ENDBRANCH   3   6
ENDBRANCH   1   2
BRANCH   1  31
ATOM     31  C   UNL A   1      33.627  30.773  27.397  1.00  0.00     0.042 C 
BRANCH  31  32
ATOM     32  C   UNL A   1      34.679  31.828  27.753  1.00  0.00     0.118 C 
BRANCH  32  33
ATOM     33  N   UNL A   1      34.360  32.511  28.999  1.00  0.00    -0.352 N 
ATOM     34  C   UNL A   1      34.934  32.404  30.239  1.00  0.00     0.251 C 
ATOM     35  H   UNL A   1      33.613  33.150  28.943  1.00  0.00     0.163 HD
ATOM     36  O   UNL A   1      34.330  32.860  31.213  1.00  0.00    -0.269 OA
BRANCH  34  37
ATOM     37  C   UNL A   1      36.252  31.756  30.424  1.00  0.00     0.039 A 
ATOM     38  C   UNL A   1      36.330  30.605  31.215  1.00  0.00     0.014 A 
ATOM     39  C   UNL A   1      37.420  32.313  29.892  1.00  0.00     0.014 A 
ATOM     40  C   UNL A   1      37.567  29.991  31.437  1.00  0.00     0.010 A 
ATOM     41  C   UNL A   1      38.643  31.662  30.060  1.00  0.00     0.010 A 
ATOM     42  C   UNL A   1      38.732  30.503  30.844  1.00  0.00    -0.014 A 
BRANCH  42  43
ATOM     43  C   UNL A   1      40.051  29.848  31.058  1.00  0.00     0.031 A 
ATOM     44  C   UNL A   1      40.981  30.350  32.132  1.00  0.00     0.074 A 
ATOM     45  C   UNL A   1      40.429  28.832  30.258  1.00  0.00     0.049 A 
ATOM     46  N   UNL A   1      42.193  29.958  32.432  1.00  0.00    -0.248 NA
ATOM     47  C   UNL A   1      40.489  31.462  32.959  1.00  0.00     0.031 C 
ATOM     48  C   UNL A   1      39.633  28.283  29.159  1.00  0.00     0.029 A 
ATOM     49  N   UNL A   1      41.580  28.085  30.238  1.00  0.00    -0.354 N 
ATOM     50  C   UNL A   1      42.613  30.779  33.473  1.00  0.00     0.074 A 
ATOM     51  C   UNL A   1      41.548  31.732  33.707  1.00  0.00     0.031 C 
ATOM     52  C   UNL A   1      40.312  27.276  28.585  1.00  0.00     0.029 A 
ATOM     53  C   UNL A   1      41.604  27.133  29.245  1.00  0.00     0.049 A 
ATOM     54  H   UNL A   1      42.319  28.217  30.876  1.00  0.00     0.167 HD
ATOM     55  C   UNL A   1      43.767  30.728  34.186  1.00  0.00     0.034 A 
ATOM     56  C   UNL A   1      42.564  26.251  28.900  1.00  0.00     0.034 A 
ATOM     57  C   UNL A   1      44.817  29.767  33.944  1.00  0.00     0.049 A 
ATOM     58  C   UNL A   1      43.840  26.215  29.702  1.00  0.00     0.074 A 
ATOM     59  C   UNL A   1      46.014  29.605  34.620  1.00  0.00     0.029 A 
ATOM     60  N   UNL A   1      44.795  28.801  32.944  1.00  0.00    -0.354 N 
ATOM     61  N   UNL A   1      44.206  26.974  30.709  1.00  0.00    -0.248 NA
ATOM     62  C   UNL A   1      44.823  25.189  29.332  1.00  0.00     0.031 C 
ATOM     63  C   UNL A   1      46.738  28.582  33.995  1.00  0.00     0.029 A 
ATOM     64  C   UNL A   1      45.964  28.055  32.974  1.00  0.00     0.049 A 
ATOM     65  H   UNL A   1      44.057  28.667  32.307  1.00  0.00     0.167 HD
ATOM     66  C   UNL A   1      45.450  26.495  31.113  1.00  0.00     0.074 A 
ATOM     67  C   UNL A   1      45.759  25.372  30.252  1.00  0.00     0.031 C 
ATOM     68  C   UNL A   1      46.262  26.942  32.104  1.00  0.00     0.034 A 
BRANCH  55  69
ATOM     69  C   UNL A   1      43.953  31.758  35.277  1.00  0.00     0.023 A 
ATOM     70  C   UNL A   1      43.567  31.501  36.605  1.00  0.00     0.031 A 
ATOM     71  C   UNL A   1      44.488  33.025  34.985  1.00  0.00     0.131 A 
ATOM     72  C   UNL A   1      43.642  32.519  37.568  1.00  0.00     0.055 A 
ATOM     73  C   UNL A   1      44.640  34.006  35.968  1.00  0.00     0.041 A 
ATOM     74  F   UNL A   1      44.858  33.339  33.733  1.00  0.00    -0.206 F 
ATOM     75  C   UNL A   1      44.199  33.762  37.264  1.00  0.00     0.022 A 
BRANCH  72  76
ATOM     76  S   UNL A   1      42.859  32.242  39.182  1.00  0.00     0.124 S 
ATOM     77  O   UNL A   1      41.501  31.872  38.791  1.00  0.00    -0.237 OA
ATOM     78  O   UNL A   1      43.675  31.175  39.749  1.00  0.00    -0.237 OA
ATOM     79  O   UNL A   1      42.976  33.539  39.846  1.00  0.00    -0.744 OA
ENDBRANCH  72  76
ENDBRANCH  55  69
BRANCH  56  80
ATOM     80  C   UNL A   1      42.364  25.333  27.742  1.00  0.00     0.023 A 
ATOM     81  C   UNL A   1      41.612  24.155  27.872  1.00  0.00     0.031 A 
ATOM     82  C   UNL A   1      42.961  25.600  26.497  1.00  0.00     0.131 A 
ATOM     83  C   UNL A   1      41.516  23.263  26.792  1.00  0.00     0.055 A 
ATOM     84  C   UNL A   1      42.820  24.737  25.410  1.00  0.00     0.041 A 
ATOM     85  F   UNL A   1      43.683  26.718  26.316  1.00  0.00    -0.206 F 
ATOM     86  C   UNL A   1      42.106  23.551  25.559  1.00  0.00     0.022 A 
BRANCH  83  87
ATOM     87  S   UNL A   1      40.684  21.672  27.051  1.00  0.00     0.124 S 
ATOM     88  O   UNL A   1      41.417  20.800  26.142  1.00  0.00    -0.237 OA
ATOM     89  O   UNL A   1      40.904  21.446  28.476  1.00  0.00    -0.237 OA
ATOM     90  O   UNL A   1      39.300  21.948  26.673  1.00  0.00    -0.744 OA
ENDBRANCH  83  87
ENDBRANCH  56  80
BRANCH  68  91
ATOM     91  C   UNL A   1      47.541  26.173  32.334  1.00  0.00     0.023 A 
ATOM     92  C   UNL A   1      47.630  25.153  33.297  1.00  0.00     0.031 A 
ATOM     93  C   UNL A   1      48.697  26.489  31.596  1.00  0.00     0.131 A 
ATOM     94  C   UNL A   1      48.864  24.533  33.546  1.00  0.00     0.055 A 
ATOM     95  C   UNL A   1      49.906  25.825  31.805  1.00  0.00     0.041 A 
ATOM     96  F   UNL A   1      48.670  27.455  30.665  1.00  0.00    -0.206 F 
ATOM     97  C   UNL A   1      49.998  24.851  32.795  1.00  0.00     0.022 A 
BRANCH  94  98
ATOM     98  S   UNL A   1      48.992  23.380  34.942  1.00  0.00     0.124 S 
ATOM     99  O   UNL A   1      48.176  22.259  34.486  1.00  0.00    -0.237 OA
ATOM    100  O   UNL A   1      50.428  23.136  35.013  1.00  0.00    -0.237 OA
ATOM    101  O   UNL A   1      48.436  24.135  36.063  1.00  0.00    -0.744 OA
ENDBRANCH  94  98
ENDBRANCH  68  91
ENDBRANCH  42  43
ENDBRANCH  34  37
ENDBRANCH  32  33
ENDBRANCH  31  32
ENDBRANCH   1  31
TORSDOF 19
ENDMDL
