MODEL 1
REMARK VINA RESULT:     -13.6      0.000      0.000
REMARK SMILES O=C(NCCCNC(=O)c1ccc(-c2c3nc(c(-c4cc(S(=O)(=O)[O-])ccc4F)c4ccc([nH]4)c(-c4cc(S(=O)(=O)[O-])ccc4F)c4nc(c(-c5cc(S(=O)(=O)[O-])ccc5F)c5ccc2[nH]5)C=C4)C=C3)cc1)C1=NN(c2ccc(S(=O)(=O)[O-])cc2)C(=O)/C1=C/Nc1ccccc1
REMARK SMILES IDX 5 1 4 2 3 3 1 4 2 5 73 7 74 8 88 9 75 10 86 11 89 12 87 13
REMARK SMILES IDX 76 14 77 15 85 16 78 17 84 18 79 19 80 20 81 21 82 22 83 23
REMARK SMILES IDX 90 24 91 26 92 27 96 28 93 29 95 30 94 31 6 32 7 33 8 34
REMARK SMILES IDX 9 36 10 37 11 38 72 39 12 40 71 41 13 42 14 43 15 44 65 45
REMARK SMILES IDX 16 46 70 47 64 48 66 49 17 50 69 51 63 52 62 53 18 55 50 56
REMARK SMILES IDX 30 57 49 58 31 59 34 60 48 61 67 62 32 63 33 64 47 66 68 67
REMARK SMILES IDX 35 68 19 69 20 70 28 71 21 72 27 73 29 74 26 75 22 76 23 77
REMARK SMILES IDX 24 78 25 79 51 80 52 81 60 82 53 83 59 84 61 85 58 86 54 87
REMARK SMILES IDX 55 88 56 89 57 90 36 91 37 92 45 93 38 94 44 95 46 96 43 97
REMARK SMILES IDX 39 98 40 99 41 100 42 101
REMARK H PARENT 3 6 90 25 7 35 66 54 34 65
REMARK Flexibility Score: inf
ROOT
ATOM      1  C   UNL A   1      32.226  29.838  25.316  1.00  0.00     0.042 C 
ENDROOT
BRANCH   1   2
ATOM      2  C   UNL A   1      33.439  28.937  25.139  1.00  0.00     0.118 C 
BRANCH   2   3
ATOM      3  N   UNL A   1      33.899  28.867  23.761  1.00  0.00    -0.351 N 
ATOM      4  O   UNL A   1      33.921  28.061  21.643  1.00  0.00    -0.267 OA
ATOM      5  C   UNL A   1      33.614  27.912  22.819  1.00  0.00     0.272 C 
ATOM      6  H   UNL A   1      34.489  29.599  23.467  1.00  0.00     0.163 HD
BRANCH   5   7
ATOM      7  C   UNL A   1      32.833  26.698  23.203  1.00  0.00     0.163 C 
ATOM      8  N   UNL A   1      33.380  25.558  23.544  1.00  0.00    -0.158 NA
ATOM      9  C   UNL A   1      31.372  26.644  23.186  1.00  0.00     0.091 C 
ATOM     10  N   UNL A   1      32.309  24.677  23.734  1.00  0.00    -0.196 N 
ATOM     11  C   UNL A   1      31.044  25.276  23.624  1.00  0.00     0.282 C 
ATOM     12  C   UNL A   1      30.456  27.543  22.819  1.00  0.00     0.099 C 
ATOM     13  O   UNL A   1      29.919  24.833  23.773  1.00  0.00    -0.267 OA
BRANCH  10  14
ATOM     14  C   UNL A   1      32.582  23.290  23.751  1.00  0.00     0.069 A 
ATOM     15  C   UNL A   1      32.043  22.435  22.777  1.00  0.00     0.030 A 
ATOM     16  C   UNL A   1      33.311  22.724  24.809  1.00  0.00     0.030 A 
ATOM     17  C   UNL A   1      32.215  21.048  22.865  1.00  0.00     0.021 A 
ATOM     18  C   UNL A   1      33.462  21.340  24.922  1.00  0.00     0.021 A 
ATOM     19  C   UNL A   1      32.913  20.509  23.949  1.00  0.00     0.054 A 
BRANCH  19  20
ATOM     20  S   UNL A   1      33.031  18.753  24.118  1.00  0.00     0.124 S 
ATOM     21  O   UNL A   1      32.329  18.143  23.010  1.00  0.00    -0.237 OA
ATOM     22  O   UNL A   1      34.405  18.422  24.424  1.00  0.00    -0.237 OA
ATOM     23  O   UNL A   1      32.186  18.387  25.446  1.00  0.00    -0.744 OA
ENDBRANCH  19  20
ENDBRANCH  10  14
BRANCH  12  24
ATOM     24  N   UNL A   1      30.635  28.756  22.207  1.00  0.00    -0.361 N 
ATOM     25  H   UNL A   1      31.422  28.845  21.623  1.00  0.00     0.166 HD
BRANCH  24  26
ATOM     26  C   UNL A   1      29.811  29.885  22.329  1.00  0.00     0.038 A 
ATOM     27  C   UNL A   1      29.247  30.442  21.174  1.00  0.00     0.026 A 
ATOM     28  C   UNL A   1      29.480  30.440  23.571  1.00  0.00     0.026 A 
ATOM     29  C   UNL A   1      28.391  31.541  21.254  1.00  0.00     0.002 A 
ATOM     30  C   UNL A   1      28.643  31.557  23.652  1.00  0.00     0.002 A 
ATOM     31  C   UNL A   1      28.097  32.105  22.494  1.00  0.00     0.000 A 
ENDBRANCH  24  26
ENDBRANCH  12  24
ENDBRANCH   5   7
ENDBRANCH   2   3
ENDBRANCH   1   2
BRANCH   1  32
ATOM     32  C   UNL A   1      31.993  30.327  26.741  1.00  0.00     0.118 C 
BRANCH  32  33
ATOM     33  N   UNL A   1      31.946  31.777  26.861  1.00  0.00    -0.352 N 
ATOM     34  C   UNL A   1      32.853  32.651  27.418  1.00  0.00     0.251 C 
ATOM     35  H   UNL A   1      31.139  32.199  26.485  1.00  0.00     0.163 HD
ATOM     36  O   UNL A   1      32.554  33.837  27.524  1.00  0.00    -0.269 OA
BRANCH  34  37
ATOM     37  C   UNL A   1      34.158  32.167  27.926  1.00  0.00     0.039 A 
ATOM     38  C   UNL A   1      35.206  33.082  28.069  1.00  0.00     0.014 A 
ATOM     39  C   UNL A   1      34.357  30.828  28.272  1.00  0.00     0.014 A 
ATOM     40  C   UNL A   1      36.413  32.675  28.644  1.00  0.00     0.010 A 
ATOM     41  C   UNL A   1      35.526  30.445  28.926  1.00  0.00     0.010 A 
ATOM     42  C   UNL A   1      36.567  31.365  29.128  1.00  0.00    -0.014 A 
BRANCH  42  43
ATOM     43  C   UNL A   1      37.793  30.947  29.859  1.00  0.00     0.031 A 
ATOM     44  C   UNL A   1      38.748  29.960  29.240  1.00  0.00     0.074 A 
ATOM     45  C   UNL A   1      38.009  31.396  31.112  1.00  0.00     0.049 A 
ATOM     46  N   UNL A   1      39.815  29.405  29.755  1.00  0.00    -0.248 NA
ATOM     47  C   UNL A   1      38.440  29.512  27.873  1.00  0.00     0.031 C 
ATOM     48  C   UNL A   1      37.132  32.315  31.844  1.00  0.00     0.029 A 
ATOM     49  N   UNL A   1      39.023  31.134  32.001  1.00  0.00    -0.354 N 
ATOM     50  C   UNL A   1      40.295  28.530  28.786  1.00  0.00     0.074 A 
ATOM     51  C   UNL A   1      39.369  28.588  27.675  1.00  0.00     0.031 C 
ATOM     52  C   UNL A   1      37.657  32.555  33.056  1.00  0.00     0.029 A 
ATOM     53  C   UNL A   1      38.881  31.776  33.210  1.00  0.00     0.049 A 
ATOM     54  H   UNL A   1      39.782  30.542  31.792  1.00  0.00     0.167 HD
ATOM     55  C   UNL A   1      41.416  27.766  28.810  1.00  0.00     0.034 A 
ATOM     56  C   UNL A   1      39.641  31.732  34.323  1.00  0.00     0.034 A 
ATOM     57  C   UNL A   1      42.345  27.737  29.914  1.00  0.00     0.049 A 
ATOM     58  C   UNL A   1      40.883  30.877  34.324  1.00  0.00     0.074 A 
ATOM     59  C   UNL A   1      43.546  27.053  30.012  1.00  0.00     0.029 A 
ATOM     60  N   UNL A   1      42.179  28.417  31.113  1.00  0.00    -0.354 N 
ATOM     61  N   UNL A   1      41.351  30.101  33.376  1.00  0.00    -0.248 NA
ATOM     62  C   UNL A   1      41.703  30.903  35.542  1.00  0.00     0.031 C 
ATOM     63  C   UNL A   1      44.072  27.270  31.290  1.00  0.00     0.029 A 
ATOM     64  C   UNL A   1      43.238  28.146  31.967  1.00  0.00     0.049 A 
ATOM     65  H   UNL A   1      41.419  29.005  31.327  1.00  0.00     0.167 HD
ATOM     66  C   UNL A   1      42.538  29.569  33.874  1.00  0.00     0.074 A 
ATOM     67  C   UNL A   1      42.720  30.127  35.198  1.00  0.00     0.031 C 
ATOM     68  C   UNL A   1      43.402  28.701  33.289  1.00  0.00     0.034 A 
BRANCH  55  69
ATOM     69  C   UNL A   1      41.684  26.884  27.614  1.00  0.00     0.023 A 
ATOM     70  C   UNL A   1      41.283  25.537  27.585  1.00  0.00     0.031 A 
ATOM     71  C   UNL A   1      42.363  27.393  26.493  1.00  0.00     0.131 A 
ATOM     72  C   UNL A   1      41.626  24.727  26.492  1.00  0.00     0.055 A 
ATOM     73  C   UNL A   1      42.632  26.601  25.373  1.00  0.00     0.041 A 
ATOM     74  F   UNL A   1      42.787  28.665  26.470  1.00  0.00    -0.206 F 
ATOM     75  C   UNL A   1      42.274  25.256  25.374  1.00  0.00     0.022 A 
BRANCH  72  76
ATOM     76  S   UNL A   1      41.328  22.942  26.610  1.00  0.00     0.124 S 
ATOM     77  O   UNL A   1      41.875  22.639  27.931  1.00  0.00    -0.237 OA
ATOM     78  O   UNL A   1      39.878  22.855  26.484  1.00  0.00    -0.237 OA
ATOM     79  O   UNL A   1      42.086  22.392  25.488  1.00  0.00    -0.744 OA
ENDBRANCH  72  76
ENDBRANCH  55  69
BRANCH  56  80
ATOM     80  C   UNL A   1      39.252  32.507  35.536  1.00  0.00     0.023 A 
ATOM     81  C   UNL A   1      39.673  33.834  35.712  1.00  0.00     0.031 A 
ATOM     82  C   UNL A   1      38.493  31.915  36.561  1.00  0.00     0.131 A 
ATOM     83  C   UNL A   1      39.378  34.510  36.906  1.00  0.00     0.055 A 
ATOM     84  C   UNL A   1      38.157  32.610  37.725  1.00  0.00     0.041 A 
ATOM     85  F   UNL A   1      38.058  30.651  36.441  1.00  0.00    -0.206 F 
ATOM     86  C   UNL A   1      38.613  33.911  37.908  1.00  0.00     0.022 A 
BRANCH  83  87
ATOM     87  S   UNL A   1      40.088  36.160  37.168  1.00  0.00     0.124 S 
ATOM     88  O   UNL A   1      39.826  36.803  35.885  1.00  0.00    -0.237 OA
ATOM     89  O   UNL A   1      39.311  36.647  38.302  1.00  0.00    -0.237 OA
ATOM     90  O   UNL A   1      41.495  35.882  37.451  1.00  0.00    -0.744 OA
ENDBRANCH  83  87
ENDBRANCH  56  80
BRANCH  68  91
ATOM     91  C   UNL A   1      44.643  28.342  34.068  1.00  0.00     0.023 A 
ATOM     92  C   UNL A   1      44.678  27.238  34.937  1.00  0.00     0.031 A 
ATOM     93  C   UNL A   1      45.802  29.130  33.948  1.00  0.00     0.131 A 
ATOM     94  C   UNL A   1      45.830  26.984  35.697  1.00  0.00     0.055 A 
ATOM     95  C   UNL A   1      46.964  28.837  34.663  1.00  0.00     0.041 A 
ATOM     96  F   UNL A   1      45.824  30.197  33.134  1.00  0.00    -0.206 F 
ATOM     97  C   UNL A   1      46.978  27.768  35.555  1.00  0.00     0.022 A 
BRANCH  94  98
ATOM     98  S   UNL A   1      45.777  25.668  36.944  1.00  0.00     0.124 S 
ATOM     99  O   UNL A   1      45.070  26.317  38.043  1.00  0.00    -0.237 OA
ATOM    100  O   UNL A   1      45.048  24.611  36.251  1.00  0.00    -0.237 OA
ATOM    101  O   UNL A   1      47.188  25.380  37.198  1.00  0.00    -0.744 OA
ENDBRANCH  94  98
ENDBRANCH  68  91
ENDBRANCH  42  43
ENDBRANCH  34  37
ENDBRANCH  32  33
ENDBRANCH   1  32
TORSDOF 17
ENDMDL
MODEL 2
REMARK VINA RESULT:     -13.5      0.632      7.482
REMARK SMILES O=C(NCCCNC(=O)c1ccc(-c2c3nc(c(-c4cc(S(=O)(=O)[O-])ccc4F)c4ccc([nH]4)c(-c4cc(S(=O)(=O)[O-])ccc4F)c4nc(c(-c5cc(S(=O)(=O)[O-])ccc5F)c5ccc2[nH]5)C=C4)C=C3)cc1)C1=NN(c2ccc(S(=O)(=O)[O-])cc2)C(=O)/C1=C/Nc1ccccc1
REMARK SMILES IDX 5 1 4 2 3 3 1 4 2 5 73 7 74 8 88 9 75 10 86 11 89 12 87 13
REMARK SMILES IDX 76 14 77 15 85 16 78 17 84 18 79 19 80 20 81 21 82 22 83 23
REMARK SMILES IDX 90 24 91 26 92 27 96 28 93 29 95 30 94 31 6 32 7 33 8 34
REMARK SMILES IDX 9 36 10 37 11 38 72 39 12 40 71 41 13 42 14 43 15 44 65 45
REMARK SMILES IDX 16 46 70 47 64 48 66 49 17 50 69 51 63 52 62 53 18 55 50 56
REMARK SMILES IDX 30 57 49 58 31 59 34 60 48 61 67 62 32 63 33 64 47 66 68 67
REMARK SMILES IDX 35 68 19 69 20 70 28 71 21 72 27 73 29 74 26 75 22 76 23 77
REMARK SMILES IDX 24 78 25 79 51 80 52 81 60 82 53 83 59 84 61 85 58 86 54 87
REMARK SMILES IDX 55 88 56 89 57 90 36 91 37 92 45 93 38 94 44 95 46 96 43 97
REMARK SMILES IDX 39 98 40 99 41 100 42 101
REMARK H PARENT 3 6 90 25 7 35 66 54 34 65
REMARK Flexibility Score: inf
ROOT
ATOM      1  C   UNL A   1      32.265  29.827  25.374  1.00  0.00     0.042 C 
ENDROOT
BRANCH   1   2
ATOM      2  C   UNL A   1      33.514  28.989  25.154  1.00  0.00     0.118 C 
BRANCH   2   3
ATOM      3  N   UNL A   1      33.911  28.914  23.757  1.00  0.00    -0.351 N 
ATOM      4  O   UNL A   1      33.838  28.097  21.644  1.00  0.00    -0.267 OA
ATOM      5  C   UNL A   1      33.587  27.953  22.833  1.00  0.00     0.272 C 
ATOM      6  H   UNL A   1      34.483  29.647  23.432  1.00  0.00     0.163 HD
BRANCH   5   7
ATOM      7  C   UNL A   1      32.830  26.737  23.259  1.00  0.00     0.163 C 
ATOM      8  N   UNL A   1      33.398  25.608  23.597  1.00  0.00    -0.158 NA
ATOM      9  C   UNL A   1      31.370  26.670  23.289  1.00  0.00     0.091 C 
ATOM     10  N   UNL A   1      32.343  24.720  23.833  1.00  0.00    -0.196 N 
ATOM     11  C   UNL A   1      31.069  25.305  23.757  1.00  0.00     0.282 C 
ATOM     12  C   UNL A   1      30.434  27.555  22.940  1.00  0.00     0.099 C 
ATOM     13  O   UNL A   1      29.954  24.854  23.948  1.00  0.00    -0.267 OA
BRANCH  10  14
ATOM     14  C   UNL A   1      32.629  23.335  23.861  1.00  0.00     0.069 A 
ATOM     15  C   UNL A   1      32.352  22.518  22.754  1.00  0.00     0.030 A 
ATOM     16  C   UNL A   1      33.098  22.731  25.039  1.00  0.00     0.030 A 
ATOM     17  C   UNL A   1      32.524  21.129  22.827  1.00  0.00     0.021 A 
ATOM     18  C   UNL A   1      33.243  21.345  25.131  1.00  0.00     0.021 A 
ATOM     19  C   UNL A   1      32.956  20.552  24.023  1.00  0.00     0.054 A 
BRANCH  19  20
ATOM     20  S   UNL A   1      33.063  18.791  24.147  1.00  0.00     0.124 S 
ATOM     21  O   UNL A   1      32.413  18.215  22.990  1.00  0.00    -0.237 OA
ATOM     22  O   UNL A   1      34.420  18.447  24.508  1.00  0.00    -0.237 OA
ATOM     23  O   UNL A   1      32.156  18.389  25.422  1.00  0.00    -0.744 OA
ENDBRANCH  19  20
ENDBRANCH  10  14
BRANCH  12  24
ATOM     24  N   UNL A   1      30.581  28.761  22.306  1.00  0.00    -0.361 N 
ATOM     25  H   UNL A   1      31.377  28.868  21.738  1.00  0.00     0.166 HD
BRANCH  24  26
ATOM     26  C   UNL A   1      29.713  29.861  22.386  1.00  0.00     0.038 A 
ATOM     27  C   UNL A   1      29.490  30.459  23.633  1.00  0.00     0.026 A 
ATOM     28  C   UNL A   1      29.109  30.422  21.255  1.00  0.00     0.026 A 
ATOM     29  C   UNL A   1      28.665  31.578  23.751  1.00  0.00     0.002 A 
ATOM     30  C   UNL A   1      28.262  31.528  21.375  1.00  0.00     0.002 A 
ATOM     31  C   UNL A   1      28.043  32.106  22.623  1.00  0.00     0.000 A 
ENDBRANCH  24  26
ENDBRANCH  12  24
ENDBRANCH   5   7
ENDBRANCH   2   3
ENDBRANCH   1   2
BRANCH   1  32
ATOM     32  C   UNL A   1      32.078  30.338  26.798  1.00  0.00     0.118 C 
BRANCH  32  33
ATOM     33  N   UNL A   1      32.184  31.784  26.920  1.00  0.00    -0.352 N 
ATOM     34  C   UNL A   1      33.174  32.558  27.483  1.00  0.00     0.251 C 
ATOM     35  H   UNL A   1      31.428  32.289  26.539  1.00  0.00     0.163 HD
ATOM     36  O   UNL A   1      33.001  33.769  27.589  1.00  0.00    -0.269 OA
BRANCH  34  37
ATOM     37  C   UNL A   1      34.418  31.938  27.999  1.00  0.00     0.039 A 
ATOM     38  C   UNL A   1      35.549  32.742  28.168  1.00  0.00     0.014 A 
ATOM     39  C   UNL A   1      34.477  30.582  28.328  1.00  0.00     0.014 A 
ATOM     40  C   UNL A   1      36.703  32.208  28.751  1.00  0.00     0.010 A 
ATOM     41  C   UNL A   1      35.594  30.075  28.989  1.00  0.00     0.010 A 
ATOM     42  C   UNL A   1      36.718  30.883  29.216  1.00  0.00    -0.014 A 
BRANCH  42  43
ATOM     43  C   UNL A   1      37.887  30.334  29.955  1.00  0.00     0.031 A 
ATOM     44  C   UNL A   1      38.153  30.754  31.378  1.00  0.00     0.074 A 
ATOM     45  C   UNL A   1      38.754  29.519  29.322  1.00  0.00     0.049 A 
ATOM     46  N   UNL A   1      39.166  30.460  32.152  1.00  0.00    -0.248 NA
ATOM     47  C   UNL A   1      37.165  31.650  31.997  1.00  0.00     0.031 C 
ATOM     48  C   UNL A   1      38.638  29.079  27.927  1.00  0.00     0.029 A 
ATOM     49  N   UNL A   1      39.912  28.922  29.757  1.00  0.00    -0.354 N 
ATOM     50  C   UNL A   1      38.948  31.149  33.341  1.00  0.00     0.074 A 
ATOM     51  C   UNL A   1      37.736  31.919  33.162  1.00  0.00     0.031 C 
ATOM     52  C   UNL A   1      39.666  28.269  27.633  1.00  0.00     0.029 A 
ATOM     53  C   UNL A   1      40.542  28.164  28.796  1.00  0.00     0.049 A 
ATOM     54  H   UNL A   1      40.260  29.026  30.673  1.00  0.00     0.167 HD
ATOM     55  C   UNL A   1      39.679  31.125  34.483  1.00  0.00     0.034 A 
ATOM     56  C   UNL A   1      41.699  27.474  28.839  1.00  0.00     0.034 A 
ATOM     57  C   UNL A   1      40.872  30.333  34.658  1.00  0.00     0.049 A 
ATOM     58  C   UNL A   1      42.492  27.461  30.122  1.00  0.00     0.074 A 
ATOM     59  C   UNL A   1      41.647  30.180  35.796  1.00  0.00     0.029 A 
ATOM     60  N   UNL A   1      41.468  29.561  33.669  1.00  0.00    -0.354 N 
ATOM     61  N   UNL A   1      42.240  28.073  31.254  1.00  0.00    -0.248 NA
ATOM     62  C   UNL A   1      43.719  26.654  30.133  1.00  0.00     0.031 C 
ATOM     63  C   UNL A   1      42.742  29.369  35.477  1.00  0.00     0.029 A 
ATOM     64  C   UNL A   1      42.614  28.956  34.161  1.00  0.00     0.049 A 
ATOM     65  H   UNL A   1      41.126  29.459  32.751  1.00  0.00     0.167 HD
ATOM     66  C   UNL A   1      43.263  27.700  32.122  1.00  0.00     0.074 A 
ATOM     67  C   UNL A   1      44.124  26.798  31.386  1.00  0.00     0.031 C 
ATOM     68  C   UNL A   1      43.470  28.066  33.413  1.00  0.00     0.034 A 
BRANCH  55  69
ATOM     69  C   UNL A   1      39.216  31.998  35.625  1.00  0.00     0.023 A 
ATOM     70  C   UNL A   1      39.632  33.336  35.747  1.00  0.00     0.031 A 
ATOM     71  C   UNL A   1      38.360  31.483  36.614  1.00  0.00     0.131 A 
ATOM     72  C   UNL A   1      39.249  34.090  36.867  1.00  0.00     0.055 A 
ATOM     73  C   UNL A   1      37.918  32.263  37.686  1.00  0.00     0.041 A 
ATOM     74  F   UNL A   1      37.945  30.208  36.562  1.00  0.00    -0.206 F 
ATOM     75  C   UNL A   1      38.374  33.571  37.824  1.00  0.00     0.022 A 
BRANCH  72  76
ATOM     76  S   UNL A   1      40.017  35.712  37.122  1.00  0.00     0.124 S 
ATOM     77  O   UNL A   1      39.351  36.165  38.342  1.00  0.00    -0.237 OA
ATOM     78  O   UNL A   1      41.430  35.376  37.254  1.00  0.00    -0.237 OA
ATOM     79  O   UNL A   1      39.661  36.454  35.915  1.00  0.00    -0.744 OA
ENDBRANCH  72  76
ENDBRANCH  55  69
BRANCH  56  80
ATOM     80  C   UNL A   1      42.193  26.747  27.634  1.00  0.00     0.023 A 
ATOM     81  C   UNL A   1      41.989  25.366  27.490  1.00  0.00     0.031 A 
ATOM     82  C   UNL A   1      42.918  27.415  26.632  1.00  0.00     0.131 A 
ATOM     83  C   UNL A   1      42.549  24.686  26.397  1.00  0.00     0.055 A 
ATOM     84  C   UNL A   1      43.427  26.743  25.518  1.00  0.00     0.041 A 
ATOM     85  F   UNL A   1      43.135  28.736  26.717  1.00  0.00    -0.206 F 
ATOM     86  C   UNL A   1      43.256  25.367  25.405  1.00  0.00     0.022 A 
BRANCH  83  87
ATOM     87  S   UNL A   1      42.413  22.877  26.338  1.00  0.00     0.124 S 
ATOM     88  O   UNL A   1      43.303  22.477  27.422  1.00  0.00    -0.237 OA
ATOM     89  O   UNL A   1      40.988  22.674  26.569  1.00  0.00    -0.237 OA
ATOM     90  O   UNL A   1      42.878  22.546  24.993  1.00  0.00    -0.744 OA
ENDBRANCH  83  87
ENDBRANCH  56  80
BRANCH  68  91
ATOM     91  C   UNL A   1      44.653  27.450  34.116  1.00  0.00     0.023 A 
ATOM     92  C   UNL A   1      44.527  26.288  34.897  1.00  0.00     0.031 A 
ATOM     93  C   UNL A   1      45.923  28.046  34.014  1.00  0.00     0.131 A 
ATOM     94  C   UNL A   1      45.640  25.790  35.592  1.00  0.00     0.055 A 
ATOM     95  C   UNL A   1      47.039  27.512  34.661  1.00  0.00     0.041 A 
ATOM     96  F   UNL A   1      46.101  29.158  33.283  1.00  0.00    -0.206 F 
ATOM     97  C   UNL A   1      46.897  26.386  35.467  1.00  0.00     0.022 A 
BRANCH  94  98
ATOM     98  S   UNL A   1      45.401  24.403  36.737  1.00  0.00     0.124 S 
ATOM     99  O   UNL A   1      44.333  24.899  37.598  1.00  0.00    -0.237 OA
ATOM    100  O   UNL A   1      45.041  23.314  35.836  1.00  0.00    -0.237 OA
ATOM    101  O   UNL A   1      46.705  24.264  37.383  1.00  0.00    -0.744 OA
ENDBRANCH  94  98
ENDBRANCH  68  91
ENDBRANCH  42  43
ENDBRANCH  34  37
ENDBRANCH  32  33
ENDBRANCH   1  32
TORSDOF 17
ENDMDL
MODEL 3
REMARK VINA RESULT:     -13.3      1.995      2.506
REMARK SMILES O=C(NCCCNC(=O)c1ccc(-c2c3nc(c(-c4cc(S(=O)(=O)[O-])ccc4F)c4ccc([nH]4)c(-c4cc(S(=O)(=O)[O-])ccc4F)c4nc(c(-c5cc(S(=O)(=O)[O-])ccc5F)c5ccc2[nH]5)C=C4)C=C3)cc1)C1=NN(c2ccc(S(=O)(=O)[O-])cc2)C(=O)/C1=C/Nc1ccccc1
REMARK SMILES IDX 5 1 4 2 3 3 1 4 2 5 73 7 74 8 88 9 75 10 86 11 89 12 87 13
REMARK SMILES IDX 76 14 77 15 85 16 78 17 84 18 79 19 80 20 81 21 82 22 83 23
REMARK SMILES IDX 90 24 91 26 92 27 96 28 93 29 95 30 94 31 6 32 7 33 8 34
REMARK SMILES IDX 9 36 10 37 11 38 72 39 12 40 71 41 13 42 14 43 15 44 65 45
REMARK SMILES IDX 16 46 70 47 64 48 66 49 17 50 69 51 63 52 62 53 18 55 50 56
REMARK SMILES IDX 30 57 49 58 31 59 34 60 48 61 67 62 32 63 33 64 47 66 68 67
REMARK SMILES IDX 35 68 19 69 20 70 28 71 21 72 27 73 29 74 26 75 22 76 23 77
REMARK SMILES IDX 24 78 25 79 51 80 52 81 60 82 53 83 59 84 61 85 58 86 54 87
REMARK SMILES IDX 55 88 56 89 57 90 36 91 37 92 45 93 38 94 44 95 46 96 43 97
REMARK SMILES IDX 39 98 40 99 41 100 42 101
REMARK H PARENT 3 6 90 25 7 35 66 54 34 65
REMARK Flexibility Score: inf
ROOT
ATOM      1  C   UNL A   1      31.849  30.928  26.419  1.00  0.00     0.042 C 
ENDROOT
BRANCH   1   2
ATOM      2  C   UNL A   1      32.232  29.547  25.910  1.00  0.00     0.118 C 
BRANCH   2   3
ATOM      3  N   UNL A   1      33.046  29.591  24.705  1.00  0.00    -0.351 N 
ATOM      4  O   UNL A   1      33.717  28.893  22.656  1.00  0.00    -0.267 OA
ATOM      5  C   UNL A   1      33.128  28.657  23.703  1.00  0.00     0.272 C 
ATOM      6  H   UNL A   1      33.607  30.392  24.594  1.00  0.00     0.163 HD
BRANCH   5   7
ATOM      7  C   UNL A   1      32.414  27.353  23.841  1.00  0.00     0.163 C 
ATOM      8  N   UNL A   1      32.951  26.281  24.368  1.00  0.00    -0.158 NA
ATOM      9  C   UNL A   1      31.055  27.126  23.351  1.00  0.00     0.091 C 
ATOM     10  N   UNL A   1      31.989  25.276  24.220  1.00  0.00    -0.196 N 
ATOM     11  C   UNL A   1      30.767  25.721  23.691  1.00  0.00     0.282 C 
ATOM     12  C   UNL A   1      30.209  27.915  22.686  1.00  0.00     0.099 C 
ATOM     13  O   UNL A   1      29.715  25.145  23.477  1.00  0.00    -0.267 OA
BRANCH  10  14
ATOM     14  C   UNL A   1      32.403  23.931  24.357  1.00  0.00     0.069 A 
ATOM     15  C   UNL A   1      32.961  23.232  23.276  1.00  0.00     0.030 A 
ATOM     16  C   UNL A   1      32.163  23.234  25.553  1.00  0.00     0.030 A 
ATOM     17  C   UNL A   1      33.258  21.867  23.380  1.00  0.00     0.021 A 
ATOM     18  C   UNL A   1      32.427  21.866  25.656  1.00  0.00     0.021 A 
ATOM     19  C   UNL A   1      32.974  21.190  24.568  1.00  0.00     0.054 A 
BRANCH  19  20
ATOM     20  S   UNL A   1      33.244  19.445  24.658  1.00  0.00     0.124 S 
ATOM     21  O   UNL A   1      34.671  19.206  24.644  1.00  0.00    -0.237 OA
ATOM     22  O   UNL A   1      32.393  18.911  25.698  1.00  0.00    -0.237 OA
ATOM     23  O   UNL A   1      32.671  18.845  23.272  1.00  0.00    -0.744 OA
ENDBRANCH  19  20
ENDBRANCH  10  14
BRANCH  12  24
ATOM     24  N   UNL A   1      30.432  29.150  22.137  1.00  0.00    -0.361 N 
ATOM     25  H   UNL A   1      31.266  29.263  21.626  1.00  0.00     0.166 HD
BRANCH  24  26
ATOM     26  C   UNL A   1      29.595  30.272  22.231  1.00  0.00     0.038 A 
ATOM     27  C   UNL A   1      29.483  30.933  23.461  1.00  0.00     0.026 A 
ATOM     28  C   UNL A   1      28.916  30.795  21.125  1.00  0.00     0.026 A 
ATOM     29  C   UNL A   1      28.691  32.075  23.589  1.00  0.00     0.002 A 
ATOM     30  C   UNL A   1      28.102  31.924  21.256  1.00  0.00     0.002 A 
ATOM     31  C   UNL A   1      27.993  32.565  22.488  1.00  0.00     0.000 A 
ENDBRANCH  24  26
ENDBRANCH  12  24
ENDBRANCH   5   7
ENDBRANCH   2   3
ENDBRANCH   1   2
BRANCH   1  32
ATOM     32  C   UNL A   1      32.968  31.684  27.126  1.00  0.00     0.118 C 
BRANCH  32  33
ATOM     33  N   UNL A   1      32.675  33.094  27.342  1.00  0.00    -0.352 N 
ATOM     34  C   UNL A   1      33.241  33.994  28.217  1.00  0.00     0.251 C 
ATOM     35  H   UNL A   1      31.959  33.461  26.773  1.00  0.00     0.163 HD
ATOM     36  O   UNL A   1      32.752  35.115  28.322  1.00  0.00    -0.269 OA
BRANCH  34  37
ATOM     37  C   UNL A   1      34.399  33.607  29.058  1.00  0.00     0.039 A 
ATOM     38  C   UNL A   1      34.182  32.770  30.156  1.00  0.00     0.014 A 
ATOM     39  C   UNL A   1      35.692  34.052  28.770  1.00  0.00     0.014 A 
ATOM     40  C   UNL A   1      35.269  32.306  30.903  1.00  0.00     0.010 A 
ATOM     41  C   UNL A   1      36.779  33.518  29.459  1.00  0.00     0.010 A 
ATOM     42  C   UNL A   1      36.583  32.632  30.529  1.00  0.00    -0.014 A 
BRANCH  42  43
ATOM     43  C   UNL A   1      37.757  32.046  31.230  1.00  0.00     0.031 A 
ATOM     44  C   UNL A   1      38.542  30.928  30.594  1.00  0.00     0.074 A 
ATOM     45  C   UNL A   1      38.071  32.465  32.472  1.00  0.00     0.049 A 
ATOM     46  N   UNL A   1      39.532  30.228  31.084  1.00  0.00    -0.248 NA
ATOM     47  C   UNL A   1      38.133  30.522  29.240  1.00  0.00     0.031 C 
ATOM     48  C   UNL A   1      37.357  33.505  33.220  1.00  0.00     0.029 A 
ATOM     49  N   UNL A   1      39.062  32.065  33.335  1.00  0.00    -0.354 N 
ATOM     50  C   UNL A   1      39.853  29.287  30.110  1.00  0.00     0.074 A 
ATOM     51  C   UNL A   1      38.913  29.473  29.025  1.00  0.00     0.031 C 
ATOM     52  C   UNL A   1      37.946  33.673  34.414  1.00  0.00     0.029 A 
ATOM     53  C   UNL A   1      39.049  32.726  34.542  1.00  0.00     0.049 A 
ATOM     54  H   UNL A   1      39.721  31.368  33.111  1.00  0.00     0.167 HD
ATOM     55  C   UNL A   1      40.853  28.371  30.111  1.00  0.00     0.034 A 
ATOM     56  C   UNL A   1      39.826  32.579  35.634  1.00  0.00     0.034 A 
ATOM     57  C   UNL A   1      41.799  28.213  31.188  1.00  0.00     0.049 A 
ATOM     58  C   UNL A   1      40.932  31.554  35.608  1.00  0.00     0.074 A 
ATOM     59  C   UNL A   1      42.891  27.365  31.259  1.00  0.00     0.029 A 
ATOM     60  N   UNL A   1      41.767  28.916  32.386  1.00  0.00    -0.354 N 
ATOM     61  N   UNL A   1      41.256  30.714  34.654  1.00  0.00    -0.248 NA
ATOM     62  C   UNL A   1      41.782  31.468  36.803  1.00  0.00     0.031 C 
ATOM     63  C   UNL A   1      43.480  27.509  32.520  1.00  0.00     0.029 A 
ATOM     64  C   UNL A   1      42.800  28.500  33.212  1.00  0.00     0.049 A 
ATOM     65  H   UNL A   1      41.106  29.609  32.615  1.00  0.00     0.167 HD
ATOM     66  C   UNL A   1      42.368  30.019  35.124  1.00  0.00     0.074 A 
ATOM     67  C   UNL A   1      42.666  30.552  36.438  1.00  0.00     0.031 C 
ATOM     68  C   UNL A   1      43.080  29.032  34.523  1.00  0.00     0.034 A 
BRANCH  55  69
ATOM     69  C   UNL A   1      40.956  27.453  28.916  1.00  0.00     0.023 A 
ATOM     70  C   UNL A   1      41.965  27.609  27.950  1.00  0.00     0.031 A 
ATOM     71  C   UNL A   1      40.025  26.416  28.732  1.00  0.00     0.131 A 
ATOM     72  C   UNL A   1      41.978  26.790  26.810  1.00  0.00     0.055 A 
ATOM     73  C   UNL A   1      40.090  25.553  27.635  1.00  0.00     0.041 A 
ATOM     74  F   UNL A   1      39.027  26.229  29.610  1.00  0.00    -0.206 F 
ATOM     75  C   UNL A   1      41.063  25.747  26.659  1.00  0.00     0.022 A 
BRANCH  72  76
ATOM     76  S   UNL A   1      43.127  27.195  25.467  1.00  0.00     0.124 S 
ATOM     77  O   UNL A   1      44.230  27.814  26.199  1.00  0.00    -0.237 OA
ATOM     78  O   UNL A   1      43.403  25.888  24.883  1.00  0.00    -0.237 OA
ATOM     79  O   UNL A   1      42.359  28.107  24.622  1.00  0.00    -0.744 OA
ENDBRANCH  72  76
ENDBRANCH  55  69
BRANCH  56  80
ATOM     80  C   UNL A   1      39.588  33.408  36.850  1.00  0.00     0.023 A 
ATOM     81  C   UNL A   1      38.982  32.860  37.991  1.00  0.00     0.031 A 
ATOM     82  C   UNL A   1      39.919  34.775  36.871  1.00  0.00     0.131 A 
ATOM     83  C   UNL A   1      38.679  33.683  39.087  1.00  0.00     0.055 A 
ATOM     84  C   UNL A   1      39.663  35.578  37.985  1.00  0.00     0.041 A 
ATOM     85  F   UNL A   1      40.506  35.348  35.809  1.00  0.00    -0.206 F 
ATOM     86  C   UNL A   1      39.025  35.036  39.095  1.00  0.00     0.022 A 
BRANCH  83  87
ATOM     87  S   UNL A   1      37.740  32.976  40.469  1.00  0.00     0.124 S 
ATOM     88  O   UNL A   1      36.368  33.090  39.986  1.00  0.00    -0.237 OA
ATOM     89  O   UNL A   1      38.285  31.626  40.545  1.00  0.00    -0.237 OA
ATOM     90  O   UNL A   1      38.080  33.848  41.591  1.00  0.00    -0.744 OA
ENDBRANCH  83  87
ENDBRANCH  56  80
BRANCH  68  91
ATOM     91  C   UNL A   1      44.278  28.503  35.271  1.00  0.00     0.023 A 
ATOM     92  C   UNL A   1      44.164  27.470  36.217  1.00  0.00     0.031 A 
ATOM     93  C   UNL A   1      45.552  29.054  35.043  1.00  0.00     0.131 A 
ATOM     94  C   UNL A   1      45.292  27.058  36.942  1.00  0.00     0.055 A 
ATOM     95  C   UNL A   1      46.682  28.600  35.725  1.00  0.00     0.041 A 
ATOM     96  F   UNL A   1      45.720  30.044  34.152  1.00  0.00    -0.206 F 
ATOM     97  C   UNL A   1      46.553  27.605  36.691  1.00  0.00     0.022 A 
BRANCH  94  98
ATOM     98  S   UNL A   1      45.074  25.857  38.284  1.00  0.00     0.124 S 
ATOM     99  O   UNL A   1      46.427  25.752  38.821  1.00  0.00    -0.237 OA
ATOM    100  O   UNL A   1      44.097  26.520  39.140  1.00  0.00    -0.237 OA
ATOM    101  O   UNL A   1      44.584  24.662  37.599  1.00  0.00    -0.744 OA
ENDBRANCH  94  98
ENDBRANCH  68  91
ENDBRANCH  42  43
ENDBRANCH  34  37
ENDBRANCH  32  33
ENDBRANCH   1  32
TORSDOF 17
ENDMDL
