MODEL 1
REMARK VINA RESULT:     -12.2      0.000      0.000
REMARK SMILES O=C(NCCCNC(=O)[C@@H]1c2ccccc2C[C@H]1P(O)(O)=S)c1ccc(-c2c3nc(c(-c4cc(S(=O)(=O)[O-])ccc4F)c4ccc([nH]4)c(-c4cc(S(=O)(=O)[O-])ccc4F)c4nc(c(-c5cc(S(=O)(=O)[O-])ccc5F)c5ccc2[nH]5)C=C4)C=C3)cc1
REMARK SMILES IDX 4 1 3 2 1 3 2 4 23 6 24 7 85 8 25 9 84 10 26 11 27 12 28 13
REMARK SMILES IDX 78 14 29 15 83 16 77 17 79 18 30 19 82 20 76 21 75 22 31 24
REMARK SMILES IDX 63 25 43 26 62 27 44 28 47 29 61 30 80 31 45 32 46 33 60 35
REMARK SMILES IDX 81 36 48 37 32 38 33 39 41 40 34 41 40 42 42 43 39 44 35 45
REMARK SMILES IDX 36 46 37 47 38 48 64 49 65 50 73 51 66 52 72 53 74 54 71 55
REMARK SMILES IDX 67 56 68 57 69 58 70 59 49 60 50 61 58 62 51 63 57 64 59 65
REMARK SMILES IDX 56 66 52 67 53 68 54 69 55 70 5 71 6 72 7 73 8 74 9 76 10 77
REMARK SMILES IDX 11 78 18 79 12 80 16 81 17 82 13 83 15 84 14 85 19 86 22 87
REMARK SMILES IDX 20 88 21 90
REMARK H PARENT 3 5 79 23 47 34 7 75 20 89 21 91
REMARK Flexibility Score: inf
ROOT
ATOM      1  C   UNL A   1      33.010  32.698  27.258  1.00  0.00     0.118 C 
ENDROOT
BRANCH   1   2
ATOM      2  N   UNL A   1      32.684  34.053  27.680  1.00  0.00    -0.352 N 
ATOM      3  O   UNL A   1      32.593  35.785  29.114  1.00  0.00    -0.269 OA
ATOM      4  C   UNL A   1      33.165  34.755  28.754  1.00  0.00     0.251 C 
ATOM      5  H   UNL A   1      32.031  34.529  27.118  1.00  0.00     0.163 HD
BRANCH   4   6
ATOM      6  C   UNL A   1      34.367  34.277  29.464  1.00  0.00     0.039 A 
ATOM      7  C   UNL A   1      34.238  33.527  30.639  1.00  0.00     0.014 A 
ATOM      8  C   UNL A   1      35.631  34.532  28.927  1.00  0.00     0.014 A 
ATOM      9  C   UNL A   1      35.372  33.109  31.322  1.00  0.00     0.010 A 
ATOM     10  C   UNL A   1      36.768  34.038  29.570  1.00  0.00     0.010 A 
ATOM     11  C   UNL A   1      36.645  33.319  30.769  1.00  0.00    -0.014 A 
BRANCH  11  12
ATOM     12  C   UNL A   1      37.816  32.649  31.382  1.00  0.00     0.031 A 
ATOM     13  C   UNL A   1      38.509  31.508  30.697  1.00  0.00     0.074 A 
ATOM     14  C   UNL A   1      38.231  33.088  32.589  1.00  0.00     0.049 A 
ATOM     15  N   UNL A   1      39.514  30.788  31.122  1.00  0.00    -0.248 NA
ATOM     16  C   UNL A   1      38.008  31.120  29.370  1.00  0.00     0.031 C 
ATOM     17  C   UNL A   1      37.615  34.189  33.337  1.00  0.00     0.029 A 
ATOM     18  N   UNL A   1      39.254  32.673  33.400  1.00  0.00    -0.354 N 
ATOM     19  C   UNL A   1      39.757  29.848  30.128  1.00  0.00     0.074 A 
ATOM     20  C   UNL A   1      38.784  30.080  29.082  1.00  0.00     0.031 C 
ATOM     21  C   UNL A   1      38.286  34.376  34.483  1.00  0.00     0.029 A 
ATOM     22  C   UNL A   1      39.321  33.357  34.594  1.00  0.00     0.049 A 
ATOM     23  H   UNL A   1      39.882  31.955  33.155  1.00  0.00     0.167 HD
ATOM     24  C   UNL A   1      40.707  28.881  30.105  1.00  0.00     0.034 A 
ATOM     25  C   UNL A   1      40.093  33.156  35.678  1.00  0.00     0.034 A 
ATOM     26  C   UNL A   1      41.671  28.680  31.162  1.00  0.00     0.049 A 
ATOM     27  C   UNL A   1      41.096  32.033  35.641  1.00  0.00     0.074 A 
ATOM     28  C   UNL A   1      42.725  27.785  31.203  1.00  0.00     0.029 A 
ATOM     29  N   UNL A   1      41.682  29.361  32.373  1.00  0.00    -0.354 N 
ATOM     30  N   UNL A   1      41.358  31.198  34.662  1.00  0.00    -0.248 NA
ATOM     31  C   UNL A   1      41.901  31.821  36.849  1.00  0.00     0.031 C 
ATOM     32  C   UNL A   1      43.314  27.859  32.468  1.00  0.00     0.029 A 
ATOM     33  C   UNL A   1      42.686  28.861  33.189  1.00  0.00     0.049 A 
ATOM     34  H   UNL A   1      41.069  30.091  32.616  1.00  0.00     0.167 HD
ATOM     35  C   UNL A   1      42.370  30.370  35.136  1.00  0.00     0.074 A 
ATOM     36  C   UNL A   1      42.693  30.829  36.471  1.00  0.00     0.031 C 
ATOM     37  C   UNL A   1      42.976  29.320  34.527  1.00  0.00     0.034 A 
BRANCH  24  38
ATOM     38  C   UNL A   1      40.730  27.927  28.937  1.00  0.00     0.023 A 
ATOM     39  C   UNL A   1      41.665  28.037  27.896  1.00  0.00     0.031 A 
ATOM     40  C   UNL A   1      39.822  26.852  28.899  1.00  0.00     0.131 A 
ATOM     41  C   UNL A   1      41.653  27.105  26.844  1.00  0.00     0.055 A 
ATOM     42  C   UNL A   1      39.856  25.893  27.885  1.00  0.00     0.041 A 
ATOM     43  F   UNL A   1      38.891  26.710  29.856  1.00  0.00    -0.206 F 
ATOM     44  C   UNL A   1      40.773  26.020  26.847  1.00  0.00     0.022 A 
BRANCH  41  45
ATOM     45  S   UNL A   1      42.747  27.376  25.424  1.00  0.00     0.124 S 
ATOM     46  O   UNL A   1      44.015  27.690  26.079  1.00  0.00    -0.237 OA
ATOM     47  O   UNL A   1      42.688  26.095  24.729  1.00  0.00    -0.237 OA
ATOM     48  O   UNL A   1      42.126  28.497  24.718  1.00  0.00    -0.744 OA
ENDBRANCH  41  45
ENDBRANCH  24  38
BRANCH  25  49
ATOM     49  C   UNL A   1      39.902  33.975  36.910  1.00  0.00     0.023 A 
ATOM     50  C   UNL A   1      40.738  35.065  37.194  1.00  0.00     0.031 A 
ATOM     51  C   UNL A   1      38.921  33.634  37.861  1.00  0.00     0.131 A 
ATOM     52  C   UNL A   1      40.623  35.731  38.424  1.00  0.00     0.055 A 
ATOM     53  C   UNL A   1      38.761  34.347  39.049  1.00  0.00     0.041 A 
ATOM     54  F   UNL A   1      38.096  32.596  37.646  1.00  0.00    -0.206 F 
ATOM     55  C   UNL A   1      39.629  35.392  39.345  1.00  0.00     0.022 A 
BRANCH  52  56
ATOM     56  S   UNL A   1      41.884  36.959  38.861  1.00  0.00     0.124 S 
ATOM     57  O   UNL A   1      42.622  36.263  39.910  1.00  0.00    -0.237 OA
ATOM     58  O   UNL A   1      42.584  37.136  37.594  1.00  0.00    -0.237 OA
ATOM     59  O   UNL A   1      41.098  38.108  39.307  1.00  0.00    -0.744 OA
ENDBRANCH  52  56
ENDBRANCH  25  49
BRANCH  37  60
ATOM     60  C   UNL A   1      44.060  28.616  35.304  1.00  0.00     0.023 A 
ATOM     61  C   UNL A   1      43.765  27.541  36.160  1.00  0.00     0.031 A 
ATOM     62  C   UNL A   1      45.399  29.030  35.194  1.00  0.00     0.131 A 
ATOM     63  C   UNL A   1      44.789  26.945  36.911  1.00  0.00     0.055 A 
ATOM     64  C   UNL A   1      46.423  28.392  35.895  1.00  0.00     0.041 A 
ATOM     65  F   UNL A   1      45.734  30.056  34.395  1.00  0.00    -0.206 F 
ATOM     66  C   UNL A   1      46.119  27.352  36.768  1.00  0.00     0.022 A 
BRANCH  63  67
ATOM     67  S   UNL A   1      44.349  25.685  38.137  1.00  0.00     0.124 S 
ATOM     68  O   UNL A   1      43.951  26.502  39.280  1.00  0.00    -0.237 OA
ATOM     69  O   UNL A   1      43.275  24.957  37.469  1.00  0.00    -0.237 OA
ATOM     70  O   UNL A   1      45.589  24.933  38.315  1.00  0.00    -0.744 OA
ENDBRANCH  63  67
ENDBRANCH  37  60
ENDBRANCH  11  12
ENDBRANCH   4   6
ENDBRANCH   1   2
BRANCH   1  71
ATOM     71  C   UNL A   1      31.770  31.954  26.787  1.00  0.00     0.042 C 
BRANCH  71  72
ATOM     72  C   UNL A   1      31.949  30.440  26.837  1.00  0.00     0.117 C 
BRANCH  72  73
ATOM     73  N   UNL A   1      32.750  29.981  25.715  1.00  0.00    -0.355 N 
ATOM     74  C   UNL A   1      32.518  29.036  24.767  1.00  0.00     0.228 C 
ATOM     75  H   UNL A   1      33.618  30.437  25.625  1.00  0.00     0.163 HD
ATOM     76  O   UNL A   1      33.379  28.898  23.892  1.00  0.00    -0.274 OA
BRANCH  74  77
ATOM     77  C   UNL A   1      31.218  28.245  24.683  1.00  0.00     0.122 C 
ATOM     78  C   UNL A   1      31.384  26.807  25.107  1.00  0.00    -0.031 A 
ATOM     79  C   UNL A   1      30.557  28.092  23.298  1.00  0.00     0.096 C 
ATOM     80  C   UNL A   1      32.211  26.290  26.094  1.00  0.00     0.005 A 
ATOM     81  C   UNL A   1      30.565  25.976  24.340  1.00  0.00    -0.043 A 
ATOM     82  C   UNL A   1      29.755  26.779  23.370  1.00  0.00     0.050 C 
ATOM     83  C   UNL A   1      32.229  24.909  26.287  1.00  0.00     0.000 A 
ATOM     84  C   UNL A   1      30.559  24.606  24.541  1.00  0.00     0.004 A 
ATOM     85  C   UNL A   1      31.407  24.073  25.516  1.00  0.00     0.000 A 
BRANCH  79  86
ATOM     86  P   UNL A   1      29.704  29.531  22.686  1.00  0.00     0.188 P 
ATOM     87  S   UNL A   1      27.801  29.534  22.449  1.00  0.00    -0.037 S 
BRANCH  86  88
ATOM     88  O   UNL A   1      30.149  30.667  23.737  1.00  0.00    -0.345 OA
ATOM     89  H   UNL A   1      30.247  30.273  24.618  1.00  0.00     0.219 HD
ENDBRANCH  86  88
BRANCH  86  90
ATOM     90  O   UNL A   1      30.539  30.074  21.427  1.00  0.00    -0.345 OA
ATOM     91  H   UNL A   1      30.020  30.747  20.961  1.00  0.00     0.219 HD
ENDBRANCH  86  90
ENDBRANCH  79  86
ENDBRANCH  74  77
ENDBRANCH  72  73
ENDBRANCH  71  72
ENDBRANCH   1  71
TORSDOF 16
ENDMDL
MODEL 2
REMARK VINA RESULT:     -12.0      6.665     11.958
REMARK SMILES O=C(NCCCNC(=O)[C@@H]1c2ccccc2C[C@H]1P(O)(O)=S)c1ccc(-c2c3nc(c(-c4cc(S(=O)(=O)[O-])ccc4F)c4ccc([nH]4)c(-c4cc(S(=O)(=O)[O-])ccc4F)c4nc(c(-c5cc(S(=O)(=O)[O-])ccc5F)c5ccc2[nH]5)C=C4)C=C3)cc1
REMARK SMILES IDX 4 1 3 2 1 3 2 4 23 6 24 7 85 8 25 9 84 10 26 11 27 12 28 13
REMARK SMILES IDX 78 14 29 15 83 16 77 17 79 18 30 19 82 20 76 21 75 22 31 24
REMARK SMILES IDX 63 25 43 26 62 27 44 28 47 29 61 30 80 31 45 32 46 33 60 35
REMARK SMILES IDX 81 36 48 37 32 38 33 39 41 40 34 41 40 42 42 43 39 44 35 45
REMARK SMILES IDX 36 46 37 47 38 48 64 49 65 50 73 51 66 52 72 53 74 54 71 55
REMARK SMILES IDX 67 56 68 57 69 58 70 59 49 60 50 61 58 62 51 63 57 64 59 65
REMARK SMILES IDX 56 66 52 67 53 68 54 69 55 70 5 71 6 72 7 73 8 74 9 76 10 77
REMARK SMILES IDX 11 78 18 79 12 80 16 81 17 82 13 83 15 84 14 85 19 86 22 87
REMARK SMILES IDX 20 88 21 90
REMARK H PARENT 3 5 79 23 47 34 7 75 20 89 21 91
REMARK Flexibility Score: inf
ROOT
ATOM      1  C   UNL A   1      39.240  20.597  26.227  1.00  0.00     0.118 C 
ENDROOT
BRANCH   1   2
ATOM      2  N   UNL A   1      40.263  19.564  26.140  1.00  0.00    -0.352 N 
ATOM      3  O   UNL A   1      42.322  18.751  25.734  1.00  0.00    -0.269 OA
ATOM      4  C   UNL A   1      41.623  19.711  26.065  1.00  0.00     0.251 C 
ATOM      5  H   UNL A   1      39.933  18.637  26.134  1.00  0.00     0.163 HD
BRANCH   4   6
ATOM      6  C   UNL A   1      42.241  21.012  26.388  1.00  0.00     0.039 A 
ATOM      7  C   UNL A   1      42.469  21.952  25.377  1.00  0.00     0.014 A 
ATOM      8  C   UNL A   1      42.545  21.318  27.716  1.00  0.00     0.014 A 
ATOM      9  C   UNL A   1      43.080  23.161  25.680  1.00  0.00     0.010 A 
ATOM     10  C   UNL A   1      43.083  22.567  28.031  1.00  0.00     0.010 A 
ATOM     11  C   UNL A   1      43.349  23.499  27.015  1.00  0.00    -0.014 A 
BRANCH  11  12
ATOM     12  C   UNL A   1      43.766  24.884  27.338  1.00  0.00     0.031 A 
ATOM     13  C   UNL A   1      42.793  25.882  27.892  1.00  0.00     0.074 A 
ATOM     14  C   UNL A   1      45.050  25.225  27.101  1.00  0.00     0.049 A 
ATOM     15  N   UNL A   1      42.989  27.142  28.181  1.00  0.00    -0.248 NA
ATOM     16  C   UNL A   1      41.424  25.411  28.150  1.00  0.00     0.031 C 
ATOM     17  C   UNL A   1      46.071  24.323  26.556  1.00  0.00     0.029 A 
ATOM     18  N   UNL A   1      45.720  26.407  27.279  1.00  0.00    -0.354 N 
ATOM     19  C   UNL A   1      41.768  27.624  28.636  1.00  0.00     0.074 A 
ATOM     20  C   UNL A   1      40.830  26.522  28.572  1.00  0.00     0.031 C 
ATOM     21  C   UNL A   1      47.237  24.976  26.467  1.00  0.00     0.029 A 
ATOM     22  C   UNL A   1      47.032  26.363  26.864  1.00  0.00     0.049 A 
ATOM     23  H   UNL A   1      45.304  27.211  27.667  1.00  0.00     0.167 HD
ATOM     24  C   UNL A   1      41.468  28.875  29.061  1.00  0.00     0.034 A 
ATOM     25  C   UNL A   1      47.954  27.339  26.764  1.00  0.00     0.034 A 
ATOM     26  C   UNL A   1      42.429  29.952  29.121  1.00  0.00     0.049 A 
ATOM     27  C   UNL A   1      47.567  28.731  27.187  1.00  0.00     0.074 A 
ATOM     28  C   UNL A   1      42.251  31.234  29.611  1.00  0.00     0.029 A 
ATOM     29  N   UNL A   1      43.735  29.885  28.653  1.00  0.00    -0.354 N 
ATOM     30  N   UNL A   1      46.425  29.152  27.681  1.00  0.00    -0.248 NA
ATOM     31  C   UNL A   1      48.584  29.778  27.039  1.00  0.00     0.031 C 
ATOM     32  C   UNL A   1      43.415  31.966  29.357  1.00  0.00     0.029 A 
ATOM     33  C   UNL A   1      44.352  31.120  28.787  1.00  0.00     0.049 A 
ATOM     34  H   UNL A   1      44.161  29.079  28.282  1.00  0.00     0.167 HD
ATOM     35  C   UNL A   1      46.596  30.513  27.913  1.00  0.00     0.074 A 
ATOM     36  C   UNL A   1      47.957  30.832  27.539  1.00  0.00     0.031 C 
ATOM     37  C   UNL A   1      45.706  31.421  28.387  1.00  0.00     0.034 A 
BRANCH  24  38
ATOM     38  C   UNL A   1      40.041  29.180  29.444  1.00  0.00     0.023 A 
ATOM     39  C   UNL A   1      39.634  29.312  30.781  1.00  0.00     0.031 A 
ATOM     40  C   UNL A   1      39.080  29.392  28.437  1.00  0.00     0.131 A 
ATOM     41  C   UNL A   1      38.295  29.618  31.077  1.00  0.00     0.055 A 
ATOM     42  C   UNL A   1      37.768  29.758  28.735  1.00  0.00     0.041 A 
ATOM     43  F   UNL A   1      39.407  29.257  27.142  1.00  0.00    -0.206 F 
ATOM     44  C   UNL A   1      37.367  29.868  30.063  1.00  0.00     0.022 A 
BRANCH  41  45
ATOM     45  S   UNL A   1      37.757  29.601  32.809  1.00  0.00     0.124 S 
ATOM     46  O   UNL A   1      38.962  30.058  33.500  1.00  0.00    -0.237 OA
ATOM     47  O   UNL A   1      36.635  30.532  32.801  1.00  0.00    -0.237 OA
ATOM     48  O   UNL A   1      37.405  28.202  33.048  1.00  0.00    -0.744 OA
ENDBRANCH  41  45
ENDBRANCH  24  38
BRANCH  25  49
ATOM     49  C   UNL A   1      49.296  27.060  26.174  1.00  0.00     0.023 A 
ATOM     50  C   UNL A   1      49.622  27.486  24.879  1.00  0.00     0.031 A 
ATOM     51  C   UNL A   1      50.250  26.296  26.875  1.00  0.00     0.131 A 
ATOM     52  C   UNL A   1      50.838  27.091  24.299  1.00  0.00     0.055 A 
ATOM     53  C   UNL A   1      51.489  25.971  26.323  1.00  0.00     0.041 A 
ATOM     54  F   UNL A   1      49.990  25.856  28.117  1.00  0.00    -0.206 F 
ATOM     55  C   UNL A   1      51.781  26.353  25.019  1.00  0.00     0.022 A 
BRANCH  52  56
ATOM     56  S   UNL A   1      51.109  27.441  22.541  1.00  0.00     0.124 S 
ATOM     57  O   UNL A   1      50.973  28.893  22.505  1.00  0.00    -0.237 OA
ATOM     58  O   UNL A   1      52.456  26.918  22.334  1.00  0.00    -0.237 OA
ATOM     59  O   UNL A   1      50.041  26.696  21.877  1.00  0.00    -0.744 OA
ENDBRANCH  52  56
ENDBRANCH  25  49
BRANCH  37  60
ATOM     60  C   UNL A   1      46.197  32.838  28.539  1.00  0.00     0.023 A 
ATOM     61  C   UNL A   1      46.209  33.729  27.451  1.00  0.00     0.031 A 
ATOM     62  C   UNL A   1      46.664  33.301  29.781  1.00  0.00     0.131 A 
ATOM     63  C   UNL A   1      46.725  35.022  27.613  1.00  0.00     0.055 A 
ATOM     64  C   UNL A   1      47.117  34.610  29.952  1.00  0.00     0.041 A 
ATOM     65  F   UNL A   1      46.679  32.491  30.851  1.00  0.00    -0.206 F 
ATOM     66  C   UNL A   1      47.161  35.475  28.863  1.00  0.00     0.022 A 
BRANCH  63  67
ATOM     67  S   UNL A   1      46.895  36.082  26.153  1.00  0.00     0.124 S 
ATOM     68  O   UNL A   1      48.330  36.348  26.138  1.00  0.00    -0.237 OA
ATOM     69  O   UNL A   1      46.395  35.225  25.083  1.00  0.00    -0.237 OA
ATOM     70  O   UNL A   1      46.054  37.235  26.466  1.00  0.00    -0.744 OA
ENDBRANCH  63  67
ENDBRANCH  37  60
ENDBRANCH  11  12
ENDBRANCH   4   6
ENDBRANCH   1   2
BRANCH   1  71
ATOM     71  C   UNL A   1      38.347  20.593  24.995  1.00  0.00     0.042 C 
BRANCH  71  72
ATOM     72  C   UNL A   1      37.414  21.798  24.952  1.00  0.00     0.117 C 
BRANCH  72  73
ATOM     73  N   UNL A   1      36.414  21.711  26.003  1.00  0.00    -0.355 N 
ATOM     74  C   UNL A   1      35.073  21.502  25.959  1.00  0.00     0.228 C 
ATOM     75  H   UNL A   1      36.774  21.824  26.912  1.00  0.00     0.163 HD
ATOM     76  O   UNL A   1      34.481  21.428  27.041  1.00  0.00    -0.274 OA
BRANCH  74  77
ATOM     77  C   UNL A   1      34.314  21.250  24.660  1.00  0.00     0.122 C 
ATOM     78  C   UNL A   1      33.843  22.525  24.006  1.00  0.00    -0.031 A 
ATOM     79  C   UNL A   1      33.009  20.433  24.737  1.00  0.00     0.096 C 
ATOM     80  C   UNL A   1      34.472  23.761  23.975  1.00  0.00     0.005 A 
ATOM     81  C   UNL A   1      32.605  22.326  23.391  1.00  0.00    -0.043 A 
ATOM     82  C   UNL A   1      32.159  20.906  23.544  1.00  0.00     0.050 C 
ATOM     83  C   UNL A   1      33.825  24.818  23.337  1.00  0.00     0.000 A 
ATOM     84  C   UNL A   1      31.966  23.365  22.734  1.00  0.00     0.004 A 
ATOM     85  C   UNL A   1      32.580  24.620  22.719  1.00  0.00     0.000 A 
BRANCH  79  86
ATOM     86  P   UNL A   1      33.209  18.675  24.945  1.00  0.00     0.188 P 
ATOM     87  S   UNL A   1      34.848  17.797  24.476  1.00  0.00    -0.037 S 
BRANCH  86  88
ATOM     88  O   UNL A   1      32.882  18.474  26.509  1.00  0.00    -0.345 OA
ATOM     89  H   UNL A   1      33.516  18.982  27.040  1.00  0.00     0.219 HD
ENDBRANCH  86  88
BRANCH  86  90
ATOM     90  O   UNL A   1      31.883  17.978  24.366  1.00  0.00    -0.345 OA
ATOM     91  H   UNL A   1      31.694  18.327  23.482  1.00  0.00     0.219 HD
ENDBRANCH  86  90
ENDBRANCH  79  86
ENDBRANCH  74  77
ENDBRANCH  72  73
ENDBRANCH  71  72
ENDBRANCH   1  71
TORSDOF 16
ENDMDL
MODEL 3
REMARK VINA RESULT:     -11.9      1.995      2.625
REMARK SMILES O=C(NCCCNC(=O)[C@@H]1c2ccccc2C[C@H]1P(O)(O)=S)c1ccc(-c2c3nc(c(-c4cc(S(=O)(=O)[O-])ccc4F)c4ccc([nH]4)c(-c4cc(S(=O)(=O)[O-])ccc4F)c4nc(c(-c5cc(S(=O)(=O)[O-])ccc5F)c5ccc2[nH]5)C=C4)C=C3)cc1
REMARK SMILES IDX 4 1 3 2 1 3 2 4 23 6 24 7 85 8 25 9 84 10 26 11 27 12 28 13
REMARK SMILES IDX 78 14 29 15 83 16 77 17 79 18 30 19 82 20 76 21 75 22 31 24
REMARK SMILES IDX 63 25 43 26 62 27 44 28 47 29 61 30 80 31 45 32 46 33 60 35
REMARK SMILES IDX 81 36 48 37 32 38 33 39 41 40 34 41 40 42 42 43 39 44 35 45
REMARK SMILES IDX 36 46 37 47 38 48 64 49 65 50 73 51 66 52 72 53 74 54 71 55
REMARK SMILES IDX 67 56 68 57 69 58 70 59 49 60 50 61 58 62 51 63 57 64 59 65
REMARK SMILES IDX 56 66 52 67 53 68 54 69 55 70 5 71 6 72 7 73 8 74 9 76 10 77
REMARK SMILES IDX 11 78 18 79 12 80 16 81 17 82 13 83 15 84 14 85 19 86 22 87
REMARK SMILES IDX 20 88 21 90
REMARK H PARENT 3 5 79 23 47 34 7 75 20 89 21 91
REMARK Flexibility Score: inf
ROOT
ATOM      1  C   UNL A   1      32.823  31.911  27.206  1.00  0.00     0.118 C 
ENDROOT
BRANCH   1   2
ATOM      2  N   UNL A   1      32.589  33.333  27.416  1.00  0.00    -0.352 N 
ATOM      3  O   UNL A   1      32.639  35.268  28.563  1.00  0.00    -0.269 OA
ATOM      4  C   UNL A   1      33.139  34.160  28.359  1.00  0.00     0.251 C 
ATOM      5  H   UNL A   1      31.951  33.756  26.797  1.00  0.00     0.163 HD
BRANCH   4   6
ATOM      6  C   UNL A   1      34.329  33.723  29.115  1.00  0.00     0.039 A 
ATOM      7  C   UNL A   1      34.203  32.778  30.139  1.00  0.00     0.014 A 
ATOM      8  C   UNL A   1      35.587  34.221  28.766  1.00  0.00     0.014 A 
ATOM      9  C   UNL A   1      35.319  32.395  30.870  1.00  0.00     0.010 A 
ATOM     10  C   UNL A   1      36.720  33.771  29.447  1.00  0.00     0.010 A 
ATOM     11  C   UNL A   1      36.593  32.851  30.500  1.00  0.00    -0.014 A 
BRANCH  11  12
ATOM     12  C   UNL A   1      37.788  32.239  31.128  1.00  0.00     0.031 A 
ATOM     13  C   UNL A   1      38.524  31.111  30.468  1.00  0.00     0.074 A 
ATOM     14  C   UNL A   1      38.185  32.720  32.325  1.00  0.00     0.049 A 
ATOM     15  N   UNL A   1      39.555  30.438  30.909  1.00  0.00    -0.248 NA
ATOM     16  C   UNL A   1      38.040  30.676  29.150  1.00  0.00     0.031 C 
ATOM     17  C   UNL A   1      37.527  33.813  33.049  1.00  0.00     0.029 A 
ATOM     18  N   UNL A   1      39.222  32.361  33.146  1.00  0.00    -0.354 N 
ATOM     19  C   UNL A   1      39.835  29.486  29.936  1.00  0.00     0.074 A 
ATOM     20  C   UNL A   1      38.854  29.659  28.884  1.00  0.00     0.031 C 
ATOM     21  C   UNL A   1      38.189  34.049  34.190  1.00  0.00     0.029 A 
ATOM     22  C   UNL A   1      39.262  33.072  34.324  1.00  0.00     0.049 A 
ATOM     23  H   UNL A   1      39.876  31.662  32.916  1.00  0.00     0.167 HD
ATOM     24  C   UNL A   1      40.819  28.555  29.934  1.00  0.00     0.034 A 
ATOM     25  C   UNL A   1      40.040  32.924  35.412  1.00  0.00     0.034 A 
ATOM     26  C   UNL A   1      41.789  28.414  30.996  1.00  0.00     0.049 A 
ATOM     27  C   UNL A   1      41.084  31.839  35.400  1.00  0.00     0.074 A 
ATOM     28  C   UNL A   1      42.876  27.560  31.056  1.00  0.00     0.029 A 
ATOM     29  N   UNL A   1      41.773  29.120  32.191  1.00  0.00    -0.354 N 
ATOM     30  N   UNL A   1      41.378  30.993  34.440  1.00  0.00    -0.248 NA
ATOM     31  C   UNL A   1      41.895  31.684  36.612  1.00  0.00     0.031 C 
ATOM     32  C   UNL A   1      43.461  27.683  32.320  1.00  0.00     0.029 A 
ATOM     33  C   UNL A   1      42.794  28.676  33.019  1.00  0.00     0.049 A 
ATOM     34  H   UNL A   1      41.133  29.832  32.419  1.00  0.00     0.167 HD
ATOM     35  C   UNL A   1      42.420  30.214  34.932  1.00  0.00     0.074 A 
ATOM     36  C   UNL A   1      42.724  30.714  36.256  1.00  0.00     0.031 C 
ATOM     37  C   UNL A   1      43.066  29.175  34.346  1.00  0.00     0.034 A 
BRANCH  24  38
ATOM     38  C   UNL A   1      40.880  27.578  28.787  1.00  0.00     0.023 A 
ATOM     39  C   UNL A   1      41.830  27.683  27.759  1.00  0.00     0.031 A 
ATOM     40  C   UNL A   1      39.992  26.485  28.757  1.00  0.00     0.131 A 
ATOM     41  C   UNL A   1      41.852  26.730  26.727  1.00  0.00     0.055 A 
ATOM     42  C   UNL A   1      40.060  25.507  27.765  1.00  0.00     0.041 A 
ATOM     43  F   UNL A   1      39.048  26.346  29.701  1.00  0.00    -0.206 F 
ATOM     44  C   UNL A   1      40.992  25.629  26.739  1.00  0.00     0.022 A 
BRANCH  41  45
ATOM     45  S   UNL A   1      42.965  26.991  25.320  1.00  0.00     0.124 S 
ATOM     46  O   UNL A   1      44.233  27.276  25.990  1.00  0.00    -0.237 OA
ATOM     47  O   UNL A   1      42.889  25.717  24.614  1.00  0.00    -0.237 OA
ATOM     48  O   UNL A   1      42.373  28.129  24.618  1.00  0.00    -0.744 OA
ENDBRANCH  41  45
ENDBRANCH  24  38
BRANCH  25  49
ATOM     49  C   UNL A   1      39.817  33.763  36.626  1.00  0.00     0.023 A 
ATOM     50  C   UNL A   1      39.247  33.221  37.788  1.00  0.00     0.031 A 
ATOM     51  C   UNL A   1      40.106  35.141  36.617  1.00  0.00     0.131 A 
ATOM     52  C   UNL A   1      38.922  34.062  38.863  1.00  0.00     0.055 A 
ATOM     53  C   UNL A   1      39.851  35.959  37.718  1.00  0.00     0.041 A 
ATOM     54  F   UNL A   1      40.647  35.716  35.531  1.00  0.00    -0.206 F 
ATOM     55  C   UNL A   1      39.237  35.423  38.844  1.00  0.00     0.022 A 
BRANCH  52  56
ATOM     56  S   UNL A   1      37.955  33.374  40.234  1.00  0.00     0.124 S 
ATOM     57  O   UNL A   1      36.714  33.002  39.563  1.00  0.00    -0.237 OA
ATOM     58  O   UNL A   1      38.801  32.271  40.677  1.00  0.00    -0.237 OA
ATOM     59  O   UNL A   1      37.848  34.492  41.169  1.00  0.00    -0.744 OA
ENDBRANCH  52  56
ENDBRANCH  25  49
BRANCH  37  60
ATOM     60  C   UNL A   1      44.174  28.530  35.139  1.00  0.00     0.023 A 
ATOM     61  C   UNL A   1      43.913  27.489  36.047  1.00  0.00     0.031 A 
ATOM     62  C   UNL A   1      45.503  28.964  34.990  1.00  0.00     0.131 A 
ATOM     63  C   UNL A   1      44.959  26.949  36.810  1.00  0.00     0.055 A 
ATOM     64  C   UNL A   1      46.549  28.380  35.705  1.00  0.00     0.041 A 
ATOM     65  F   UNL A   1      45.806  29.958  34.141  1.00  0.00    -0.206 F 
ATOM     66  C   UNL A   1      46.279  27.375  36.629  1.00  0.00     0.022 A 
BRANCH  63  67
ATOM     67  S   UNL A   1      44.562  25.738  38.099  1.00  0.00     0.124 S 
ATOM     68  O   UNL A   1      43.776  24.756  37.359  1.00  0.00    -0.237 OA
ATOM     69  O   UNL A   1      45.884  25.299  38.535  1.00  0.00    -0.237 OA
ATOM     70  O   UNL A   1      43.813  26.518  39.082  1.00  0.00    -0.744 OA
ENDBRANCH  63  67
ENDBRANCH  37  60
ENDBRANCH  11  12
ENDBRANCH   4   6
ENDBRANCH   1   2
BRANCH   1  71
ATOM     71  C   UNL A   1      31.698  31.281  26.398  1.00  0.00     0.042 C 
BRANCH  71  72
ATOM     72  C   UNL A   1      31.981  29.824  26.049  1.00  0.00     0.117 C 
BRANCH  72  73
ATOM     73  N   UNL A   1      32.874  29.734  24.906  1.00  0.00    -0.355 N 
ATOM     74  C   UNL A   1      32.825  28.978  23.779  1.00  0.00     0.228 C 
ATOM     75  H   UNL A   1      33.656  30.329  24.958  1.00  0.00     0.163 HD
ATOM     76  O   UNL A   1      33.719  29.157  22.945  1.00  0.00    -0.274 OA
BRANCH  74  77
ATOM     77  C   UNL A   1      31.676  28.025  23.467  1.00  0.00     0.122 C 
ATOM     78  C   UNL A   1      30.474  28.732  22.894  1.00  0.00    -0.031 A 
ATOM     79  C   UNL A   1      31.054  27.241  24.639  1.00  0.00     0.096 C 
ATOM     80  C   UNL A   1      30.442  29.833  22.050  1.00  0.00     0.005 A 
ATOM     81  C   UNL A   1      29.296  28.129  23.342  1.00  0.00    -0.043 A 
ATOM     82  C   UNL A   1      29.603  26.951  24.214  1.00  0.00     0.050 C 
ATOM     83  C   UNL A   1      29.201  30.346  21.676  1.00  0.00     0.000 A 
ATOM     84  C   UNL A   1      28.060  28.618  22.956  1.00  0.00     0.004 A 
ATOM     85  C   UNL A   1      28.017  29.741  22.126  1.00  0.00     0.000 A 
BRANCH  79  86
ATOM     86  P   UNL A   1      32.011  25.866  25.244  1.00  0.00     0.188 P 
ATOM     87  S   UNL A   1      33.925  25.855  25.124  1.00  0.00    -0.037 S 
BRANCH  86  88
ATOM     88  O   UNL A   1      31.536  25.766  26.780  1.00  0.00    -0.345 OA
ATOM     89  H   UNL A   1      30.694  26.234  26.890  1.00  0.00     0.219 HD
ENDBRANCH  86  88
BRANCH  86  90
ATOM     90  O   UNL A   1      31.297  24.527  24.719  1.00  0.00    -0.345 OA
ATOM     91  H   UNL A   1      30.866  24.702  23.869  1.00  0.00     0.219 HD
ENDBRANCH  86  90
ENDBRANCH  79  86
ENDBRANCH  74  77
ENDBRANCH  72  73
ENDBRANCH  71  72
ENDBRANCH   1  71
TORSDOF 16
ENDMDL
