MODEL 1
REMARK VINA RESULT:      -8.7      0.000      0.000
REMARK SMILES N#CCC(=O)N/N=C/c1ccc(OCc2ccc(C(=O)NCCCNC(=O)c3ccc(-c4c5nc(c(-c6cc(S(=O)(=O)[O-])ccc6F)c6ccc([nH]6)c(-c6cc(S(=O)(=O)[O-])ccc6F)c6nc(c(-c7cc(S(=O)(=O)[O-])ccc7F)c7ccc4[nH]7)C=C6)C=C5)cc3)cc2)c(Br)c1
REMARK SMILES IDX 19 1 20 2 21 3 18 5 15 6 16 7 92 8 17 9 91 10 14 11 13 12
REMARK SMILES IDX 12 13 9 14 10 15 95 16 11 17 93 18 94 19 8 20 7 21 6 22 4 23
REMARK SMILES IDX 5 24 3 26 2 27 1 28 22 29 23 30 24 31 25 32 26 33 27 35
REMARK SMILES IDX 28 36 29 37 90 38 30 39 89 40 31 41 32 42 33 43 83 44 34 45
REMARK SMILES IDX 88 46 82 47 84 48 35 49 87 50 81 51 80 52 36 54 68 55 48 56
REMARK SMILES IDX 67 57 49 58 52 59 66 60 85 61 50 62 51 63 65 65 86 66 53 67
REMARK SMILES IDX 37 68 38 69 46 70 39 71 45 72 47 73 44 74 40 75 41 76 42 77
REMARK SMILES IDX 43 78 69 79 70 80 78 81 71 82 77 83 79 84 76 85 72 86 73 87
REMARK SMILES IDX 74 88 75 89 54 90 55 91 63 92 56 93 62 94 64 95 61 96 57 97
REMARK SMILES IDX 58 98 59 99 60 100
REMARK H PARENT 21 4 6 25 25 34 84 53 52 64
REMARK Flexibility Score: inf
ROOT
ATOM      1  C   UNL A   1      41.133  23.749  26.881  1.00  0.00     0.251 C 
ATOM      2  O   UNL A   1      40.122  23.156  26.501  1.00  0.00    -0.269 OA
ATOM      3  N   UNL A   1      42.326  23.065  26.855  1.00  0.00    -0.352 N 
ATOM      4  H   UNL A   1      42.237  22.107  26.647  1.00  0.00     0.163 HD
ENDROOT
BRANCH   1   5
ATOM      5  C   UNL A   1      41.016  25.169  27.318  1.00  0.00     0.039 A 
ATOM      6  C   UNL A   1      40.679  27.899  28.040  1.00  0.00    -0.011 A 
ATOM      7  C   UNL A   1      40.604  27.496  26.698  1.00  0.00     0.008 A 
ATOM      8  C   UNL A   1      40.907  26.912  29.002  1.00  0.00     0.008 A 
ATOM      9  C   UNL A   1      40.766  26.146  26.343  1.00  0.00     0.014 A 
ATOM     10  C   UNL A   1      41.053  25.570  28.650  1.00  0.00     0.014 A 
BRANCH   6  11
ATOM     11  C   UNL A   1      40.374  29.327  28.457  1.00  0.00     0.265 C 
BRANCH  11  12
ATOM     12  O   UNL A   1      40.728  29.741  29.782  1.00  0.00    -0.488 OA
BRANCH  12  13
ATOM     13  C   UNL A   1      39.905  30.554  30.507  1.00  0.00     0.134 A 
ATOM     14  C   UNL A   1      38.316  32.533  31.718  1.00  0.00    -0.004 A 
ATOM     15  C   UNL A   1      38.904  32.777  30.480  1.00  0.00     0.013 A 
ATOM     16  C   UNL A   1      38.453  31.280  32.321  1.00  0.00     0.029 A 
ATOM     17  C   UNL A   1      39.686  31.789  29.881  1.00  0.00     0.048 A 
ATOM     18  C   UNL A   1      39.217  30.276  31.696  1.00  0.00     0.060 A 
ATOM     19  Br  UNL A   1      39.144  28.552  32.494  1.00  0.00    -0.047 Br
BRANCH  14  20
ATOM     20  C   UNL A   1      37.557  33.637  32.337  1.00  0.00     0.141 C 
ATOM     21  N   UNL A   1      36.465  33.448  33.009  1.00  0.00    -0.181 NA
BRANCH  21  22
ATOM     22  N   UNL A   1      35.898  34.578  33.518  1.00  0.00    -0.246 N 
ATOM     23  C   UNL A   1      34.939  35.352  32.901  1.00  0.00     0.254 C 
ATOM     24  O   UNL A   1      34.585  36.404  33.442  1.00  0.00    -0.272 OA
ATOM     25  H   UNL A   1      36.202  34.869  34.408  1.00  0.00     0.193 HD
BRANCH  23  26
ATOM     26  C   UNL A   1      34.249  34.860  31.649  1.00  0.00     0.221 C 
BRANCH  26  27
ATOM     27  C   UNL A   1      33.309  35.915  31.089  1.00  0.00     0.072 C 
ATOM     28  N   UNL A   1      32.528  36.790  30.624  1.00  0.00    -0.198 NA
ENDBRANCH  26  27
ENDBRANCH  23  26
ENDBRANCH  21  22
ENDBRANCH  14  20
ENDBRANCH  12  13
ENDBRANCH  11  12
ENDBRANCH   6  11
ENDBRANCH   1   5
BRANCH   3  29
ATOM     29  C   UNL A   1      43.693  23.503  27.079  1.00  0.00     0.118 C 
BRANCH  29  30
ATOM     30  C   UNL A   1      44.557  23.349  25.826  1.00  0.00     0.042 C 
BRANCH  30  31
ATOM     31  C   UNL A   1      46.055  23.467  26.090  1.00  0.00     0.118 C 
BRANCH  31  32
ATOM     32  N   UNL A   1      46.693  24.388  25.165  1.00  0.00    -0.352 N 
ATOM     33  C   UNL A   1      46.632  25.757  25.084  1.00  0.00     0.251 C 
ATOM     34  H   UNL A   1      47.261  23.961  24.484  1.00  0.00     0.163 HD
ATOM     35  O   UNL A   1      47.057  26.296  24.066  1.00  0.00    -0.269 OA
BRANCH  33  36
ATOM     36  C   UNL A   1      46.063  26.575  26.182  1.00  0.00     0.039 A 
ATOM     37  C   UNL A   1      44.696  26.868  26.144  1.00  0.00     0.014 A 
ATOM     38  C   UNL A   1      46.857  27.114  27.199  1.00  0.00     0.014 A 
ATOM     39  C   UNL A   1      44.123  27.667  27.136  1.00  0.00     0.010 A 
ATOM     40  C   UNL A   1      46.271  27.853  28.230  1.00  0.00     0.010 A 
ATOM     41  C   UNL A   1      44.900  28.146  28.203  1.00  0.00    -0.014 A 
BRANCH  41  42
ATOM     42  C   UNL A   1      44.275  28.950  29.287  1.00  0.00     0.031 A 
ATOM     43  C   UNL A   1      43.937  28.320  30.612  1.00  0.00     0.074 A 
ATOM     44  C   UNL A   1      43.996  30.248  29.063  1.00  0.00     0.049 A 
ATOM     45  N   UNL A   1      43.404  28.867  31.675  1.00  0.00    -0.248 NA
ATOM     46  C   UNL A   1      44.207  26.883  30.749  1.00  0.00     0.031 C 
ATOM     47  C   UNL A   1      44.231  30.954  27.800  1.00  0.00     0.029 A 
ATOM     48  N   UNL A   1      43.460  31.208  29.882  1.00  0.00    -0.354 N 
ATOM     49  C   UNL A   1      43.272  27.842  32.607  1.00  0.00     0.074 A 
ATOM     50  C   UNL A   1      43.721  26.629  31.955  1.00  0.00     0.031 C 
ATOM     51  C   UNL A   1      43.877  32.240  27.943  1.00  0.00     0.029 A 
ATOM     52  C   UNL A   1      43.355  32.445  29.289  1.00  0.00     0.049 A 
ATOM     53  H   UNL A   1      43.176  31.028  30.808  1.00  0.00     0.167 HD
ATOM     54  C   UNL A   1      42.839  27.910  33.892  1.00  0.00     0.034 A 
ATOM     55  C   UNL A   1      42.892  33.612  29.775  1.00  0.00     0.034 A 
ATOM     56  C   UNL A   1      42.397  29.131  34.524  1.00  0.00     0.049 A 
ATOM     57  C   UNL A   1      42.417  33.663  31.205  1.00  0.00     0.074 A 
ATOM     58  C   UNL A   1      41.982  29.326  35.832  1.00  0.00     0.029 A 
ATOM     59  N   UNL A   1      42.301  30.367  33.894  1.00  0.00    -0.354 N 
ATOM     60  N   UNL A   1      42.355  32.697  32.091  1.00  0.00    -0.248 NA
ATOM     61  C   UNL A   1      41.969  34.969  31.701  1.00  0.00     0.031 C 
ATOM     62  C   UNL A   1      41.575  30.659  35.970  1.00  0.00     0.029 A 
ATOM     63  C   UNL A   1      41.808  31.318  34.775  1.00  0.00     0.049 A 
ATOM     64  H   UNL A   1      42.548  30.541  32.956  1.00  0.00     0.167 HD
ATOM     65  C   UNL A   1      41.881  33.286  33.260  1.00  0.00     0.074 A 
ATOM     66  C   UNL A   1      41.706  34.695  32.969  1.00  0.00     0.031 C 
ATOM     67  C   UNL A   1      41.611  32.717  34.464  1.00  0.00     0.034 A 
BRANCH  54  68
ATOM     68  C   UNL A   1      42.801  26.619  34.681  1.00  0.00     0.023 A 
ATOM     69  C   UNL A   1      43.975  26.013  35.164  1.00  0.00     0.031 A 
ATOM     70  C   UNL A   1      41.579  25.970  34.929  1.00  0.00     0.131 A 
ATOM     71  C   UNL A   1      43.911  24.760  35.794  1.00  0.00     0.055 A 
ATOM     72  C   UNL A   1      41.514  24.764  35.633  1.00  0.00     0.041 A 
ATOM     73  F   UNL A   1      40.425  26.487  34.479  1.00  0.00    -0.206 F 
ATOM     74  C   UNL A   1      42.686  24.143  36.055  1.00  0.00     0.022 A 
BRANCH  71  75
ATOM     75  S   UNL A   1      45.461  23.880  36.132  1.00  0.00     0.124 S 
ATOM     76  O   UNL A   1      45.653  24.155  37.554  1.00  0.00    -0.237 OA
ATOM     77  O   UNL A   1      45.127  22.505  35.786  1.00  0.00    -0.237 OA
ATOM     78  O   UNL A   1      46.424  24.532  35.246  1.00  0.00    -0.744 OA
ENDBRANCH  71  75
ENDBRANCH  54  68
BRANCH  55  79
ATOM     79  C   UNL A   1      42.860  34.829  28.914  1.00  0.00     0.023 A 
ATOM     80  C   UNL A   1      44.041  35.508  28.575  1.00  0.00     0.031 A 
ATOM     81  C   UNL A   1      41.641  35.352  28.448  1.00  0.00     0.131 A 
ATOM     82  C   UNL A   1      43.976  36.696  27.831  1.00  0.00     0.055 A 
ATOM     83  C   UNL A   1      41.586  36.505  27.663  1.00  0.00     0.041 A 
ATOM     84  F   UNL A   1      40.483  34.737  28.738  1.00  0.00    -0.206 F 
ATOM     85  C   UNL A   1      42.758  37.192  27.362  1.00  0.00     0.022 A 
BRANCH  82  86
ATOM     86  S   UNL A   1      45.505  37.631  27.555  1.00  0.00     0.124 S 
ATOM     87  O   UNL A   1      45.023  38.772  26.784  1.00  0.00    -0.237 OA
ATOM     88  O   UNL A   1      45.937  37.916  28.919  1.00  0.00    -0.237 OA
ATOM     89  O   UNL A   1      46.350  36.692  26.819  1.00  0.00    -0.744 OA
ENDBRANCH  82  86
ENDBRANCH  55  79
BRANCH  67  90
ATOM     90  C   UNL A   1      41.124  33.641  35.554  1.00  0.00     0.023 A 
ATOM     91  C   UNL A   1      42.017  34.405  36.326  1.00  0.00     0.031 A 
ATOM     92  C   UNL A   1      39.755  33.717  35.863  1.00  0.00     0.131 A 
ATOM     93  C   UNL A   1      41.543  35.145  37.420  1.00  0.00     0.055 A 
ATOM     94  C   UNL A   1      39.279  34.513  36.907  1.00  0.00     0.041 A 
ATOM     95  F   UNL A   1      38.855  33.010  35.163  1.00  0.00    -0.206 F 
ATOM     96  C   UNL A   1      40.177  35.215  37.706  1.00  0.00     0.022 A 
BRANCH  93  97
ATOM     97  S   UNL A   1      42.748  35.898  38.547  1.00  0.00     0.124 S 
ATOM     98  O   UNL A   1      42.265  37.272  38.634  1.00  0.00    -0.237 OA
ATOM     99  O   UNL A   1      42.595  35.091  39.751  1.00  0.00    -0.237 OA
ATOM    100  O   UNL A   1      44.021  35.732  37.847  1.00  0.00    -0.744 OA
ENDBRANCH  93  97
ENDBRANCH  67  90
ENDBRANCH  41  42
ENDBRANCH  33  36
ENDBRANCH  31  32
ENDBRANCH  30  31
ENDBRANCH  29  30
ENDBRANCH   3  29
TORSDOF 20
ENDMDL
MODEL 2
REMARK VINA RESULT:      -8.6      4.028      7.610
REMARK SMILES N#CCC(=O)N/N=C/c1ccc(OCc2ccc(C(=O)NCCCNC(=O)c3ccc(-c4c5nc(c(-c6cc(S(=O)(=O)[O-])ccc6F)c6ccc([nH]6)c(-c6cc(S(=O)(=O)[O-])ccc6F)c6nc(c(-c7cc(S(=O)(=O)[O-])ccc7F)c7ccc4[nH]7)C=C6)C=C5)cc3)cc2)c(Br)c1
REMARK SMILES IDX 19 1 20 2 21 3 18 5 15 6 16 7 92 8 17 9 91 10 14 11 13 12
REMARK SMILES IDX 12 13 9 14 10 15 95 16 11 17 93 18 94 19 8 20 7 21 6 22 4 23
REMARK SMILES IDX 5 24 3 26 2 27 1 28 22 29 23 30 24 31 25 32 26 33 27 35
REMARK SMILES IDX 28 36 29 37 90 38 30 39 89 40 31 41 32 42 33 43 83 44 34 45
REMARK SMILES IDX 88 46 82 47 84 48 35 49 87 50 81 51 80 52 36 54 68 55 48 56
REMARK SMILES IDX 67 57 49 58 52 59 66 60 85 61 50 62 51 63 65 65 86 66 53 67
REMARK SMILES IDX 37 68 38 69 46 70 39 71 45 72 47 73 44 74 40 75 41 76 42 77
REMARK SMILES IDX 43 78 69 79 70 80 78 81 71 82 77 83 79 84 76 85 72 86 73 87
REMARK SMILES IDX 74 88 75 89 54 90 55 91 63 92 56 93 62 94 64 95 61 96 57 97
REMARK SMILES IDX 58 98 59 99 60 100
REMARK H PARENT 21 4 6 25 25 34 84 53 52 64
REMARK Flexibility Score: inf
ROOT
ATOM      1  C   UNL A   1      43.563  23.203  28.496  1.00  0.00     0.251 C 
ATOM      2  O   UNL A   1      43.618  22.489  29.499  1.00  0.00    -0.269 OA
ATOM      3  N   UNL A   1      44.484  22.982  27.500  1.00  0.00    -0.352 N 
ATOM      4  H   UNL A   1      45.192  22.342  27.740  1.00  0.00     0.163 HD
ENDROOT
BRANCH   1   5
ATOM      5  C   UNL A   1      42.496  24.240  28.405  1.00  0.00     0.039 A 
ATOM      6  C   UNL A   1      40.351  26.100  28.246  1.00  0.00    -0.011 A 
ATOM      7  C   UNL A   1      40.245  24.830  27.661  1.00  0.00     0.008 A 
ATOM      8  C   UNL A   1      41.536  26.408  28.920  1.00  0.00     0.008 A 
ATOM      9  C   UNL A   1      41.304  23.910  27.743  1.00  0.00     0.014 A 
ATOM     10  C   UNL A   1      42.581  25.488  29.015  1.00  0.00     0.014 A 
BRANCH   6  11
ATOM     11  C   UNL A   1      39.173  27.057  28.284  1.00  0.00     0.265 C 
BRANCH  11  12
ATOM     12  O   UNL A   1      39.037  27.929  29.413  1.00  0.00    -0.488 OA
BRANCH  12  13
ATOM     13  C   UNL A   1      38.156  28.971  29.394  1.00  0.00     0.134 A 
ATOM     14  C   UNL A   1      36.394  31.113  28.929  1.00  0.00    -0.004 A 
ATOM     15  C   UNL A   1      36.889  30.377  27.856  1.00  0.00     0.013 A 
ATOM     16  C   UNL A   1      36.712  30.741  30.237  1.00  0.00     0.029 A 
ATOM     17  C   UNL A   1      37.757  29.311  28.093  1.00  0.00     0.048 A 
ATOM     18  C   UNL A   1      37.564  29.644  30.471  1.00  0.00     0.060 A 
ATOM     19  Br  UNL A   1      37.741  29.096  32.283  1.00  0.00    -0.047 Br
BRANCH  14  20
ATOM     20  C   UNL A   1      35.535  32.272  28.616  1.00  0.00     0.141 C 
ATOM     21  N   UNL A   1      34.594  32.681  29.407  1.00  0.00    -0.181 NA
BRANCH  21  22
ATOM     22  N   UNL A   1      33.903  33.770  28.965  1.00  0.00    -0.246 N 
ATOM     23  C   UNL A   1      33.440  34.808  29.745  1.00  0.00     0.254 C 
ATOM     24  O   UNL A   1      32.745  35.683  29.220  1.00  0.00    -0.272 OA
ATOM     25  H   UNL A   1      33.716  33.820  27.999  1.00  0.00     0.193 HD
BRANCH  23  26
ATOM     26  C   UNL A   1      33.876  34.933  31.187  1.00  0.00     0.221 C 
BRANCH  26  27
ATOM     27  C   UNL A   1      33.293  36.181  31.832  1.00  0.00     0.072 C 
ATOM     28  N   UNL A   1      32.809  37.216  32.367  1.00  0.00    -0.198 NA
ENDBRANCH  26  27
ENDBRANCH  23  26
ENDBRANCH  21  22
ENDBRANCH  14  20
ENDBRANCH  12  13
ENDBRANCH  11  12
ENDBRANCH   6  11
ENDBRANCH   1   5
BRANCH   3  29
ATOM     29  C   UNL A   1      44.601  23.523  26.157  1.00  0.00     0.118 C 
BRANCH  29  30
ATOM     30  C   UNL A   1      45.700  24.584  26.060  1.00  0.00     0.042 C 
BRANCH  30  31
ATOM     31  C   UNL A   1      45.327  25.781  25.191  1.00  0.00     0.118 C 
BRANCH  31  32
ATOM     32  N   UNL A   1      43.941  25.719  24.757  1.00  0.00    -0.352 N 
ATOM     33  C   UNL A   1      42.844  26.431  25.172  1.00  0.00     0.251 C 
ATOM     34  H   UNL A   1      43.759  25.058  24.051  1.00  0.00     0.163 HD
ATOM     35  O   UNL A   1      41.732  26.030  24.836  1.00  0.00    -0.269 OA
BRANCH  33  36
ATOM     36  C   UNL A   1      42.978  27.646  26.011  1.00  0.00     0.039 A 
ATOM     37  C   UNL A   1      44.017  27.688  26.947  1.00  0.00     0.014 A 
ATOM     38  C   UNL A   1      42.065  28.703  25.945  1.00  0.00     0.014 A 
ATOM     39  C   UNL A   1      44.159  28.796  27.785  1.00  0.00     0.010 A 
ATOM     40  C   UNL A   1      42.251  29.841  26.733  1.00  0.00     0.010 A 
ATOM     41  C   UNL A   1      43.293  29.894  27.670  1.00  0.00    -0.014 A 
BRANCH  41  42
ATOM     42  C   UNL A   1      43.483  31.095  28.526  1.00  0.00     0.031 A 
ATOM     43  C   UNL A   1      44.558  32.101  28.211  1.00  0.00     0.074 A 
ATOM     44  C   UNL A   1      42.691  31.265  29.602  1.00  0.00     0.049 A 
ATOM     45  N   UNL A   1      44.860  33.212  28.835  1.00  0.00    -0.248 NA
ATOM     46  C   UNL A   1      45.425  31.804  27.062  1.00  0.00     0.031 C 
ATOM     47  C   UNL A   1      41.649  30.330  30.036  1.00  0.00     0.029 A 
ATOM     48  N   UNL A   1      42.631  32.277  30.525  1.00  0.00    -0.354 N 
ATOM     49  C   UNL A   1      45.952  33.746  28.157  1.00  0.00     0.074 A 
ATOM     50  C   UNL A   1      46.297  32.800  27.116  1.00  0.00     0.031 C 
ATOM     51  C   UNL A   1      41.030  30.831  31.116  1.00  0.00     0.029 A 
ATOM     52  C   UNL A   1      41.652  32.100  31.476  1.00  0.00     0.049 A 
ATOM     53  H   UNL A   1      43.232  33.056  30.508  1.00  0.00     0.167 HD
ATOM     54  C   UNL A   1      46.591  34.925  28.369  1.00  0.00     0.034 A 
ATOM     55  C   UNL A   1      41.295  32.874  32.518  1.00  0.00     0.034 A 
ATOM     56  C   UNL A   1      46.229  35.856  29.413  1.00  0.00     0.049 A 
ATOM     57  C   UNL A   1      42.020  34.178  32.733  1.00  0.00     0.074 A 
ATOM     58  C   UNL A   1      46.776  37.098  29.691  1.00  0.00     0.029 A 
ATOM     59  N   UNL A   1      45.234  35.645  30.361  1.00  0.00    -0.354 N 
ATOM     60  N   UNL A   1      43.011  34.697  32.046  1.00  0.00    -0.248 NA
ATOM     61  C   UNL A   1      41.559  35.007  33.853  1.00  0.00     0.031 C 
ATOM     62  C   UNL A   1      46.157  37.604  30.841  1.00  0.00     0.029 A 
ATOM     63  C   UNL A   1      45.171  36.718  31.238  1.00  0.00     0.049 A 
ATOM     64  H   UNL A   1      44.656  34.848  30.402  1.00  0.00     0.167 HD
ATOM     65  C   UNL A   1      43.278  35.927  32.640  1.00  0.00     0.074 A 
ATOM     66  C   UNL A   1      42.321  36.081  33.718  1.00  0.00     0.031 C 
ATOM     67  C   UNL A   1      44.229  36.846  32.328  1.00  0.00     0.034 A 
BRANCH  54  68
ATOM     68  C   UNL A   1      47.761  35.252  27.467  1.00  0.00     0.023 A 
ATOM     69  C   UNL A   1      49.075  34.871  27.793  1.00  0.00     0.031 A 
ATOM     70  C   UNL A   1      47.565  35.979  26.279  1.00  0.00     0.131 A 
ATOM     71  C   UNL A   1      50.148  35.288  26.989  1.00  0.00     0.055 A 
ATOM     72  C   UNL A   1      48.629  36.318  25.438  1.00  0.00     0.041 A 
ATOM     73  F   UNL A   1      46.338  36.389  25.922  1.00  0.00    -0.206 F 
ATOM     74  C   UNL A   1      49.932  35.987  25.800  1.00  0.00     0.022 A 
BRANCH  71  75
ATOM     75  S   UNL A   1      51.837  35.033  27.599  1.00  0.00     0.124 S 
ATOM     76  O   UNL A   1      52.627  35.296  26.398  1.00  0.00    -0.237 OA
ATOM     77  O   UNL A   1      51.943  36.022  28.663  1.00  0.00    -0.237 OA
ATOM     78  O   UNL A   1      51.835  33.638  28.039  1.00  0.00    -0.744 OA
ENDBRANCH  71  75
ENDBRANCH  54  68
BRANCH  55  79
ATOM     79  C   UNL A   1      40.199  32.448  33.434  1.00  0.00     0.023 A 
ATOM     80  C   UNL A   1      38.910  32.994  33.325  1.00  0.00     0.031 A 
ATOM     81  C   UNL A   1      40.434  31.512  34.457  1.00  0.00     0.131 A 
ATOM     82  C   UNL A   1      37.917  32.636  34.251  1.00  0.00     0.055 A 
ATOM     83  C   UNL A   1      39.429  31.119  35.342  1.00  0.00     0.041 A 
ATOM     84  F   UNL A   1      41.647  30.954  34.600  1.00  0.00    -0.206 F 
ATOM     85  C   UNL A   1      38.165  31.693  35.250  1.00  0.00     0.022 A 
BRANCH  82  86
ATOM     86  S   UNL A   1      36.317  33.486  34.179  1.00  0.00     0.124 S 
ATOM     87  O   UNL A   1      36.689  34.776  33.608  1.00  0.00    -0.237 OA
ATOM     88  O   UNL A   1      35.543  32.602  33.314  1.00  0.00    -0.237 OA
ATOM     89  O   UNL A   1      35.887  33.522  35.576  1.00  0.00    -0.744 OA
ENDBRANCH  82  86
ENDBRANCH  55  79
BRANCH  67  90
ATOM     90  C   UNL A   1      44.247  38.108  33.158  1.00  0.00     0.023 A 
ATOM     91  C   UNL A   1      43.400  39.192  32.869  1.00  0.00     0.031 A 
ATOM     92  C   UNL A   1      45.163  38.251  34.215  1.00  0.00     0.131 A 
ATOM     93  C   UNL A   1      43.541  40.399  33.571  1.00  0.00     0.055 A 
ATOM     94  C   UNL A   1      45.249  39.429  34.959  1.00  0.00     0.041 A 
ATOM     95  F   UNL A   1      45.999  37.251  34.536  1.00  0.00    -0.206 F 
ATOM     96  C   UNL A   1      44.450  40.519  34.625  1.00  0.00     0.022 A 
BRANCH  93  97
ATOM     97  S   UNL A   1      42.619  41.851  32.996  1.00  0.00     0.124 S 
ATOM     98  O   UNL A   1      43.685  42.707  32.487  1.00  0.00    -0.237 OA
ATOM     99  O   UNL A   1      41.729  41.277  31.993  1.00  0.00    -0.237 OA
ATOM    100  O   UNL A   1      41.957  42.338  34.205  1.00  0.00    -0.744 OA
ENDBRANCH  93  97
ENDBRANCH  67  90
ENDBRANCH  41  42
ENDBRANCH  33  36
ENDBRANCH  31  32
ENDBRANCH  30  31
ENDBRANCH  29  30
ENDBRANCH   3  29
TORSDOF 20
ENDMDL
MODEL 3
REMARK VINA RESULT:      -8.3      3.570     10.621
REMARK SMILES N#CCC(=O)N/N=C/c1ccc(OCc2ccc(C(=O)NCCCNC(=O)c3ccc(-c4c5nc(c(-c6cc(S(=O)(=O)[O-])ccc6F)c6ccc([nH]6)c(-c6cc(S(=O)(=O)[O-])ccc6F)c6nc(c(-c7cc(S(=O)(=O)[O-])ccc7F)c7ccc4[nH]7)C=C6)C=C5)cc3)cc2)c(Br)c1
REMARK SMILES IDX 19 1 20 2 21 3 18 5 15 6 16 7 92 8 17 9 91 10 14 11 13 12
REMARK SMILES IDX 12 13 9 14 10 15 95 16 11 17 93 18 94 19 8 20 7 21 6 22 4 23
REMARK SMILES IDX 5 24 3 26 2 27 1 28 22 29 23 30 24 31 25 32 26 33 27 35
REMARK SMILES IDX 28 36 29 37 90 38 30 39 89 40 31 41 32 42 33 43 83 44 34 45
REMARK SMILES IDX 88 46 82 47 84 48 35 49 87 50 81 51 80 52 36 54 68 55 48 56
REMARK SMILES IDX 67 57 49 58 52 59 66 60 85 61 50 62 51 63 65 65 86 66 53 67
REMARK SMILES IDX 37 68 38 69 46 70 39 71 45 72 47 73 44 74 40 75 41 76 42 77
REMARK SMILES IDX 43 78 69 79 70 80 78 81 71 82 77 83 79 84 76 85 72 86 73 87
REMARK SMILES IDX 74 88 75 89 54 90 55 91 63 92 56 93 62 94 64 95 61 96 57 97
REMARK SMILES IDX 58 98 59 99 60 100
REMARK H PARENT 21 4 6 25 25 34 84 53 52 64
REMARK Flexibility Score: inf
ROOT
ATOM      1  C   UNL A   1      36.604  34.560  32.635  1.00  0.00     0.251 C 
ATOM      2  O   UNL A   1      36.193  35.359  33.477  1.00  0.00    -0.269 OA
ATOM      3  N   UNL A   1      35.679  33.779  31.985  1.00  0.00    -0.352 N 
ATOM      4  H   UNL A   1      34.767  33.846  32.349  1.00  0.00     0.163 HD
ENDROOT
BRANCH   1   5
ATOM      5  C   UNL A   1      38.066  34.501  32.349  1.00  0.00     0.039 A 
ATOM      6  C   UNL A   1      40.830  34.487  31.678  1.00  0.00    -0.011 A 
ATOM      7  C   UNL A   1      39.848  34.490  30.677  1.00  0.00     0.008 A 
ATOM      8  C   UNL A   1      40.402  34.509  33.008  1.00  0.00     0.008 A 
ATOM      9  C   UNL A   1      38.482  34.501  31.010  1.00  0.00     0.014 A 
ATOM     10  C   UNL A   1      39.046  34.536  33.337  1.00  0.00     0.014 A 
BRANCH   6  11
ATOM     11  C   UNL A   1      42.306  34.609  31.342  1.00  0.00     0.265 C 
BRANCH  11  12
ATOM     12  O   UNL A   1      42.739  34.238  30.029  1.00  0.00    -0.488 OA
BRANCH  12  13
ATOM     13  C   UNL A   1      43.437  33.083  29.819  1.00  0.00     0.134 A 
ATOM     14  C   UNL A   1      44.494  30.530  29.298  1.00  0.00    -0.004 A 
ATOM     15  C   UNL A   1      43.159  30.800  29.009  1.00  0.00     0.013 A 
ATOM     16  C   UNL A   1      45.325  31.546  29.775  1.00  0.00     0.029 A 
ATOM     17  C   UNL A   1      42.642  32.071  29.263  1.00  0.00     0.048 A 
ATOM     18  C   UNL A   1      44.805  32.836  29.999  1.00  0.00     0.060 A 
ATOM     19  Br  UNL A   1      46.074  34.185  30.429  1.00  0.00    -0.047 Br
BRANCH  14  20
ATOM     20  C   UNL A   1      44.969  29.150  29.074  1.00  0.00     0.141 C 
ATOM     21  N   UNL A   1      46.186  28.876  28.724  1.00  0.00    -0.181 NA
BRANCH  21  22
ATOM     22  N   UNL A   1      46.456  27.549  28.567  1.00  0.00    -0.246 N 
ATOM     23  C   UNL A   1      46.267  26.813  27.417  1.00  0.00     0.254 C 
ATOM     24  O   UNL A   1      46.466  25.595  27.450  1.00  0.00    -0.272 OA
ATOM     25  H   UNL A   1      46.819  27.071  29.348  1.00  0.00     0.193 HD
BRANCH  23  26
ATOM     26  C   UNL A   1      45.937  27.505  26.114  1.00  0.00     0.221 C 
BRANCH  26  27
ATOM     27  C   UNL A   1      44.486  27.279  25.723  1.00  0.00     0.072 C 
ATOM     28  N   UNL A   1      43.281  27.092  25.398  1.00  0.00    -0.198 NA
ENDBRANCH  26  27
ENDBRANCH  23  26
ENDBRANCH  21  22
ENDBRANCH  14  20
ENDBRANCH  12  13
ENDBRANCH  11  12
ENDBRANCH   6  11
ENDBRANCH   1   5
BRANCH   3  29
ATOM     29  C   UNL A   1      35.805  32.871  30.858  1.00  0.00     0.118 C 
BRANCH  29  30
ATOM     30  C   UNL A   1      34.556  32.879  29.973  1.00  0.00     0.042 C 
BRANCH  30  31
ATOM     31  C   UNL A   1      34.858  32.923  28.478  1.00  0.00     0.118 C 
BRANCH  31  32
ATOM     32  N   UNL A   1      34.245  31.810  27.774  1.00  0.00    -0.352 N 
ATOM     33  C   UNL A   1      34.746  30.575  27.447  1.00  0.00     0.251 C 
ATOM     34  H   UNL A   1      33.318  31.968  27.481  1.00  0.00     0.163 HD
ATOM     35  O   UNL A   1      34.128  29.895  26.633  1.00  0.00    -0.269 OA
BRANCH  33  36
ATOM     36  C   UNL A   1      36.004  30.065  28.044  1.00  0.00     0.039 A 
ATOM     37  C   UNL A   1      37.174  30.143  27.281  1.00  0.00     0.014 A 
ATOM     38  C   UNL A   1      36.039  29.452  29.300  1.00  0.00     0.014 A 
ATOM     39  C   UNL A   1      38.375  29.641  27.788  1.00  0.00     0.010 A 
ATOM     40  C   UNL A   1      37.254  29.015  29.835  1.00  0.00     0.010 A 
ATOM     41  C   UNL A   1      38.432  29.095  29.079  1.00  0.00    -0.014 A 
BRANCH  41  42
ATOM     42  C   UNL A   1      39.723  28.613  29.636  1.00  0.00     0.031 A 
ATOM     43  C   UNL A   1      40.392  29.344  30.769  1.00  0.00     0.074 A 
ATOM     44  C   UNL A   1      40.302  27.521  29.099  1.00  0.00     0.049 A 
ATOM     45  N   UNL A   1      41.510  29.062  31.390  1.00  0.00    -0.248 NA
ATOM     46  C   UNL A   1      39.732  30.566  31.248  1.00  0.00     0.031 C 
ATOM     47  C   UNL A   1      39.773  26.761  27.964  1.00  0.00     0.029 A 
ATOM     48  N   UNL A   1      41.454  26.857  29.433  1.00  0.00    -0.354 N 
ATOM     49  C   UNL A   1      41.690  30.072  32.331  1.00  0.00     0.074 A 
ATOM     50  C   UNL A   1      40.598  31.006  32.150  1.00  0.00     0.031 C 
ATOM     51  C   UNL A   1      40.578  25.715  27.722  1.00  0.00     0.029 A 
ATOM     52  C   UNL A   1      41.698  25.749  28.655  1.00  0.00     0.049 A 
ATOM     53  H   UNL A   1      42.050  27.146  30.161  1.00  0.00     0.167 HD
ATOM     54  C   UNL A   1      42.661  30.196  33.272  1.00  0.00     0.034 A 
ATOM     55  C   UNL A   1      42.708  24.859  28.691  1.00  0.00     0.034 A 
ATOM     56  C   UNL A   1      43.741  29.251  33.437  1.00  0.00     0.049 A 
ATOM     57  C   UNL A   1      43.775  25.018  29.744  1.00  0.00     0.074 A 
ATOM     58  C   UNL A   1      44.752  29.251  34.384  1.00  0.00     0.029 A 
ATOM     59  N   UNL A   1      43.959  28.140  32.630  1.00  0.00    -0.354 N 
ATOM     60  N   UNL A   1      43.897  25.945  30.665  1.00  0.00    -0.248 NA
ATOM     61  C   UNL A   1      44.826  23.994  29.772  1.00  0.00     0.031 C 
ATOM     62  C   UNL A   1      45.614  28.182  34.108  1.00  0.00     0.029 A 
ATOM     63  C   UNL A   1      45.102  27.467  33.039  1.00  0.00     0.049 A 
ATOM     64  H   UNL A   1      43.385  27.870  31.876  1.00  0.00     0.167 HD
ATOM     65  C   UNL A   1      45.030  25.603  31.397  1.00  0.00     0.074 A 
ATOM     66  C   UNL A   1      45.531  24.368  30.828  1.00  0.00     0.031 C 
ATOM     67  C   UNL A   1      45.607  26.250  32.443  1.00  0.00     0.034 A 
BRANCH  54  68
ATOM     68  C   UNL A   1      42.605  31.411  34.171  1.00  0.00     0.023 A 
ATOM     69  C   UNL A   1      41.654  31.526  35.202  1.00  0.00     0.031 A 
ATOM     70  C   UNL A   1      43.494  32.484  33.978  1.00  0.00     0.131 A 
ATOM     71  C   UNL A   1      41.560  32.716  35.942  1.00  0.00     0.055 A 
ATOM     72  C   UNL A   1      43.451  33.631  34.775  1.00  0.00     0.041 A 
ATOM     73  F   UNL A   1      44.412  32.444  32.999  1.00  0.00    -0.206 F 
ATOM     74  C   UNL A   1      42.469  33.758  35.754  1.00  0.00     0.022 A 
BRANCH  71  75
ATOM     75  S   UNL A   1      40.141  32.936  37.050  1.00  0.00     0.124 S 
ATOM     76  O   UNL A   1      40.027  34.392  37.098  1.00  0.00    -0.237 OA
ATOM     77  O   UNL A   1      39.076  32.235  36.344  1.00  0.00    -0.237 OA
ATOM     78  O   UNL A   1      40.580  32.313  38.297  1.00  0.00    -0.744 OA
ENDBRANCH  71  75
ENDBRANCH  54  68
BRANCH  55  79
ATOM     79  C   UNL A   1      42.761  23.738  27.710  1.00  0.00     0.023 A 
ATOM     80  C   UNL A   1      43.706  23.728  26.672  1.00  0.00     0.031 A 
ATOM     81  C   UNL A   1      41.843  22.675  27.776  1.00  0.00     0.131 A 
ATOM     82  C   UNL A   1      43.683  22.702  25.714  1.00  0.00     0.055 A 
ATOM     83  C   UNL A   1      41.858  21.629  26.853  1.00  0.00     0.041 A 
ATOM     84  F   UNL A   1      40.923  22.633  28.754  1.00  0.00    -0.206 F 
ATOM     85  C   UNL A   1      42.773  21.646  25.805  1.00  0.00     0.022 A 
BRANCH  82  86
ATOM     86  S   UNL A   1      44.809  22.812  24.297  1.00  0.00     0.124 S 
ATOM     87  O   UNL A   1      45.799  21.791  24.622  1.00  0.00    -0.237 OA
ATOM     88  O   UNL A   1      43.920  22.511  23.179  1.00  0.00    -0.237 OA
ATOM     89  O   UNL A   1      45.292  24.191  24.352  1.00  0.00    -0.744 OA
ENDBRANCH  82  86
ENDBRANCH  55  79
BRANCH  67  90
ATOM     90  C   UNL A   1      46.832  25.603  33.044  1.00  0.00     0.023 A 
ATOM     91  C   UNL A   1      48.127  25.908  32.587  1.00  0.00     0.031 A 
ATOM     92  C   UNL A   1      46.702  24.626  34.047  1.00  0.00     0.131 A 
ATOM     93  C   UNL A   1      49.230  25.187  33.069  1.00  0.00     0.055 A 
ATOM     94  C   UNL A   1      47.810  23.963  34.577  1.00  0.00     0.041 A 
ATOM     95  F   UNL A   1      45.492  24.290  34.522  1.00  0.00    -0.206 F 
ATOM     96  C   UNL A   1      49.081  24.227  34.073  1.00  0.00     0.022 A 
BRANCH  93  97
ATOM     97  S   UNL A   1      50.839  25.423  32.268  1.00  0.00     0.124 S 
ATOM     98  O   UNL A   1      51.767  25.053  33.332  1.00  0.00    -0.237 OA
ATOM     99  O   UNL A   1      50.763  24.502  31.139  1.00  0.00    -0.237 OA
ATOM    100  O   UNL A   1      50.840  26.841  31.911  1.00  0.00    -0.744 OA
ENDBRANCH  93  97
ENDBRANCH  67  90
ENDBRANCH  41  42
ENDBRANCH  33  36
ENDBRANCH  31  32
ENDBRANCH  30  31
ENDBRANCH  29  30
ENDBRANCH   3  29
TORSDOF 20
ENDMDL
