MODEL 1
REMARK VINA RESULT:     -13.0      0.000      0.000
REMARK SMILES C[C@H]1C[N@H+]2CCCC[C@@H]2CN1c1ccc(C(=O)NCCCNC(=O)c2ccc(-c3c4nc(c(-c5cc(S(=O)(=O)[O-])ccc5F)c5ccc([nH]5)c(-c5cc(S(=O)(=O)[O-])ccc5F)c5nc(c(-c6cc(S(=O)(=O)[O-])ccc6F)c6ccc3[nH]6)C=C5)C=C4)cc2)cc1Cl
REMARK SMILES IDX 21 1 20 2 19 3 18 4 16 5 17 6 15 8 12 9 13 10 89 11 14 12
REMARK SMILES IDX 88 13 90 14 11 15 1 16 2 17 3 18 4 19 10 20 5 21 9 22 6 24
REMARK SMILES IDX 8 25 7 26 22 27 23 28 24 30 25 31 26 32 87 33 27 34 86 35
REMARK SMILES IDX 28 36 29 37 30 38 80 39 31 40 85 41 79 42 81 43 32 44 84 45
REMARK SMILES IDX 78 46 77 47 33 49 65 50 45 51 64 52 46 53 49 54 63 55 82 56
REMARK SMILES IDX 47 57 48 58 62 60 83 61 50 62 34 63 35 64 43 65 36 66 42 67
REMARK SMILES IDX 44 68 41 69 37 70 38 71 39 72 40 73 66 74 67 75 75 76 68 77
REMARK SMILES IDX 74 78 76 79 73 80 69 81 70 82 71 83 72 84 51 85 52 86 60 87
REMARK SMILES IDX 53 88 59 89 61 90 58 91 54 92 55 93 56 94 57 95
REMARK H PARENT 18 7 4 23 22 29 81 48 49 59
REMARK Flexibility Score: inf
ROOT
ATOM      1  C   UNL A   1      32.685  32.240  27.182  1.00  0.00     0.118 C 
ENDROOT
BRANCH   1   2
ATOM      2  C   UNL A   1      31.400  31.757  26.513  1.00  0.00     0.042 C 
BRANCH   2   3
ATOM      3  C   UNL A   1      31.592  30.494  25.673  1.00  0.00     0.118 C 
BRANCH   3   4
ATOM      4  N   UNL A   1      30.672  30.456  24.550  1.00  0.00    -0.352 N 
ATOM      5  C   UNL A   1      30.298  29.454  23.693  1.00  0.00     0.251 C 
ATOM      6  O   UNL A   1      29.401  29.702  22.886  1.00  0.00    -0.269 OA
ATOM      7  H   UNL A   1      30.233  31.318  24.369  1.00  0.00     0.163 HD
BRANCH   5   8
ATOM      8  C   UNL A   1      30.898  28.091  23.700  1.00  0.00     0.041 A 
ATOM      9  C   UNL A   1      32.282  25.602  23.698  1.00  0.00     0.056 A 
ATOM     10  C   UNL A   1      32.601  26.610  22.780  1.00  0.00     0.028 A 
ATOM     11  C   UNL A   1      31.222  25.858  24.590  1.00  0.00     0.065 A 
ATOM     12  C   UNL A   1      31.923  27.835  22.780  1.00  0.00     0.016 A 
ATOM     13  C   UNL A   1      30.568  27.094  24.612  1.00  0.00     0.036 A 
ATOM     14  Cl  UNL A   1      30.722  24.700  25.780  1.00  0.00    -0.082 Cl
BRANCH   9  15
ATOM     15  N   UNL A   1      33.047  24.456  23.769  1.00  0.00    -0.356 N 
ATOM     16  C   UNL A   1      34.532  25.483  25.518  1.00  0.00     0.037 C 
ATOM     17  C   UNL A   1      34.356  24.391  24.450  1.00  0.00     0.134 C 
ATOM     18  C   UNL A   1      34.518  23.014  25.172  1.00  0.00     0.287 C 
ATOM     19  N   UNL A   1      34.120  21.808  24.402  1.00  0.00    -0.329 N 
ATOM     20  C   UNL A   1      32.672  23.282  22.972  1.00  0.00     0.182 C 
ATOM     21  C   UNL A   1      34.142  20.640  25.302  1.00  0.00     0.262 C 
ATOM     22  C   UNL A   1      32.751  22.010  23.854  1.00  0.00     0.203 C 
ATOM     23  H   UNL A   1      34.767  21.649  23.630  1.00  0.00     0.348 HD
ATOM     24  C   UNL A   1      33.698  19.362  24.590  1.00  0.00     0.062 C 
ATOM     25  C   UNL A   1      32.306  20.776  23.058  1.00  0.00     0.067 C 
ATOM     26  C   UNL A   1      32.329  19.531  23.940  1.00  0.00     0.012 C 
ENDBRANCH   9  15
ENDBRANCH   5   8
ENDBRANCH   3   4
ENDBRANCH   2   3
ENDBRANCH   1   2
BRANCH   1  27
ATOM     27  N   UNL A   1      32.614  33.653  27.521  1.00  0.00    -0.352 N 
ATOM     28  C   UNL A   1      33.247  34.358  28.514  1.00  0.00     0.251 C 
ATOM     29  H   UNL A   1      32.018  34.188  26.948  1.00  0.00     0.163 HD
ATOM     30  O   UNL A   1      32.841  35.482  28.794  1.00  0.00    -0.269 OA
BRANCH  28  31
ATOM     31  C   UNL A   1      34.397  33.776  29.242  1.00  0.00     0.039 A 
ATOM     32  C   UNL A   1      35.688  34.184  28.896  1.00  0.00     0.014 A 
ATOM     33  C   UNL A   1      34.215  32.790  30.216  1.00  0.00     0.014 A 
ATOM     34  C   UNL A   1      36.791  33.635  29.554  1.00  0.00     0.010 A 
ATOM     35  C   UNL A   1      35.311  32.297  30.922  1.00  0.00     0.010 A 
ATOM     36  C   UNL A   1      36.611  32.704  30.590  1.00  0.00    -0.014 A 
BRANCH  36  37
ATOM     37  C   UNL A   1      37.770  32.128  31.319  1.00  0.00     0.031 A 
ATOM     38  C   UNL A   1      38.572  31.016  30.699  1.00  0.00     0.074 A 
ATOM     39  C   UNL A   1      38.067  32.569  32.556  1.00  0.00     0.049 A 
ATOM     40  N   UNL A   1      39.567  30.329  31.201  1.00  0.00    -0.248 NA
ATOM     41  C   UNL A   1      38.180  30.603  29.343  1.00  0.00     0.031 C 
ATOM     42  C   UNL A   1      37.344  33.624  33.272  1.00  0.00     0.029 A 
ATOM     43  N   UNL A   1      39.048  32.186  33.435  1.00  0.00    -0.354 N 
ATOM     44  C   UNL A   1      39.913  29.396  30.229  1.00  0.00     0.074 A 
ATOM     45  C   UNL A   1      38.973  29.562  29.140  1.00  0.00     0.031 C 
ATOM     46  C   UNL A   1      37.926  33.823  34.465  1.00  0.00     0.029 A 
ATOM     47  C   UNL A   1      39.029  32.880  34.622  1.00  0.00     0.049 A 
ATOM     48  H   UNL A   1      39.704  31.480  33.235  1.00  0.00     0.167 HD
ATOM     49  C   UNL A   1      40.934  28.503  30.231  1.00  0.00     0.034 A 
ATOM     50  C   UNL A   1      39.808  32.765  35.716  1.00  0.00     0.034 A 
ATOM     51  C   UNL A   1      41.863  28.355  31.327  1.00  0.00     0.049 A 
ATOM     52  C   UNL A   1      40.911  31.735  35.716  1.00  0.00     0.074 A 
ATOM     53  C   UNL A   1      42.954  27.508  31.428  1.00  0.00     0.029 A 
ATOM     54  N   UNL A   1      41.806  29.068  32.519  1.00  0.00    -0.354 N 
ATOM     55  N   UNL A   1      41.247  30.883  34.775  1.00  0.00    -0.248 NA
ATOM     56  C   UNL A   1      41.743  31.663  36.922  1.00  0.00     0.031 C 
ATOM     57  C   UNL A   1      43.514  27.663  32.702  1.00  0.00     0.029 A 
ATOM     58  C   UNL A   1      42.823  28.661  33.369  1.00  0.00     0.049 A 
ATOM     59  H   UNL A   1      41.140  29.761  32.729  1.00  0.00     0.167 HD
ATOM     60  C   UNL A   1      42.356  30.199  35.265  1.00  0.00     0.074 A 
ATOM     61  C   UNL A   1      42.635  30.746  36.576  1.00  0.00     0.031 C 
ATOM     62  C   UNL A   1      43.083  29.211  34.681  1.00  0.00     0.034 A 
BRANCH  49  63
ATOM     63  C   UNL A   1      41.072  27.607  29.021  1.00  0.00     0.023 A 
ATOM     64  C   UNL A   1      42.074  27.820  28.058  1.00  0.00     0.031 A 
ATOM     65  C   UNL A   1      40.162  26.559  28.796  1.00  0.00     0.131 A 
ATOM     66  C   UNL A   1      42.084  27.066  26.873  1.00  0.00     0.055 A 
ATOM     67  C   UNL A   1      40.235  25.750  27.659  1.00  0.00     0.041 A 
ATOM     68  F   UNL A   1      39.170  26.314  29.667  1.00  0.00    -0.206 F 
ATOM     69  C   UNL A   1      41.187  26.014  26.679  1.00  0.00     0.022 A 
BRANCH  66  70
ATOM     70  S   UNL A   1      43.171  27.596  25.522  1.00  0.00     0.124 S 
ATOM     71  O   UNL A   1      42.223  28.250  24.621  1.00  0.00    -0.237 OA
ATOM     72  O   UNL A   1      44.117  28.472  26.201  1.00  0.00    -0.237 OA
ATOM     73  O   UNL A   1      43.730  26.342  25.019  1.00  0.00    -0.744 OA
ENDBRANCH  66  70
ENDBRANCH  49  63
BRANCH  50  74
ATOM     74  C   UNL A   1      39.584  33.643  36.898  1.00  0.00     0.023 A 
ATOM     75  C   UNL A   1      38.942  33.152  38.046  1.00  0.00     0.031 A 
ATOM     76  C   UNL A   1      39.974  34.994  36.888  1.00  0.00     0.131 A 
ATOM     77  C   UNL A   1      38.667  34.015  39.117  1.00  0.00     0.055 A 
ATOM     78  C   UNL A   1      39.746  35.836  37.977  1.00  0.00     0.041 A 
ATOM     79  F   UNL A   1      40.598  35.513  35.818  1.00  0.00    -0.206 F 
ATOM     80  C   UNL A   1      39.076  35.350  39.097  1.00  0.00     0.022 A 
BRANCH  77  81
ATOM     81  S   UNL A   1      37.691  33.385  40.510  1.00  0.00     0.124 S 
ATOM     82  O   UNL A   1      38.614  32.427  41.109  1.00  0.00    -0.237 OA
ATOM     83  O   UNL A   1      37.439  34.601  41.278  1.00  0.00    -0.237 OA
ATOM     84  O   UNL A   1      36.516  32.803  39.865  1.00  0.00    -0.744 OA
ENDBRANCH  77  81
ENDBRANCH  50  74
BRANCH  62  85
ATOM     85  C   UNL A   1      44.282  28.703  35.444  1.00  0.00     0.023 A 
ATOM     86  C   UNL A   1      44.178  27.665  36.386  1.00  0.00     0.031 A 
ATOM     87  C   UNL A   1      45.546  29.284  35.237  1.00  0.00     0.131 A 
ATOM     88  C   UNL A   1      45.304  27.281  37.129  1.00  0.00     0.055 A 
ATOM     89  C   UNL A   1      46.676  28.854  35.934  1.00  0.00     0.041 A 
ATOM     90  F   UNL A   1      45.704  30.280  34.351  1.00  0.00    -0.206 F 
ATOM     91  C   UNL A   1      46.556  27.856  36.897  1.00  0.00     0.022 A 
BRANCH  88  92
ATOM     92  S   UNL A   1      45.092  26.084  38.477  1.00  0.00     0.124 S 
ATOM     93  O   UNL A   1      46.463  25.905  38.942  1.00  0.00    -0.237 OA
ATOM     94  O   UNL A   1      44.196  26.792  39.385  1.00  0.00    -0.237 OA
ATOM     95  O   UNL A   1      44.506  24.921  37.812  1.00  0.00    -0.744 OA
ENDBRANCH  88  92
ENDBRANCH  62  85
ENDBRANCH  36  37
ENDBRANCH  28  31
ENDBRANCH   1  27
TORSDOF 14
ENDMDL
MODEL 2
REMARK VINA RESULT:     -13.0      0.785      1.563
REMARK SMILES C[C@H]1C[N@H+]2CCCC[C@@H]2CN1c1ccc(C(=O)NCCCNC(=O)c2ccc(-c3c4nc(c(-c5cc(S(=O)(=O)[O-])ccc5F)c5ccc([nH]5)c(-c5cc(S(=O)(=O)[O-])ccc5F)c5nc(c(-c6cc(S(=O)(=O)[O-])ccc6F)c6ccc3[nH]6)C=C5)C=C4)cc2)cc1Cl
REMARK SMILES IDX 21 1 20 2 19 3 18 4 16 5 17 6 15 8 12 9 13 10 89 11 14 12
REMARK SMILES IDX 88 13 90 14 11 15 1 16 2 17 3 18 4 19 10 20 5 21 9 22 6 24
REMARK SMILES IDX 8 25 7 26 22 27 23 28 24 30 25 31 26 32 87 33 27 34 86 35
REMARK SMILES IDX 28 36 29 37 30 38 80 39 31 40 85 41 79 42 81 43 32 44 84 45
REMARK SMILES IDX 78 46 77 47 33 49 65 50 45 51 64 52 46 53 49 54 63 55 82 56
REMARK SMILES IDX 47 57 48 58 62 60 83 61 50 62 34 63 35 64 43 65 36 66 42 67
REMARK SMILES IDX 44 68 41 69 37 70 38 71 39 72 40 73 66 74 67 75 75 76 68 77
REMARK SMILES IDX 74 78 76 79 73 80 69 81 70 82 71 83 72 84 51 85 52 86 60 87
REMARK SMILES IDX 53 88 59 89 61 90 58 91 54 92 55 93 56 94 57 95
REMARK H PARENT 18 7 4 23 22 29 81 48 49 59
REMARK Flexibility Score: inf
ROOT
ATOM      1  C   UNL A   1      32.633  32.441  27.235  1.00  0.00     0.118 C 
ENDROOT
BRANCH   1   2
ATOM      2  C   UNL A   1      31.409  32.001  26.435  1.00  0.00     0.042 C 
BRANCH   2   3
ATOM      3  C   UNL A   1      31.533  30.589  25.864  1.00  0.00     0.118 C 
BRANCH   3   4
ATOM      4  N   UNL A   1      30.781  30.444  24.631  1.00  0.00    -0.352 N 
ATOM      5  C   UNL A   1      30.539  29.370  23.814  1.00  0.00     0.251 C 
ATOM      6  O   UNL A   1      29.762  29.536  22.873  1.00  0.00    -0.269 OA
ATOM      7  H   UNL A   1      30.364  31.280  24.321  1.00  0.00     0.163 HD
BRANCH   5   8
ATOM      8  C   UNL A   1      31.143  28.024  24.015  1.00  0.00     0.041 A 
ATOM      9  C   UNL A   1      32.531  25.572  24.431  1.00  0.00     0.056 A 
ATOM     10  C   UNL A   1      33.029  26.549  23.560  1.00  0.00     0.028 A 
ATOM     11  C   UNL A   1      31.298  25.839  25.058  1.00  0.00     0.065 A 
ATOM     12  C   UNL A   1      32.349  27.755  23.354  1.00  0.00     0.016 A 
ATOM     13  C   UNL A   1      30.636  27.058  24.879  1.00  0.00     0.036 A 
ATOM     14  Cl  UNL A   1      30.567  24.720  26.162  1.00  0.00    -0.082 Cl
BRANCH   9  15
ATOM     15  N   UNL A   1      33.280  24.450  24.721  1.00  0.00    -0.356 N 
ATOM     16  C   UNL A   1      32.116  23.136  22.921  1.00  0.00     0.037 C 
ATOM     17  C   UNL A   1      32.961  23.103  24.204  1.00  0.00     0.134 C 
ATOM     18  C   UNL A   1      34.279  22.332  23.866  1.00  0.00     0.287 C 
ATOM     19  N   UNL A   1      35.371  22.408  24.869  1.00  0.00    -0.329 N 
ATOM     20  C   UNL A   1      34.330  24.520  25.744  1.00  0.00     0.182 C 
ATOM     21  C   UNL A   1      36.589  21.807  24.294  1.00  0.00     0.262 C 
ATOM     22  C   UNL A   1      35.615  23.834  25.217  1.00  0.00     0.203 C 
ATOM     23  H   UNL A   1      35.113  21.899  25.715  1.00  0.00     0.348 HD
ATOM     24  C   UNL A   1      37.775  21.889  25.255  1.00  0.00     0.062 C 
ATOM     25  C   UNL A   1      36.746  23.948  26.248  1.00  0.00     0.067 C 
ATOM     26  C   UNL A   1      38.029  23.322  25.709  1.00  0.00     0.012 C 
ENDBRANCH   9  15
ENDBRANCH   5   8
ENDBRANCH   3   4
ENDBRANCH   2   3
ENDBRANCH   1   2
BRANCH   1  27
ATOM     27  N   UNL A   1      32.551  33.843  27.613  1.00  0.00    -0.352 N 
ATOM     28  C   UNL A   1      33.176  34.525  28.627  1.00  0.00     0.251 C 
ATOM     29  H   UNL A   1      31.953  34.390  27.052  1.00  0.00     0.163 HD
ATOM     30  O   UNL A   1      32.761  35.639  28.936  1.00  0.00    -0.269 OA
BRANCH  28  31
ATOM     31  C   UNL A   1      34.327  33.932  29.343  1.00  0.00     0.039 A 
ATOM     32  C   UNL A   1      35.619  34.315  28.973  1.00  0.00     0.014 A 
ATOM     33  C   UNL A   1      34.144  32.958  30.329  1.00  0.00     0.014 A 
ATOM     34  C   UNL A   1      36.723  33.754  29.620  1.00  0.00     0.010 A 
ATOM     35  C   UNL A   1      35.242  32.453  31.023  1.00  0.00     0.010 A 
ATOM     36  C   UNL A   1      36.544  32.836  30.668  1.00  0.00    -0.014 A 
BRANCH  36  37
ATOM     37  C   UNL A   1      37.704  32.248  31.385  1.00  0.00     0.031 A 
ATOM     38  C   UNL A   1      38.472  31.110  30.768  1.00  0.00     0.074 A 
ATOM     39  C   UNL A   1      38.033  32.702  32.608  1.00  0.00     0.049 A 
ATOM     40  N   UNL A   1      39.462  30.410  31.263  1.00  0.00    -0.248 NA
ATOM     41  C   UNL A   1      38.046  30.683  29.426  1.00  0.00     0.031 C 
ATOM     42  C   UNL A   1      37.345  33.783  33.320  1.00  0.00     0.029 A 
ATOM     43  N   UNL A   1      39.022  32.313  33.475  1.00  0.00    -0.354 N 
ATOM     44  C   UNL A   1      39.770  29.454  30.300  1.00  0.00     0.074 A 
ATOM     45  C   UNL A   1      38.814  29.623  29.226  1.00  0.00     0.031 C 
ATOM     46  C   UNL A   1      37.953  33.988  34.499  1.00  0.00     0.029 A 
ATOM     47  C   UNL A   1      39.039  33.026  34.651  1.00  0.00     0.049 A 
ATOM     48  H   UNL A   1      39.660  31.590  33.275  1.00  0.00     0.167 HD
ATOM     49  C   UNL A   1      40.773  28.541  30.298  1.00  0.00     0.034 A 
ATOM     50  C   UNL A   1      39.836  32.912  35.732  1.00  0.00     0.034 A 
ATOM     51  C   UNL A   1      41.719  28.391  31.379  1.00  0.00     0.049 A 
ATOM     52  C   UNL A   1      40.917  31.860  35.729  1.00  0.00     0.074 A 
ATOM     53  C   UNL A   1      42.794  27.524  31.474  1.00  0.00     0.029 A 
ATOM     54  N   UNL A   1      41.698  29.125  32.560  1.00  0.00    -0.354 N 
ATOM     55  N   UNL A   1      41.218  30.986  34.796  1.00  0.00    -0.248 NA
ATOM     56  C   UNL A   1      41.771  31.789  36.921  1.00  0.00     0.031 C 
ATOM     57  C   UNL A   1      43.381  27.687  32.734  1.00  0.00     0.029 A 
ATOM     58  C   UNL A   1      42.723  28.710  33.398  1.00  0.00     0.049 A 
ATOM     59  H   UNL A   1      41.051  29.834  32.771  1.00  0.00     0.167 HD
ATOM     60  C   UNL A   1      42.322  30.287  35.277  1.00  0.00     0.074 A 
ATOM     61  C   UNL A   1      42.637  30.849  36.574  1.00  0.00     0.031 C 
ATOM     62  C   UNL A   1      43.018  29.275  34.696  1.00  0.00     0.034 A 
BRANCH  49  63
ATOM     63  C   UNL A   1      40.870  27.623  29.100  1.00  0.00     0.023 A 
ATOM     64  C   UNL A   1      41.822  27.834  28.087  1.00  0.00     0.031 A 
ATOM     65  C   UNL A   1      39.969  26.556  28.939  1.00  0.00     0.131 A 
ATOM     66  C   UNL A   1      41.790  27.056  26.919  1.00  0.00     0.055 A 
ATOM     67  C   UNL A   1      40.003  25.726  27.815  1.00  0.00     0.041 A 
ATOM     68  F   UNL A   1      39.023  26.312  29.860  1.00  0.00    -0.206 F 
ATOM     69  C   UNL A   1      40.904  25.986  26.787  1.00  0.00     0.022 A 
BRANCH  66  70
ATOM     70  S   UNL A   1      42.804  27.577  25.507  1.00  0.00     0.124 S 
ATOM     71  O   UNL A   1      42.048  28.726  25.011  1.00  0.00    -0.237 OA
ATOM     72  O   UNL A   1      44.086  27.876  26.132  1.00  0.00    -0.237 OA
ATOM     73  O   UNL A   1      42.793  26.410  24.628  1.00  0.00    -0.744 OA
ENDBRANCH  66  70
ENDBRANCH  49  63
BRANCH  50  74
ATOM     74  C   UNL A   1      39.652  33.813  36.905  1.00  0.00     0.023 A 
ATOM     75  C   UNL A   1      39.060  33.342  38.086  1.00  0.00     0.031 A 
ATOM     76  C   UNL A   1      40.030  35.167  36.850  1.00  0.00     0.131 A 
ATOM     77  C   UNL A   1      38.821  34.226  39.150  1.00  0.00     0.055 A 
ATOM     78  C   UNL A   1      39.839  36.030  37.930  1.00  0.00     0.041 A 
ATOM     79  F   UNL A   1      40.606  35.667  35.745  1.00  0.00    -0.206 F 
ATOM     80  C   UNL A   1      39.218  35.563  39.086  1.00  0.00     0.022 A 
BRANCH  77  81
ATOM     81  S   UNL A   1      37.906  33.617  40.594  1.00  0.00     0.124 S 
ATOM     82  O   UNL A   1      36.736  33.011  39.969  1.00  0.00    -0.237 OA
ATOM     83  O   UNL A   1      38.866  32.694  41.192  1.00  0.00    -0.237 OA
ATOM     84  O   UNL A   1      37.647  34.830  41.366  1.00  0.00    -0.744 OA
ENDBRANCH  77  81
ENDBRANCH  50  74
BRANCH  62  85
ATOM     85  C   UNL A   1      44.221  28.755  35.445  1.00  0.00     0.023 A 
ATOM     86  C   UNL A   1      44.119  27.710  36.379  1.00  0.00     0.031 A 
ATOM     87  C   UNL A   1      45.486  29.331  35.233  1.00  0.00     0.131 A 
ATOM     88  C   UNL A   1      45.249  27.313  37.110  1.00  0.00     0.055 A 
ATOM     89  C   UNL A   1      46.620  28.890  35.917  1.00  0.00     0.041 A 
ATOM     90  F   UNL A   1      45.642  30.334  34.354  1.00  0.00    -0.206 F 
ATOM     91  C   UNL A   1      46.502  27.884  36.873  1.00  0.00     0.022 A 
BRANCH  88  92
ATOM     92  S   UNL A   1      45.041  26.106  38.449  1.00  0.00     0.124 S 
ATOM     93  O   UNL A   1      43.935  26.682  39.207  1.00  0.00    -0.237 OA
ATOM     94  O   UNL A   1      44.744  24.879  37.719  1.00  0.00    -0.237 OA
ATOM     95  O   UNL A   1      46.335  26.124  39.129  1.00  0.00    -0.744 OA
ENDBRANCH  88  92
ENDBRANCH  62  85
ENDBRANCH  36  37
ENDBRANCH  28  31
ENDBRANCH   1  27
TORSDOF 14
ENDMDL
MODEL 3
REMARK VINA RESULT:     -12.9      1.400      1.655
REMARK SMILES C[C@H]1C[N@H+]2CCCC[C@@H]2CN1c1ccc(C(=O)NCCCNC(=O)c2ccc(-c3c4nc(c(-c5cc(S(=O)(=O)[O-])ccc5F)c5ccc([nH]5)c(-c5cc(S(=O)(=O)[O-])ccc5F)c5nc(c(-c6cc(S(=O)(=O)[O-])ccc6F)c6ccc3[nH]6)C=C5)C=C4)cc2)cc1Cl
REMARK SMILES IDX 21 1 20 2 19 3 18 4 16 5 17 6 15 8 12 9 13 10 89 11 14 12
REMARK SMILES IDX 88 13 90 14 11 15 1 16 2 17 3 18 4 19 10 20 5 21 9 22 6 24
REMARK SMILES IDX 8 25 7 26 22 27 23 28 24 30 25 31 26 32 87 33 27 34 86 35
REMARK SMILES IDX 28 36 29 37 30 38 80 39 31 40 85 41 79 42 81 43 32 44 84 45
REMARK SMILES IDX 78 46 77 47 33 49 65 50 45 51 64 52 46 53 49 54 63 55 82 56
REMARK SMILES IDX 47 57 48 58 62 60 83 61 50 62 34 63 35 64 43 65 36 66 42 67
REMARK SMILES IDX 44 68 41 69 37 70 38 71 39 72 40 73 66 74 67 75 75 76 68 77
REMARK SMILES IDX 74 78 76 79 73 80 69 81 70 82 71 83 72 84 51 85 52 86 60 87
REMARK SMILES IDX 53 88 59 89 61 90 58 91 54 92 55 93 56 94 57 95
REMARK H PARENT 18 7 4 23 22 29 81 48 49 59
REMARK Flexibility Score: inf
ROOT
ATOM      1  C   UNL A   1      32.339  32.063  27.003  1.00  0.00     0.118 C 
ENDROOT
BRANCH   1   2
ATOM      2  C   UNL A   1      31.150  31.702  26.116  1.00  0.00     0.042 C 
BRANCH   2   3
ATOM      3  C   UNL A   1      31.348  30.402  25.337  1.00  0.00     0.118 C 
BRANCH   3   4
ATOM      4  N   UNL A   1      30.391  30.280  24.251  1.00  0.00    -0.352 N 
ATOM      5  C   UNL A   1      30.023  29.227  23.455  1.00  0.00     0.251 C 
ATOM      6  O   UNL A   1      29.090  29.406  22.671  1.00  0.00    -0.269 OA
ATOM      7  H   UNL A   1      29.915  31.117  24.047  1.00  0.00     0.163 HD
BRANCH   5   8
ATOM      8  C   UNL A   1      30.671  27.887  23.502  1.00  0.00     0.041 A 
ATOM      9  C   UNL A   1      32.142  25.449  23.566  1.00  0.00     0.056 A 
ATOM     10  C   UNL A   1      32.406  26.431  22.603  1.00  0.00     0.028 A 
ATOM     11  C   UNL A   1      31.093  25.703  24.471  1.00  0.00     0.065 A 
ATOM     12  C   UNL A   1      31.685  27.631  22.570  1.00  0.00     0.016 A 
ATOM     13  C   UNL A   1      30.395  26.916  24.459  1.00  0.00     0.036 A 
ATOM     14  Cl  UNL A   1      30.658  24.577  25.716  1.00  0.00    -0.082 Cl
BRANCH   9  15
ATOM     15  N   UNL A   1      32.949  24.334  23.665  1.00  0.00    -0.356 N 
ATOM     16  C   UNL A   1      34.403  25.463  25.376  1.00  0.00     0.037 C 
ATOM     17  C   UNL A   1      34.262  24.336  24.341  1.00  0.00     0.134 C 
ATOM     18  C   UNL A   1      34.477  22.987  25.100  1.00  0.00     0.287 C 
ATOM     19  N   UNL A   1      34.119  21.745  24.367  1.00  0.00    -0.329 N 
ATOM     20  C   UNL A   1      32.612  23.125  22.904  1.00  0.00     0.182 C 
ATOM     21  C   UNL A   1      34.189  20.605  25.299  1.00  0.00     0.262 C 
ATOM     22  C   UNL A   1      32.742  21.883  23.821  1.00  0.00     0.203 C 
ATOM     23  H   UNL A   1      34.768  21.589  23.595  1.00  0.00     0.348 HD
ATOM     24  C   UNL A   1      33.787  19.292  24.626  1.00  0.00     0.062 C 
ATOM     25  C   UNL A   1      32.338  20.611  23.063  1.00  0.00     0.067 C 
ATOM     26  C   UNL A   1      32.411  19.393  23.979  1.00  0.00     0.012 C 
ENDBRANCH   9  15
ENDBRANCH   5   8
ENDBRANCH   3   4
ENDBRANCH   2   3
ENDBRANCH   1   2
BRANCH   1  27
ATOM     27  N   UNL A   1      32.407  33.495  27.251  1.00  0.00    -0.352 N 
ATOM     28  C   UNL A   1      33.169  34.203  28.147  1.00  0.00     0.251 C 
ATOM     29  H   UNL A   1      31.814  34.043  26.687  1.00  0.00     0.163 HD
ATOM     30  O   UNL A   1      32.877  35.372  28.379  1.00  0.00    -0.269 OA
BRANCH  28  31
ATOM     31  C   UNL A   1      34.320  33.571  28.830  1.00  0.00     0.039 A 
ATOM     32  C   UNL A   1      35.607  34.037  28.548  1.00  0.00     0.014 A 
ATOM     33  C   UNL A   1      34.145  32.487  29.694  1.00  0.00     0.014 A 
ATOM     34  C   UNL A   1      36.712  33.445  29.163  1.00  0.00     0.010 A 
ATOM     35  C   UNL A   1      35.241  31.944  30.363  1.00  0.00     0.010 A 
ATOM     36  C   UNL A   1      36.537  32.409  30.095  1.00  0.00    -0.014 A 
BRANCH  36  37
ATOM     37  C   UNL A   1      37.697  31.783  30.780  1.00  0.00     0.031 A 
ATOM     38  C   UNL A   1      38.521  30.744  30.067  1.00  0.00     0.074 A 
ATOM     39  C   UNL A   1      37.977  32.111  32.055  1.00  0.00     0.049 A 
ATOM     40  N   UNL A   1      39.521  30.026  30.513  1.00  0.00    -0.248 NA
ATOM     41  C   UNL A   1      38.147  30.453  28.675  1.00  0.00     0.031 C 
ATOM     42  C   UNL A   1      37.233  33.085  32.858  1.00  0.00     0.029 A 
ATOM     43  N   UNL A   1      38.955  31.661  32.905  1.00  0.00    -0.354 N 
ATOM     44  C   UNL A   1      39.888  29.192  29.462  1.00  0.00     0.074 A 
ATOM     45  C   UNL A   1      38.956  29.446  28.384  1.00  0.00     0.031 C 
ATOM     46  C   UNL A   1      37.801  33.179  34.070  1.00  0.00     0.029 A 
ATOM     47  C   UNL A   1      38.916  32.241  34.151  1.00  0.00     0.049 A 
ATOM     48  H   UNL A   1      39.623  30.984  32.646  1.00  0.00     0.167 HD
ATOM     49  C   UNL A   1      40.922  28.316  29.393  1.00  0.00     0.034 A 
ATOM     50  C   UNL A   1      39.686  32.035  35.237  1.00  0.00     0.034 A 
ATOM     51  C   UNL A   1      41.843  28.079  30.480  1.00  0.00     0.049 A 
ATOM     52  C   UNL A   1      40.803  31.025  35.153  1.00  0.00     0.074 A 
ATOM     53  C   UNL A   1      42.945  27.241  30.513  1.00  0.00     0.029 A 
ATOM     54  N   UNL A   1      41.765  28.678  31.732  1.00  0.00    -0.354 N 
ATOM     55  N   UNL A   1      41.160  30.268  34.140  1.00  0.00    -0.248 NA
ATOM     56  C   UNL A   1      41.626  30.851  36.356  1.00  0.00     0.031 C 
ATOM     57  C   UNL A   1      43.491  27.284  31.801  1.00  0.00     0.029 A 
ATOM     58  C   UNL A   1      42.780  28.207  32.551  1.00  0.00     0.049 A 
ATOM     59  H   UNL A   1      41.087  29.340  31.998  1.00  0.00     0.167 HD
ATOM     60  C   UNL A   1      42.274  29.556  34.576  1.00  0.00     0.074 A 
ATOM     61  C   UNL A   1      42.533  29.982  35.936  1.00  0.00     0.031 C 
ATOM     62  C   UNL A   1      43.020  28.636  33.911  1.00  0.00     0.034 A 
BRANCH  49  63
ATOM     63  C   UNL A   1      41.083  27.538  28.106  1.00  0.00     0.023 A 
ATOM     64  C   UNL A   1      40.720  26.183  28.014  1.00  0.00     0.031 A 
ATOM     65  C   UNL A   1      41.655  28.139  26.970  1.00  0.00     0.131 A 
ATOM     66  C   UNL A   1      41.019  25.451  26.855  1.00  0.00     0.055 A 
ATOM     67  C   UNL A   1      41.865  27.429  25.786  1.00  0.00     0.041 A 
ATOM     68  F   UNL A   1      42.042  29.425  26.998  1.00  0.00    -0.206 F 
ATOM     69  C   UNL A   1      41.565  26.071  25.729  1.00  0.00     0.022 A 
BRANCH  66  70
ATOM     70  S   UNL A   1      40.846  23.646  26.905  1.00  0.00     0.124 S 
ATOM     71  O   UNL A   1      41.843  23.227  25.920  1.00  0.00    -0.237 OA
ATOM     72  O   UNL A   1      41.153  23.337  28.295  1.00  0.00    -0.237 OA
ATOM     73  O   UNL A   1      39.458  23.423  26.506  1.00  0.00    -0.744 OA
ENDBRANCH  66  70
ENDBRANCH  49  63
BRANCH  50  74
ATOM     74  C   UNL A   1      39.440  32.796  36.494  1.00  0.00     0.023 A 
ATOM     75  C   UNL A   1      38.536  32.320  37.456  1.00  0.00     0.031 A 
ATOM     76  C   UNL A   1      40.073  34.028  36.736  1.00  0.00     0.131 A 
ATOM     77  C   UNL A   1      38.255  33.091  38.595  1.00  0.00     0.055 A 
ATOM     78  C   UNL A   1      39.832  34.766  37.896  1.00  0.00     0.041 A 
ATOM     79  F   UNL A   1      40.952  34.526  35.851  1.00  0.00    -0.206 F 
ATOM     80  C   UNL A   1      38.906  34.304  38.828  1.00  0.00     0.022 A 
BRANCH  77  81
ATOM     81  S   UNL A   1      36.961  32.520  39.731  1.00  0.00     0.124 S 
ATOM     82  O   UNL A   1      37.403  31.161  40.023  1.00  0.00    -0.237 OA
ATOM     83  O   UNL A   1      37.073  33.481  40.823  1.00  0.00    -0.237 OA
ATOM     84  O   UNL A   1      35.740  32.624  38.934  1.00  0.00    -0.744 OA
ENDBRANCH  77  81
ENDBRANCH  50  74
BRANCH  62  85
ATOM     85  C   UNL A   1      44.219  28.076  34.636  1.00  0.00     0.023 A 
ATOM     86  C   UNL A   1      44.131  26.928  35.442  1.00  0.00     0.031 A 
ATOM     87  C   UNL A   1      45.468  28.715  34.532  1.00  0.00     0.131 A 
ATOM     88  C   UNL A   1      45.253  26.490  36.161  1.00  0.00     0.055 A 
ATOM     89  C   UNL A   1      46.597  28.238  35.199  1.00  0.00     0.041 A 
ATOM     90  F   UNL A   1      45.611  29.816  33.777  1.00  0.00    -0.206 F 
ATOM     91  C   UNL A   1      46.490  27.127  36.030  1.00  0.00     0.022 A 
BRANCH  88  92
ATOM     92  S   UNL A   1      45.053  25.132  37.348  1.00  0.00     0.124 S 
ATOM     93  O   UNL A   1      43.901  25.577  38.126  1.00  0.00    -0.237 OA
ATOM     94  O   UNL A   1      44.828  23.985  36.475  1.00  0.00    -0.237 OA
ATOM     95  O   UNL A   1      46.323  25.120  38.072  1.00  0.00    -0.744 OA
ENDBRANCH  88  92
ENDBRANCH  62  85
ENDBRANCH  36  37
ENDBRANCH  28  31
ENDBRANCH   1  27
TORSDOF 14
ENDMDL
