MODEL 1
REMARK VINA RESULT:     -11.5      0.000      0.000
REMARK SMILES O=C(NCCCNC(=O)c1sccc1NS(=O)(=O)N1CCCC1)c1ccc(-c2c3nc(c(-c4cc(S(=O)(=O)[O-])ccc4F)c4ccc([nH]4)c(-c4cc(S(=O)(=O)[O-])ccc4F)c4nc(c(-c5cc(S(=O)(=O)[O-])ccc5F)c5ccc2[nH]5)C=C4)C=C3)cc1
REMARK SMILES IDX 5 1 4 2 3 3 1 4 2 5 24 7 25 8 86 9 26 10 85 11 27 12 28 13
REMARK SMILES IDX 29 14 79 15 30 16 84 17 78 18 80 19 31 20 83 21 77 22 76 23
REMARK SMILES IDX 32 25 64 26 44 27 63 28 45 29 48 30 62 31 81 32 46 33 47 34
REMARK SMILES IDX 61 36 82 37 49 38 33 39 34 40 42 41 35 42 41 43 43 44 40 45
REMARK SMILES IDX 36 46 37 47 38 48 39 49 65 50 66 51 74 52 67 53 73 54 75 55
REMARK SMILES IDX 72 56 68 57 69 58 70 59 71 60 50 61 51 62 59 63 52 64 58 65
REMARK SMILES IDX 60 66 57 67 53 68 54 69 55 70 56 71 6 72 7 73 8 74 9 76
REMARK SMILES IDX 10 77 11 78 14 79 12 80 13 81 15 82 16 84 17 85 18 86 19 87
REMARK SMILES IDX 20 88 23 89 21 90 22 91
REMARK H PARENT 3 6 80 24 48 35 7 75 15 83
REMARK Flexibility Score: inf
ROOT
ATOM      1  C   UNL A   1      37.758  20.029  24.996  1.00  0.00     0.042 C 
ENDROOT
BRANCH   1   2
ATOM      2  C   UNL A   1      38.982  20.496  25.753  1.00  0.00     0.118 C 
BRANCH   2   3
ATOM      3  N   UNL A   1      40.004  19.462  25.855  1.00  0.00    -0.352 N 
ATOM      4  O   UNL A   1      42.085  18.606  25.916  1.00  0.00    -0.269 OA
ATOM      5  C   UNL A   1      41.358  19.587  26.039  1.00  0.00     0.251 C 
ATOM      6  H   UNL A   1      39.674  18.538  25.781  1.00  0.00     0.163 HD
BRANCH   5   7
ATOM      7  C   UNL A   1      41.927  20.906  26.380  1.00  0.00     0.039 A 
ATOM      8  C   UNL A   1      42.119  21.864  25.383  1.00  0.00     0.014 A 
ATOM      9  C   UNL A   1      42.254  21.192  27.707  1.00  0.00     0.014 A 
ATOM     10  C   UNL A   1      42.772  23.049  25.681  1.00  0.00     0.010 A 
ATOM     11  C   UNL A   1      42.801  22.435  28.027  1.00  0.00     0.010 A 
ATOM     12  C   UNL A   1      43.071  23.368  27.013  1.00  0.00    -0.014 A 
BRANCH  12  13
ATOM     13  C   UNL A   1      43.525  24.742  27.328  1.00  0.00     0.031 A 
ATOM     14  C   UNL A   1      42.576  25.775  27.859  1.00  0.00     0.074 A 
ATOM     15  C   UNL A   1      44.826  25.031  27.118  1.00  0.00     0.049 A 
ATOM     16  N   UNL A   1      42.809  27.029  28.140  1.00  0.00    -0.248 NA
ATOM     17  C   UNL A   1      41.187  25.354  28.096  1.00  0.00     0.031 C 
ATOM     18  C   UNL A   1      45.823  24.086  26.598  1.00  0.00     0.029 A 
ATOM     19  N   UNL A   1      45.539  26.183  27.313  1.00  0.00    -0.354 N 
ATOM     20  C   UNL A   1      41.596  27.559  28.562  1.00  0.00     0.074 A 
ATOM     21  C   UNL A   1      40.624  26.488  28.491  1.00  0.00     0.031 C 
ATOM     22  C   UNL A   1      47.018  24.687  26.546  1.00  0.00     0.029 A 
ATOM     23  C   UNL A   1      46.858  26.080  26.935  1.00  0.00     0.049 A 
ATOM     24  H   UNL A   1      45.147  27.005  27.688  1.00  0.00     0.167 HD
ATOM     25  C   UNL A   1      41.332  28.826  28.963  1.00  0.00     0.034 A 
ATOM     26  C   UNL A   1      47.823  27.015  26.857  1.00  0.00     0.034 A 
ATOM     27  C   UNL A   1      42.331  29.866  29.036  1.00  0.00     0.049 A 
ATOM     28  C   UNL A   1      47.480  28.422  27.260  1.00  0.00     0.074 A 
ATOM     29  C   UNL A   1      42.193  31.158  29.512  1.00  0.00     0.029 A 
ATOM     30  N   UNL A   1      43.645  29.741  28.600  1.00  0.00    -0.354 N 
ATOM     31  N   UNL A   1      46.340  28.891  27.713  1.00  0.00    -0.248 NA
ATOM     32  C   UNL A   1      48.541  29.425  27.134  1.00  0.00     0.031 C 
ATOM     33  C   UNL A   1      43.397  31.836  29.289  1.00  0.00     0.029 A 
ATOM     34  C   UNL A   1      44.310  30.949  28.743  1.00  0.00     0.049 A 
ATOM     35  H   UNL A   1      44.044  28.915  28.242  1.00  0.00     0.167 HD
ATOM     36  C   UNL A   1      46.552  30.246  27.934  1.00  0.00     0.074 A 
ATOM     37  C   UNL A   1      47.936  30.509  27.594  1.00  0.00     0.031 C 
ATOM     38  C   UNL A   1      45.684  31.191  28.372  1.00  0.00     0.034 A 
BRANCH  25  39
ATOM     39  C   UNL A   1      39.906  29.183  29.301  1.00  0.00     0.023 A 
ATOM     40  C   UNL A   1      39.455  29.302  30.627  1.00  0.00     0.031 A 
ATOM     41  C   UNL A   1      38.991  29.447  28.266  1.00  0.00     0.131 A 
ATOM     42  C   UNL A   1      38.116  29.644  30.881  1.00  0.00     0.055 A 
ATOM     43  C   UNL A   1      37.677  29.843  28.525  1.00  0.00     0.041 A 
ATOM     44  F   UNL A   1      39.362  29.330  26.980  1.00  0.00    -0.206 F 
ATOM     45  C   UNL A   1      37.231  29.937  29.839  1.00  0.00     0.022 A 
BRANCH  42  46
ATOM     46  S   UNL A   1      37.519  29.620  32.593  1.00  0.00     0.124 S 
ATOM     47  O   UNL A   1      38.597  30.315  33.294  1.00  0.00    -0.237 OA
ATOM     48  O   UNL A   1      36.254  30.338  32.497  1.00  0.00    -0.237 OA
ATOM     49  O   UNL A   1      37.406  28.195  32.899  1.00  0.00    -0.744 OA
ENDBRANCH  42  46
ENDBRANCH  25  39
BRANCH  26  50
ATOM     50  C   UNL A   1      49.165  26.672  26.306  1.00  0.00     0.023 A 
ATOM     51  C   UNL A   1      49.588  27.163  25.064  1.00  0.00     0.031 A 
ATOM     52  C   UNL A   1      50.030  25.805  27.002  1.00  0.00     0.131 A 
ATOM     53  C   UNL A   1      50.818  26.747  24.531  1.00  0.00     0.055 A 
ATOM     54  C   UNL A   1      51.280  25.446  26.498  1.00  0.00     0.041 A 
ATOM     55  F   UNL A   1      49.675  25.303  28.196  1.00  0.00    -0.206 F 
ATOM     56  C   UNL A   1      51.673  25.904  25.246  1.00  0.00     0.022 A 
BRANCH  53  57
ATOM     57  S   UNL A   1      51.233  27.232  22.835  1.00  0.00     0.124 S 
ATOM     58  O   UNL A   1      50.099  26.700  22.087  1.00  0.00    -0.237 OA
ATOM     59  O   UNL A   1      51.304  28.685  22.946  1.00  0.00    -0.237 OA
ATOM     60  O   UNL A   1      52.509  26.562  22.592  1.00  0.00    -0.744 OA
ENDBRANCH  53  57
ENDBRANCH  26  50
BRANCH  38  61
ATOM     61  C   UNL A   1      46.226  32.588  28.515  1.00  0.00     0.023 A 
ATOM     62  C   UNL A   1      46.242  33.479  27.429  1.00  0.00     0.031 A 
ATOM     63  C   UNL A   1      46.748  33.026  29.744  1.00  0.00     0.131 A 
ATOM     64  C   UNL A   1      46.813  34.750  27.579  1.00  0.00     0.055 A 
ATOM     65  C   UNL A   1      47.262  34.313  29.904  1.00  0.00     0.041 A 
ATOM     66  F   UNL A   1      46.761  32.211  30.811  1.00  0.00    -0.206 F 
ATOM     67  C   UNL A   1      47.307  35.179  28.814  1.00  0.00     0.022 A 
BRANCH  64  68
ATOM     68  S   UNL A   1      46.971  35.812  26.118  1.00  0.00     0.124 S 
ATOM     69  O   UNL A   1      48.377  36.198  26.175  1.00  0.00    -0.237 OA
ATOM     70  O   UNL A   1      46.600  34.910  25.033  1.00  0.00    -0.237 OA
ATOM     71  O   UNL A   1      46.020  36.892  26.376  1.00  0.00    -0.744 OA
ENDBRANCH  64  68
ENDBRANCH  38  61
ENDBRANCH  12  13
ENDBRANCH   5   7
ENDBRANCH   2   3
ENDBRANCH   1   2
BRANCH   1  72
ATOM     72  C   UNL A   1      36.677  21.083  24.891  1.00  0.00     0.118 C 
BRANCH  72  73
ATOM     73  N   UNL A   1      35.923  21.287  26.116  1.00  0.00    -0.351 N 
ATOM     74  C   UNL A   1      34.563  21.202  26.292  1.00  0.00     0.263 C 
ATOM     75  H   UNL A   1      36.449  21.513  26.916  1.00  0.00     0.163 HD
ATOM     76  O   UNL A   1      34.092  21.502  27.388  1.00  0.00    -0.268 OA
BRANCH  74  77
ATOM     77  C   UNL A   1      33.771  20.779  25.164  1.00  0.00     0.116 A 
ATOM     78  S   UNL A   1      33.606  19.086  24.947  1.00  0.00    -0.136 S 
ATOM     79  C   UNL A   1      33.076  21.527  24.218  1.00  0.00     0.073 A 
ATOM     80  C   UNL A   1      32.536  19.302  23.649  1.00  0.00     0.068 A 
ATOM     81  C   UNL A   1      32.343  20.637  23.370  1.00  0.00     0.039 A 
BRANCH  79  82
ATOM     82  N   UNL A   1      33.163  22.945  24.036  1.00  0.00    -0.269 N 
ATOM     83  H   UNL A   1      33.631  23.274  23.235  1.00  0.00     0.181 HD
BRANCH  82  84
ATOM     84  S   UNL A   1      32.518  24.105  25.103  1.00  0.00     0.301 S 
ATOM     85  O   UNL A   1      31.394  23.537  25.816  1.00  0.00    -0.189 OA
ATOM     86  O   UNL A   1      33.657  24.631  25.812  1.00  0.00    -0.189 OA
BRANCH  84  87
ATOM     87  N   UNL A   1      31.915  25.309  24.119  1.00  0.00    -0.185 NA
ATOM     88  C   UNL A   1      32.101  26.703  24.517  1.00  0.00     0.104 C 
ATOM     89  C   UNL A   1      30.577  25.189  23.514  1.00  0.00     0.104 C 
ATOM     90  C   UNL A   1      30.712  27.079  25.007  1.00  0.00     0.018 C 
ATOM     91  C   UNL A   1      29.812  26.433  23.970  1.00  0.00     0.018 C 
ENDBRANCH  84  87
ENDBRANCH  82  84
ENDBRANCH  79  82
ENDBRANCH  74  77
ENDBRANCH  72  73
ENDBRANCH   1  72
TORSDOF 16
ENDMDL
MODEL 2
REMARK VINA RESULT:     -11.5      5.914     10.440
REMARK SMILES O=C(NCCCNC(=O)c1sccc1NS(=O)(=O)N1CCCC1)c1ccc(-c2c3nc(c(-c4cc(S(=O)(=O)[O-])ccc4F)c4ccc([nH]4)c(-c4cc(S(=O)(=O)[O-])ccc4F)c4nc(c(-c5cc(S(=O)(=O)[O-])ccc5F)c5ccc2[nH]5)C=C4)C=C3)cc1
REMARK SMILES IDX 5 1 4 2 3 3 1 4 2 5 24 7 25 8 86 9 26 10 85 11 27 12 28 13
REMARK SMILES IDX 29 14 79 15 30 16 84 17 78 18 80 19 31 20 83 21 77 22 76 23
REMARK SMILES IDX 32 25 64 26 44 27 63 28 45 29 48 30 62 31 81 32 46 33 47 34
REMARK SMILES IDX 61 36 82 37 49 38 33 39 34 40 42 41 35 42 41 43 43 44 40 45
REMARK SMILES IDX 36 46 37 47 38 48 39 49 65 50 66 51 74 52 67 53 73 54 75 55
REMARK SMILES IDX 72 56 68 57 69 58 70 59 71 60 50 61 51 62 59 63 52 64 58 65
REMARK SMILES IDX 60 66 57 67 53 68 54 69 55 70 56 71 6 72 7 73 8 74 9 76
REMARK SMILES IDX 10 77 11 78 14 79 12 80 13 81 15 82 16 84 17 85 18 86 19 87
REMARK SMILES IDX 20 88 23 89 21 90 22 91
REMARK H PARENT 3 6 80 24 48 35 7 75 15 83
REMARK Flexibility Score: inf
ROOT
ATOM      1  C   UNL A   1      33.749  28.652  23.954  1.00  0.00     0.042 C 
ENDROOT
BRANCH   1   2
ATOM      2  C   UNL A   1      33.893  28.847  25.447  1.00  0.00     0.118 C 
BRANCH   2   3
ATOM      3  N   UNL A   1      33.238  30.060  25.918  1.00  0.00    -0.352 N 
ATOM      4  O   UNL A   1      32.784  31.754  27.330  1.00  0.00    -0.269 OA
ATOM      5  C   UNL A   1      33.562  30.874  26.975  1.00  0.00     0.251 C 
ATOM      6  H   UNL A   1      32.448  30.337  25.402  1.00  0.00     0.163 HD
BRANCH   5   7
ATOM      7  C   UNL A   1      34.846  30.677  27.677  1.00  0.00     0.039 A 
ATOM      8  C   UNL A   1      35.099  29.482  28.353  1.00  0.00     0.014 A 
ATOM      9  C   UNL A   1      35.809  31.689  27.644  1.00  0.00     0.014 A 
ATOM     10  C   UNL A   1      36.245  29.352  29.118  1.00  0.00     0.010 A 
ATOM     11  C   UNL A   1      37.018  31.507  28.317  1.00  0.00     0.010 A 
ATOM     12  C   UNL A   1      37.239  30.340  29.065  1.00  0.00    -0.014 A 
BRANCH  12  13
ATOM     13  C   UNL A   1      38.556  30.054  29.680  1.00  0.00     0.031 A 
ATOM     14  C   UNL A   1      39.535  29.122  29.030  1.00  0.00     0.074 A 
ATOM     15  C   UNL A   1      38.842  30.662  30.849  1.00  0.00     0.049 A 
ATOM     16  N   UNL A   1      40.706  28.737  29.463  1.00  0.00    -0.248 NA
ATOM     17  C   UNL A   1      39.152  28.540  27.735  1.00  0.00     0.031 C 
ATOM     18  C   UNL A   1      37.945  31.583  31.559  1.00  0.00     0.029 A 
ATOM     19  N   UNL A   1      39.953  30.611  31.648  1.00  0.00    -0.354 N 
ATOM     20  C   UNL A   1      41.192  27.847  28.512  1.00  0.00     0.074 A 
ATOM     21  C   UNL A   1      40.182  27.744  27.480  1.00  0.00     0.031 C 
ATOM     22  C   UNL A   1      38.552  32.031  32.664  1.00  0.00     0.029 A 
ATOM     23  C   UNL A   1      39.837  31.361  32.796  1.00  0.00     0.049 A 
ATOM     24  H   UNL A   1      40.757  30.089  31.423  1.00  0.00     0.167 HD
ATOM     25  C   UNL A   1      42.372  27.182  28.517  1.00  0.00     0.034 A 
ATOM     26  C   UNL A   1      40.649  31.458  33.865  1.00  0.00     0.034 A 
ATOM     27  C   UNL A   1      43.363  27.321  29.558  1.00  0.00     0.049 A 
ATOM     28  C   UNL A   1      41.925  30.664  33.859  1.00  0.00     0.074 A 
ATOM     29  C   UNL A   1      44.629  26.764  29.618  1.00  0.00     0.029 A 
ATOM     30  N   UNL A   1      43.194  28.050  30.728  1.00  0.00    -0.354 N 
ATOM     31  N   UNL A   1      42.396  29.873  32.922  1.00  0.00    -0.248 NA
ATOM     32  C   UNL A   1      42.774  30.766  35.049  1.00  0.00     0.031 C 
ATOM     33  C   UNL A   1      45.190  27.089  30.858  1.00  0.00     0.029 A 
ATOM     34  C   UNL A   1      44.308  27.910  31.541  1.00  0.00     0.049 A 
ATOM     35  H   UNL A   1      42.399  28.587  30.948  1.00  0.00     0.167 HD
ATOM     36  C   UNL A   1      43.603  29.388  33.410  1.00  0.00     0.074 A 
ATOM     37  C   UNL A   1      43.800  30.001  34.709  1.00  0.00     0.031 C 
ATOM     38  C   UNL A   1      44.468  28.511  32.844  1.00  0.00     0.034 A 
BRANCH  25  39
ATOM     39  C   UNL A   1      42.642  26.202  27.403  1.00  0.00     0.023 A 
ATOM     40  C   UNL A   1      42.185  24.874  27.442  1.00  0.00     0.031 A 
ATOM     41  C   UNL A   1      43.343  26.626  26.258  1.00  0.00     0.131 A 
ATOM     42  C   UNL A   1      42.462  24.007  26.371  1.00  0.00     0.055 A 
ATOM     43  C   UNL A   1      43.565  25.777  25.172  1.00  0.00     0.041 A 
ATOM     44  F   UNL A   1      43.820  27.878  26.175  1.00  0.00    -0.206 F 
ATOM     45  C   UNL A   1      43.128  24.457  25.228  1.00  0.00     0.022 A 
BRANCH  42  46
ATOM     46  S   UNL A   1      42.012  22.257  26.525  1.00  0.00     0.124 S 
ATOM     47  O   UNL A   1      40.552  22.325  26.542  1.00  0.00    -0.237 OA
ATOM     48  O   UNL A   1      42.609  21.671  25.331  1.00  0.00    -0.237 OA
ATOM     49  O   UNL A   1      42.623  21.855  27.790  1.00  0.00    -0.744 OA
ENDBRANCH  42  46
ENDBRANCH  25  39
BRANCH  26  50
ATOM     50  C   UNL A   1      40.244  32.267  35.049  1.00  0.00     0.023 A 
ATOM     51  C   UNL A   1      39.344  31.765  35.999  1.00  0.00     0.031 A 
ATOM     52  C   UNL A   1      40.724  33.580  35.224  1.00  0.00     0.131 A 
ATOM     53  C   UNL A   1      38.911  32.586  37.052  1.00  0.00     0.055 A 
ATOM     54  C   UNL A   1      40.341  34.369  36.309  1.00  0.00     0.041 A 
ATOM     55  F   UNL A   1      41.587  34.113  34.344  1.00  0.00    -0.206 F 
ATOM     56  C   UNL A   1      39.415  33.878  37.223  1.00  0.00     0.022 A 
BRANCH  53  57
ATOM     57  S   UNL A   1      37.589  31.979  38.133  1.00  0.00     0.124 S 
ATOM     58  O   UNL A   1      36.481  32.856  37.770  1.00  0.00    -0.237 OA
ATOM     59  O   UNL A   1      37.470  30.587  37.711  1.00  0.00    -0.237 OA
ATOM     60  O   UNL A   1      38.129  32.179  39.476  1.00  0.00    -0.744 OA
ENDBRANCH  53  57
ENDBRANCH  26  50
BRANCH  38  61
ATOM     61  C   UNL A   1      45.708  28.186  33.632  1.00  0.00     0.023 A 
ATOM     62  C   UNL A   1      45.747  27.090  34.512  1.00  0.00     0.031 A 
ATOM     63  C   UNL A   1      46.856  28.988  33.518  1.00  0.00     0.131 A 
ATOM     64  C   UNL A   1      46.895  26.853  35.280  1.00  0.00     0.055 A 
ATOM     65  C   UNL A   1      48.017  28.714  34.241  1.00  0.00     0.041 A 
ATOM     66  F   UNL A   1      46.868  30.050  32.695  1.00  0.00    -0.206 F 
ATOM     67  C   UNL A   1      48.036  27.647  35.136  1.00  0.00     0.022 A 
BRANCH  64  68
ATOM     68  S   UNL A   1      46.853  25.537  36.526  1.00  0.00     0.124 S 
ATOM     69  O   UNL A   1      48.210  25.581  37.058  1.00  0.00    -0.237 OA
ATOM     70  O   UNL A   1      45.798  25.990  37.426  1.00  0.00    -0.237 OA
ATOM     71  O   UNL A   1      46.531  24.342  35.748  1.00  0.00    -0.744 OA
ENDBRANCH  64  68
ENDBRANCH  38  61
ENDBRANCH  12  13
ENDBRANCH   5   7
ENDBRANCH   2   3
ENDBRANCH   1   2
BRANCH   1  72
ATOM     72  C   UNL A   1      33.845  27.204  23.523  1.00  0.00     0.118 C 
BRANCH  72  73
ATOM     73  N   UNL A   1      33.187  26.913  22.261  1.00  0.00    -0.351 N 
ATOM     74  C   UNL A   1      31.963  26.320  22.066  1.00  0.00     0.263 C 
ATOM     75  H   UNL A   1      33.676  27.173  21.447  1.00  0.00     0.163 HD
ATOM     76  O   UNL A   1      31.608  26.068  20.916  1.00  0.00    -0.268 OA
BRANCH  74  77
ATOM     77  C   UNL A   1      31.178  26.015  23.236  1.00  0.00     0.116 A 
ATOM     78  S   UNL A   1      31.597  24.579  24.075  1.00  0.00    -0.136 S 
ATOM     79  C   UNL A   1      30.135  26.718  23.832  1.00  0.00     0.073 A 
ATOM     80  C   UNL A   1      30.467  24.901  25.299  1.00  0.00     0.068 A 
ATOM     81  C   UNL A   1      29.765  26.059  25.047  1.00  0.00     0.039 A 
BRANCH  79  82
ATOM     82  N   UNL A   1      29.455  27.849  23.274  1.00  0.00    -0.269 N 
ATOM     83  H   UNL A   1      28.574  27.694  22.862  1.00  0.00     0.181 HD
BRANCH  82  84
ATOM     84  S   UNL A   1      30.057  29.441  23.269  1.00  0.00     0.301 S 
ATOM     85  O   UNL A   1      30.633  29.747  24.561  1.00  0.00    -0.189 OA
ATOM     86  O   UNL A   1      30.842  29.539  22.065  1.00  0.00    -0.189 OA
BRANCH  84  87
ATOM     87  N   UNL A   1      28.710  30.411  23.094  1.00  0.00    -0.185 NA
ATOM     88  C   UNL A   1      27.809  30.166  21.968  1.00  0.00     0.104 C 
ATOM     89  C   UNL A   1      28.798  31.867  23.290  1.00  0.00     0.104 C 
ATOM     90  C   UNL A   1      28.156  31.313  21.032  1.00  0.00     0.018 C 
ATOM     91  C   UNL A   1      28.291  32.486  21.986  1.00  0.00     0.018 C 
ENDBRANCH  84  87
ENDBRANCH  82  84
ENDBRANCH  79  82
ENDBRANCH  74  77
ENDBRANCH  72  73
ENDBRANCH   1  72
TORSDOF 16
ENDMDL
MODEL 3
REMARK VINA RESULT:     -11.4      2.432      3.933
REMARK SMILES O=C(NCCCNC(=O)c1sccc1NS(=O)(=O)N1CCCC1)c1ccc(-c2c3nc(c(-c4cc(S(=O)(=O)[O-])ccc4F)c4ccc([nH]4)c(-c4cc(S(=O)(=O)[O-])ccc4F)c4nc(c(-c5cc(S(=O)(=O)[O-])ccc5F)c5ccc2[nH]5)C=C4)C=C3)cc1
REMARK SMILES IDX 5 1 4 2 3 3 1 4 2 5 24 7 25 8 86 9 26 10 85 11 27 12 28 13
REMARK SMILES IDX 29 14 79 15 30 16 84 17 78 18 80 19 31 20 83 21 77 22 76 23
REMARK SMILES IDX 32 25 64 26 44 27 63 28 45 29 48 30 62 31 81 32 46 33 47 34
REMARK SMILES IDX 61 36 82 37 49 38 33 39 34 40 42 41 35 42 41 43 43 44 40 45
REMARK SMILES IDX 36 46 37 47 38 48 39 49 65 50 66 51 74 52 67 53 73 54 75 55
REMARK SMILES IDX 72 56 68 57 69 58 70 59 71 60 50 61 51 62 59 63 52 64 58 65
REMARK SMILES IDX 60 66 57 67 53 68 54 69 55 70 56 71 6 72 7 73 8 74 9 76
REMARK SMILES IDX 10 77 11 78 14 79 12 80 13 81 15 82 16 84 17 85 18 86 19 87
REMARK SMILES IDX 20 88 23 89 21 90 22 91
REMARK H PARENT 3 6 80 24 48 35 7 75 15 83
REMARK Flexibility Score: inf
ROOT
ATOM      1  C   UNL A   1      34.695  22.226  27.196  1.00  0.00     0.042 C 
ENDROOT
BRANCH   1   2
ATOM      2  C   UNL A   1      35.879  22.641  26.351  1.00  0.00     0.118 C 
BRANCH   2   3
ATOM      3  N   UNL A   1      36.744  21.520  26.012  1.00  0.00    -0.352 N 
ATOM      4  O   UNL A   1      38.641  20.485  25.378  1.00  0.00    -0.269 OA
ATOM      5  C   UNL A   1      38.106  21.486  25.843  1.00  0.00     0.251 C 
ATOM      6  H   UNL A   1      36.285  20.659  25.886  1.00  0.00     0.163 HD
BRANCH   5   7
ATOM      7  C   UNL A   1      38.914  22.663  26.220  1.00  0.00     0.039 A 
ATOM      8  C   UNL A   1      38.573  23.930  25.741  1.00  0.00     0.014 A 
ATOM      9  C   UNL A   1      40.010  22.501  27.070  1.00  0.00     0.014 A 
ATOM     10  C   UNL A   1      39.405  25.008  25.987  1.00  0.00     0.010 A 
ATOM     11  C   UNL A   1      40.780  23.613  27.417  1.00  0.00     0.010 A 
ATOM     12  C   UNL A   1      40.486  24.871  26.871  1.00  0.00    -0.014 A 
BRANCH  12  13
ATOM     13  C   UNL A   1      41.195  26.092  27.318  1.00  0.00     0.031 A 
ATOM     14  C   UNL A   1      40.494  27.157  28.107  1.00  0.00     0.074 A 
ATOM     15  C   UNL A   1      42.497  26.213  26.986  1.00  0.00     0.049 A 
ATOM     16  N   UNL A   1      40.963  28.300  28.532  1.00  0.00    -0.248 NA
ATOM     17  C   UNL A   1      39.086  26.917  28.458  1.00  0.00     0.031 C 
ATOM     18  C   UNL A   1      43.262  25.225  26.213  1.00  0.00     0.029 A 
ATOM     19  N   UNL A   1      43.411  27.197  27.250  1.00  0.00    -0.354 N 
ATOM     20  C   UNL A   1      39.906  28.932  29.177  1.00  0.00     0.074 A 
ATOM     21  C   UNL A   1      38.766  28.045  29.079  1.00  0.00     0.031 C 
ATOM     22  C   UNL A   1      44.529  25.639  26.095  1.00  0.00     0.029 A 
ATOM     23  C   UNL A   1      44.648  26.958  26.696  1.00  0.00     0.049 A 
ATOM     24  H   UNL A   1      43.204  27.997  27.785  1.00  0.00     0.167 HD
ATOM     25  C   UNL A   1      39.903  30.142  29.785  1.00  0.00     0.034 A 
ATOM     26  C   UNL A   1      45.743  27.738  26.629  1.00  0.00     0.034 A 
ATOM     27  C   UNL A   1      41.065  30.994  29.876  1.00  0.00     0.049 A 
ATOM     28  C   UNL A   1      45.685  29.097  27.269  1.00  0.00     0.074 A 
ATOM     29  C   UNL A   1      41.197  32.199  30.545  1.00  0.00     0.029 A 
ATOM     30  N   UNL A   1      42.286  30.745  29.263  1.00  0.00    -0.354 N 
ATOM     31  N   UNL A   1      44.693  29.653  27.927  1.00  0.00    -0.248 NA
ATOM     32  C   UNL A   1      46.882  29.936  27.153  1.00  0.00     0.031 C 
ATOM     33  C   UNL A   1      42.467  32.715  30.270  1.00  0.00     0.029 A 
ATOM     34  C   UNL A   1      43.157  31.800  29.491  1.00  0.00     0.049 A 
ATOM     35  H   UNL A   1      42.502  29.938  28.743  1.00  0.00     0.167 HD
ATOM     36  C   UNL A   1      45.152  30.908  28.309  1.00  0.00     0.074 A 
ATOM     37  C   UNL A   1      46.519  31.011  27.836  1.00  0.00     0.031 C 
ATOM     38  C   UNL A   1      44.506  31.889  28.985  1.00  0.00     0.034 A 
BRANCH  25  39
ATOM     39  C   UNL A   1      38.600  30.651  30.350  1.00  0.00     0.023 A 
ATOM     40  C   UNL A   1      37.675  31.372  29.577  1.00  0.00     0.031 A 
ATOM     41  C   UNL A   1      38.267  30.372  31.689  1.00  0.00     0.131 A 
ATOM     42  C   UNL A   1      36.474  31.815  30.157  1.00  0.00     0.055 A 
ATOM     43  C   UNL A   1      37.047  30.766  32.243  1.00  0.00     0.041 A 
ATOM     44  F   UNL A   1      39.122  29.705  32.480  1.00  0.00    -0.206 F 
ATOM     45  C   UNL A   1      36.145  31.497  31.477  1.00  0.00     0.022 A 
BRANCH  42  46
ATOM     46  S   UNL A   1      35.380  32.888  29.186  1.00  0.00     0.124 S 
ATOM     47  O   UNL A   1      35.428  32.251  27.872  1.00  0.00    -0.237 OA
ATOM     48  O   UNL A   1      34.115  32.779  29.902  1.00  0.00    -0.237 OA
ATOM     49  O   UNL A   1      36.028  34.196  29.259  1.00  0.00    -0.744 OA
ENDBRANCH  42  46
ENDBRANCH  25  39
BRANCH  26  50
ATOM     50  C   UNL A   1      46.944  27.290  25.868  1.00  0.00     0.023 A 
ATOM     51  C   UNL A   1      47.178  27.727  24.557  1.00  0.00     0.031 A 
ATOM     52  C   UNL A   1      47.856  26.377  26.432  1.00  0.00     0.131 A 
ATOM     53  C   UNL A   1      48.267  27.214  23.835  1.00  0.00     0.055 A 
ATOM     54  C   UNL A   1      48.973  25.920  25.732  1.00  0.00     0.041 A 
ATOM     55  F   UNL A   1      47.680  25.923  27.683  1.00  0.00    -0.206 F 
ATOM     56  C   UNL A   1      49.174  26.327  24.418  1.00  0.00     0.022 A 
BRANCH  53  57
ATOM     57  S   UNL A   1      48.414  27.637  22.078  1.00  0.00     0.124 S 
ATOM     58  O   UNL A   1      49.550  28.554  22.087  1.00  0.00    -0.237 OA
ATOM     59  O   UNL A   1      48.650  26.331  21.473  1.00  0.00    -0.237 OA
ATOM     60  O   UNL A   1      47.124  28.247  21.766  1.00  0.00    -0.744 OA
ENDBRANCH  53  57
ENDBRANCH  26  50
BRANCH  38  61
ATOM     61  C   UNL A   1      45.287  33.146  29.255  1.00  0.00     0.023 A 
ATOM     62  C   UNL A   1      45.245  34.237  28.369  1.00  0.00     0.031 A 
ATOM     63  C   UNL A   1      46.096  33.250  30.400  1.00  0.00     0.131 A 
ATOM     64  C   UNL A   1      46.036  35.367  28.617  1.00  0.00     0.055 A 
ATOM     65  C   UNL A   1      46.836  34.401  30.673  1.00  0.00     0.041 A 
ATOM     66  F   UNL A   1      46.175  32.234  31.275  1.00  0.00    -0.206 F 
ATOM     67  C   UNL A   1      46.816  35.463  29.773  1.00  0.00     0.022 A 
BRANCH  64  68
ATOM     68  S   UNL A   1      46.088  36.683  27.371  1.00  0.00     0.124 S 
ATOM     69  O   UNL A   1      47.152  37.541  27.882  1.00  0.00    -0.237 OA
ATOM     70  O   UNL A   1      46.392  35.946  26.149  1.00  0.00    -0.237 OA
ATOM     71  O   UNL A   1      44.746  37.260  27.427  1.00  0.00    -0.744 OA
ENDBRANCH  64  68
ENDBRANCH  38  61
ENDBRANCH  12  13
ENDBRANCH   5   7
ENDBRANCH   2   3
ENDBRANCH   1   2
BRANCH   1  72
ATOM     72  C   UNL A   1      33.532  23.193  27.121  1.00  0.00     0.118 C 
BRANCH  72  73
ATOM     73  N   UNL A   1      32.236  22.556  26.968  1.00  0.00    -0.351 N 
ATOM     74  C   UNL A   1      31.563  22.287  25.801  1.00  0.00     0.263 C 
ATOM     75  H   UNL A   1      31.786  22.283  27.800  1.00  0.00     0.163 HD
ATOM     76  O   UNL A   1      30.426  21.823  25.872  1.00  0.00    -0.268 OA
BRANCH  74  77
ATOM     77  C   UNL A   1      32.235  22.585  24.561  1.00  0.00     0.116 A 
ATOM     78  S   UNL A   1      31.780  24.046  23.787  1.00  0.00    -0.136 S 
ATOM     79  C   UNL A   1      33.233  21.890  23.885  1.00  0.00     0.073 A 
ATOM     80  C   UNL A   1      32.959  23.838  22.585  1.00  0.00     0.068 A 
ATOM     81  C   UNL A   1      33.654  22.662  22.756  1.00  0.00     0.039 A 
BRANCH  79  82
ATOM     82  N   UNL A   1      33.692  20.567  24.190  1.00  0.00    -0.269 N 
ATOM     83  H   UNL A   1      34.630  20.463  24.469  1.00  0.00     0.181 HD
BRANCH  82  84
ATOM     84  S   UNL A   1      32.735  19.161  24.103  1.00  0.00     0.301 S 
ATOM     85  O   UNL A   1      32.151  18.890  25.399  1.00  0.00    -0.189 OA
ATOM     86  O   UNL A   1      31.906  19.346  22.940  1.00  0.00    -0.189 OA
BRANCH  84  87
ATOM     87  N   UNL A   1      33.812  17.926  23.786  1.00  0.00    -0.185 NA
ATOM     88  C   UNL A   1      33.285  16.605  23.445  1.00  0.00     0.104 C 
ATOM     89  C   UNL A   1      35.006  17.732  24.625  1.00  0.00     0.104 C 
ATOM     90  C   UNL A   1      33.527  15.829  24.731  1.00  0.00     0.018 C 
ATOM     91  C   UNL A   1      34.912  16.294  25.140  1.00  0.00     0.018 C 
ENDBRANCH  84  87
ENDBRANCH  82  84
ENDBRANCH  79  82
ENDBRANCH  74  77
ENDBRANCH  72  73
ENDBRANCH   1  72
TORSDOF 16
ENDMDL
