MODEL 1
REMARK VINA RESULT:     -13.7      0.000      0.000
REMARK SMILES Cc1cccc2c1[C@H]1c3c(C)cccc3[C@H](CC(=O)NCCCNC(=O)c3ccc(-c4c5nc(c(-c6cc(S(=O)(=O)[O-])ccc6F)c6ccc([nH]6)c(-c6cc(S(=O)(=O)[O-])ccc6F)c6nc(c(-c7cc(S(=O)(=O)[O-])ccc7F)c7ccc4[nH]7)C=C6)C=C5)cc3)C[C@H]1CC2
REMARK SMILES IDX 23 1 22 2 21 3 20 4 18 5 19 6 17 8 16 9 1 10 2 11 3 12 7 13
REMARK SMILES IDX 4 14 6 15 8 16 5 17 93 18 9 19 91 20 92 21 10 22 15 23 90 24
REMARK SMILES IDX 12 25 11 26 14 27 13 28 24 29 25 30 26 32 27 33 28 34 89 35
REMARK SMILES IDX 29 36 88 37 30 38 31 39 32 40 82 41 33 42 87 43 81 44 83 45
REMARK SMILES IDX 34 46 86 47 80 48 79 49 35 51 67 52 47 53 66 54 48 55 51 56
REMARK SMILES IDX 65 57 84 58 49 59 50 60 64 62 85 63 52 64 36 65 37 66 45 67
REMARK SMILES IDX 38 68 44 69 46 70 43 71 39 72 40 73 41 74 42 75 68 76 69 77
REMARK SMILES IDX 77 78 70 79 76 80 78 81 75 82 71 83 72 84 73 85 74 86 53 87
REMARK SMILES IDX 54 88 62 89 55 90 61 91 63 92 60 93 56 94 57 95 58 96 59 97
REMARK H PARENT 20 7 24 31 83 50 51 61
REMARK Flexibility Score: inf
ROOT
ATOM      1  C   UNL A   1      32.914  32.847  27.253  1.00  0.00     0.118 C 
ENDROOT
BRANCH   1   2
ATOM      2  C   UNL A   1      31.624  32.121  26.881  1.00  0.00     0.042 C 
BRANCH   2   3
ATOM      3  C   UNL A   1      31.770  30.602  26.826  1.00  0.00     0.117 C 
BRANCH   3   4
ATOM      4  N   UNL A   1      32.720  30.202  25.804  1.00  0.00    -0.356 N 
ATOM      5  C   UNL A   1      32.626  29.260  24.831  1.00  0.00     0.220 C 
ATOM      6  O   UNL A   1      33.632  29.012  24.165  1.00  0.00    -0.275 OA
ATOM      7  H   UNL A   1      33.573  30.693  25.821  1.00  0.00     0.163 HD
BRANCH   5   8
ATOM      8  C   UNL A   1      31.299  28.616  24.507  1.00  0.00     0.108 C 
BRANCH   8   9
ATOM      9  C   UNL A   1      31.143  27.104  24.775  1.00  0.00     0.029 C 
ATOM     10  C   UNL A   1      35.971  24.048  25.749  1.00  0.00     0.044 C 
ATOM     11  C   UNL A   1      34.853  23.038  25.708  1.00  0.00    -0.047 A 
ATOM     12  C   UNL A   1      35.177  21.679  25.847  1.00  0.00     0.004 A 
ATOM     13  C   UNL A   1      33.492  23.424  25.600  1.00  0.00    -0.034 A 
ATOM     14  C   UNL A   1      34.180  20.714  25.938  1.00  0.00     0.001 A 
ATOM     15  C   UNL A   1      32.492  22.456  25.844  1.00  0.00    -0.044 A 
ATOM     16  C   UNL A   1      33.082  24.857  25.276  1.00  0.00     0.053 C 
ATOM     17  C   UNL A   1      32.846  21.104  25.974  1.00  0.00     0.004 A 
ATOM     18  C   UNL A   1      31.060  22.836  26.146  1.00  0.00     0.036 C 
ATOM     19  C   UNL A   1      32.670  25.205  23.818  1.00  0.00    -0.034 A 
ATOM     20  C   UNL A   1      31.960  25.220  26.274  1.00  0.00     0.002 C 
ATOM     21  C   UNL A   1      30.727  24.326  26.045  1.00  0.00     0.009 C 
ATOM     22  C   UNL A   1      33.182  24.562  22.653  1.00  0.00    -0.047 A 
ATOM     23  C   UNL A   1      31.758  26.291  23.621  1.00  0.00    -0.040 A 
ATOM     24  C   UNL A   1      31.684  26.716  26.153  1.00  0.00     0.013 C 
ATOM     25  C   UNL A   1      32.763  24.977  21.370  1.00  0.00     0.004 A 
ATOM     26  C   UNL A   1      34.159  23.417  22.647  1.00  0.00     0.044 C 
ATOM     27  C   UNL A   1      31.328  26.627  22.317  1.00  0.00     0.004 A 
ATOM     28  C   UNL A   1      31.838  25.991  21.201  1.00  0.00     0.001 A 
ENDBRANCH   8   9
ENDBRANCH   5   8
ENDBRANCH   3   4
ENDBRANCH   2   3
ENDBRANCH   1   2
BRANCH   1  29
ATOM     29  N   UNL A   1      32.662  34.200  27.725  1.00  0.00    -0.352 N 
ATOM     30  C   UNL A   1      33.203  34.828  28.820  1.00  0.00     0.251 C 
ATOM     31  H   UNL A   1      32.026  34.732  27.194  1.00  0.00     0.163 HD
ATOM     32  O   UNL A   1      32.745  35.898  29.211  1.00  0.00    -0.269 OA
BRANCH  30  33
ATOM     33  C   UNL A   1      34.333  34.193  29.523  1.00  0.00     0.039 A 
ATOM     34  C   UNL A   1      35.634  34.428  29.076  1.00  0.00     0.014 A 
ATOM     35  C   UNL A   1      34.096  33.371  30.631  1.00  0.00     0.014 A 
ATOM     36  C   UNL A   1      36.709  33.857  29.759  1.00  0.00     0.010 A 
ATOM     37  C   UNL A   1      35.170  32.841  31.338  1.00  0.00     0.010 A 
ATOM     38  C   UNL A   1      36.483  33.066  30.897  1.00  0.00    -0.014 A 
BRANCH  38  39
ATOM     39  C   UNL A   1      37.610  32.412  31.604  1.00  0.00     0.031 A 
ATOM     40  C   UNL A   1      38.314  31.253  30.956  1.00  0.00     0.074 A 
ATOM     41  C   UNL A   1      37.971  32.832  32.830  1.00  0.00     0.049 A 
ATOM     42  N   UNL A   1      39.308  30.537  31.411  1.00  0.00    -0.248 NA
ATOM     43  C   UNL A   1      37.825  30.832  29.631  1.00  0.00     0.031 C 
ATOM     44  C   UNL A   1      37.330  33.920  33.570  1.00  0.00     0.029 A 
ATOM     45  N   UNL A   1      38.956  32.387  33.676  1.00  0.00    -0.354 N 
ATOM     46  C   UNL A   1      39.563  29.585  30.433  1.00  0.00     0.074 A 
ATOM     47  C   UNL A   1      38.586  29.776  29.385  1.00  0.00     0.031 C 
ATOM     48  C   UNL A   1      37.945  34.063  34.756  1.00  0.00     0.029 A 
ATOM     49  C   UNL A   1      39.007  33.065  34.871  1.00  0.00     0.049 A 
ATOM     50  H   UNL A   1      39.569  31.651  33.449  1.00  0.00     0.167 HD
ATOM     51  C   UNL A   1      40.544  28.653  30.399  1.00  0.00     0.034 A 
ATOM     52  C   UNL A   1      39.818  32.901  35.938  1.00  0.00     0.034 A 
ATOM     53  C   UNL A   1      41.524  28.487  31.436  1.00  0.00     0.049 A 
ATOM     54  C   UNL A   1      40.907  31.860  35.875  1.00  0.00     0.074 A 
ATOM     55  C   UNL A   1      42.590  27.605  31.470  1.00  0.00     0.029 A 
ATOM     56  N   UNL A   1      41.566  29.216  32.616  1.00  0.00    -0.354 N 
ATOM     57  N   UNL A   1      41.195  31.029  34.900  1.00  0.00    -0.248 NA
ATOM     58  C   UNL A   1      41.790  31.739  37.044  1.00  0.00     0.031 C 
ATOM     59  C   UNL A   1      43.253  27.773  32.686  1.00  0.00     0.029 A 
ATOM     60  C   UNL A   1      42.632  28.793  33.390  1.00  0.00     0.049 A 
ATOM     61  H   UNL A   1      40.933  29.926  32.865  1.00  0.00     0.167 HD
ATOM     62  C   UNL A   1      42.311  30.311  35.325  1.00  0.00     0.074 A 
ATOM     63  C   UNL A   1      42.653  30.814  36.638  1.00  0.00     0.031 C 
ATOM     64  C   UNL A   1      42.985  29.325  34.684  1.00  0.00     0.034 A 
BRANCH  51  65
ATOM     65  C   UNL A   1      40.643  27.762  29.191  1.00  0.00     0.023 A 
ATOM     66  C   UNL A   1      41.538  28.075  28.154  1.00  0.00     0.031 A 
ATOM     67  C   UNL A   1      39.765  26.678  29.018  1.00  0.00     0.131 A 
ATOM     68  C   UNL A   1      41.514  27.326  26.971  1.00  0.00     0.055 A 
ATOM     69  C   UNL A   1      39.770  25.913  27.852  1.00  0.00     0.041 A 
ATOM     70  F   UNL A   1      38.898  26.342  29.986  1.00  0.00    -0.206 F 
ATOM     71  C   UNL A   1      40.641  26.242  26.817  1.00  0.00     0.022 A 
BRANCH  68  72
ATOM     72  S   UNL A   1      42.592  27.747  25.576  1.00  0.00     0.124 S 
ATOM     73  O   UNL A   1      42.476  26.557  24.733  1.00  0.00    -0.237 OA
ATOM     74  O   UNL A   1      41.953  28.948  25.050  1.00  0.00    -0.237 OA
ATOM     75  O   UNL A   1      43.901  27.940  26.192  1.00  0.00    -0.744 OA
ENDBRANCH  68  72
ENDBRANCH  51  65
BRANCH  52  76
ATOM     76  C   UNL A   1      39.662  33.801  37.117  1.00  0.00     0.023 A 
ATOM     77  C   UNL A   1      39.020  33.360  38.287  1.00  0.00     0.031 A 
ATOM     78  C   UNL A   1      40.080  35.142  37.054  1.00  0.00     0.131 A 
ATOM     79  C   UNL A   1      38.773  34.265  39.328  1.00  0.00     0.055 A 
ATOM     80  C   UNL A   1      39.884  36.024  38.117  1.00  0.00     0.041 A 
ATOM     81  F   UNL A   1      40.684  35.609  35.951  1.00  0.00    -0.206 F 
ATOM     82  C   UNL A   1      39.217  35.590  39.258  1.00  0.00     0.022 A 
BRANCH  79  83
ATOM     83  S   UNL A   1      37.789  33.778  40.772  1.00  0.00     0.124 S 
ATOM     84  O   UNL A   1      36.648  33.107  40.153  1.00  0.00    -0.237 OA
ATOM     85  O   UNL A   1      38.721  32.908  41.484  1.00  0.00    -0.237 OA
ATOM     86  O   UNL A   1      37.493  35.045  41.430  1.00  0.00    -0.744 OA
ENDBRANCH  79  83
ENDBRANCH  52  76
BRANCH  64  87
ATOM     87  C   UNL A   1      44.187  28.712  35.355  1.00  0.00     0.023 A 
ATOM     88  C   UNL A   1      44.014  27.657  36.270  1.00  0.00     0.031 A 
ATOM     89  C   UNL A   1      45.464  29.285  35.226  1.00  0.00     0.131 A 
ATOM     90  C   UNL A   1      45.093  27.237  37.058  1.00  0.00     0.055 A 
ATOM     91  C   UNL A   1      46.545  28.834  35.984  1.00  0.00     0.041 A 
ATOM     92  F   UNL A   1      45.671  30.301  34.373  1.00  0.00    -0.206 F 
ATOM     93  C   UNL A   1      46.359  27.816  36.915  1.00  0.00     0.022 A 
BRANCH  90  94
ATOM     94  S   UNL A   1      44.875  25.981  38.348  1.00  0.00     0.124 S 
ATOM     95  O   UNL A   1      46.257  25.652  38.689  1.00  0.00    -0.237 OA
ATOM     96  O   UNL A   1      44.138  26.716  39.370  1.00  0.00    -0.237 OA
ATOM     97  O   UNL A   1      44.132  24.916  37.681  1.00  0.00    -0.744 OA
ENDBRANCH  90  94
ENDBRANCH  64  87
ENDBRANCH  38  39
ENDBRANCH  30  33
ENDBRANCH   1  29
TORSDOF 14
ENDMDL
MODEL 2
REMARK VINA RESULT:     -13.5      1.244      1.494
REMARK SMILES Cc1cccc2c1[C@H]1c3c(C)cccc3[C@H](CC(=O)NCCCNC(=O)c3ccc(-c4c5nc(c(-c6cc(S(=O)(=O)[O-])ccc6F)c6ccc([nH]6)c(-c6cc(S(=O)(=O)[O-])ccc6F)c6nc(c(-c7cc(S(=O)(=O)[O-])ccc7F)c7ccc4[nH]7)C=C6)C=C5)cc3)C[C@H]1CC2
REMARK SMILES IDX 23 1 22 2 21 3 20 4 18 5 19 6 17 8 16 9 1 10 2 11 3 12 7 13
REMARK SMILES IDX 4 14 6 15 8 16 5 17 93 18 9 19 91 20 92 21 10 22 15 23 90 24
REMARK SMILES IDX 12 25 11 26 14 27 13 28 24 29 25 30 26 32 27 33 28 34 89 35
REMARK SMILES IDX 29 36 88 37 30 38 31 39 32 40 82 41 33 42 87 43 81 44 83 45
REMARK SMILES IDX 34 46 86 47 80 48 79 49 35 51 67 52 47 53 66 54 48 55 51 56
REMARK SMILES IDX 65 57 84 58 49 59 50 60 64 62 85 63 52 64 36 65 37 66 45 67
REMARK SMILES IDX 38 68 44 69 46 70 43 71 39 72 40 73 41 74 42 75 68 76 69 77
REMARK SMILES IDX 77 78 70 79 76 80 78 81 75 82 71 83 72 84 73 85 74 86 53 87
REMARK SMILES IDX 54 88 62 89 55 90 61 91 63 92 60 93 56 94 57 95 58 96 59 97
REMARK H PARENT 20 7 24 31 83 50 51 61
REMARK Flexibility Score: inf
ROOT
ATOM      1  C   UNL A   1      32.889  32.785  27.256  1.00  0.00     0.118 C 
ENDROOT
BRANCH   1   2
ATOM      2  C   UNL A   1      31.582  32.099  26.868  1.00  0.00     0.042 C 
BRANCH   2   3
ATOM      3  C   UNL A   1      31.694  30.579  26.767  1.00  0.00     0.117 C 
BRANCH   3   4
ATOM      4  N   UNL A   1      32.650  30.190  25.747  1.00  0.00    -0.356 N 
ATOM      5  C   UNL A   1      32.567  29.250  24.771  1.00  0.00     0.220 C 
ATOM      6  O   UNL A   1      33.577  29.011  24.108  1.00  0.00    -0.275 OA
ATOM      7  H   UNL A   1      33.499  30.688  25.767  1.00  0.00     0.163 HD
BRANCH   5   8
ATOM      8  C   UNL A   1      31.246  28.595  24.442  1.00  0.00     0.108 C 
BRANCH   8   9
ATOM      9  C   UNL A   1      31.099  27.083  24.718  1.00  0.00     0.029 C 
ATOM     10  C   UNL A   1      35.935  24.075  25.796  1.00  0.00     0.044 C 
ATOM     11  C   UNL A   1      34.827  23.056  25.743  1.00  0.00    -0.047 A 
ATOM     12  C   UNL A   1      35.161  21.701  25.896  1.00  0.00     0.004 A 
ATOM     13  C   UNL A   1      33.465  23.429  25.609  1.00  0.00    -0.034 A 
ATOM     14  C   UNL A   1      34.170  20.728  25.978  1.00  0.00     0.001 A 
ATOM     15  C   UNL A   1      32.469  22.454  25.842  1.00  0.00    -0.044 A 
ATOM     16  C   UNL A   1      33.048  24.856  25.268  1.00  0.00     0.053 C 
ATOM     17  C   UNL A   1      32.832  21.106  25.988  1.00  0.00     0.004 A 
ATOM     18  C   UNL A   1      31.028  22.823  26.117  1.00  0.00     0.036 C 
ATOM     19  C   UNL A   1      32.658  25.191  23.800  1.00  0.00    -0.034 A 
ATOM     20  C   UNL A   1      31.906  25.216  26.244  1.00  0.00     0.002 C 
ATOM     21  C   UNL A   1      30.685  24.310  25.999  1.00  0.00     0.009 C 
ATOM     22  C   UNL A   1      33.196  24.545  22.649  1.00  0.00    -0.047 A 
ATOM     23  C   UNL A   1      31.741  26.268  23.580  1.00  0.00    -0.040 A 
ATOM     24  C   UNL A   1      31.619  26.709  26.108  1.00  0.00     0.013 C 
ATOM     25  C   UNL A   1      32.796  24.948  21.356  1.00  0.00     0.004 A 
ATOM     26  C   UNL A   1      34.184  23.409  22.667  1.00  0.00     0.044 C 
ATOM     27  C   UNL A   1      31.331  26.592  22.267  1.00  0.00     0.004 A 
ATOM     28  C   UNL A   1      31.866  25.952  21.165  1.00  0.00     0.001 A 
ENDBRANCH   8   9
ENDBRANCH   5   8
ENDBRANCH   3   4
ENDBRANCH   2   3
ENDBRANCH   1   2
BRANCH   1  29
ATOM     29  N   UNL A   1      32.676  34.155  27.698  1.00  0.00    -0.352 N 
ATOM     30  C   UNL A   1      33.245  34.796  28.770  1.00  0.00     0.251 C 
ATOM     31  H   UNL A   1      32.046  34.689  27.161  1.00  0.00     0.163 HD
ATOM     32  O   UNL A   1      32.819  35.886  29.140  1.00  0.00    -0.269 OA
BRANCH  30  33
ATOM     33  C   UNL A   1      34.369  34.150  29.474  1.00  0.00     0.039 A 
ATOM     34  C   UNL A   1      35.678  34.460  29.099  1.00  0.00     0.014 A 
ATOM     35  C   UNL A   1      34.119  33.244  30.511  1.00  0.00     0.014 A 
ATOM     36  C   UNL A   1      36.744  33.879  29.787  1.00  0.00     0.010 A 
ATOM     37  C   UNL A   1      35.182  32.702  31.224  1.00  0.00     0.010 A 
ATOM     38  C   UNL A   1      36.503  33.002  30.856  1.00  0.00    -0.014 A 
BRANCH  38  39
ATOM     39  C   UNL A   1      37.623  32.338  31.562  1.00  0.00     0.031 A 
ATOM     40  C   UNL A   1      38.331  31.186  30.905  1.00  0.00     0.074 A 
ATOM     41  C   UNL A   1      37.976  32.741  32.796  1.00  0.00     0.049 A 
ATOM     42  N   UNL A   1      39.321  30.463  31.358  1.00  0.00    -0.248 NA
ATOM     43  C   UNL A   1      37.851  30.783  29.572  1.00  0.00     0.031 C 
ATOM     44  C   UNL A   1      37.331  33.820  33.546  1.00  0.00     0.029 A 
ATOM     45  N   UNL A   1      38.955  32.284  33.644  1.00  0.00    -0.354 N 
ATOM     46  C   UNL A   1      39.582  29.523  30.370  1.00  0.00     0.074 A 
ATOM     47  C   UNL A   1      38.613  29.729  29.318  1.00  0.00     0.031 C 
ATOM     48  C   UNL A   1      37.938  33.947  34.737  1.00  0.00     0.029 A 
ATOM     49  C   UNL A   1      38.998  32.947  34.848  1.00  0.00     0.049 A 
ATOM     50  H   UNL A   1      39.569  31.550  33.412  1.00  0.00     0.167 HD
ATOM     51  C   UNL A   1      40.562  28.590  30.331  1.00  0.00     0.034 A 
ATOM     52  C   UNL A   1      39.801  32.769  35.918  1.00  0.00     0.034 A 
ATOM     53  C   UNL A   1      41.534  28.410  31.373  1.00  0.00     0.049 A 
ATOM     54  C   UNL A   1      40.889  31.727  35.850  1.00  0.00     0.074 A 
ATOM     55  C   UNL A   1      42.599  27.526  31.404  1.00  0.00     0.029 A 
ATOM     56  N   UNL A   1      41.569  29.123  32.562  1.00  0.00    -0.354 N 
ATOM     57  N   UNL A   1      41.184  30.908  34.867  1.00  0.00    -0.248 NA
ATOM     58  C   UNL A   1      41.764  31.590  37.023  1.00  0.00     0.031 C 
ATOM     59  C   UNL A   1      43.253  27.678  32.626  1.00  0.00     0.029 A 
ATOM     60  C   UNL A   1      42.628  28.690  33.339  1.00  0.00     0.049 A 
ATOM     61  H   UNL A   1      40.935  29.831  32.816  1.00  0.00     0.167 HD
ATOM     62  C   UNL A   1      42.295  30.184  35.290  1.00  0.00     0.074 A 
ATOM     63  C   UNL A   1      42.629  30.670  36.612  1.00  0.00     0.031 C 
ATOM     64  C   UNL A   1      42.973  29.205  34.641  1.00  0.00     0.034 A 
BRANCH  51  65
ATOM     65  C   UNL A   1      40.669  27.715  29.113  1.00  0.00     0.023 A 
ATOM     66  C   UNL A   1      41.577  28.034  28.089  1.00  0.00     0.031 A 
ATOM     67  C   UNL A   1      39.786  26.639  28.915  1.00  0.00     0.131 A 
ATOM     68  C   UNL A   1      41.561  27.302  26.897  1.00  0.00     0.055 A 
ATOM     69  C   UNL A   1      39.798  25.889  27.739  1.00  0.00     0.041 A 
ATOM     70  F   UNL A   1      38.905  26.296  29.869  1.00  0.00    -0.206 F 
ATOM     71  C   UNL A   1      40.683  26.226  26.719  1.00  0.00     0.022 A 
BRANCH  68  72
ATOM     72  S   UNL A   1      42.658  27.733  25.519  1.00  0.00     0.124 S 
ATOM     73  O   UNL A   1      42.537  26.560  24.655  1.00  0.00    -0.237 OA
ATOM     74  O   UNL A   1      42.038  28.951  25.008  1.00  0.00    -0.237 OA
ATOM     75  O   UNL A   1      43.963  27.900  26.151  1.00  0.00    -0.744 OA
ENDBRANCH  68  72
ENDBRANCH  51  65
BRANCH  52  76
ATOM     76  C   UNL A   1      39.638  33.654  37.107  1.00  0.00     0.023 A 
ATOM     77  C   UNL A   1      40.477  34.764  37.305  1.00  0.00     0.031 A 
ATOM     78  C   UNL A   1      38.693  33.349  38.102  1.00  0.00     0.131 A 
ATOM     79  C   UNL A   1      40.386  35.500  38.495  1.00  0.00     0.055 A 
ATOM     80  C   UNL A   1      38.567  34.120  39.258  1.00  0.00     0.041 A 
ATOM     81  F   UNL A   1      37.882  32.290  37.961  1.00  0.00    -0.206 F 
ATOM     82  C   UNL A   1      39.424  35.197  39.464  1.00  0.00     0.022 A 
BRANCH  79  83
ATOM     83  S   UNL A   1      41.572  36.823  38.864  1.00  0.00     0.124 S 
ATOM     84  O   UNL A   1      42.251  36.993  37.583  1.00  0.00    -0.237 OA
ATOM     85  O   UNL A   1      40.683  37.914  39.256  1.00  0.00    -0.237 OA
ATOM     86  O   UNL A   1      42.384  36.265  39.939  1.00  0.00    -0.744 OA
ENDBRANCH  79  83
ENDBRANCH  52  76
BRANCH  64  87
ATOM     87  C   UNL A   1      44.170  28.582  35.313  1.00  0.00     0.023 A 
ATOM     88  C   UNL A   1      43.985  27.553  36.257  1.00  0.00     0.031 A 
ATOM     89  C   UNL A   1      45.457  29.123  35.155  1.00  0.00     0.131 A 
ATOM     90  C   UNL A   1      45.063  27.129  37.042  1.00  0.00     0.055 A 
ATOM     91  C   UNL A   1      46.537  28.666  35.911  1.00  0.00     0.041 A 
ATOM     92  F   UNL A   1      45.676  30.113  34.275  1.00  0.00    -0.206 F 
ATOM     93  C   UNL A   1      46.339  27.676  36.870  1.00  0.00     0.022 A 
BRANCH  90  94
ATOM     94  S   UNL A   1      44.834  25.910  38.365  1.00  0.00     0.124 S 
ATOM     95  O   UNL A   1      44.002  24.903  37.710  1.00  0.00    -0.237 OA
ATOM     96  O   UNL A   1      46.206  25.500  38.645  1.00  0.00    -0.237 OA
ATOM     97  O   UNL A   1      44.173  26.663  39.427  1.00  0.00    -0.744 OA
ENDBRANCH  90  94
ENDBRANCH  64  87
ENDBRANCH  38  39
ENDBRANCH  30  33
ENDBRANCH   1  29
TORSDOF 14
ENDMDL
MODEL 3
REMARK VINA RESULT:     -13.5      5.808     11.606
REMARK SMILES Cc1cccc2c1[C@H]1c3c(C)cccc3[C@H](CC(=O)NCCCNC(=O)c3ccc(-c4c5nc(c(-c6cc(S(=O)(=O)[O-])ccc6F)c6ccc([nH]6)c(-c6cc(S(=O)(=O)[O-])ccc6F)c6nc(c(-c7cc(S(=O)(=O)[O-])ccc7F)c7ccc4[nH]7)C=C6)C=C5)cc3)C[C@H]1CC2
REMARK SMILES IDX 23 1 22 2 21 3 20 4 18 5 19 6 17 8 16 9 1 10 2 11 3 12 7 13
REMARK SMILES IDX 4 14 6 15 8 16 5 17 93 18 9 19 91 20 92 21 10 22 15 23 90 24
REMARK SMILES IDX 12 25 11 26 14 27 13 28 24 29 25 30 26 32 27 33 28 34 89 35
REMARK SMILES IDX 29 36 88 37 30 38 31 39 32 40 82 41 33 42 87 43 81 44 83 45
REMARK SMILES IDX 34 46 86 47 80 48 79 49 35 51 67 52 47 53 66 54 48 55 51 56
REMARK SMILES IDX 65 57 84 58 49 59 50 60 64 62 85 63 52 64 36 65 37 66 45 67
REMARK SMILES IDX 38 68 44 69 46 70 43 71 39 72 40 73 41 74 42 75 68 76 69 77
REMARK SMILES IDX 77 78 70 79 76 80 78 81 75 82 71 83 72 84 73 85 74 86 53 87
REMARK SMILES IDX 54 88 62 89 55 90 61 91 63 92 60 93 56 94 57 95 58 96 59 97
REMARK H PARENT 20 7 24 31 83 50 51 61
REMARK Flexibility Score: inf
ROOT
ATOM      1  C   UNL A   1      39.372  20.198  26.096  1.00  0.00     0.118 C 
ENDROOT
BRANCH   1   2
ATOM      2  C   UNL A   1      38.345  19.947  24.995  1.00  0.00     0.042 C 
BRANCH   2   3
ATOM      3  C   UNL A   1      37.433  21.142  24.723  1.00  0.00     0.117 C 
BRANCH   3   4
ATOM      4  N   UNL A   1      36.616  21.454  25.881  1.00  0.00    -0.356 N 
ATOM      5  C   UNL A   1      35.272  21.609  25.998  1.00  0.00     0.220 C 
ATOM      6  O   UNL A   1      34.826  22.011  27.073  1.00  0.00    -0.275 OA
ATOM      7  H   UNL A   1      37.119  21.574  26.719  1.00  0.00     0.163 HD
BRANCH   5   8
ATOM      8  C   UNL A   1      34.348  21.198  24.876  1.00  0.00     0.108 C 
BRANCH   8   9
ATOM      9  C   UNL A   1      33.646  22.313  24.072  1.00  0.00     0.029 C 
ATOM     10  C   UNL A   1      34.127  27.743  26.041  1.00  0.00     0.044 C 
ATOM     11  C   UNL A   1      33.180  27.818  24.871  1.00  0.00    -0.047 A 
ATOM     12  C   UNL A   1      32.612  29.062  24.552  1.00  0.00     0.004 A 
ATOM     13  C   UNL A   1      32.901  26.694  24.053  1.00  0.00    -0.034 A 
ATOM     14  C   UNL A   1      31.829  29.217  23.414  1.00  0.00     0.001 A 
ATOM     15  C   UNL A   1      32.231  26.897  22.826  1.00  0.00    -0.044 A 
ATOM     16  C   UNL A   1      33.343  25.285  24.439  1.00  0.00     0.053 C 
ATOM     17  C   UNL A   1      31.670  28.151  22.536  1.00  0.00     0.004 A 
ATOM     18  C   UNL A   1      32.240  25.864  21.721  1.00  0.00     0.036 C 
ATOM     19  C   UNL A   1      32.301  24.322  25.076  1.00  0.00    -0.034 A 
ATOM     20  C   UNL A   1      33.969  24.668  23.169  1.00  0.00     0.002 C 
ATOM     21  C   UNL A   1      32.909  24.529  22.060  1.00  0.00     0.009 C 
ATOM     22  C   UNL A   1      31.202  24.735  25.886  1.00  0.00    -0.047 A 
ATOM     23  C   UNL A   1      32.490  22.915  24.892  1.00  0.00    -0.040 A 
ATOM     24  C   UNL A   1      34.643  23.356  23.561  1.00  0.00     0.013 C 
ATOM     25  C   UNL A   1      30.331  23.774  26.443  1.00  0.00     0.004 A 
ATOM     26  C   UNL A   1      30.846  26.160  26.212  1.00  0.00     0.044 C 
ATOM     27  C   UNL A   1      31.554  22.000  25.425  1.00  0.00     0.004 A 
ATOM     28  C   UNL A   1      30.496  22.421  26.208  1.00  0.00     0.001 A 
ENDBRANCH   8   9
ENDBRANCH   5   8
ENDBRANCH   3   4
ENDBRANCH   2   3
ENDBRANCH   1   2
BRANCH   1  29
ATOM     29  N   UNL A   1      40.452  19.225  26.067  1.00  0.00    -0.352 N 
ATOM     30  C   UNL A   1      41.804  19.462  26.062  1.00  0.00     0.251 C 
ATOM     31  H   UNL A   1      40.181  18.278  26.049  1.00  0.00     0.163 HD
ATOM     32  O   UNL A   1      42.594  18.551  25.832  1.00  0.00    -0.269 OA
BRANCH  30  33
ATOM     33  C   UNL A   1      42.291  20.829  26.327  1.00  0.00     0.039 A 
ATOM     34  C   UNL A   1      42.496  21.236  27.647  1.00  0.00     0.014 A 
ATOM     35  C   UNL A   1      42.550  21.700  25.263  1.00  0.00     0.014 A 
ATOM     36  C   UNL A   1      42.991  22.516  27.901  1.00  0.00     0.010 A 
ATOM     37  C   UNL A   1      43.085  22.958  25.516  1.00  0.00     0.010 A 
ATOM     38  C   UNL A   1      43.293  23.382  26.838  1.00  0.00    -0.014 A 
BRANCH  38  39
ATOM     39  C   UNL A   1      43.770  24.761  27.093  1.00  0.00     0.031 A 
ATOM     40  C   UNL A   1      42.806  25.792  27.610  1.00  0.00     0.074 A 
ATOM     41  C   UNL A   1      45.047  25.093  26.827  1.00  0.00     0.049 A 
ATOM     42  N   UNL A   1      43.019  27.052  27.882  1.00  0.00    -0.248 NA
ATOM     43  C   UNL A   1      41.418  25.353  27.832  1.00  0.00     0.031 C 
ATOM     44  C   UNL A   1      46.057  24.184  26.284  1.00  0.00     0.029 A 
ATOM     45  N   UNL A   1      45.711  26.287  26.965  1.00  0.00    -0.354 N 
ATOM     46  C   UNL A   1      41.796  27.555  28.307  1.00  0.00     0.074 A 
ATOM     47  C   UNL A   1      40.833  26.482  28.204  1.00  0.00     0.031 C 
ATOM     48  C   UNL A   1      47.215  24.851  26.143  1.00  0.00     0.029 A 
ATOM     49  C   UNL A   1      47.025  26.239  26.564  1.00  0.00     0.049 A 
ATOM     50  H   UNL A   1      45.286  27.101  27.318  1.00  0.00     0.167 HD
ATOM     51  C   UNL A   1      41.509  28.795  28.770  1.00  0.00     0.034 A 
ATOM     52  C   UNL A   1      47.970  27.202  26.539  1.00  0.00     0.034 A 
ATOM     53  C   UNL A   1      42.480  29.847  28.890  1.00  0.00     0.049 A 
ATOM     54  C   UNL A   1      47.628  28.574  27.064  1.00  0.00     0.074 A 
ATOM     55  C   UNL A   1      42.298  31.122  29.396  1.00  0.00     0.029 A 
ATOM     56  N   UNL A   1      43.810  29.751  28.507  1.00  0.00    -0.354 N 
ATOM     57  N   UNL A   1      46.489  29.008  27.553  1.00  0.00    -0.248 NA
ATOM     58  C   UNL A   1      48.696  29.584  27.052  1.00  0.00     0.031 C 
ATOM     59  C   UNL A   1      43.507  31.809  29.284  1.00  0.00     0.029 A 
ATOM     60  C   UNL A   1      44.456  30.949  28.754  1.00  0.00     0.049 A 
ATOM     61  H   UNL A   1      44.230  28.951  28.118  1.00  0.00     0.167 HD
ATOM     62  C   UNL A   1      46.713  30.328  27.934  1.00  0.00     0.074 A 
ATOM     63  C   UNL A   1      48.099  30.619  27.633  1.00  0.00     0.031 C 
ATOM     64  C   UNL A   1      45.847  31.216  28.481  1.00  0.00     0.034 A 
BRANCH  51  65
ATOM     65  C   UNL A   1      40.104  29.082  29.223  1.00  0.00     0.023 A 
ATOM     66  C   UNL A   1      39.767  28.988  30.584  1.00  0.00     0.031 A 
ATOM     67  C   UNL A   1      39.079  29.325  28.292  1.00  0.00     0.131 A 
ATOM     68  C   UNL A   1      38.428  29.109  30.974  1.00  0.00     0.055 A 
ATOM     69  C   UNL A   1      37.752  29.480  28.690  1.00  0.00     0.041 A 
ATOM     70  F   UNL A   1      39.358  29.426  26.982  1.00  0.00    -0.206 F 
ATOM     71  C   UNL A   1      37.419  29.362  30.037  1.00  0.00     0.022 A 
BRANCH  68  72
ATOM     72  S   UNL A   1      37.938  28.913  32.709  1.00  0.00     0.124 S 
ATOM     73  O   UNL A   1      36.661  29.623  32.746  1.00  0.00    -0.237 OA
ATOM     74  O   UNL A   1      37.849  27.462  32.836  1.00  0.00    -0.237 OA
ATOM     75  O   UNL A   1      39.020  29.551  33.451  1.00  0.00    -0.744 OA
ENDBRANCH  68  72
ENDBRANCH  51  65
BRANCH  52  76
ATOM     76  C   UNL A   1      49.342  26.866  26.062  1.00  0.00     0.023 A 
ATOM     77  C   UNL A   1      49.795  27.288  24.800  1.00  0.00     0.031 A 
ATOM     78  C   UNL A   1      50.186  26.046  26.830  1.00  0.00     0.131 A 
ATOM     79  C   UNL A   1      51.039  26.848  24.325  1.00  0.00     0.055 A 
ATOM     80  C   UNL A   1      51.447  25.658  26.377  1.00  0.00     0.041 A 
ATOM     81  F   UNL A   1      49.788  25.608  28.034  1.00  0.00    -0.206 F 
ATOM     82  C   UNL A   1      51.875  26.051  25.113  1.00  0.00     0.022 A 
BRANCH  79  83
ATOM     83  S   UNL A   1      51.574  27.222  22.632  1.00  0.00     0.124 S 
ATOM     84  O   UNL A   1      52.741  26.356  22.481  1.00  0.00    -0.237 OA
ATOM     85  O   UNL A   1      50.397  26.835  21.858  1.00  0.00    -0.237 OA
ATOM     86  O   UNL A   1      51.852  28.653  22.668  1.00  0.00    -0.744 OA
ENDBRANCH  79  83
ENDBRANCH  52  76
BRANCH  64  87
ATOM     87  C   UNL A   1      46.344  32.597  28.828  1.00  0.00     0.023 A 
ATOM     88  C   UNL A   1      46.317  33.613  27.854  1.00  0.00     0.031 A 
ATOM     89  C   UNL A   1      47.000  32.851  30.044  1.00  0.00     0.131 A 
ATOM     90  C   UNL A   1      46.977  34.824  28.096  1.00  0.00     0.055 A 
ATOM     91  C   UNL A   1      47.620  34.075  30.295  1.00  0.00     0.041 A 
ATOM     92  F   UNL A   1      47.060  31.905  30.995  1.00  0.00    -0.206 F 
ATOM     93  C   UNL A   1      47.623  35.063  29.314  1.00  0.00     0.022 A 
BRANCH  90  94
ATOM     94  S   UNL A   1      47.087  36.101  26.813  1.00  0.00     0.124 S 
ATOM     95  O   UNL A   1      47.047  35.306  25.587  1.00  0.00    -0.237 OA
ATOM     96  O   UNL A   1      45.897  36.903  27.076  1.00  0.00    -0.237 OA
ATOM     97  O   UNL A   1      48.362  36.761  27.080  1.00  0.00    -0.744 OA
ENDBRANCH  90  94
ENDBRANCH  64  87
ENDBRANCH  38  39
ENDBRANCH  30  33
ENDBRANCH   1  29
TORSDOF 14
ENDMDL
