MODEL 1
REMARK VINA RESULT:     -12.6      0.000      0.000
REMARK SMILES Cc1cc(F)cc(N[C@H](C(=O)NCCCNC(=O)c2ccc(-c3c4nc(c(-c5cc(S(=O)(=O)[O-])ccc5F)c5ccc([nH]5)c(-c5cc(S(=O)(=O)[O-])ccc5F)c5nc(c(-c6cc(S(=O)(=O)[O-])ccc6F)c6ccc3[nH]6)C=C5)C=C4)cc2)c2cc(C)cc(C)c2)c1
REMARK SMILES IDX 14 1 13 2 12 3 10 4 11 5 9 7 8 8 7 10 1 11 2 12 3 13 90 14
REMARK SMILES IDX 4 15 5 16 6 17 82 18 83 19 89 20 84 21 87 22 85 23 86 24
REMARK SMILES IDX 88 25 15 26 16 27 17 28 18 30 19 31 20 32 81 33 21 34 80 35
REMARK SMILES IDX 22 36 23 37 24 38 74 39 25 40 79 41 73 42 75 43 26 44 78 45
REMARK SMILES IDX 72 46 71 47 27 49 59 50 39 51 58 52 40 53 43 54 57 55 76 56
REMARK SMILES IDX 41 57 42 58 56 60 77 61 44 62 28 63 29 64 37 65 30 66 36 67
REMARK SMILES IDX 38 68 35 69 31 70 32 71 33 72 34 73 60 74 61 75 69 76 62 77
REMARK SMILES IDX 68 78 70 79 67 80 63 81 64 82 65 83 66 84 45 85 46 86 54 87
REMARK SMILES IDX 47 88 53 89 55 90 52 91 48 92 49 93 50 94 51 95
REMARK H PARENT 12 6 8 9 16 29 75 48 43 59
REMARK Flexibility Score: inf
ROOT
ATOM      1  C   UNL A   1      31.849  31.488  26.571  1.00  0.00     0.042 C 
ENDROOT
BRANCH   1   2
ATOM      2  C   UNL A   1      32.121  30.012  26.351  1.00  0.00     0.117 C 
BRANCH   2   3
ATOM      3  N   UNL A   1      33.117  29.752  25.331  1.00  0.00    -0.354 N 
ATOM      4  C   UNL A   1      33.103  28.859  24.300  1.00  0.00     0.247 C 
ATOM      5  O   UNL A   1      34.083  28.920  23.544  1.00  0.00    -0.272 OA
ATOM      6  H   UNL A   1      33.929  30.307  25.391  1.00  0.00     0.163 HD
BRANCH   4   7
ATOM      7  C   UNL A   1      32.022  27.748  24.148  1.00  0.00     0.200 C 
BRANCH   7   8
ATOM      8  N   UNL A   1      30.944  28.005  23.159  1.00  0.00    -0.370 N 
ATOM      9  H   UNL A   1      31.110  27.606  22.273  1.00  0.00     0.161 HD
BRANCH   8  10
ATOM     10  C   UNL A   1      29.753  28.697  23.247  1.00  0.00     0.038 A 
ATOM     11  C   UNL A   1      28.678  32.388  23.168  1.00  0.00     0.044 C 
ATOM     12  C   UNL A   1      28.616  30.893  23.232  1.00  0.00    -0.046 A 
ATOM     13  C   UNL A   1      27.373  30.265  23.299  1.00  0.00     0.042 A 
ATOM     14  C   UNL A   1      29.787  30.107  23.241  1.00  0.00     0.029 A 
ATOM     15  C   UNL A   1      27.323  28.886  23.306  1.00  0.00     0.125 A 
ATOM     16  F   UNL A   1      26.137  28.264  23.363  1.00  0.00    -0.207 F 
ATOM     17  C   UNL A   1      28.486  28.126  23.245  1.00  0.00     0.065 A 
ENDBRANCH   8  10
ENDBRANCH   7   8
BRANCH   7  18
ATOM     18  C   UNL A   1      32.573  26.334  23.986  1.00  0.00    -0.016 A 
ATOM     19  C   UNL A   1      33.366  25.758  24.987  1.00  0.00     0.009 A 
ATOM     20  C   UNL A   1      32.453  25.657  22.764  1.00  0.00     0.009 A 
ATOM     21  C   UNL A   1      34.253  24.724  24.687  1.00  0.00    -0.051 A 
ATOM     22  C   UNL A   1      33.195  24.495  22.515  1.00  0.00    -0.051 A 
ATOM     23  C   UNL A   1      35.432  24.496  25.588  1.00  0.00     0.044 C 
ATOM     24  C   UNL A   1      34.148  24.081  23.454  1.00  0.00     0.006 A 
ATOM     25  C   UNL A   1      33.068  23.767  21.211  1.00  0.00     0.044 C 
ENDBRANCH   7  18
ENDBRANCH   4   7
ENDBRANCH   2   3
ENDBRANCH   1   2
BRANCH   1  26
ATOM     26  C   UNL A   1      32.983  32.245  27.240  1.00  0.00     0.118 C 
BRANCH  26  27
ATOM     27  N   UNL A   1      32.656  33.632  27.536  1.00  0.00    -0.352 N 
ATOM     28  C   UNL A   1      33.169  34.479  28.493  1.00  0.00     0.251 C 
ATOM     29  H   UNL A   1      31.960  34.027  26.962  1.00  0.00     0.163 HD
ATOM     30  O   UNL A   1      32.637  35.570  28.685  1.00  0.00    -0.269 OA
BRANCH  28  31
ATOM     31  C   UNL A   1      34.322  34.056  29.318  1.00  0.00     0.039 A 
ATOM     32  C   UNL A   1      34.098  33.286  30.461  1.00  0.00     0.014 A 
ATOM     33  C   UNL A   1      35.626  34.394  28.953  1.00  0.00     0.014 A 
ATOM     34  C   UNL A   1      35.185  32.778  31.178  1.00  0.00     0.010 A 
ATOM     35  C   UNL A   1      36.702  33.790  29.593  1.00  0.00     0.010 A 
ATOM     36  C   UNL A   1      36.498  32.981  30.719  1.00  0.00    -0.014 A 
BRANCH  36  37
ATOM     37  C   UNL A   1      37.671  32.376  31.406  1.00  0.00     0.031 A 
ATOM     38  C   UNL A   1      38.435  31.260  30.736  1.00  0.00     0.074 A 
ATOM     39  C   UNL A   1      38.003  32.774  32.651  1.00  0.00     0.049 A 
ATOM     40  N   UNL A   1      39.417  30.534  31.204  1.00  0.00    -0.248 NA
ATOM     41  C   UNL A   1      38.011  30.888  29.377  1.00  0.00     0.031 C 
ATOM     42  C   UNL A   1      37.314  33.815  33.420  1.00  0.00     0.029 A 
ATOM     43  N   UNL A   1      38.997  32.348  33.498  1.00  0.00    -0.354 N 
ATOM     44  C   UNL A   1      39.706  29.603  30.211  1.00  0.00     0.074 A 
ATOM     45  C   UNL A   1      38.757  29.819  29.141  1.00  0.00     0.031 C 
ATOM     46  C   UNL A   1      37.930  33.971  34.603  1.00  0.00     0.029 A 
ATOM     47  C   UNL A   1      39.019  33.006  34.708  1.00  0.00     0.049 A 
ATOM     48  H   UNL A   1      39.636  31.638  33.260  1.00  0.00     0.167 HD
ATOM     49  C   UNL A   1      40.687  28.668  30.184  1.00  0.00     0.034 A 
ATOM     50  C   UNL A   1      39.816  32.841  35.783  1.00  0.00     0.034 A 
ATOM     51  C   UNL A   1      41.651  28.494  31.241  1.00  0.00     0.049 A 
ATOM     52  C   UNL A   1      40.893  31.782  35.728  1.00  0.00     0.074 A 
ATOM     53  C   UNL A   1      42.739  27.639  31.279  1.00  0.00     0.029 A 
ATOM     54  N   UNL A   1      41.643  29.181  32.447  1.00  0.00    -0.354 N 
ATOM     55  N   UNL A   1      41.194  30.957  34.751  1.00  0.00    -0.248 NA
ATOM     56  C   UNL A   1      41.742  31.638  36.918  1.00  0.00     0.031 C 
ATOM     57  C   UNL A   1      43.340  27.751  32.535  1.00  0.00     0.029 A 
ATOM     58  C   UNL A   1      42.683  28.740  33.250  1.00  0.00     0.049 A 
ATOM     59  H   UNL A   1      40.995  29.878  32.696  1.00  0.00     0.167 HD
ATOM     60  C   UNL A   1      42.295  30.230  35.196  1.00  0.00     0.074 A 
ATOM     61  C   UNL A   1      42.612  30.724  36.520  1.00  0.00     0.031 C 
ATOM     62  C   UNL A   1      42.987  29.246  34.567  1.00  0.00     0.034 A 
BRANCH  49  63
ATOM     63  C   UNL A   1      40.753  27.747  28.990  1.00  0.00     0.023 A 
ATOM     64  C   UNL A   1      41.684  27.934  27.954  1.00  0.00     0.031 A 
ATOM     65  C   UNL A   1      39.873  26.654  28.893  1.00  0.00     0.131 A 
ATOM     66  C   UNL A   1      41.675  27.081  26.840  1.00  0.00     0.055 A 
ATOM     67  C   UNL A   1      39.920  25.762  27.820  1.00  0.00     0.041 A 
ATOM     68  F   UNL A   1      38.946  26.437  29.840  1.00  0.00    -0.206 F 
ATOM     69  C   UNL A   1      40.818  25.979  26.780  1.00  0.00     0.022 A 
BRANCH  66  70
ATOM     70  S   UNL A   1      42.717  27.500  25.416  1.00  0.00     0.124 S 
ATOM     71  O   UNL A   1      42.646  26.271  24.629  1.00  0.00    -0.237 OA
ATOM     72  O   UNL A   1      42.032  28.659  24.854  1.00  0.00    -0.237 OA
ATOM     73  O   UNL A   1      44.021  27.775  26.015  1.00  0.00    -0.744 OA
ENDBRANCH  66  70
ENDBRANCH  49  63
BRANCH  50  74
ATOM     74  C   UNL A   1      39.642  33.675  37.009  1.00  0.00     0.023 A 
ATOM     75  C   UNL A   1      38.983  33.162  38.138  1.00  0.00     0.031 A 
ATOM     76  C   UNL A   1      40.052  35.020  37.044  1.00  0.00     0.131 A 
ATOM     77  C   UNL A   1      38.688  34.004  39.223  1.00  0.00     0.055 A 
ATOM     78  C   UNL A   1      39.818  35.836  38.154  1.00  0.00     0.041 A 
ATOM     79  F   UNL A   1      40.687  35.565  35.995  1.00  0.00    -0.206 F 
ATOM     80  C   UNL A   1      39.113  35.334  39.243  1.00  0.00     0.022 A 
BRANCH  77  81
ATOM     81  S   UNL A   1      37.625  33.369  40.547  1.00  0.00     0.124 S 
ATOM     82  O   UNL A   1      36.450  32.934  39.801  1.00  0.00    -0.237 OA
ATOM     83  O   UNL A   1      38.451  32.311  41.117  1.00  0.00    -0.237 OA
ATOM     84  O   UNL A   1      37.423  34.533  41.408  1.00  0.00    -0.744 OA
ENDBRANCH  77  81
ENDBRANCH  50  74
BRANCH  62  85
ATOM     85  C   UNL A   1      44.193  28.687  35.282  1.00  0.00     0.023 A 
ATOM     86  C   UNL A   1      44.077  27.690  36.267  1.00  0.00     0.031 A 
ATOM     87  C   UNL A   1      45.479  29.166  34.973  1.00  0.00     0.131 A 
ATOM     88  C   UNL A   1      45.220  27.247  36.948  1.00  0.00     0.055 A 
ATOM     89  C   UNL A   1      46.620  28.671  35.607  1.00  0.00     0.041 A 
ATOM     90  F   UNL A   1      45.648  30.118  34.043  1.00  0.00    -0.206 F 
ATOM     91  C   UNL A   1      46.492  27.716  36.611  1.00  0.00     0.022 A 
BRANCH  88  92
ATOM     92  S   UNL A   1      45.012  26.116  38.351  1.00  0.00     0.124 S 
ATOM     93  O   UNL A   1      43.698  26.499  38.857  1.00  0.00    -0.237 OA
ATOM     94  O   UNL A   1      45.091  24.806  37.711  1.00  0.00    -0.237 OA
ATOM     95  O   UNL A   1      46.134  26.446  39.227  1.00  0.00    -0.744 OA
ENDBRANCH  88  92
ENDBRANCH  62  85
ENDBRANCH  36  37
ENDBRANCH  28  31
ENDBRANCH  26  27
ENDBRANCH   1  26
TORSDOF 16
ENDMDL
MODEL 2
REMARK VINA RESULT:     -12.6      5.825      9.260
REMARK SMILES Cc1cc(F)cc(N[C@H](C(=O)NCCCNC(=O)c2ccc(-c3c4nc(c(-c5cc(S(=O)(=O)[O-])ccc5F)c5ccc([nH]5)c(-c5cc(S(=O)(=O)[O-])ccc5F)c5nc(c(-c6cc(S(=O)(=O)[O-])ccc6F)c6ccc3[nH]6)C=C5)C=C4)cc2)c2cc(C)cc(C)c2)c1
REMARK SMILES IDX 14 1 13 2 12 3 10 4 11 5 9 7 8 8 7 10 1 11 2 12 3 13 90 14
REMARK SMILES IDX 4 15 5 16 6 17 82 18 83 19 89 20 84 21 87 22 85 23 86 24
REMARK SMILES IDX 88 25 15 26 16 27 17 28 18 30 19 31 20 32 81 33 21 34 80 35
REMARK SMILES IDX 22 36 23 37 24 38 74 39 25 40 79 41 73 42 75 43 26 44 78 45
REMARK SMILES IDX 72 46 71 47 27 49 59 50 39 51 58 52 40 53 43 54 57 55 76 56
REMARK SMILES IDX 41 57 42 58 56 60 77 61 44 62 28 63 29 64 37 65 30 66 36 67
REMARK SMILES IDX 38 68 35 69 31 70 32 71 33 72 34 73 60 74 61 75 69 76 62 77
REMARK SMILES IDX 68 78 70 79 67 80 63 81 64 82 65 83 66 84 45 85 46 86 54 87
REMARK SMILES IDX 47 88 53 89 55 90 52 91 48 92 49 93 50 94 51 95
REMARK H PARENT 12 6 8 9 16 29 75 48 43 59
REMARK Flexibility Score: inf
ROOT
ATOM      1  C   UNL A   1      36.107  21.505  25.709  1.00  0.00     0.042 C 
ENDROOT
BRANCH   1   2
ATOM      2  C   UNL A   1      35.334  22.795  25.513  1.00  0.00     0.117 C 
BRANCH   2   3
ATOM      3  N   UNL A   1      35.124  23.140  24.122  1.00  0.00    -0.354 N 
ATOM      4  C   UNL A   1      33.969  23.423  23.452  1.00  0.00     0.247 C 
ATOM      5  O   UNL A   1      34.121  23.754  22.268  1.00  0.00    -0.272 OA
ATOM      6  H   UNL A   1      35.943  23.176  23.575  1.00  0.00     0.163 HD
BRANCH   4   7
ATOM      7  C   UNL A   1      32.554  23.216  24.069  1.00  0.00     0.200 C 
BRANCH   7   8
ATOM      8  N   UNL A   1      32.378  22.021  24.934  1.00  0.00    -0.370 N 
ATOM      9  H   UNL A   1      32.186  22.234  25.876  1.00  0.00     0.161 HD
BRANCH   8  10
ATOM     10  C   UNL A   1      32.431  20.668  24.666  1.00  0.00     0.038 A 
ATOM     11  C   UNL A   1      32.234  18.453  21.529  1.00  0.00     0.044 C 
ATOM     12  C   UNL A   1      32.378  18.882  22.957  1.00  0.00    -0.046 A 
ATOM     13  C   UNL A   1      32.635  17.921  23.934  1.00  0.00     0.042 A 
ATOM     14  C   UNL A   1      32.246  20.233  23.337  1.00  0.00     0.029 A 
ATOM     15  C   UNL A   1      32.817  18.330  25.239  1.00  0.00     0.125 A 
ATOM     16  F   UNL A   1      33.072  17.422  26.191  1.00  0.00    -0.207 F 
ATOM     17  C   UNL A   1      32.752  19.676  25.585  1.00  0.00     0.065 A 
ENDBRANCH   8  10
ENDBRANCH   7   8
BRANCH   7  18
ATOM     18  C   UNL A   1      31.958  24.453  24.735  1.00  0.00    -0.016 A 
ATOM     19  C   UNL A   1      30.618  24.802  24.524  1.00  0.00     0.009 A 
ATOM     20  C   UNL A   1      32.780  25.362  25.418  1.00  0.00     0.009 A 
ATOM     21  C   UNL A   1      30.188  26.117  24.696  1.00  0.00    -0.051 A 
ATOM     22  C   UNL A   1      32.300  26.628  25.778  1.00  0.00    -0.051 A 
ATOM     23  C   UNL A   1      28.952  26.577  23.978  1.00  0.00     0.044 C 
ATOM     24  C   UNL A   1      31.027  27.022  25.345  1.00  0.00     0.006 A 
ATOM     25  C   UNL A   1      33.173  27.602  26.510  1.00  0.00     0.044 C 
ENDBRANCH   7  18
ENDBRANCH   4   7
ENDBRANCH   2   3
ENDBRANCH   1   2
BRANCH   1  26
ATOM     26  C   UNL A   1      37.384  21.405  24.892  1.00  0.00     0.118 C 
BRANCH  26  27
ATOM     27  N   UNL A   1      38.326  20.424  25.409  1.00  0.00    -0.352 N 
ATOM     28  C   UNL A   1      39.497  20.603  26.109  1.00  0.00     0.251 C 
ATOM     29  H   UNL A   1      38.088  19.485  25.231  1.00  0.00     0.163 HD
ATOM     30  O   UNL A   1      40.236  19.641  26.313  1.00  0.00    -0.269 OA
BRANCH  28  31
ATOM     31  C   UNL A   1      39.888  21.954  26.572  1.00  0.00     0.039 A 
ATOM     32  C   UNL A   1      40.992  22.093  27.416  1.00  0.00     0.014 A 
ATOM     33  C   UNL A   1      39.186  23.085  26.153  1.00  0.00     0.014 A 
ATOM     34  C   UNL A   1      41.444  23.370  27.760  1.00  0.00     0.010 A 
ATOM     35  C   UNL A   1      39.708  24.351  26.394  1.00  0.00     0.010 A 
ATOM     36  C   UNL A   1      40.839  24.512  27.207  1.00  0.00    -0.014 A 
BRANCH  36  37
ATOM     37  C   UNL A   1      41.354  25.881  27.477  1.00  0.00     0.031 A 
ATOM     38  C   UNL A   1      42.698  26.295  26.930  1.00  0.00     0.074 A 
ATOM     39  C   UNL A   1      40.656  26.720  28.269  1.00  0.00     0.049 A 
ATOM     40  N   UNL A   1      43.369  27.399  27.133  1.00  0.00    -0.248 NA
ATOM     41  C   UNL A   1      43.394  25.322  26.072  1.00  0.00     0.031 C 
ATOM     42  C   UNL A   1      39.364  26.420  28.893  1.00  0.00     0.029 A 
ATOM     43  N   UNL A   1      40.934  27.996  28.696  1.00  0.00    -0.354 N 
ATOM     44  C   UNL A   1      44.574  27.239  26.456  1.00  0.00     0.074 A 
ATOM     45  C   UNL A   1      44.566  25.911  25.886  1.00  0.00     0.031 C 
ATOM     46  C   UNL A   1      38.947  27.492  29.586  1.00  0.00     0.029 A 
ATOM     47  C   UNL A   1      39.962  28.536  29.510  1.00  0.00     0.049 A 
ATOM     48  H   UNL A   1      41.753  28.480  28.443  1.00  0.00     0.167 HD
ATOM     49  C   UNL A   1      45.587  28.128  26.306  1.00  0.00     0.034 A 
ATOM     50  C   UNL A   1      39.904  29.730  30.134  1.00  0.00     0.034 A 
ATOM     51  C   UNL A   1      45.561  29.465  26.846  1.00  0.00     0.049 A 
ATOM     52  C   UNL A   1      41.053  30.695  29.957  1.00  0.00     0.074 A 
ATOM     53  C   UNL A   1      46.491  30.476  26.679  1.00  0.00     0.029 A 
ATOM     54  N   UNL A   1      44.559  29.976  27.659  1.00  0.00    -0.354 N 
ATOM     55  N   UNL A   1      42.154  30.552  29.256  1.00  0.00    -0.248 NA
ATOM     56  C   UNL A   1      40.947  31.986  30.650  1.00  0.00     0.031 C 
ATOM     57  C   UNL A   1      46.093  31.568  27.455  1.00  0.00     0.029 A 
ATOM     58  C   UNL A   1      44.870  31.273  28.035  1.00  0.00     0.049 A 
ATOM     59  H   UNL A   1      43.749  29.489  27.930  1.00  0.00     0.167 HD
ATOM     60  C   UNL A   1      42.847  31.752  29.389  1.00  0.00     0.074 A 
ATOM     61  C   UNL A   1      42.033  32.611  30.224  1.00  0.00     0.031 C 
ATOM     62  C   UNL A   1      44.045  32.117  28.866  1.00  0.00     0.034 A 
BRANCH  49  63
ATOM     63  C   UNL A   1      46.814  27.681  25.550  1.00  0.00     0.023 A 
ATOM     64  C   UNL A   1      47.011  27.994  24.194  1.00  0.00     0.031 A 
ATOM     65  C   UNL A   1      47.811  26.935  26.204  1.00  0.00     0.131 A 
ATOM     66  C   UNL A   1      48.144  27.513  23.521  1.00  0.00     0.055 A 
ATOM     67  C   UNL A   1      48.975  26.526  25.549  1.00  0.00     0.041 A 
ATOM     68  F   UNL A   1      47.669  26.585  27.492  1.00  0.00    -0.206 F 
ATOM     69  C   UNL A   1      49.141  26.805  24.196  1.00  0.00     0.022 A 
BRANCH  66  70
ATOM     70  S   UNL A   1      48.241  27.724  21.722  1.00  0.00     0.124 S 
ATOM     71  O   UNL A   1      46.940  28.321  21.426  1.00  0.00    -0.237 OA
ATOM     72  O   UNL A   1      49.396  28.601  21.568  1.00  0.00    -0.237 OA
ATOM     73  O   UNL A   1      48.421  26.361  21.227  1.00  0.00    -0.744 OA
ENDBRANCH  66  70
ENDBRANCH  49  63
BRANCH  50  74
ATOM     74  C   UNL A   1      38.736  30.097  30.990  1.00  0.00     0.023 A 
ATOM     75  C   UNL A   1      37.649  30.807  30.454  1.00  0.00     0.031 A 
ATOM     76  C   UNL A   1      38.724  29.824  32.369  1.00  0.00     0.131 A 
ATOM     77  C   UNL A   1      36.633  31.281  31.300  1.00  0.00     0.055 A 
ATOM     78  C   UNL A   1      37.677  30.238  33.196  1.00  0.00     0.041 A 
ATOM     79  F   UNL A   1      39.736  29.149  32.937  1.00  0.00    -0.206 F 
ATOM     80  C   UNL A   1      36.633  30.988  32.665  1.00  0.00     0.022 A 
BRANCH  77  81
ATOM     81  S   UNL A   1      35.381  32.396  30.609  1.00  0.00     0.124 S 
ATOM     82  O   UNL A   1      36.116  33.653  30.531  1.00  0.00    -0.237 OA
ATOM     83  O   UNL A   1      35.073  31.753  29.336  1.00  0.00    -0.237 OA
ATOM     84  O   UNL A   1      34.309  32.359  31.601  1.00  0.00    -0.744 OA
ENDBRANCH  77  81
ENDBRANCH  50  74
BRANCH  62  85
ATOM     85  C   UNL A   1      44.513  33.527  29.132  1.00  0.00     0.023 A 
ATOM     86  C   UNL A   1      44.041  34.620  28.387  1.00  0.00     0.031 A 
ATOM     87  C   UNL A   1      45.452  33.776  30.150  1.00  0.00     0.131 A 
ATOM     88  C   UNL A   1      44.552  35.904  28.630  1.00  0.00     0.055 A 
ATOM     89  C   UNL A   1      45.907  35.064  30.432  1.00  0.00     0.041 A 
ATOM     90  F   UNL A   1      45.938  32.769  30.892  1.00  0.00    -0.206 F 
ATOM     91  C   UNL A   1      45.467  36.135  29.660  1.00  0.00     0.022 A 
BRANCH  88  92
ATOM     92  S   UNL A   1      44.079  37.254  27.516  1.00  0.00     0.124 S 
ATOM     93  O   UNL A   1      43.423  38.185  28.429  1.00  0.00    -0.237 OA
ATOM     94  O   UNL A   1      45.367  37.686  26.983  1.00  0.00    -0.237 OA
ATOM     95  O   UNL A   1      43.195  36.607  26.549  1.00  0.00    -0.744 OA
ENDBRANCH  88  92
ENDBRANCH  62  85
ENDBRANCH  36  37
ENDBRANCH  28  31
ENDBRANCH  26  27
ENDBRANCH   1  26
TORSDOF 16
ENDMDL
MODEL 3
REMARK VINA RESULT:     -12.6      2.358      7.807
REMARK SMILES Cc1cc(F)cc(N[C@H](C(=O)NCCCNC(=O)c2ccc(-c3c4nc(c(-c5cc(S(=O)(=O)[O-])ccc5F)c5ccc([nH]5)c(-c5cc(S(=O)(=O)[O-])ccc5F)c5nc(c(-c6cc(S(=O)(=O)[O-])ccc6F)c6ccc3[nH]6)C=C5)C=C4)cc2)c2cc(C)cc(C)c2)c1
REMARK SMILES IDX 14 1 13 2 12 3 10 4 11 5 9 7 8 8 7 10 1 11 2 12 3 13 90 14
REMARK SMILES IDX 4 15 5 16 6 17 82 18 83 19 89 20 84 21 87 22 85 23 86 24
REMARK SMILES IDX 88 25 15 26 16 27 17 28 18 30 19 31 20 32 81 33 21 34 80 35
REMARK SMILES IDX 22 36 23 37 24 38 74 39 25 40 79 41 73 42 75 43 26 44 78 45
REMARK SMILES IDX 72 46 71 47 27 49 59 50 39 51 58 52 40 53 43 54 57 55 76 56
REMARK SMILES IDX 41 57 42 58 56 60 77 61 44 62 28 63 29 64 37 65 30 66 36 67
REMARK SMILES IDX 38 68 35 69 31 70 32 71 33 72 34 73 60 74 61 75 69 76 62 77
REMARK SMILES IDX 68 78 70 79 67 80 63 81 64 82 65 83 66 84 45 85 46 86 54 87
REMARK SMILES IDX 47 88 53 89 55 90 52 91 48 92 49 93 50 94 51 95
REMARK H PARENT 12 6 8 9 16 29 75 48 43 59
REMARK Flexibility Score: inf
ROOT
ATOM      1  C   UNL A   1      32.715  29.653  25.081  1.00  0.00     0.042 C 
ENDROOT
BRANCH   1   2
ATOM      2  C   UNL A   1      33.881  28.683  25.068  1.00  0.00     0.117 C 
BRANCH   2   3
ATOM      3  N   UNL A   1      34.149  28.116  23.762  1.00  0.00    -0.354 N 
ATOM      4  C   UNL A   1      33.295  27.556  22.857  1.00  0.00     0.247 C 
ATOM      5  O   UNL A   1      33.819  27.220  21.785  1.00  0.00    -0.272 OA
ATOM      6  H   UNL A   1      35.094  28.140  23.484  1.00  0.00     0.163 HD
BRANCH   4   7
ATOM      7  C   UNL A   1      31.808  27.227  23.179  1.00  0.00     0.200 C 
BRANCH   7   8
ATOM      8  N   UNL A   1      30.789  27.809  22.267  1.00  0.00    -0.370 N 
ATOM      9  H   UNL A   1      30.943  27.610  21.315  1.00  0.00     0.161 HD
BRANCH   8  10
ATOM     10  C   UNL A   1      29.667  28.578  22.503  1.00  0.00     0.038 A 
ATOM     11  C   UNL A   1      28.629  32.230  21.898  1.00  0.00     0.044 C 
ATOM     12  C   UNL A   1      28.578  30.789  22.301  1.00  0.00    -0.046 A 
ATOM     13  C   UNL A   1      27.393  30.267  22.818  1.00  0.00     0.042 A 
ATOM     14  C   UNL A   1      29.706  29.950  22.182  1.00  0.00     0.029 A 
ATOM     15  C   UNL A   1      27.339  28.927  23.139  1.00  0.00     0.125 A 
ATOM     16  F   UNL A   1      26.207  28.405  23.630  1.00  0.00    -0.207 F 
ATOM     17  C   UNL A   1      28.441  28.099  22.950  1.00  0.00     0.065 A 
ENDBRANCH   8  10
ENDBRANCH   7   8
BRANCH   7  18
ATOM     18  C   UNL A   1      31.518  25.751  23.435  1.00  0.00    -0.016 A 
ATOM     19  C   UNL A   1      30.735  25.356  24.526  1.00  0.00     0.009 A 
ATOM     20  C   UNL A   1      32.176  24.757  22.696  1.00  0.00     0.009 A 
ATOM     21  C   UNL A   1      30.849  24.072  25.058  1.00  0.00    -0.051 A 
ATOM     22  C   UNL A   1      32.138  23.418  23.108  1.00  0.00    -0.051 A 
ATOM     23  C   UNL A   1      30.443  23.838  26.485  1.00  0.00     0.044 C 
ATOM     24  C   UNL A   1      31.536  23.099  24.332  1.00  0.00     0.006 A 
ATOM     25  C   UNL A   1      32.838  22.352  22.321  1.00  0.00     0.044 C 
ENDBRANCH   7  18
ENDBRANCH   4   7
ENDBRANCH   2   3
ENDBRANCH   1   2
BRANCH   1  26
ATOM     26  C   UNL A   1      32.241  30.050  26.469  1.00  0.00     0.118 C 
BRANCH  26  27
ATOM     27  N   UNL A   1      32.232  31.489  26.686  1.00  0.00    -0.352 N 
ATOM     28  C   UNL A   1      33.127  32.289  27.359  1.00  0.00     0.251 C 
ATOM     29  H   UNL A   1      31.467  31.965  26.289  1.00  0.00     0.163 HD
ATOM     30  O   UNL A   1      32.849  33.469  27.569  1.00  0.00    -0.269 OA
BRANCH  28  31
ATOM     31  C   UNL A   1      34.394  31.721  27.870  1.00  0.00     0.039 A 
ATOM     32  C   UNL A   1      35.506  32.555  28.018  1.00  0.00     0.014 A 
ATOM     33  C   UNL A   1      34.483  30.375  28.229  1.00  0.00     0.014 A 
ATOM     34  C   UNL A   1      36.668  32.059  28.614  1.00  0.00     0.010 A 
ATOM     35  C   UNL A   1      35.593  29.918  28.931  1.00  0.00     0.010 A 
ATOM     36  C   UNL A   1      36.704  30.750  29.126  1.00  0.00    -0.014 A 
BRANCH  36  37
ATOM     37  C   UNL A   1      37.893  30.223  29.849  1.00  0.00     0.031 A 
ATOM     38  C   UNL A   1      38.160  30.662  31.266  1.00  0.00     0.074 A 
ATOM     39  C   UNL A   1      38.765  29.414  29.212  1.00  0.00     0.049 A 
ATOM     40  N   UNL A   1      39.187  30.402  32.034  1.00  0.00    -0.248 NA
ATOM     41  C   UNL A   1      37.158  31.543  31.889  1.00  0.00     0.031 C 
ATOM     42  C   UNL A   1      38.638  28.953  27.827  1.00  0.00     0.029 A 
ATOM     43  N   UNL A   1      39.938  28.841  29.639  1.00  0.00    -0.354 N 
ATOM     44  C   UNL A   1      38.969  31.109  33.212  1.00  0.00     0.074 A 
ATOM     45  C   UNL A   1      37.743  31.854  33.036  1.00  0.00     0.031 C 
ATOM     46  C   UNL A   1      39.666  28.139  27.535  1.00  0.00     0.029 A 
ATOM     47  C   UNL A   1      40.559  28.065  28.686  1.00  0.00     0.049 A 
ATOM     48  H   UNL A   1      40.300  28.972  30.545  1.00  0.00     0.167 HD
ATOM     49  C   UNL A   1      39.713  31.118  34.346  1.00  0.00     0.034 A 
ATOM     50  C   UNL A   1      41.722  27.384  28.730  1.00  0.00     0.034 A 
ATOM     51  C   UNL A   1      40.911  30.336  34.519  1.00  0.00     0.049 A 
ATOM     52  C   UNL A   1      42.535  27.423  30.003  1.00  0.00     0.074 A 
ATOM     53  C   UNL A   1      41.691  30.201  35.654  1.00  0.00     0.029 A 
ATOM     54  N   UNL A   1      41.506  29.560  33.534  1.00  0.00    -0.354 N 
ATOM     55  N   UNL A   1      42.276  28.043  31.131  1.00  0.00    -0.248 NA
ATOM     56  C   UNL A   1      43.793  26.664  30.010  1.00  0.00     0.031 C 
ATOM     57  C   UNL A   1      42.798  29.410  35.333  1.00  0.00     0.029 A 
ATOM     58  C   UNL A   1      42.664  28.978  34.023  1.00  0.00     0.049 A 
ATOM     59  H   UNL A   1      41.157  29.441  32.621  1.00  0.00     0.167 HD
ATOM     60  C   UNL A   1      43.318  27.709  31.994  1.00  0.00     0.074 A 
ATOM     61  C   UNL A   1      44.198  26.823  31.260  1.00  0.00     0.031 C 
ATOM     62  C   UNL A   1      43.528  28.094  33.278  1.00  0.00     0.034 A 
BRANCH  49  63
ATOM     63  C   UNL A   1      39.269  32.015  35.474  1.00  0.00     0.023 A 
ATOM     64  C   UNL A   1      39.698  33.350  35.579  1.00  0.00     0.031 A 
ATOM     65  C   UNL A   1      38.392  31.528  36.460  1.00  0.00     0.131 A 
ATOM     66  C   UNL A   1      39.298  34.131  36.674  1.00  0.00     0.055 A 
ATOM     67  C   UNL A   1      37.935  32.333  37.505  1.00  0.00     0.041 A 
ATOM     68  F   UNL A   1      37.967  30.255  36.426  1.00  0.00    -0.206 F 
ATOM     69  C   UNL A   1      38.398  33.641  37.623  1.00  0.00     0.022 A 
BRANCH  66  70
ATOM     70  S   UNL A   1      40.066  35.758  36.907  1.00  0.00     0.124 S 
ATOM     71  O   UNL A   1      39.663  36.450  35.686  1.00  0.00    -0.237 OA
ATOM     72  O   UNL A   1      39.445  36.226  38.141  1.00  0.00    -0.237 OA
ATOM     73  O   UNL A   1      41.491  35.453  37.003  1.00  0.00    -0.744 OA
ENDBRANCH  66  70
ENDBRANCH  49  63
BRANCH  50  74
ATOM     74  C   UNL A   1      42.209  26.611  27.549  1.00  0.00     0.023 A 
ATOM     75  C   UNL A   1      41.857  25.261  27.380  1.00  0.00     0.031 A 
ATOM     76  C   UNL A   1      43.098  27.177  26.618  1.00  0.00     0.131 A 
ATOM     77  C   UNL A   1      42.446  24.505  26.353  1.00  0.00     0.055 A 
ATOM     78  C   UNL A   1      43.628  26.439  25.557  1.00  0.00     0.041 A 
ATOM     79  F   UNL A   1      43.470  28.462  26.728  1.00  0.00    -0.206 F 
ATOM     80  C   UNL A   1      43.317  25.089  25.433  1.00  0.00     0.022 A 
BRANCH  77  81
ATOM     81  S   UNL A   1      42.154  22.715  26.321  1.00  0.00     0.124 S 
ATOM     82  O   UNL A   1      40.697  22.652  26.336  1.00  0.00    -0.237 OA
ATOM     83  O   UNL A   1      42.801  22.325  25.074  1.00  0.00    -0.237 OA
ATOM     84  O   UNL A   1      42.812  22.243  27.538  1.00  0.00    -0.744 OA
ENDBRANCH  77  81
ENDBRANCH  50  74
BRANCH  62  85
ATOM     85  C   UNL A   1      44.724  27.506  33.987  1.00  0.00     0.023 A 
ATOM     86  C   UNL A   1      44.654  26.282  34.673  1.00  0.00     0.031 A 
ATOM     87  C   UNL A   1      45.954  28.189  33.976  1.00  0.00     0.131 A 
ATOM     88  C   UNL A   1      45.775  25.807  35.370  1.00  0.00     0.055 A 
ATOM     89  C   UNL A   1      47.084  27.678  34.614  1.00  0.00     0.041 A 
ATOM     90  F   UNL A   1      46.077  29.363  33.338  1.00  0.00    -0.206 F 
ATOM     91  C   UNL A   1      46.995  26.487  35.328  1.00  0.00     0.022 A 
BRANCH  88  92
ATOM     92  S   UNL A   1      45.592  24.335  36.413  1.00  0.00     0.124 S 
ATOM     93  O   UNL A   1      46.944  23.786  36.405  1.00  0.00    -0.237 OA
ATOM     94  O   UNL A   1      45.143  24.904  37.680  1.00  0.00    -0.237 OA
ATOM     95  O   UNL A   1      44.593  23.535  35.707  1.00  0.00    -0.744 OA
ENDBRANCH  88  92
ENDBRANCH  62  85
ENDBRANCH  36  37
ENDBRANCH  28  31
ENDBRANCH  26  27
ENDBRANCH   1  26
TORSDOF 16
ENDMDL
