MODEL 1
REMARK VINA RESULT:     -10.5      0.000      0.000
REMARK SMILES CCC[NH2+][C@@H]1COC[C@@H]1C(=O)N[C@@](C)(CC)C(=O)NCCCNC(=O)c1ccc(-c2c3nc(c(-c4cc(S(=O)(=O)[O-])ccc4F)c4ccc([nH]4)c(-c4cc(S(=O)(=O)[O-])ccc4F)c4nc(c(-c5cc(S(=O)(=O)[O-])ccc5F)c5ccc2[nH]5)C=C4)C=C3)cc1
REMARK SMILES IDX 20 1 19 2 17 3 18 4 13 6 14 7 12 8 10 9 11 10 9 12 5 13 6 14
REMARK SMILES IDX 7 15 8 16 4 17 3 20 2 21 1 22 15 23 16 24 21 25 22 26 23 27
REMARK SMILES IDX 24 28 25 30 26 31 27 32 88 33 28 34 87 35 29 36 30 37 31 38
REMARK SMILES IDX 81 39 32 40 86 41 80 42 82 43 33 44 85 45 79 46 78 47 34 49
REMARK SMILES IDX 66 50 46 51 65 52 47 53 50 54 64 55 83 56 48 57 49 58 63 60
REMARK SMILES IDX 84 61 51 62 35 63 36 64 44 65 37 66 43 67 45 68 42 69 38 70
REMARK SMILES IDX 39 71 40 72 41 73 67 74 68 75 76 76 69 77 75 78 77 79 74 80
REMARK SMILES IDX 70 81 71 82 72 83 73 84 52 85 53 86 61 87 54 88 60 89 62 90
REMARK SMILES IDX 59 91 55 92 56 93 57 94 58 95
REMARK H PARENT 19 5 12 11 4 18 4 19 23 29 82 48 50 59
REMARK Flexibility Score: inf
ROOT
ATOM      1  C   UNL A   1      31.328  28.297  24.068  1.00  0.00     0.117 C 
ENDROOT
BRANCH   1   2
ATOM      2  N   UNL A   1      32.553  28.134  23.308  1.00  0.00    -0.354 N 
ATOM      3  C   UNL A   1      33.116  27.008  22.804  1.00  0.00     0.245 C 
ATOM      4  O   UNL A   1      33.542  27.136  21.651  1.00  0.00    -0.272 OA
ATOM      5  H   UNL A   1      33.049  28.966  23.131  1.00  0.00     0.163 HD
BRANCH   3   6
ATOM      6  C   UNL A   1      33.137  25.630  23.549  1.00  0.00     0.116 C 
ATOM      7  C   UNL A   1      31.977  24.846  22.887  1.00  0.00     0.045 C 
BRANCH   6   8
ATOM      8  N   UNL A   1      34.356  24.793  23.306  1.00  0.00    -0.341 N 
ATOM      9  C   UNL A   1      34.625  23.457  23.452  1.00  0.00     0.232 C 
ATOM     10  O   UNL A   1      35.416  22.956  22.650  1.00  0.00    -0.274 OA
ATOM     11  H   UNL A   1      35.123  25.309  22.968  1.00  0.00     0.164 HD
BRANCH   9  12
ATOM     12  C   UNL A   1      34.060  22.678  24.630  1.00  0.00     0.164 C 
ATOM     13  C   UNL A   1      35.150  22.337  25.662  1.00  0.00     0.223 C 
ATOM     14  C   UNL A   1      35.593  20.949  25.218  1.00  0.00     0.225 C 
ATOM     15  O   UNL A   1      34.422  20.293  24.725  1.00  0.00    -0.374 OA
ATOM     16  C   UNL A   1      33.532  21.303  24.225  1.00  0.00     0.180 C 
BRANCH  13  17
ATOM     17  N   UNL A   1      36.206  23.348  25.776  1.00  0.00    -0.341 N 
ATOM     18  H   UNL A   1      35.901  24.177  25.265  1.00  0.00     0.346 HD
ATOM     19  H   UNL A   1      36.335  23.496  26.778  1.00  0.00     0.346 HD
BRANCH  17  20
ATOM     20  C   UNL A   1      37.514  22.972  25.270  1.00  0.00     0.260 C 
BRANCH  20  21
ATOM     21  C   UNL A   1      38.551  23.044  26.399  1.00  0.00     0.058 C 
ATOM     22  C   UNL A   1      38.862  24.462  26.859  1.00  0.00     0.010 C 
ENDBRANCH  20  21
ENDBRANCH  17  20
ENDBRANCH  13  17
ENDBRANCH   9  12
ENDBRANCH   6   8
BRANCH   6  23
ATOM     23  C   UNL A   1      32.895  25.679  25.079  1.00  0.00     0.035 C 
ATOM     24  C   UNL A   1      34.051  26.208  25.918  1.00  0.00     0.007 C 
ENDBRANCH   6  23
ENDBRANCH   3   6
ENDBRANCH   1   2
BRANCH   1  25
ATOM     25  C   UNL A   1      31.568  28.873  25.454  1.00  0.00     0.042 C 
BRANCH  25  26
ATOM     26  C   UNL A   1      32.812  29.751  25.559  1.00  0.00     0.118 C 
BRANCH  26  27
ATOM     27  N   UNL A   1      32.523  31.084  26.074  1.00  0.00    -0.352 N 
ATOM     28  C   UNL A   1      33.135  31.792  27.079  1.00  0.00     0.251 C 
ATOM     29  H   UNL A   1      31.775  31.548  25.633  1.00  0.00     0.163 HD
ATOM     30  O   UNL A   1      32.605  32.817  27.504  1.00  0.00    -0.269 OA
BRANCH  28  31
ATOM     31  C   UNL A   1      34.402  31.307  27.661  1.00  0.00     0.039 A 
ATOM     32  C   UNL A   1      35.441  32.214  27.883  1.00  0.00     0.014 A 
ATOM     33  C   UNL A   1      34.564  29.961  27.996  1.00  0.00     0.014 A 
ATOM     34  C   UNL A   1      36.610  31.785  28.514  1.00  0.00     0.010 A 
ATOM     35  C   UNL A   1      35.689  29.556  28.707  1.00  0.00     0.010 A 
ATOM     36  C   UNL A   1      36.726  30.461  28.972  1.00  0.00    -0.014 A 
BRANCH  36  37
ATOM     37  C   UNL A   1      37.925  30.010  29.728  1.00  0.00     0.031 A 
ATOM     38  C   UNL A   1      38.145  30.481  31.142  1.00  0.00     0.074 A 
ATOM     39  C   UNL A   1      38.843  29.231  29.119  1.00  0.00     0.049 A 
ATOM     40  N   UNL A   1      39.159  30.259  31.937  1.00  0.00    -0.248 NA
ATOM     41  C   UNL A   1      37.101  31.337  31.730  1.00  0.00     0.031 C 
ATOM     42  C   UNL A   1      38.761  28.752  27.736  1.00  0.00     0.029 A 
ATOM     43  N   UNL A   1      40.029  28.710  29.575  1.00  0.00    -0.354 N 
ATOM     44  C   UNL A   1      38.886  30.960  33.107  1.00  0.00     0.074 A 
ATOM     45  C   UNL A   1      37.637  31.659  32.897  1.00  0.00     0.031 C 
ATOM     46  C   UNL A   1      39.834  27.990  27.467  1.00  0.00     0.029 A 
ATOM     47  C   UNL A   1      40.709  27.968  28.634  1.00  0.00     0.049 A 
ATOM     48  H   UNL A   1      40.363  28.854  30.490  1.00  0.00     0.167 HD
ATOM     49  C   UNL A   1      39.603  31.002  34.256  1.00  0.00     0.034 A 
ATOM     50  C   UNL A   1      41.909  27.354  28.699  1.00  0.00     0.034 A 
ATOM     51  C   UNL A   1      40.832  30.276  34.458  1.00  0.00     0.049 A 
ATOM     52  C   UNL A   1      42.688  27.425  29.990  1.00  0.00     0.074 A 
ATOM     53  C   UNL A   1      41.597  30.187  35.607  1.00  0.00     0.029 A 
ATOM     54  N   UNL A   1      41.483  29.523  33.488  1.00  0.00    -0.354 N 
ATOM     55  N   UNL A   1      42.376  28.037  31.112  1.00  0.00    -0.248 NA
ATOM     56  C   UNL A   1      43.972  26.713  30.032  1.00  0.00     0.031 C 
ATOM     57  C   UNL A   1      42.748  29.451  35.312  1.00  0.00     0.029 A 
ATOM     58  C   UNL A   1      42.658  29.000  34.005  1.00  0.00     0.049 A 
ATOM     59  H   UNL A   1      41.157  29.383  32.570  1.00  0.00     0.167 HD
ATOM     60  C   UNL A   1      43.409  27.747  32.000  1.00  0.00     0.074 A 
ATOM     61  C   UNL A   1      44.339  26.893  31.292  1.00  0.00     0.031 C 
ATOM     62  C   UNL A   1      43.574  28.148  33.286  1.00  0.00     0.034 A 
BRANCH  49  63
ATOM     63  C   UNL A   1      39.095  31.874  35.378  1.00  0.00     0.023 A 
ATOM     64  C   UNL A   1      38.474  31.335  36.518  1.00  0.00     0.031 A 
ATOM     65  C   UNL A   1      39.259  33.269  35.315  1.00  0.00     0.131 A 
ATOM     66  C   UNL A   1      37.996  32.188  37.524  1.00  0.00     0.055 A 
ATOM     67  C   UNL A   1      38.850  34.107  36.354  1.00  0.00     0.041 A 
ATOM     68  F   UNL A   1      39.823  33.843  34.241  1.00  0.00    -0.206 F 
ATOM     69  C   UNL A   1      38.207  33.568  37.465  1.00  0.00     0.022 A 
BRANCH  66  70
ATOM     70  S   UNL A   1      37.003  31.479  38.866  1.00  0.00     0.124 S 
ATOM     71  O   UNL A   1      35.820  32.337  38.840  1.00  0.00    -0.237 OA
ATOM     72  O   UNL A   1      36.805  30.105  38.422  1.00  0.00    -0.237 OA
ATOM     73  O   UNL A   1      37.854  31.639  40.043  1.00  0.00    -0.744 OA
ENDBRANCH  66  70
ENDBRANCH  49  63
BRANCH  50  74
ATOM     74  C   UNL A   1      42.471  26.642  27.513  1.00  0.00     0.023 A 
ATOM     75  C   UNL A   1      42.383  25.245  27.394  1.00  0.00     0.031 A 
ATOM     76  C   UNL A   1      43.178  27.340  26.516  1.00  0.00     0.131 A 
ATOM     77  C   UNL A   1      43.053  24.586  26.351  1.00  0.00     0.055 A 
ATOM     78  C   UNL A   1      43.783  26.686  25.441  1.00  0.00     0.041 A 
ATOM     79  F   UNL A   1      43.295  28.677  26.574  1.00  0.00    -0.206 F 
ATOM     80  C   UNL A   1      43.740  25.298  25.366  1.00  0.00     0.022 A 
BRANCH  77  81
ATOM     81  S   UNL A   1      43.129  22.773  26.379  1.00  0.00     0.124 S 
ATOM     82  O   UNL A   1      42.500  22.432  25.109  1.00  0.00    -0.237 OA
ATOM     83  O   UNL A   1      44.565  22.534  26.469  1.00  0.00    -0.237 OA
ATOM     84  O   UNL A   1      42.362  22.421  27.572  1.00  0.00    -0.744 OA
ENDBRANCH  77  81
ENDBRANCH  50  74
BRANCH  62  85
ATOM     85  C   UNL A   1      44.778  27.616  34.026  1.00  0.00     0.023 A 
ATOM     86  C   UNL A   1      44.748  26.390  34.712  1.00  0.00     0.031 A 
ATOM     87  C   UNL A   1      45.976  28.354  34.045  1.00  0.00     0.131 A 
ATOM     88  C   UNL A   1      45.871  25.969  35.439  1.00  0.00     0.055 A 
ATOM     89  C   UNL A   1      47.112  27.895  34.711  1.00  0.00     0.041 A 
ATOM     90  F   UNL A   1      46.062  29.534  33.409  1.00  0.00    -0.206 F 
ATOM     91  C   UNL A   1      47.059  26.703  35.425  1.00  0.00     0.022 A 
BRANCH  88  92
ATOM     92  S   UNL A   1      45.727  24.495  36.486  1.00  0.00     0.124 S 
ATOM     93  O   UNL A   1      44.280  24.328  36.576  1.00  0.00    -0.237 OA
ATOM     94  O   UNL A   1      46.437  23.486  35.705  1.00  0.00    -0.237 OA
ATOM     95  O   UNL A   1      46.385  24.891  37.730  1.00  0.00    -0.744 OA
ENDBRANCH  88  92
ENDBRANCH  62  85
ENDBRANCH  36  37
ENDBRANCH  28  31
ENDBRANCH  26  27
ENDBRANCH  25  26
ENDBRANCH   1  25
TORSDOF 19
ENDMDL
MODEL 2
REMARK VINA RESULT:     -10.5      2.408      3.330
REMARK SMILES CCC[NH2+][C@@H]1COC[C@@H]1C(=O)N[C@@](C)(CC)C(=O)NCCCNC(=O)c1ccc(-c2c3nc(c(-c4cc(S(=O)(=O)[O-])ccc4F)c4ccc([nH]4)c(-c4cc(S(=O)(=O)[O-])ccc4F)c4nc(c(-c5cc(S(=O)(=O)[O-])ccc5F)c5ccc2[nH]5)C=C4)C=C3)cc1
REMARK SMILES IDX 20 1 19 2 17 3 18 4 13 6 14 7 12 8 10 9 11 10 9 12 5 13 6 14
REMARK SMILES IDX 7 15 8 16 4 17 3 20 2 21 1 22 15 23 16 24 21 25 22 26 23 27
REMARK SMILES IDX 24 28 25 30 26 31 27 32 88 33 28 34 87 35 29 36 30 37 31 38
REMARK SMILES IDX 81 39 32 40 86 41 80 42 82 43 33 44 85 45 79 46 78 47 34 49
REMARK SMILES IDX 66 50 46 51 65 52 47 53 50 54 64 55 83 56 48 57 49 58 63 60
REMARK SMILES IDX 84 61 51 62 35 63 36 64 44 65 37 66 43 67 45 68 42 69 38 70
REMARK SMILES IDX 39 71 40 72 41 73 67 74 68 75 76 76 69 77 75 78 77 79 74 80
REMARK SMILES IDX 70 81 71 82 72 83 73 84 52 85 53 86 61 87 54 88 60 89 62 90
REMARK SMILES IDX 59 91 55 92 56 93 57 94 58 95
REMARK H PARENT 19 5 12 11 4 18 4 19 23 29 82 48 50 59
REMARK Flexibility Score: inf
ROOT
ATOM      1  C   UNL A   1      33.149  26.966  25.257  1.00  0.00     0.117 C 
ENDROOT
BRANCH   1   2
ATOM      2  N   UNL A   1      33.931  26.530  24.116  1.00  0.00    -0.354 N 
ATOM      3  C   UNL A   1      33.621  25.635  23.145  1.00  0.00     0.245 C 
ATOM      4  O   UNL A   1      33.929  26.007  22.007  1.00  0.00    -0.272 OA
ATOM      5  H   UNL A   1      34.819  26.946  24.033  1.00  0.00     0.163 HD
BRANCH   3   6
ATOM      6  C   UNL A   1      32.845  24.299  23.400  1.00  0.00     0.116 C 
ATOM      7  C   UNL A   1      33.341  23.371  22.263  1.00  0.00     0.045 C 
BRANCH   6   8
ATOM      8  N   UNL A   1      33.208  23.583  24.666  1.00  0.00    -0.341 N 
ATOM      9  C   UNL A   1      34.396  23.161  25.201  1.00  0.00     0.232 C 
ATOM     10  O   UNL A   1      34.492  23.176  26.430  1.00  0.00    -0.274 OA
ATOM     11  H   UNL A   1      32.430  23.373  25.232  1.00  0.00     0.164 HD
BRANCH   9  12
ATOM     12  C   UNL A   1      35.488  22.588  24.309  1.00  0.00     0.164 C 
ATOM     13  C   UNL A   1      35.912  21.179  24.762  1.00  0.00     0.223 C 
ATOM     14  C   UNL A   1      37.097  21.477  25.674  1.00  0.00     0.225 C 
ATOM     15  O   UNL A   1      37.766  22.605  25.106  1.00  0.00    -0.374 OA
ATOM     16  C   UNL A   1      36.790  23.381  24.393  1.00  0.00     0.180 C 
BRANCH  13  17
ATOM     17  N   UNL A   1      34.828  20.384  25.348  1.00  0.00    -0.341 N 
ATOM     18  H   UNL A   1      35.100  20.138  26.299  1.00  0.00     0.346 HD
ATOM     19  H   UNL A   1      33.996  20.973  25.288  1.00  0.00     0.346 HD
BRANCH  17  20
ATOM     20  C   UNL A   1      34.484  19.156  24.653  1.00  0.00     0.260 C 
BRANCH  20  21
ATOM     21  C   UNL A   1      32.985  19.148  24.322  1.00  0.00     0.058 C 
ATOM     22  C   UNL A   1      32.221  20.333  24.897  1.00  0.00     0.010 C 
ENDBRANCH  20  21
ENDBRANCH  17  20
ENDBRANCH  13  17
ENDBRANCH   9  12
ENDBRANCH   6   8
BRANCH   6  23
ATOM     23  C   UNL A   1      31.299  24.385  23.333  1.00  0.00     0.035 C 
ATOM     24  C   UNL A   1      30.556  23.995  24.603  1.00  0.00     0.007 C 
ENDBRANCH   6  23
ENDBRANCH   3   6
ENDBRANCH   1   2
BRANCH   1  25
ATOM     25  C   UNL A   1      33.234  28.466  25.488  1.00  0.00     0.042 C 
BRANCH  25  26
ATOM     26  C   UNL A   1      33.368  28.866  26.955  1.00  0.00     0.118 C 
BRANCH  26  27
ATOM     27  N   UNL A   1      33.537  30.303  27.137  1.00  0.00    -0.352 N 
ATOM     28  C   UNL A   1      34.535  30.999  27.774  1.00  0.00     0.251 C 
ATOM     29  H   UNL A   1      32.826  30.859  26.743  1.00  0.00     0.163 HD
ATOM     30  O   UNL A   1      34.383  32.197  28.003  1.00  0.00    -0.269 OA
BRANCH  28  31
ATOM     31  C   UNL A   1      35.764  30.304  28.205  1.00  0.00     0.039 A 
ATOM     32  C   UNL A   1      36.870  30.285  27.352  1.00  0.00     0.014 A 
ATOM     33  C   UNL A   1      35.830  29.678  29.452  1.00  0.00     0.014 A 
ATOM     34  C   UNL A   1      38.065  29.709  27.785  1.00  0.00     0.010 A 
ATOM     35  C   UNL A   1      37.046  29.188  29.916  1.00  0.00     0.010 A 
ATOM     36  C   UNL A   1      38.178  29.195  29.088  1.00  0.00    -0.014 A 
BRANCH  36  37
ATOM     37  C   UNL A   1      39.469  28.661  29.598  1.00  0.00     0.031 A 
ATOM     38  C   UNL A   1      40.197  29.382  30.703  1.00  0.00     0.074 A 
ATOM     39  C   UNL A   1      40.012  27.568  29.024  1.00  0.00     0.049 A 
ATOM     40  N   UNL A   1      41.364  29.117  31.231  1.00  0.00    -0.248 NA
ATOM     41  C   UNL A   1      39.541  30.573  31.268  1.00  0.00     0.031 C 
ATOM     42  C   UNL A   1      39.422  26.815  27.913  1.00  0.00     0.029 A 
ATOM     43  N   UNL A   1      41.186  26.903  29.282  1.00  0.00    -0.354 N 
ATOM     44  C   UNL A   1      41.590  30.115  32.173  1.00  0.00     0.074 A 
ATOM     45  C   UNL A   1      40.464  31.021  32.106  1.00  0.00     0.031 C 
ATOM     46  C   UNL A   1      40.220  25.780  27.606  1.00  0.00     0.029 A 
ATOM     47  C   UNL A   1      41.407  25.823  28.455  1.00  0.00     0.049 A 
ATOM     48  H   UNL A   1      41.811  27.172  29.993  1.00  0.00     0.167 HD
ATOM     49  C   UNL A   1      42.633  30.251  33.029  1.00  0.00     0.034 A 
ATOM     50  C   UNL A   1      42.453  24.976  28.376  1.00  0.00     0.034 A 
ATOM     51  C   UNL A   1      43.733  29.323  33.102  1.00  0.00     0.049 A 
ATOM     52  C   UNL A   1      43.604  25.158  29.337  1.00  0.00     0.074 A 
ATOM     53  C   UNL A   1      44.800  29.325  33.983  1.00  0.00     0.029 A 
ATOM     54  N   UNL A   1      43.915  28.234  32.259  1.00  0.00    -0.354 N 
ATOM     55  N   UNL A   1      43.764  26.069  30.272  1.00  0.00    -0.248 NA
ATOM     56  C   UNL A   1      44.707  24.193  29.245  1.00  0.00     0.031 C 
ATOM     57  C   UNL A   1      45.668  28.290  33.622  1.00  0.00     0.029 A 
ATOM     58  C   UNL A   1      45.098  27.583  32.576  1.00  0.00     0.049 A 
ATOM     59  H   UNL A   1      43.298  27.965  31.542  1.00  0.00     0.167 HD
ATOM     60  C   UNL A   1      44.967  25.758  30.900  1.00  0.00     0.074 A 
ATOM     61  C   UNL A   1      45.478  24.569  30.254  1.00  0.00     0.031 C 
ATOM     62  C   UNL A   1      45.593  26.396  31.922  1.00  0.00     0.034 A 
BRANCH  49  63
ATOM     63  C   UNL A   1      42.649  31.454  33.940  1.00  0.00     0.023 A 
ATOM     64  C   UNL A   1      42.143  31.404  35.250  1.00  0.00     0.031 A 
ATOM     65  C   UNL A   1      43.208  32.666  33.495  1.00  0.00     0.131 A 
ATOM     66  C   UNL A   1      42.160  32.556  36.051  1.00  0.00     0.055 A 
ATOM     67  C   UNL A   1      43.290  33.787  34.323  1.00  0.00     0.041 A 
ATOM     68  F   UNL A   1      43.684  32.781  32.246  1.00  0.00    -0.206 F 
ATOM     69  C   UNL A   1      42.757  33.739  35.608  1.00  0.00     0.022 A 
BRANCH  66  70
ATOM     70  S   UNL A   1      41.296  32.518  37.646  1.00  0.00     0.124 S 
ATOM     71  O   UNL A   1      42.133  31.595  38.410  1.00  0.00    -0.237 OA
ATOM     72  O   UNL A   1      41.340  33.914  38.063  1.00  0.00    -0.237 OA
ATOM     73  O   UNL A   1      39.969  32.009  37.305  1.00  0.00    -0.744 OA
ENDBRANCH  66  70
ENDBRANCH  49  63
BRANCH  50  74
ATOM     74  C   UNL A   1      42.491  23.896  27.345  1.00  0.00     0.023 A 
ATOM     75  C   UNL A   1      41.847  22.666  27.557  1.00  0.00     0.031 A 
ATOM     76  C   UNL A   1      43.242  24.047  26.165  1.00  0.00     0.131 A 
ATOM     77  C   UNL A   1      42.026  21.614  26.644  1.00  0.00     0.055 A 
ATOM     78  C   UNL A   1      43.359  23.021  25.225  1.00  0.00     0.041 A 
ATOM     79  F   UNL A   1      43.879  25.201  25.906  1.00  0.00    -0.206 F 
ATOM     80  C   UNL A   1      42.765  21.788  25.473  1.00  0.00     0.022 A 
BRANCH  77  81
ATOM     81  S   UNL A   1      41.392  19.971  27.081  1.00  0.00     0.124 S 
ATOM     82  O   UNL A   1      40.469  19.710  25.983  1.00  0.00    -0.237 OA
ATOM     83  O   UNL A   1      42.612  19.172  27.098  1.00  0.00    -0.237 OA
ATOM     84  O   UNL A   1      40.768  20.184  28.385  1.00  0.00    -0.744 OA
ENDBRANCH  77  81
ENDBRANCH  50  74
BRANCH  62  85
ATOM     85  C   UNL A   1      46.871  25.781  32.440  1.00  0.00     0.023 A 
ATOM     86  C   UNL A   1      46.883  24.905  33.539  1.00  0.00     0.031 A 
ATOM     87  C   UNL A   1      48.098  26.083  31.823  1.00  0.00     0.131 A 
ATOM     88  C   UNL A   1      48.103  24.410  34.024  1.00  0.00     0.055 A 
ATOM     89  C   UNL A   1      49.300  25.532  32.265  1.00  0.00     0.041 A 
ATOM     90  F   UNL A   1      48.148  26.917  30.771  1.00  0.00    -0.206 F 
ATOM     91  C   UNL A   1      49.309  24.701  33.381  1.00  0.00     0.022 A 
BRANCH  88  92
ATOM     92  S   UNL A   1      48.104  23.458  35.567  1.00  0.00     0.124 S 
ATOM     93  O   UNL A   1      46.732  22.962  35.617  1.00  0.00    -0.237 OA
ATOM     94  O   UNL A   1      49.135  22.456  35.316  1.00  0.00    -0.237 OA
ATOM     95  O   UNL A   1      48.442  24.453  36.584  1.00  0.00    -0.744 OA
ENDBRANCH  88  92
ENDBRANCH  62  85
ENDBRANCH  36  37
ENDBRANCH  28  31
ENDBRANCH  26  27
ENDBRANCH  25  26
ENDBRANCH   1  25
TORSDOF 19
ENDMDL
MODEL 3
REMARK VINA RESULT:     -10.4      2.318      4.387
REMARK SMILES CCC[NH2+][C@@H]1COC[C@@H]1C(=O)N[C@@](C)(CC)C(=O)NCCCNC(=O)c1ccc(-c2c3nc(c(-c4cc(S(=O)(=O)[O-])ccc4F)c4ccc([nH]4)c(-c4cc(S(=O)(=O)[O-])ccc4F)c4nc(c(-c5cc(S(=O)(=O)[O-])ccc5F)c5ccc2[nH]5)C=C4)C=C3)cc1
REMARK SMILES IDX 20 1 19 2 17 3 18 4 13 6 14 7 12 8 10 9 11 10 9 12 5 13 6 14
REMARK SMILES IDX 7 15 8 16 4 17 3 20 2 21 1 22 15 23 16 24 21 25 22 26 23 27
REMARK SMILES IDX 24 28 25 30 26 31 27 32 88 33 28 34 87 35 29 36 30 37 31 38
REMARK SMILES IDX 81 39 32 40 86 41 80 42 82 43 33 44 85 45 79 46 78 47 34 49
REMARK SMILES IDX 66 50 46 51 65 52 47 53 50 54 64 55 83 56 48 57 49 58 63 60
REMARK SMILES IDX 84 61 51 62 35 63 36 64 44 65 37 66 43 67 45 68 42 69 38 70
REMARK SMILES IDX 39 71 40 72 41 73 67 74 68 75 76 76 69 77 75 78 77 79 74 80
REMARK SMILES IDX 70 81 71 82 72 83 73 84 52 85 53 86 61 87 54 88 60 89 62 90
REMARK SMILES IDX 59 91 55 92 56 93 57 94 58 95
REMARK H PARENT 19 5 12 11 4 18 4 19 23 29 82 48 50 59
REMARK Flexibility Score: inf
ROOT
ATOM      1  C   UNL A   1      31.932  27.442  27.026  1.00  0.00     0.117 C 
ENDROOT
BRANCH   1   2
ATOM      2  N   UNL A   1      30.989  26.749  26.170  1.00  0.00    -0.354 N 
ATOM      3  C   UNL A   1      31.139  26.303  24.898  1.00  0.00     0.245 C 
ATOM      4  O   UNL A   1      30.683  25.169  24.710  1.00  0.00    -0.272 OA
ATOM      5  H   UNL A   1      30.107  26.575  26.573  1.00  0.00     0.163 HD
BRANCH   3   6
ATOM      6  C   UNL A   1      31.913  27.083  23.782  1.00  0.00     0.116 C 
ATOM      7  C   UNL A   1      31.413  26.425  22.471  1.00  0.00     0.045 C 
BRANCH   6   8
ATOM      8  N   UNL A   1      31.549  28.531  23.648  1.00  0.00    -0.341 N 
ATOM      9  C   UNL A   1      30.358  29.194  23.514  1.00  0.00     0.232 C 
ATOM     10  O   UNL A   1      30.282  30.313  24.026  1.00  0.00    -0.274 OA
ATOM     11  H   UNL A   1      32.330  29.132  23.660  1.00  0.00     0.164 HD
BRANCH   9  12
ATOM     12  C   UNL A   1      29.239  28.612  22.664  1.00  0.00     0.164 C 
ATOM     13  C   UNL A   1      28.406  29.716  21.986  1.00  0.00     0.223 C 
ATOM     14  C   UNL A   1      27.269  29.919  22.981  1.00  0.00     0.225 C 
ATOM     15  O   UNL A   1      26.988  28.632  23.537  1.00  0.00    -0.374 OA
ATOM     16  C   UNL A   1      28.200  27.862  23.496  1.00  0.00     0.180 C 
BRANCH  13  17
ATOM     17  N   UNL A   1      29.174  30.912  21.627  1.00  0.00    -0.341 N 
ATOM     18  H   UNL A   1      29.616  31.266  22.475  1.00  0.00     0.346 HD
ATOM     19  H   UNL A   1      29.830  30.608  20.906  1.00  0.00     0.346 HD
BRANCH  17  20
ATOM     20  C   UNL A   1      28.422  32.003  21.031  1.00  0.00     0.260 C 
BRANCH  20  21
ATOM     21  C   UNL A   1      28.035  33.021  22.113  1.00  0.00     0.058 C 
ATOM     22  C   UNL A   1      29.151  33.319  23.105  1.00  0.00     0.010 C 
ENDBRANCH  20  21
ENDBRANCH  17  20
ENDBRANCH  13  17
ENDBRANCH   9  12
ENDBRANCH   6   8
BRANCH   6  23
ATOM     23  C   UNL A   1      33.458  26.986  23.829  1.00  0.00     0.035 C 
ATOM     24  C   UNL A   1      34.030  25.586  24.010  1.00  0.00     0.007 C 
ENDBRANCH   6  23
ENDBRANCH   3   6
ENDBRANCH   1   2
BRANCH   1  25
ATOM     25  C   UNL A   1      31.676  28.938  27.093  1.00  0.00     0.042 C 
BRANCH  25  26
ATOM     26  C   UNL A   1      32.643  29.776  26.262  1.00  0.00     0.118 C 
BRANCH  26  27
ATOM     27  N   UNL A   1      32.523  31.206  26.523  1.00  0.00    -0.352 N 
ATOM     28  C   UNL A   1      33.277  32.020  27.331  1.00  0.00     0.251 C 
ATOM     29  H   UNL A   1      31.788  31.657  26.046  1.00  0.00     0.163 HD
ATOM     30  O   UNL A   1      32.881  33.158  27.579  1.00  0.00    -0.269 OA
BRANCH  28  31
ATOM     31  C   UNL A   1      34.536  31.520  27.919  1.00  0.00     0.039 A 
ATOM     32  C   UNL A   1      35.506  32.436  28.332  1.00  0.00     0.014 A 
ATOM     33  C   UNL A   1      34.756  30.150  28.072  1.00  0.00     0.014 A 
ATOM     34  C   UNL A   1      36.660  31.979  28.969  1.00  0.00     0.010 A 
ATOM     35  C   UNL A   1      35.861  29.702  28.789  1.00  0.00     0.010 A 
ATOM     36  C   UNL A   1      36.827  30.611  29.244  1.00  0.00    -0.014 A 
BRANCH  36  37
ATOM     37  C   UNL A   1      38.006  30.114  30.004  1.00  0.00     0.031 A 
ATOM     38  C   UNL A   1      38.246  30.587  31.414  1.00  0.00     0.074 A 
ATOM     39  C   UNL A   1      38.890  29.293  29.402  1.00  0.00     0.049 A 
ATOM     40  N   UNL A   1      39.250  30.329  32.211  1.00  0.00    -0.248 NA
ATOM     41  C   UNL A   1      37.239  31.492  31.994  1.00  0.00     0.031 C 
ATOM     42  C   UNL A   1      38.789  28.807  28.022  1.00  0.00     0.029 A 
ATOM     43  N   UNL A   1      40.054  28.726  29.862  1.00  0.00    -0.354 N 
ATOM     44  C   UNL A   1      39.007  31.051  33.375  1.00  0.00     0.074 A 
ATOM     45  C   UNL A   1      37.789  31.801  33.160  1.00  0.00     0.031 C 
ATOM     46  C   UNL A   1      39.828  27.998  27.760  1.00  0.00     0.029 A 
ATOM     47  C   UNL A   1      40.701  27.948  28.927  1.00  0.00     0.049 A 
ATOM     48  H   UNL A   1      40.393  28.864  30.776  1.00  0.00     0.167 HD
ATOM     49  C   UNL A   1      39.726  31.071  34.524  1.00  0.00     0.034 A 
ATOM     50  C   UNL A   1      41.874  27.285  28.997  1.00  0.00     0.034 A 
ATOM     51  C   UNL A   1      40.923  30.296  34.732  1.00  0.00     0.049 A 
ATOM     52  C   UNL A   1      42.656  27.333  30.288  1.00  0.00     0.074 A 
ATOM     53  C   UNL A   1      41.683  30.184  35.882  1.00  0.00     0.029 A 
ATOM     54  N   UNL A   1      41.540  29.509  33.769  1.00  0.00    -0.354 N 
ATOM     55  N   UNL A   1      42.370  27.966  31.404  1.00  0.00    -0.248 NA
ATOM     56  C   UNL A   1      43.908  26.568  30.336  1.00  0.00     0.031 C 
ATOM     57  C   UNL A   1      42.802  29.398  35.593  1.00  0.00     0.029 A 
ATOM     58  C   UNL A   1      42.693  28.941  34.289  1.00  0.00     0.049 A 
ATOM     59  H   UNL A   1      41.210  29.375  32.852  1.00  0.00     0.167 HD
ATOM     60  C   UNL A   1      43.390  27.640  32.295  1.00  0.00     0.074 A 
ATOM     61  C   UNL A   1      44.283  26.743  31.594  1.00  0.00     0.031 C 
ATOM     62  C   UNL A   1      43.572  28.045  33.578  1.00  0.00     0.034 A 
BRANCH  49  63
ATOM     63  C   UNL A   1      39.254  31.973  35.639  1.00  0.00     0.023 A 
ATOM     64  C   UNL A   1      39.693  33.303  35.758  1.00  0.00     0.031 A 
ATOM     65  C   UNL A   1      38.329  31.497  36.586  1.00  0.00     0.131 A 
ATOM     66  C   UNL A   1      39.244  34.095  36.825  1.00  0.00     0.055 A 
ATOM     67  C   UNL A   1      37.828  32.313  37.601  1.00  0.00     0.041 A 
ATOM     68  F   UNL A   1      37.894  30.228  36.538  1.00  0.00    -0.206 F 
ATOM     69  C   UNL A   1      38.292  33.619  37.731  1.00  0.00     0.022 A 
BRANCH  66  70
ATOM     70  S   UNL A   1      40.000  35.724  37.076  1.00  0.00     0.124 S 
ATOM     71  O   UNL A   1      39.317  36.182  38.284  1.00  0.00    -0.237 OA
ATOM     72  O   UNL A   1      41.413  35.398  37.227  1.00  0.00    -0.237 OA
ATOM     73  O   UNL A   1      39.653  36.454  35.858  1.00  0.00    -0.744 OA
ENDBRANCH  66  70
ENDBRANCH  49  63
BRANCH  50  74
ATOM     74  C   UNL A   1      42.405  26.540  27.816  1.00  0.00     0.023 A 
ATOM     75  C   UNL A   1      41.986  25.230  27.534  1.00  0.00     0.031 A 
ATOM     76  C   UNL A   1      43.404  27.099  26.997  1.00  0.00     0.131 A 
ATOM     77  C   UNL A   1      42.613  24.497  26.514  1.00  0.00     0.055 A 
ATOM     78  C   UNL A   1      43.975  26.390  25.938  1.00  0.00     0.041 A 
ATOM     79  F   UNL A   1      43.844  28.348  27.216  1.00  0.00    -0.206 F 
ATOM     80  C   UNL A   1      43.594  25.073  25.705  1.00  0.00     0.022 A 
BRANCH  77  81
ATOM     81  S   UNL A   1      42.224  22.732  26.351  1.00  0.00     0.124 S 
ATOM     82  O   UNL A   1      42.700  22.448  25.002  1.00  0.00    -0.237 OA
ATOM     83  O   UNL A   1      43.000  22.151  27.441  1.00  0.00    -0.237 OA
ATOM     84  O   UNL A   1      40.774  22.687  26.526  1.00  0.00    -0.744 OA
ENDBRANCH  77  81
ENDBRANCH  50  74
BRANCH  62  85
ATOM     85  C   UNL A   1      44.753  27.468  34.322  1.00  0.00     0.023 A 
ATOM     86  C   UNL A   1      44.660  26.269  35.048  1.00  0.00     0.031 A 
ATOM     87  C   UNL A   1      45.990  28.137  34.305  1.00  0.00     0.131 A 
ATOM     88  C   UNL A   1      45.766  25.807  35.777  1.00  0.00     0.055 A 
ATOM     89  C   UNL A   1      47.107  27.635  34.974  1.00  0.00     0.041 A 
ATOM     90  F   UNL A   1      46.136  29.289  33.630  1.00  0.00    -0.206 F 
ATOM     91  C   UNL A   1      46.994  26.471  35.727  1.00  0.00     0.022 A 
BRANCH  88  92
ATOM     92  S   UNL A   1      45.552  24.378  36.873  1.00  0.00     0.124 S 
ATOM     93  O   UNL A   1      44.638  24.905  37.881  1.00  0.00    -0.237 OA
ATOM     94  O   UNL A   1      44.995  23.374  35.971  1.00  0.00    -0.237 OA
ATOM     95  O   UNL A   1      46.907  24.101  37.346  1.00  0.00    -0.744 OA
ENDBRANCH  88  92
ENDBRANCH  62  85
ENDBRANCH  36  37
ENDBRANCH  28  31
ENDBRANCH  26  27
ENDBRANCH  25  26
ENDBRANCH   1  25
TORSDOF 19
ENDMDL
