MODEL 1
REMARK VINA RESULT:     -12.0      0.000      0.000
REMARK SMILES Cc1nn(C)c(=O)c(C(=O)N[C@H](C)CC(=O)NCCCNC(=O)c2ccc(-c3c4nc(c(-c5cc(S(=O)(=O)[O-])ccc5F)c5ccc([nH]5)c(-c5cc(S(=O)(=O)[O-])ccc5F)c5nc(c(-c6cc(S(=O)(=O)[O-])ccc6F)c6ccc3[nH]6)C=C5)C=C4)cc2)c1C
REMARK SMILES IDX 19 1 18 2 17 3 15 4 16 5 14 7 12 8 13 9 11 10 9 11 10 12
REMARK SMILES IDX 8 14 1 15 2 16 3 17 87 18 4 19 88 20 5 21 6 22 7 23 20 24
REMARK SMILES IDX 21 25 22 26 23 28 24 29 25 30 86 31 26 32 85 33 27 34 28 35
REMARK SMILES IDX 29 36 79 37 30 38 84 39 78 40 80 41 31 42 83 43 77 44 76 45
REMARK SMILES IDX 32 47 64 48 44 49 63 50 45 51 48 52 62 53 81 54 46 55 47 56
REMARK SMILES IDX 61 58 82 59 49 60 33 61 34 62 42 63 35 64 41 65 43 66 40 67
REMARK SMILES IDX 36 68 37 69 38 70 39 71 65 72 66 73 74 74 67 75 73 76 75 77
REMARK SMILES IDX 72 78 68 79 69 80 70 81 71 82 50 83 51 84 59 85 52 86 58 87
REMARK SMILES IDX 60 88 57 89 53 90 54 91 55 92 56 93
REMARK H PARENT 17 6 11 13 21 27 80 46 48 57
REMARK Flexibility Score: inf
ROOT
ATOM      1  C   UNL A   1      31.374  31.912  26.531  1.00  0.00     0.042 C 
ENDROOT
BRANCH   1   2
ATOM      2  C   UNL A   1      31.597  30.612  25.759  1.00  0.00     0.117 C 
BRANCH   2   3
ATOM      3  N   UNL A   1      30.673  30.490  24.643  1.00  0.00    -0.356 N 
ATOM      4  C   UNL A   1      30.455  29.459  23.783  1.00  0.00     0.222 C 
ATOM      5  O   UNL A   1      29.647  29.628  22.868  1.00  0.00    -0.275 OA
ATOM      6  H   UNL A   1      30.114  31.284  24.483  1.00  0.00     0.163 HD
BRANCH   4   7
ATOM      7  C   UNL A   1      31.202  28.148  23.923  1.00  0.00     0.124 C 
BRANCH   7   8
ATOM      8  C   UNL A   1      30.232  26.970  24.029  1.00  0.00     0.088 C 
ATOM      9  C   UNL A   1      30.599  25.818  23.085  1.00  0.00     0.031 C 
BRANCH   8  10
ATOM     10  N   UNL A   1      30.170  26.437  25.395  1.00  0.00    -0.349 N 
ATOM     11  C   UNL A   1      31.233  26.384  26.264  1.00  0.00     0.257 C 
ATOM     12  O   UNL A   1      31.221  27.086  27.271  1.00  0.00    -0.269 OA
ATOM     13  H   UNL A   1      29.304  26.091  25.712  1.00  0.00     0.164 HD
BRANCH  11  14
ATOM     14  C   UNL A   1      32.242  25.300  26.093  1.00  0.00     0.111 A 
ATOM     15  C   UNL A   1      35.423  24.170  24.454  1.00  0.00     0.069 C 
ATOM     16  C   UNL A   1      34.307  24.237  25.474  1.00  0.00     0.062 A 
ATOM     17  N   UNL A   1      34.165  23.216  26.255  1.00  0.00    -0.175 NA
ATOM     18  C   UNL A   1      33.449  25.457  25.520  1.00  0.00    -0.010 A 
ATOM     19  N   UNL A   1      33.054  23.197  27.051  1.00  0.00    -0.232 N 
ATOM     20  C   UNL A   1      34.089  26.725  25.059  1.00  0.00     0.047 C 
ATOM     21  C   UNL A   1      32.993  22.127  28.028  1.00  0.00     0.178 C 
ATOM     22  C   UNL A   1      31.958  24.028  26.837  1.00  0.00     0.279 A 
ATOM     23  O   UNL A   1      30.836  23.783  27.277  1.00  0.00    -0.267 OA
ENDBRANCH  11  14
ENDBRANCH   8  10
ENDBRANCH   7   8
ENDBRANCH   4   7
ENDBRANCH   2   3
ENDBRANCH   1   2
BRANCH   1  24
ATOM     24  C   UNL A   1      32.619  32.422  27.249  1.00  0.00     0.118 C 
BRANCH  24  25
ATOM     25  N   UNL A   1      32.523  33.836  27.571  1.00  0.00    -0.352 N 
ATOM     26  C   UNL A   1      33.123  34.570  28.565  1.00  0.00     0.251 C 
ATOM     27  H   UNL A   1      31.932  34.354  26.978  1.00  0.00     0.163 HD
ATOM     28  O   UNL A   1      32.678  35.687  28.819  1.00  0.00    -0.269 OA
BRANCH  26  29
ATOM     29  C   UNL A   1      34.270  34.039  29.340  1.00  0.00     0.039 A 
ATOM     30  C   UNL A   1      35.567  34.372  28.936  1.00  0.00     0.014 A 
ATOM     31  C   UNL A   1      34.090  33.149  30.402  1.00  0.00     0.014 A 
ATOM     32  C   UNL A   1      36.671  33.851  29.618  1.00  0.00     0.010 A 
ATOM     33  C   UNL A   1      35.187  32.694  31.133  1.00  0.00     0.010 A 
ATOM     34  C   UNL A   1      36.492  33.023  30.738  1.00  0.00    -0.014 A 
BRANCH  34  35
ATOM     35  C   UNL A   1      37.653  32.446  31.465  1.00  0.00     0.031 A 
ATOM     36  C   UNL A   1      38.456  31.335  30.836  1.00  0.00     0.074 A 
ATOM     37  C   UNL A   1      37.973  32.897  32.694  1.00  0.00     0.049 A 
ATOM     38  N   UNL A   1      39.452  30.650  31.336  1.00  0.00    -0.248 NA
ATOM     39  C   UNL A   1      38.071  30.928  29.476  1.00  0.00     0.031 C 
ATOM     40  C   UNL A   1      37.265  33.956  33.417  1.00  0.00     0.029 A 
ATOM     41  N   UNL A   1      38.977  32.524  33.553  1.00  0.00    -0.354 N 
ATOM     42  C   UNL A   1      39.804  29.725  30.358  1.00  0.00     0.074 A 
ATOM     43  C   UNL A   1      38.878  29.899  29.261  1.00  0.00     0.031 C 
ATOM     44  C   UNL A   1      37.881  34.174  34.591  1.00  0.00     0.029 A 
ATOM     45  C   UNL A   1      38.997  33.243  34.726  1.00  0.00     0.049 A 
ATOM     46  H   UNL A   1      39.623  31.810  33.349  1.00  0.00     0.167 HD
ATOM     47  C   UNL A   1      40.822  28.831  30.363  1.00  0.00     0.034 A 
ATOM     48  C   UNL A   1      39.818  33.158  35.792  1.00  0.00     0.034 A 
ATOM     49  C   UNL A   1      41.763  28.687  31.444  1.00  0.00     0.049 A 
ATOM     50  C   UNL A   1      40.924  32.137  35.787  1.00  0.00     0.074 A 
ATOM     51  C   UNL A   1      42.855  27.841  31.528  1.00  0.00     0.029 A 
ATOM     52  N   UNL A   1      41.728  29.412  32.627  1.00  0.00    -0.354 N 
ATOM     53  N   UNL A   1      41.237  31.267  34.855  1.00  0.00    -0.248 NA
ATOM     54  C   UNL A   1      41.785  32.083  36.976  1.00  0.00     0.031 C 
ATOM     55  C   UNL A   1      43.450  28.018  32.782  1.00  0.00     0.029 A 
ATOM     56  C   UNL A   1      42.765  29.016  33.455  1.00  0.00     0.049 A 
ATOM     57  H   UNL A   1      41.064  30.105  32.845  1.00  0.00     0.167 HD
ATOM     58  C   UNL A   1      42.341  30.573  35.340  1.00  0.00     0.074 A 
ATOM     59  C   UNL A   1      42.646  31.130  36.642  1.00  0.00     0.031 C 
ATOM     60  C   UNL A   1      43.042  29.569  34.758  1.00  0.00     0.034 A 
BRANCH  47  61
ATOM     61  C   UNL A   1      40.967  27.934  29.160  1.00  0.00     0.023 A 
ATOM     62  C   UNL A   1      41.967  28.154  28.199  1.00  0.00     0.031 A 
ATOM     63  C   UNL A   1      40.101  26.842  28.978  1.00  0.00     0.131 A 
ATOM     64  C   UNL A   1      42.043  27.326  27.069  1.00  0.00     0.055 A 
ATOM     65  C   UNL A   1      40.224  25.981  27.886  1.00  0.00     0.041 A 
ATOM     66  F   UNL A   1      39.117  26.596  29.858  1.00  0.00    -0.206 F 
ATOM     67  C   UNL A   1      41.195  26.226  26.918  1.00  0.00     0.022 A 
BRANCH  64  68
ATOM     68  S   UNL A   1      43.212  27.758  25.753  1.00  0.00     0.124 S 
ATOM     69  O   UNL A   1      44.124  26.617  25.786  1.00  0.00    -0.237 OA
ATOM     70  O   UNL A   1      42.350  27.852  24.580  1.00  0.00    -0.237 OA
ATOM     71  O   UNL A   1      43.787  29.022  26.206  1.00  0.00    -0.744 OA
ENDBRANCH  64  68
ENDBRANCH  47  61
BRANCH  48  72
ATOM     72  C   UNL A   1      39.624  34.065  36.958  1.00  0.00     0.023 A 
ATOM     73  C   UNL A   1      39.024  33.600  38.138  1.00  0.00     0.031 A 
ATOM     74  C   UNL A   1      40.035  35.408  36.906  1.00  0.00     0.131 A 
ATOM     75  C   UNL A   1      38.830  34.478  39.215  1.00  0.00     0.055 A 
ATOM     76  C   UNL A   1      39.873  36.269  37.993  1.00  0.00     0.041 A 
ATOM     77  F   UNL A   1      40.622  35.896  35.802  1.00  0.00    -0.206 F 
ATOM     78  C   UNL A   1      39.261  35.806  39.155  1.00  0.00     0.022 A 
BRANCH  75  79
ATOM     79  S   UNL A   1      37.981  33.866  40.697  1.00  0.00     0.124 S 
ATOM     80  O   UNL A   1      37.024  32.926  40.122  1.00  0.00    -0.237 OA
ATOM     81  O   UNL A   1      39.080  33.281  41.457  1.00  0.00    -0.237 OA
ATOM     82  O   UNL A   1      37.399  35.074  41.277  1.00  0.00    -0.744 OA
ENDBRANCH  75  79
ENDBRANCH  48  72
BRANCH  60  83
ATOM     83  C   UNL A   1      44.219  29.018  35.516  1.00  0.00     0.023 A 
ATOM     84  C   UNL A   1      44.070  27.953  36.421  1.00  0.00     0.031 A 
ATOM     85  C   UNL A   1      45.508  29.533  35.296  1.00  0.00     0.131 A 
ATOM     86  C   UNL A   1      45.193  27.453  37.096  1.00  0.00     0.055 A 
ATOM     87  C   UNL A   1      46.627  29.004  35.939  1.00  0.00     0.041 A 
ATOM     88  F   UNL A   1      45.700  30.548  34.439  1.00  0.00    -0.206 F 
ATOM     89  C   UNL A   1      46.472  27.960  36.848  1.00  0.00     0.022 A 
BRANCH  86  90
ATOM     90  S   UNL A   1      44.957  26.144  38.328  1.00  0.00     0.124 S 
ATOM     91  O   UNL A   1      43.644  26.476  38.872  1.00  0.00    -0.237 OA
ATOM     92  O   UNL A   1      45.024  24.932  37.519  1.00  0.00    -0.237 OA
ATOM     93  O   UNL A   1      46.076  26.336  39.249  1.00  0.00    -0.744 OA
ENDBRANCH  86  90
ENDBRANCH  60  83
ENDBRANCH  34  35
ENDBRANCH  26  29
ENDBRANCH  24  25
ENDBRANCH   1  24
TORSDOF 16
ENDMDL
MODEL 2
REMARK VINA RESULT:     -12.0      2.566      3.463
REMARK SMILES Cc1nn(C)c(=O)c(C(=O)N[C@H](C)CC(=O)NCCCNC(=O)c2ccc(-c3c4nc(c(-c5cc(S(=O)(=O)[O-])ccc5F)c5ccc([nH]5)c(-c5cc(S(=O)(=O)[O-])ccc5F)c5nc(c(-c6cc(S(=O)(=O)[O-])ccc6F)c6ccc3[nH]6)C=C5)C=C4)cc2)c1C
REMARK SMILES IDX 19 1 18 2 17 3 15 4 16 5 14 7 12 8 13 9 11 10 9 11 10 12
REMARK SMILES IDX 8 14 1 15 2 16 3 17 87 18 4 19 88 20 5 21 6 22 7 23 20 24
REMARK SMILES IDX 21 25 22 26 23 28 24 29 25 30 86 31 26 32 85 33 27 34 28 35
REMARK SMILES IDX 29 36 79 37 30 38 84 39 78 40 80 41 31 42 83 43 77 44 76 45
REMARK SMILES IDX 32 47 64 48 44 49 63 50 45 51 48 52 62 53 81 54 46 55 47 56
REMARK SMILES IDX 61 58 82 59 49 60 33 61 34 62 42 63 35 64 41 65 43 66 40 67
REMARK SMILES IDX 36 68 37 69 38 70 39 71 65 72 66 73 74 74 67 75 73 76 75 77
REMARK SMILES IDX 72 78 68 79 69 80 70 81 71 82 50 83 51 84 59 85 52 86 58 87
REMARK SMILES IDX 60 88 57 89 53 90 54 91 55 92 56 93
REMARK H PARENT 17 6 11 13 21 27 80 46 48 57
REMARK Flexibility Score: inf
ROOT
ATOM      1  C   UNL A   1      31.344  28.590  24.985  1.00  0.00     0.042 C 
ENDROOT
BRANCH   1   2
ATOM      2  C   UNL A   1      31.342  28.962  23.503  1.00  0.00     0.117 C 
BRANCH   2   3
ATOM      3  N   UNL A   1      32.541  28.487  22.833  1.00  0.00    -0.356 N 
ATOM      4  C   UNL A   1      32.775  27.336  22.148  1.00  0.00     0.222 C 
ATOM      5  O   UNL A   1      33.913  27.137  21.718  1.00  0.00    -0.275 OA
ATOM      6  H   UNL A   1      33.311  29.098  22.883  1.00  0.00     0.163 HD
BRANCH   4   7
ATOM      7  C   UNL A   1      31.680  26.310  21.939  1.00  0.00     0.124 C 
BRANCH   7   8
ATOM      8  C   UNL A   1      31.870  25.105  22.863  1.00  0.00     0.088 C 
ATOM      9  C   UNL A   1      30.547  24.403  23.194  1.00  0.00     0.031 C 
BRANCH   8  10
ATOM     10  N   UNL A   1      32.780  24.111  22.282  1.00  0.00    -0.349 N 
ATOM     11  C   UNL A   1      32.905  22.814  22.719  1.00  0.00     0.257 C 
ATOM     12  O   UNL A   1      32.539  21.897  21.989  1.00  0.00    -0.269 OA
ATOM     13  H   UNL A   1      33.343  24.395  21.525  1.00  0.00     0.164 HD
BRANCH  11  14
ATOM     14  C   UNL A   1      33.708  22.548  23.946  1.00  0.00     0.111 A 
ATOM     15  C   UNL A   1      33.710  21.804  27.625  1.00  0.00     0.069 C 
ATOM     16  C   UNL A   1      34.204  21.858  26.195  1.00  0.00     0.062 A 
ATOM     17  N   UNL A   1      35.475  21.716  26.009  1.00  0.00    -0.175 NA
ATOM     18  C   UNL A   1      33.211  22.067  25.101  1.00  0.00    -0.010 A 
ATOM     19  N   UNL A   1      35.943  21.942  24.744  1.00  0.00    -0.232 N 
ATOM     20  C   UNL A   1      31.824  21.583  25.373  1.00  0.00     0.047 C 
ATOM     21  C   UNL A   1      37.341  21.627  24.521  1.00  0.00     0.178 C 
ATOM     22  C   UNL A   1      35.198  22.598  23.770  1.00  0.00     0.279 A 
ATOM     23  O   UNL A   1      35.706  23.136  22.787  1.00  0.00    -0.267 OA
ENDBRANCH  11  14
ENDBRANCH   8  10
ENDBRANCH   7   8
ENDBRANCH   4   7
ENDBRANCH   2   3
ENDBRANCH   1   2
BRANCH   1  24
ATOM     24  C   UNL A   1      32.466  29.244  25.783  1.00  0.00     0.118 C 
BRANCH  24  25
ATOM     25  N   UNL A   1      32.229  30.661  26.000  1.00  0.00    -0.352 N 
ATOM     26  C   UNL A   1      32.802  31.539  26.889  1.00  0.00     0.251 C 
ATOM     27  H   UNL A   1      31.547  31.059  25.412  1.00  0.00     0.163 HD
ATOM     28  O   UNL A   1      32.249  32.618  27.085  1.00  0.00    -0.269 OA
BRANCH  26  29
ATOM     29  C   UNL A   1      34.049  31.204  27.618  1.00  0.00     0.039 A 
ATOM     30  C   UNL A   1      34.270  29.875  27.997  1.00  0.00     0.014 A 
ATOM     31  C   UNL A   1      34.959  32.189  28.009  1.00  0.00     0.014 A 
ATOM     32  C   UNL A   1      35.415  29.533  28.725  1.00  0.00     0.010 A 
ATOM     33  C   UNL A   1      36.140  31.837  28.662  1.00  0.00     0.010 A 
ATOM     34  C   UNL A   1      36.373  30.509  29.046  1.00  0.00    -0.014 A 
BRANCH  34  35
ATOM     35  C   UNL A   1      37.587  30.168  29.833  1.00  0.00     0.031 A 
ATOM     36  C   UNL A   1      38.664  29.309  29.218  1.00  0.00     0.074 A 
ATOM     37  C   UNL A   1      37.716  30.603  31.101  1.00  0.00     0.049 A 
ATOM     38  N   UNL A   1      39.757  28.839  29.760  1.00  0.00    -0.248 NA
ATOM     39  C   UNL A   1      38.471  28.908  27.815  1.00  0.00     0.031 C 
ATOM     40  C   UNL A   1      36.738  31.428  31.815  1.00  0.00     0.029 A 
ATOM     41  N   UNL A   1      38.722  30.417  32.016  1.00  0.00    -0.354 N 
ATOM     42  C   UNL A   1      40.375  28.079  28.771  1.00  0.00     0.074 A 
ATOM     43  C   UNL A   1      39.505  28.105  27.616  1.00  0.00     0.031 C 
ATOM     44  C   UNL A   1      37.211  31.708  33.041  1.00  0.00     0.029 A 
ATOM     45  C   UNL A   1      38.501  31.049  33.219  1.00  0.00     0.049 A 
ATOM     46  H   UNL A   1      39.528  29.882  31.830  1.00  0.00     0.167 HD
ATOM     47  C   UNL A   1      41.569  27.441  28.813  1.00  0.00     0.034 A 
ATOM     48  C   UNL A   1      39.250  31.089  34.339  1.00  0.00     0.034 A 
ATOM     49  C   UNL A   1      42.447  27.449  29.955  1.00  0.00     0.049 A 
ATOM     50  C   UNL A   1      40.560  30.348  34.371  1.00  0.00     0.074 A 
ATOM     51  C   UNL A   1      43.698  26.870  30.084  1.00  0.00     0.029 A 
ATOM     52  N   UNL A   1      42.171  28.074  31.163  1.00  0.00    -0.354 N 
ATOM     53  N   UNL A   1      41.124  29.630  33.428  1.00  0.00    -0.248 NA
ATOM     54  C   UNL A   1      41.333  30.418  35.619  1.00  0.00     0.031 C 
ATOM     55  C   UNL A   1      44.155  27.101  31.385  1.00  0.00     0.029 A 
ATOM     56  C   UNL A   1      43.217  27.875  32.049  1.00  0.00     0.049 A 
ATOM     57  H   UNL A   1      41.353  28.583  31.361  1.00  0.00     0.167 HD
ATOM     58  C   UNL A   1      42.326  29.177  33.964  1.00  0.00     0.074 A 
ATOM     59  C   UNL A   1      42.410  29.709  35.309  1.00  0.00     0.031 C 
ATOM     60  C   UNL A   1      43.275  28.396  33.392  1.00  0.00     0.034 A 
BRANCH  47  61
ATOM     61  C   UNL A   1      41.993  26.675  27.586  1.00  0.00     0.023 A 
ATOM     62  C   UNL A   1      41.752  25.296  27.466  1.00  0.00     0.031 A 
ATOM     63  C   UNL A   1      42.637  27.331  26.524  1.00  0.00     0.131 A 
ATOM     64  C   UNL A   1      42.201  24.606  26.330  1.00  0.00     0.055 A 
ATOM     65  C   UNL A   1      43.021  26.652  25.366  1.00  0.00     0.041 A 
ATOM     66  F   UNL A   1      42.907  28.644  26.594  1.00  0.00    -0.206 F 
ATOM     67  C   UNL A   1      42.811  25.279  25.268  1.00  0.00     0.022 A 
BRANCH  64  68
ATOM     68  S   UNL A   1      42.054  22.800  26.296  1.00  0.00     0.124 S 
ATOM     69  O   UNL A   1      42.818  22.423  27.482  1.00  0.00    -0.237 OA
ATOM     70  O   UNL A   1      40.612  22.596  26.375  1.00  0.00    -0.237 OA
ATOM     71  O   UNL A   1      42.666  22.430  25.022  1.00  0.00    -0.744 OA
ENDBRANCH  64  68
ENDBRANCH  47  61
BRANCH  48  72
ATOM     72  C   UNL A   1      38.778  31.855  35.525  1.00  0.00     0.023 A 
ATOM     73  C   UNL A   1      38.153  31.203  36.599  1.00  0.00     0.031 A 
ATOM     74  C   UNL A   1      38.945  33.248  35.600  1.00  0.00     0.131 A 
ATOM     75  C   UNL A   1      37.696  31.949  37.697  1.00  0.00     0.055 A 
ATOM     76  C   UNL A   1      38.521  33.981  36.710  1.00  0.00     0.041 A 
ATOM     77  F   UNL A   1      39.546  33.914  34.601  1.00  0.00    -0.206 F 
ATOM     78  C   UNL A   1      37.886  33.331  37.765  1.00  0.00     0.022 A 
BRANCH  75  79
ATOM     79  S   UNL A   1      36.822  31.087  39.033  1.00  0.00     0.124 S 
ATOM     80  O   UNL A   1      37.783  31.184  40.126  1.00  0.00    -0.237 OA
ATOM     81  O   UNL A   1      35.610  31.887  39.169  1.00  0.00    -0.237 OA
ATOM     82  O   UNL A   1      36.621  29.743  38.495  1.00  0.00    -0.744 OA
ENDBRANCH  75  79
ENDBRANCH  48  72
BRANCH  60  83
ATOM     83  C   UNL A   1      44.497  28.082  34.212  1.00  0.00     0.023 A 
ATOM     84  C   UNL A   1      44.566  26.924  35.005  1.00  0.00     0.031 A 
ATOM     85  C   UNL A   1      45.620  28.926  34.164  1.00  0.00     0.131 A 
ATOM     86  C   UNL A   1      45.728  26.654  35.741  1.00  0.00     0.055 A 
ATOM     87  C   UNL A   1      46.788  28.631  34.865  1.00  0.00     0.041 A 
ATOM     88  F   UNL A   1      45.602  30.042  33.417  1.00  0.00    -0.206 F 
ATOM     89  C   UNL A   1      46.845  27.491  35.663  1.00  0.00     0.022 A 
BRANCH  86  90
ATOM     90  S   UNL A   1      45.753  25.204  36.829  1.00  0.00     0.124 S 
ATOM     91  O   UNL A   1      46.684  24.321  36.134  1.00  0.00    -0.237 OA
ATOM     92  O   UNL A   1      46.226  25.764  38.091  1.00  0.00    -0.237 OA
ATOM     93  O   UNL A   1      44.361  24.757  36.835  1.00  0.00    -0.744 OA
ENDBRANCH  86  90
ENDBRANCH  60  83
ENDBRANCH  34  35
ENDBRANCH  26  29
ENDBRANCH  24  25
ENDBRANCH   1  24
TORSDOF 16
ENDMDL
MODEL 3
REMARK VINA RESULT:     -11.9      5.647     10.934
REMARK SMILES Cc1nn(C)c(=O)c(C(=O)N[C@H](C)CC(=O)NCCCNC(=O)c2ccc(-c3c4nc(c(-c5cc(S(=O)(=O)[O-])ccc5F)c5ccc([nH]5)c(-c5cc(S(=O)(=O)[O-])ccc5F)c5nc(c(-c6cc(S(=O)(=O)[O-])ccc6F)c6ccc3[nH]6)C=C5)C=C4)cc2)c1C
REMARK SMILES IDX 19 1 18 2 17 3 15 4 16 5 14 7 12 8 13 9 11 10 9 11 10 12
REMARK SMILES IDX 8 14 1 15 2 16 3 17 87 18 4 19 88 20 5 21 6 22 7 23 20 24
REMARK SMILES IDX 21 25 22 26 23 28 24 29 25 30 86 31 26 32 85 33 27 34 28 35
REMARK SMILES IDX 29 36 79 37 30 38 84 39 78 40 80 41 31 42 83 43 77 44 76 45
REMARK SMILES IDX 32 47 64 48 44 49 63 50 45 51 48 52 62 53 81 54 46 55 47 56
REMARK SMILES IDX 61 58 82 59 49 60 33 61 34 62 42 63 35 64 41 65 43 66 40 67
REMARK SMILES IDX 36 68 37 69 38 70 39 71 65 72 66 73 74 74 67 75 73 76 75 77
REMARK SMILES IDX 72 78 68 79 69 80 70 81 71 82 50 83 51 84 59 85 52 86 58 87
REMARK SMILES IDX 60 88 57 89 53 90 54 91 55 92 56 93
REMARK H PARENT 17 6 11 13 21 27 80 46 48 57
REMARK Flexibility Score: inf
ROOT
ATOM      1  C   UNL A   1      34.645  21.639  26.534  1.00  0.00     0.042 C 
ENDROOT
BRANCH   1   2
ATOM      2  C   UNL A   1      33.621  20.863  25.707  1.00  0.00     0.117 C 
BRANCH   2   3
ATOM      3  N   UNL A   1      32.260  21.195  26.096  1.00  0.00    -0.356 N 
ATOM      4  C   UNL A   1      31.420  22.162  25.638  1.00  0.00     0.222 C 
ATOM      5  O   UNL A   1      30.320  22.279  26.182  1.00  0.00    -0.275 OA
ATOM      6  H   UNL A   1      31.884  20.627  26.807  1.00  0.00     0.163 HD
BRANCH   4   7
ATOM      7  C   UNL A   1      31.829  23.089  24.512  1.00  0.00     0.124 C 
BRANCH   7   8
ATOM      8  C   UNL A   1      32.729  24.216  25.025  1.00  0.00     0.088 C 
ATOM      9  C   UNL A   1      33.132  25.197  23.917  1.00  0.00     0.031 C 
BRANCH   8  10
ATOM     10  N   UNL A   1      32.085  24.981  26.099  1.00  0.00    -0.349 N 
ATOM     11  C   UNL A   1      30.956  25.748  25.945  1.00  0.00     0.257 C 
ATOM     12  O   UNL A   1      29.916  25.405  26.500  1.00  0.00    -0.269 OA
ATOM     13  H   UNL A   1      32.493  24.942  26.995  1.00  0.00     0.164 HD
BRANCH  11  14
ATOM     14  C   UNL A   1      31.089  27.098  25.326  1.00  0.00     0.111 A 
ATOM     15  C   UNL A   1      30.285  29.340  22.425  1.00  0.00     0.069 C 
ATOM     16  C   UNL A   1      30.653  28.934  23.835  1.00  0.00     0.062 A 
ATOM     17  N   UNL A   1      31.201  29.837  24.581  1.00  0.00    -0.175 NA
ATOM     18  C   UNL A   1      30.367  27.538  24.278  1.00  0.00    -0.010 A 
ATOM     19  N   UNL A   1      31.694  29.426  25.788  1.00  0.00    -0.232 N 
ATOM     20  C   UNL A   1      29.222  26.857  23.601  1.00  0.00     0.047 C 
ATOM     21  C   UNL A   1      32.161  30.476  26.672  1.00  0.00     0.178 C 
ATOM     22  C   UNL A   1      31.913  28.087  26.097  1.00  0.00     0.279 A 
ATOM     23  O   UNL A   1      32.681  27.722  26.986  1.00  0.00    -0.267 OA
ENDBRANCH  11  14
ENDBRANCH   8  10
ENDBRANCH   7   8
ENDBRANCH   4   7
ENDBRANCH   2   3
ENDBRANCH   1   2
BRANCH   1  24
ATOM     24  C   UNL A   1      35.888  22.046  25.750  1.00  0.00     0.118 C 
BRANCH  24  25
ATOM     25  N   UNL A   1      36.873  20.980  25.694  1.00  0.00    -0.352 N 
ATOM     26  C   UNL A   1      38.246  21.027  25.718  1.00  0.00     0.251 C 
ATOM     27  H   UNL A   1      36.495  20.073  25.630  1.00  0.00     0.163 HD
ATOM     28  O   UNL A   1      38.873  20.028  25.376  1.00  0.00    -0.269 OA
BRANCH  26  29
ATOM     29  C   UNL A   1      38.974  22.252  26.127  1.00  0.00     0.039 A 
ATOM     30  C   UNL A   1      38.467  23.497  25.740  1.00  0.00     0.014 A 
ATOM     31  C   UNL A   1      40.193  22.190  26.808  1.00  0.00     0.014 A 
ATOM     32  C   UNL A   1      39.154  24.670  26.072  1.00  0.00     0.010 A 
ATOM     33  C   UNL A   1      40.835  23.361  27.209  1.00  0.00     0.010 A 
ATOM     34  C   UNL A   1      40.335  24.614  26.829  1.00  0.00    -0.014 A 
BRANCH  34  35
ATOM     35  C   UNL A   1      41.088  25.849  27.176  1.00  0.00     0.031 A 
ATOM     36  C   UNL A   1      40.450  26.893  28.058  1.00  0.00     0.074 A 
ATOM     37  C   UNL A   1      42.326  26.046  26.685  1.00  0.00     0.049 A 
ATOM     38  N   UNL A   1      40.908  28.066  28.413  1.00  0.00    -0.248 NA
ATOM     39  C   UNL A   1      39.113  26.586  28.589  1.00  0.00     0.031 C 
ATOM     40  C   UNL A   1      43.046  25.119  25.809  1.00  0.00     0.029 A 
ATOM     41  N   UNL A   1      43.203  27.090  26.853  1.00  0.00    -0.354 N 
ATOM     42  C   UNL A   1      39.912  28.640  29.197  1.00  0.00     0.074 A 
ATOM     43  C   UNL A   1      38.805  27.710  29.218  1.00  0.00     0.031 C 
ATOM     44  C   UNL A   1      44.267  25.616  25.550  1.00  0.00     0.029 A 
ATOM     45  C   UNL A   1      44.402  26.916  26.201  1.00  0.00     0.049 A 
ATOM     46  H   UNL A   1      42.993  27.888  27.390  1.00  0.00     0.167 HD
ATOM     47  C   UNL A   1      39.930  29.821  29.862  1.00  0.00     0.034 A 
ATOM     48  C   UNL A   1      45.485  27.715  26.131  1.00  0.00     0.034 A 
ATOM     49  C   UNL A   1      41.050  30.726  29.867  1.00  0.00     0.049 A 
ATOM     50  C   UNL A   1      45.470  29.035  26.854  1.00  0.00     0.074 A 
ATOM     51  C   UNL A   1      41.185  31.926  30.542  1.00  0.00     0.029 A 
ATOM     52  N   UNL A   1      42.233  30.526  29.167  1.00  0.00    -0.354 N 
ATOM     53  N   UNL A   1      44.517  29.563  27.586  1.00  0.00    -0.248 NA
ATOM     54  C   UNL A   1      46.674  29.870  26.739  1.00  0.00     0.031 C 
ATOM     55  C   UNL A   1      42.427  32.478  30.211  1.00  0.00     0.029 A 
ATOM     56  C   UNL A   1      43.092  31.593  29.377  1.00  0.00     0.049 A 
ATOM     57  H   UNL A   1      42.432  29.744  28.605  1.00  0.00     0.167 HD
ATOM     58  C   UNL A   1      45.013  30.784  28.032  1.00  0.00     0.074 A 
ATOM     59  C   UNL A   1      46.352  30.912  27.495  1.00  0.00     0.031 C 
ATOM     60  C   UNL A   1      44.415  31.712  28.818  1.00  0.00     0.034 A 
BRANCH  47  61
ATOM     61  C   UNL A   1      38.694  30.203  30.636  1.00  0.00     0.023 A 
ATOM     62  C   UNL A   1      37.665  30.956  30.046  1.00  0.00     0.031 A 
ATOM     63  C   UNL A   1      38.540  29.803  31.974  1.00  0.00     0.131 A 
ATOM     64  C   UNL A   1      36.550  31.332  30.809  1.00  0.00     0.055 A 
ATOM     65  C   UNL A   1      37.397  30.124  32.710  1.00  0.00     0.041 A 
ATOM     66  F   UNL A   1      39.501  29.098  32.592  1.00  0.00    -0.206 F 
ATOM     67  C   UNL A   1      36.397  30.901  32.130  1.00  0.00     0.022 A 
BRANCH  64  68
ATOM     68  S   UNL A   1      35.341  32.469  30.079  1.00  0.00     0.124 S 
ATOM     69  O   UNL A   1      36.185  33.610  29.735  1.00  0.00    -0.237 OA
ATOM     70  O   UNL A   1      34.819  31.699  28.956  1.00  0.00    -0.237 OA
ATOM     71  O   UNL A   1      34.394  32.706  31.167  1.00  0.00    -0.744 OA
ENDBRANCH  64  68
ENDBRANCH  47  61
BRANCH  48  72
ATOM     72  C   UNL A   1      46.676  27.290  25.344  1.00  0.00     0.023 A 
ATOM     73  C   UNL A   1      46.872  27.750  24.034  1.00  0.00     0.031 A 
ATOM     74  C   UNL A   1      47.633  26.419  25.893  1.00  0.00     0.131 A 
ATOM     75  C   UNL A   1      47.990  27.319  23.302  1.00  0.00     0.055 A 
ATOM     76  C   UNL A   1      48.762  26.021  25.175  1.00  0.00     0.041 A 
ATOM     77  F   UNL A   1      47.494  25.961  27.147  1.00  0.00    -0.206 F 
ATOM     78  C   UNL A   1      48.942  26.467  23.868  1.00  0.00     0.022 A 
BRANCH  75  79
ATOM     79  S   UNL A   1      48.172  27.869  21.583  1.00  0.00     0.124 S 
ATOM     80  O   UNL A   1      48.330  26.600  20.882  1.00  0.00    -0.237 OA
ATOM     81  O   UNL A   1      46.917  28.578  21.356  1.00  0.00    -0.237 OA
ATOM     82  O   UNL A   1      49.363  28.714  21.622  1.00  0.00    -0.744 OA
ENDBRANCH  75  79
ENDBRANCH  48  72
BRANCH  60  83
ATOM     83  C   UNL A   1      45.211  32.943  29.161  1.00  0.00     0.023 A 
ATOM     84  C   UNL A   1      45.138  34.102  28.370  1.00  0.00     0.031 A 
ATOM     85  C   UNL A   1      46.013  32.970  30.315  1.00  0.00     0.131 A 
ATOM     86  C   UNL A   1      45.879  35.237  28.731  1.00  0.00     0.055 A 
ATOM     87  C   UNL A   1      46.715  34.115  30.691  1.00  0.00     0.041 A 
ATOM     88  F   UNL A   1      46.111  31.887  31.103  1.00  0.00    -0.206 F 
ATOM     89  C   UNL A   1      46.654  35.256  29.895  1.00  0.00     0.022 A 
BRANCH  86  90
ATOM     90  S   UNL A   1      45.842  36.685  27.640  1.00  0.00     0.124 S 
ATOM     91  O   UNL A   1      44.449  37.107  27.748  1.00  0.00    -0.237 OA
ATOM     92  O   UNL A   1      46.826  37.570  28.256  1.00  0.00    -0.237 OA
ATOM     93  O   UNL A   1      46.227  36.142  26.339  1.00  0.00    -0.744 OA
ENDBRANCH  86  90
ENDBRANCH  60  83
ENDBRANCH  34  35
ENDBRANCH  26  29
ENDBRANCH  24  25
ENDBRANCH   1  24
TORSDOF 16
ENDMDL
