MODEL 1
REMARK VINA RESULT:     -11.8      0.000      0.000
REMARK SMILES C[C@H](C[C@@H]1CCCC[NH2+]1)Nc1cc(C(=O)NCCCNC(=O)c2ccc(-c3c4nc(c(-c5cc(S(=O)(=O)[O-])ccc5F)c5ccc([nH]5)c(-c5cc(S(=O)(=O)[O-])ccc5F)c5nc(c(-c6cc(S(=O)(=O)[O-])ccc6F)c6ccc3[nH]6)C=C5)C=C4)cc2)ccc1F
REMARK SMILES IDX 17 1 16 2 14 3 15 4 13 6 11 7 12 8 88 9 87 10 89 11 86 12
REMARK SMILES IDX 10 13 2 15 1 16 3 17 4 18 5 19 9 20 6 21 8 22 7 25 18 26
REMARK SMILES IDX 19 27 20 28 21 29 22 31 23 32 24 33 85 34 25 35 84 36 26 37
REMARK SMILES IDX 27 38 28 39 78 40 29 41 83 42 77 43 79 44 30 45 82 46 76 47
REMARK SMILES IDX 75 48 31 50 63 51 43 52 62 53 44 54 47 55 61 56 80 57 45 58
REMARK SMILES IDX 46 59 60 61 81 62 48 63 32 64 33 65 41 66 34 67 40 68 42 69
REMARK SMILES IDX 39 70 35 71 36 72 37 73 38 74 64 75 65 76 73 77 66 78 72 79
REMARK SMILES IDX 74 80 71 81 67 82 68 83 69 84 70 85 49 86 50 87 58 88 51 89
REMARK SMILES IDX 57 90 59 91 56 92 52 93 53 94 54 95 55 96
REMARK H PARENT 16 5 10 14 9 23 9 24 20 30 79 49 47 60
REMARK Flexibility Score: inf
ROOT
ATOM      1  C   UNL A   1      33.320  22.100  26.533  1.00  0.00     0.118 C 
ENDROOT
BRANCH   1   2
ATOM      2  N   UNL A   1      33.019  21.174  25.459  1.00  0.00    -0.352 N 
ATOM      3  C   UNL A   1      32.611  21.371  24.167  1.00  0.00     0.251 C 
ATOM      4  O   UNL A   1      32.434  20.372  23.469  1.00  0.00    -0.269 OA
ATOM      5  H   UNL A   1      33.128  20.227  25.705  1.00  0.00     0.163 HD
BRANCH   3   6
ATOM      6  C   UNL A   1      32.459  22.721  23.556  1.00  0.00     0.042 A 
ATOM      7  C   UNL A   1      30.924  24.615  23.240  1.00  0.00     0.071 A 
ATOM      8  C   UNL A   1      31.252  23.383  23.826  1.00  0.00     0.042 A 
ATOM      9  C   UNL A   1      31.838  25.152  22.328  1.00  0.00     0.146 A 
ATOM     10  C   UNL A   1      33.081  24.560  22.117  1.00  0.00     0.042 A 
ATOM     11  F   UNL A   1      31.571  26.280  21.656  1.00  0.00    -0.205 F 
ATOM     12  C   UNL A   1      33.401  23.360  22.751  1.00  0.00     0.017 A 
BRANCH   7  13
ATOM     13  N   UNL A   1      29.692  25.143  23.560  1.00  0.00    -0.380 N 
ATOM     14  H   UNL A   1      28.909  24.694  23.167  1.00  0.00     0.160 HD
BRANCH  13  15
ATOM     15  C   UNL A   1      29.417  26.292  24.416  1.00  0.00     0.082 C 
ATOM     16  C   UNL A   1      29.269  27.538  23.542  1.00  0.00     0.031 C 
BRANCH  15  17
ATOM     17  C   UNL A   1      30.542  26.284  25.504  1.00  0.00     0.089 C 
BRANCH  17  18
ATOM     18  C   UNL A   1      31.508  27.473  25.633  1.00  0.00     0.184 C 
ATOM     19  C   UNL A   1      32.946  27.065  25.275  1.00  0.00     0.065 C 
ATOM     20  N   UNL A   1      31.341  28.090  26.948  1.00  0.00    -0.344 N 
ATOM     21  C   UNL A   1      33.955  28.143  25.647  1.00  0.00     0.012 C 
ATOM     22  C   UNL A   1      32.334  29.093  27.293  1.00  0.00     0.260 C 
ATOM     23  H   UNL A   1      31.380  27.352  27.651  1.00  0.00     0.346 HD
ATOM     24  H   UNL A   1      30.446  28.578  26.918  1.00  0.00     0.346 HD
ATOM     25  C   UNL A   1      33.751  28.570  27.094  1.00  0.00     0.062 C 
ENDBRANCH  17  18
ENDBRANCH  15  17
ENDBRANCH  13  15
ENDBRANCH   7  13
ENDBRANCH   3   6
ENDBRANCH   1   2
BRANCH   1  26
ATOM     26  C   UNL A   1      34.738  21.874  27.056  1.00  0.00     0.042 C 
BRANCH  26  27
ATOM     27  C   UNL A   1      35.810  22.241  26.036  1.00  0.00     0.118 C 
BRANCH  27  28
ATOM     28  N   UNL A   1      36.770  21.161  25.862  1.00  0.00    -0.352 N 
ATOM     29  C   UNL A   1      38.140  21.211  25.785  1.00  0.00     0.251 C 
ATOM     30  H   UNL A   1      36.378  20.261  25.788  1.00  0.00     0.163 HD
ATOM     31  O   UNL A   1      38.748  20.233  25.363  1.00  0.00    -0.269 OA
BRANCH  29  32
ATOM     32  C   UNL A   1      38.873  22.427  26.198  1.00  0.00     0.039 A 
ATOM     33  C   UNL A   1      39.990  22.290  27.027  1.00  0.00     0.014 A 
ATOM     34  C   UNL A   1      38.438  23.700  25.814  1.00  0.00     0.014 A 
ATOM     35  C   UNL A   1      40.698  23.425  27.430  1.00  0.00     0.010 A 
ATOM     36  C   UNL A   1      39.185  24.824  26.160  1.00  0.00     0.010 A 
ATOM     37  C   UNL A   1      40.317  24.699  26.978  1.00  0.00    -0.014 A 
BRANCH  37  38
ATOM     38  C   UNL A   1      41.085  25.912  27.357  1.00  0.00     0.031 A 
ATOM     39  C   UNL A   1      40.450  26.964  28.226  1.00  0.00     0.074 A 
ATOM     40  C   UNL A   1      42.334  26.085  26.884  1.00  0.00     0.049 A 
ATOM     41  N   UNL A   1      40.923  28.129  28.588  1.00  0.00    -0.248 NA
ATOM     42  C   UNL A   1      39.100  26.679  28.735  1.00  0.00     0.031 C 
ATOM     43  C   UNL A   1      43.046  25.140  26.020  1.00  0.00     0.029 A 
ATOM     44  N   UNL A   1      43.227  27.110  27.061  1.00  0.00    -0.354 N 
ATOM     45  C   UNL A   1      39.926  28.720  29.356  1.00  0.00     0.074 A 
ATOM     46  C   UNL A   1      38.804  27.806  29.367  1.00  0.00     0.031 C 
ATOM     47  C   UNL A   1      44.278  25.615  25.770  1.00  0.00     0.029 A 
ATOM     48  C   UNL A   1      44.427  26.916  26.414  1.00  0.00     0.049 A 
ATOM     49  H   UNL A   1      43.030  27.910  27.599  1.00  0.00     0.167 HD
ATOM     50  C   UNL A   1      39.953  29.907  30.009  1.00  0.00     0.034 A 
ATOM     51  C   UNL A   1      45.518  27.702  26.339  1.00  0.00     0.034 A 
ATOM     52  C   UNL A   1      41.086  30.797  30.010  1.00  0.00     0.049 A 
ATOM     53  C   UNL A   1      45.514  29.029  27.048  1.00  0.00     0.074 A 
ATOM     54  C   UNL A   1      41.228  32.005  30.672  1.00  0.00     0.029 A 
ATOM     55  N   UNL A   1      42.271  30.577  29.323  1.00  0.00    -0.354 N 
ATOM     56  N   UNL A   1      44.559  29.576  27.763  1.00  0.00    -0.248 NA
ATOM     57  C   UNL A   1      46.731  29.845  26.940  1.00  0.00     0.031 C 
ATOM     58  C   UNL A   1      42.478  32.539  30.341  1.00  0.00     0.029 A 
ATOM     59  C   UNL A   1      43.142  31.635  29.527  1.00  0.00     0.049 A 
ATOM     60  H   UNL A   1      42.465  29.784  28.772  1.00  0.00     0.167 HD
ATOM     61  C   UNL A   1      45.067  30.792  28.207  1.00  0.00     0.074 A 
ATOM     62  C   UNL A   1      46.413  30.898  27.683  1.00  0.00     0.031 C 
ATOM     63  C   UNL A   1      44.475  31.731  28.985  1.00  0.00     0.034 A 
BRANCH  50  64
ATOM     64  C   UNL A   1      38.716  30.318  30.766  1.00  0.00     0.023 A 
ATOM     65  C   UNL A   1      37.681  31.038  30.147  1.00  0.00     0.031 A 
ATOM     66  C   UNL A   1      38.562  29.964  32.118  1.00  0.00     0.131 A 
ATOM     67  C   UNL A   1      36.557  31.423  30.891  1.00  0.00     0.055 A 
ATOM     68  C   UNL A   1      37.411  30.295  32.836  1.00  0.00     0.041 A 
ATOM     69  F   UNL A   1      39.527  29.291  32.763  1.00  0.00    -0.206 F 
ATOM     70  C   UNL A   1      36.403  31.035  32.225  1.00  0.00     0.022 A 
BRANCH  67  71
ATOM     71  S   UNL A   1      35.328  32.507  30.115  1.00  0.00     0.124 S 
ATOM     72  O   UNL A   1      34.366  32.684  31.200  1.00  0.00    -0.237 OA
ATOM     73  O   UNL A   1      36.118  33.682  29.764  1.00  0.00    -0.237 OA
ATOM     74  O   UNL A   1      34.845  31.721  28.982  1.00  0.00    -0.744 OA
ENDBRANCH  67  71
ENDBRANCH  50  64
BRANCH  51  75
ATOM     75  C   UNL A   1      46.703  27.252  25.558  1.00  0.00     0.023 A 
ATOM     76  C   UNL A   1      46.910  27.700  24.245  1.00  0.00     0.031 A 
ATOM     77  C   UNL A   1      47.651  26.379  26.121  1.00  0.00     0.131 A 
ATOM     78  C   UNL A   1      48.032  27.257  23.527  1.00  0.00     0.055 A 
ATOM     79  C   UNL A   1      48.784  25.971  25.416  1.00  0.00     0.041 A 
ATOM     80  F   UNL A   1      47.501  25.936  27.379  1.00  0.00    -0.206 F 
ATOM     81  C   UNL A   1      48.977  26.406  24.109  1.00  0.00     0.022 A 
BRANCH  78  82
ATOM     82  S   UNL A   1      48.234  27.794  21.807  1.00  0.00     0.124 S 
ATOM     83  O   UNL A   1      46.969  28.475  21.559  1.00  0.00    -0.237 OA
ATOM     84  O   UNL A   1      49.416  28.646  21.890  1.00  0.00    -0.237 OA
ATOM     85  O   UNL A   1      48.426  26.541  21.079  1.00  0.00    -0.744 OA
ENDBRANCH  78  82
ENDBRANCH  51  75
BRANCH  63  86
ATOM     86  C   UNL A   1      45.287  32.945  29.345  1.00  0.00     0.023 A 
ATOM     87  C   UNL A   1      45.225  34.123  28.581  1.00  0.00     0.031 A 
ATOM     88  C   UNL A   1      46.093  32.937  30.496  1.00  0.00     0.131 A 
ATOM     89  C   UNL A   1      45.980  35.240  28.966  1.00  0.00     0.055 A 
ATOM     90  C   UNL A   1      46.807  34.066  30.899  1.00  0.00     0.041 A 
ATOM     91  F   UNL A   1      46.181  31.835  31.259  1.00  0.00    -0.206 F 
ATOM     92  C   UNL A   1      46.756  35.225  30.130  1.00  0.00     0.022 A 
BRANCH  89  93
ATOM     93  S   UNL A   1      45.957  36.715  27.911  1.00  0.00     0.124 S 
ATOM     94  O   UNL A   1      46.020  37.791  28.895  1.00  0.00    -0.237 OA
ATOM     95  O   UNL A   1      47.147  36.534  27.087  1.00  0.00    -0.237 OA
ATOM     96  O   UNL A   1      44.687  36.603  27.194  1.00  0.00    -0.744 OA
ENDBRANCH  89  93
ENDBRANCH  63  86
ENDBRANCH  37  38
ENDBRANCH  29  32
ENDBRANCH  27  28
ENDBRANCH  26  27
ENDBRANCH   1  26
TORSDOF 17
ENDMDL
MODEL 2
REMARK VINA RESULT:     -11.7      5.028     10.238
REMARK SMILES C[C@H](C[C@@H]1CCCC[NH2+]1)Nc1cc(C(=O)NCCCNC(=O)c2ccc(-c3c4nc(c(-c5cc(S(=O)(=O)[O-])ccc5F)c5ccc([nH]5)c(-c5cc(S(=O)(=O)[O-])ccc5F)c5nc(c(-c6cc(S(=O)(=O)[O-])ccc6F)c6ccc3[nH]6)C=C5)C=C4)cc2)ccc1F
REMARK SMILES IDX 17 1 16 2 14 3 15 4 13 6 11 7 12 8 88 9 87 10 89 11 86 12
REMARK SMILES IDX 10 13 2 15 1 16 3 17 4 18 5 19 9 20 6 21 8 22 7 25 18 26
REMARK SMILES IDX 19 27 20 28 21 29 22 31 23 32 24 33 85 34 25 35 84 36 26 37
REMARK SMILES IDX 27 38 28 39 78 40 29 41 83 42 77 43 79 44 30 45 82 46 76 47
REMARK SMILES IDX 75 48 31 50 63 51 43 52 62 53 44 54 47 55 61 56 80 57 45 58
REMARK SMILES IDX 46 59 60 61 81 62 48 63 32 64 33 65 41 66 34 67 40 68 42 69
REMARK SMILES IDX 39 70 35 71 36 72 37 73 38 74 64 75 65 76 73 77 66 78 72 79
REMARK SMILES IDX 74 80 71 81 67 82 68 83 69 84 70 85 49 86 50 87 58 88 51 89
REMARK SMILES IDX 57 90 59 91 56 92 52 93 53 94 54 95 55 96
REMARK H PARENT 16 5 10 14 9 23 9 24 20 30 79 49 47 60
REMARK Flexibility Score: inf
ROOT
ATOM      1  C   UNL A   1      33.759  27.769  22.923  1.00  0.00     0.118 C 
ENDROOT
BRANCH   1   2
ATOM      2  N   UNL A   1      33.034  27.238  21.785  1.00  0.00    -0.352 N 
ATOM      3  C   UNL A   1      32.206  26.156  21.650  1.00  0.00     0.251 C 
ATOM      4  O   UNL A   1      31.720  25.949  20.538  1.00  0.00    -0.269 OA
ATOM      5  H   UNL A   1      33.161  27.752  20.955  1.00  0.00     0.163 HD
BRANCH   3   6
ATOM      6  C   UNL A   1      31.809  25.285  22.791  1.00  0.00     0.042 A 
ATOM      7  C   UNL A   1      32.253  23.154  23.934  1.00  0.00     0.071 A 
ATOM      8  C   UNL A   1      32.570  24.119  22.966  1.00  0.00     0.042 A 
ATOM      9  C   UNL A   1      31.108  23.375  24.706  1.00  0.00     0.146 A 
ATOM     10  C   UNL A   1      30.394  24.567  24.614  1.00  0.00     0.042 A 
ATOM     11  F   UNL A   1      30.680  22.467  25.595  1.00  0.00    -0.205 F 
ATOM     12  C   UNL A   1      30.761  25.532  23.677  1.00  0.00     0.017 A 
BRANCH   7  13
ATOM     13  N   UNL A   1      33.059  22.037  23.979  1.00  0.00    -0.380 N 
ATOM     14  H   UNL A   1      33.267  21.614  23.114  1.00  0.00     0.160 HD
BRANCH  13  15
ATOM     15  C   UNL A   1      33.638  21.410  25.162  1.00  0.00     0.082 C 
ATOM     16  C   UNL A   1      35.155  21.334  24.991  1.00  0.00     0.031 C 
BRANCH  15  17
ATOM     17  C   UNL A   1      32.849  20.073  25.356  1.00  0.00     0.089 C 
BRANCH  17  18
ATOM     18  C   UNL A   1      33.524  18.722  25.065  1.00  0.00     0.184 C 
ATOM     19  C   UNL A   1      33.356  18.322  23.591  1.00  0.00     0.065 C 
ATOM     20  N   UNL A   1      33.066  17.733  26.039  1.00  0.00    -0.344 N 
ATOM     21  C   UNL A   1      33.780  16.881  23.340  1.00  0.00     0.012 C 
ATOM     22  C   UNL A   1      33.456  16.361  25.761  1.00  0.00     0.260 C 
ATOM     23  H   UNL A   1      32.047  17.771  26.074  1.00  0.00     0.346 HD
ATOM     24  H   UNL A   1      33.513  17.980  26.923  1.00  0.00     0.346 HD
ATOM     25  C   UNL A   1      33.097  15.956  24.338  1.00  0.00     0.062 C 
ENDBRANCH  17  18
ENDBRANCH  15  17
ENDBRANCH  13  15
ENDBRANCH   7  13
ENDBRANCH   3   6
ENDBRANCH   1   2
BRANCH   1  26
ATOM     26  C   UNL A   1      32.984  28.920  23.563  1.00  0.00     0.042 C 
BRANCH  26  27
ATOM     27  C   UNL A   1      33.340  29.129  25.031  1.00  0.00     0.118 C 
BRANCH  27  28
ATOM     28  N   UNL A   1      32.741  30.347  25.555  1.00  0.00    -0.352 N 
ATOM     29  C   UNL A   1      33.023  31.035  26.709  1.00  0.00     0.251 C 
ATOM     30  H   UNL A   1      32.027  30.734  25.000  1.00  0.00     0.163 HD
ATOM     31  O   UNL A   1      32.226  31.878  27.109  1.00  0.00    -0.269 OA
BRANCH  29  32
ATOM     32  C   UNL A   1      34.266  30.763  27.463  1.00  0.00     0.039 A 
ATOM     33  C   UNL A   1      35.179  31.803  27.654  1.00  0.00     0.014 A 
ATOM     34  C   UNL A   1      34.557  29.481  27.940  1.00  0.00     0.014 A 
ATOM     35  C   UNL A   1      36.360  31.569  28.362  1.00  0.00     0.010 A 
ATOM     36  C   UNL A   1      35.701  29.265  28.705  1.00  0.00     0.010 A 
ATOM     37  C   UNL A   1      36.617  30.305  28.917  1.00  0.00    -0.014 A 
BRANCH  37  38
ATOM     38  C   UNL A   1      37.844  30.049  29.714  1.00  0.00     0.031 A 
ATOM     39  C   UNL A   1      38.955  29.214  29.139  1.00  0.00     0.074 A 
ATOM     40  C   UNL A   1      37.936  30.532  30.969  1.00  0.00     0.049 A 
ATOM     41  N   UNL A   1      40.059  28.805  29.710  1.00  0.00    -0.248 NA
ATOM     42  C   UNL A   1      38.794  28.761  27.749  1.00  0.00     0.031 C 
ATOM     43  C   UNL A   1      36.915  31.340  31.638  1.00  0.00     0.029 A 
ATOM     44  N   UNL A   1      38.932  30.417  31.904  1.00  0.00    -0.354 N 
ATOM     45  C   UNL A   1      40.717  28.038  28.755  1.00  0.00     0.074 A 
ATOM     46  C   UNL A   1      39.866  27.999  27.585  1.00  0.00     0.031 C 
ATOM     47  C   UNL A   1      37.352  31.676  32.863  1.00  0.00     0.029 A 
ATOM     48  C   UNL A   1      38.660  31.068  33.085  1.00  0.00     0.049 A 
ATOM     49  H   UNL A   1      39.764  29.915  31.746  1.00  0.00     0.167 HD
ATOM     50  C   UNL A   1      41.930  27.439  28.840  1.00  0.00     0.034 A 
ATOM     51  C   UNL A   1      39.377  31.157  34.222  1.00  0.00     0.034 A 
ATOM     52  C   UNL A   1      42.779  27.506  30.002  1.00  0.00     0.049 A 
ATOM     53  C   UNL A   1      40.708  30.460  34.303  1.00  0.00     0.074 A 
ATOM     54  C   UNL A   1      44.043  26.967  30.175  1.00  0.00     0.029 A 
ATOM     55  N   UNL A   1      42.457  28.154  31.186  1.00  0.00    -0.354 N 
ATOM     56  N   UNL A   1      41.312  29.732  33.393  1.00  0.00    -0.248 NA
ATOM     57  C   UNL A   1      41.453  30.593  35.562  1.00  0.00     0.031 C 
ATOM     58  C   UNL A   1      44.460  27.243  31.481  1.00  0.00     0.029 A 
ATOM     59  C   UNL A   1      43.486  28.011  32.101  1.00  0.00     0.049 A 
ATOM     60  H   UNL A   1      41.619  28.645  31.350  1.00  0.00     0.167 HD
ATOM     61  C   UNL A   1      42.517  29.336  33.962  1.00  0.00     0.074 A 
ATOM     62  C   UNL A   1      42.558  29.908  35.293  1.00  0.00     0.031 C 
ATOM     63  C   UNL A   1      43.504  28.576  33.428  1.00  0.00     0.034 A 
BRANCH  50  64
ATOM     64  C   UNL A   1      42.406  26.650  27.648  1.00  0.00     0.023 A 
ATOM     65  C   UNL A   1      42.084  25.291  27.491  1.00  0.00     0.031 A 
ATOM     66  C   UNL A   1      43.173  27.270  26.646  1.00  0.00     0.131 A 
ATOM     67  C   UNL A   1      42.565  24.584  26.380  1.00  0.00     0.055 A 
ATOM     68  C   UNL A   1      43.595  26.575  25.510  1.00  0.00     0.041 A 
ATOM     69  F   UNL A   1      43.524  28.560  26.754  1.00  0.00    -0.206 F 
ATOM     70  C   UNL A   1      43.298  25.223  25.376  1.00  0.00     0.022 A 
BRANCH  67  71
ATOM     71  S   UNL A   1      42.287  22.794  26.301  1.00  0.00     0.124 S 
ATOM     72  O   UNL A   1      40.847  22.711  26.535  1.00  0.00    -0.237 OA
ATOM     73  O   UNL A   1      42.735  22.462  24.953  1.00  0.00    -0.237 OA
ATOM     74  O   UNL A   1      43.120  22.270  27.380  1.00  0.00    -0.744 OA
ENDBRANCH  67  71
ENDBRANCH  50  64
BRANCH  51  75
ATOM     75  C   UNL A   1      38.846  31.935  35.374  1.00  0.00     0.023 A 
ATOM     76  C   UNL A   1      38.266  31.285  36.474  1.00  0.00     0.031 A 
ATOM     77  C   UNL A   1      38.925  33.338  35.397  1.00  0.00     0.131 A 
ATOM     78  C   UNL A   1      37.767  32.040  37.546  1.00  0.00     0.055 A 
ATOM     79  C   UNL A   1      38.461  34.084  36.482  1.00  0.00     0.041 A 
ATOM     80  F   UNL A   1      39.484  34.003  34.373  1.00  0.00    -0.206 F 
ATOM     81  C   UNL A   1      37.873  33.434  37.563  1.00  0.00     0.022 A 
BRANCH  78  82
ATOM     82  S   UNL A   1      36.956  31.176  38.919  1.00  0.00     0.124 S 
ATOM     83  O   UNL A   1      37.888  31.419  40.013  1.00  0.00    -0.237 OA
ATOM     84  O   UNL A   1      35.674  31.868  39.001  1.00  0.00    -0.237 OA
ATOM     85  O   UNL A   1      36.882  29.793  38.453  1.00  0.00    -0.744 OA
ENDBRANCH  78  82
ENDBRANCH  51  75
BRANCH  63  86
ATOM     86  C   UNL A   1      44.729  28.340  34.269  1.00  0.00     0.023 A 
ATOM     87  C   UNL A   1      44.839  27.219  35.109  1.00  0.00     0.031 A 
ATOM     88  C   UNL A   1      45.819  29.224  34.189  1.00  0.00     0.131 A 
ATOM     89  C   UNL A   1      46.008  27.024  35.857  1.00  0.00     0.055 A 
ATOM     90  C   UNL A   1      46.998  29.000  34.901  1.00  0.00     0.041 A 
ATOM     91  F   UNL A   1      45.762  30.307  33.397  1.00  0.00    -0.206 F 
ATOM     92  C   UNL A   1      47.095  27.897  35.745  1.00  0.00     0.022 A 
BRANCH  89  93
ATOM     93  S   UNL A   1      46.087  25.622  37.005  1.00  0.00     0.124 S 
ATOM     94  O   UNL A   1      47.433  25.755  37.552  1.00  0.00    -0.237 OA
ATOM     95  O   UNL A   1      44.993  25.905  37.927  1.00  0.00    -0.237 OA
ATOM     96  O   UNL A   1      45.880  24.460  36.141  1.00  0.00    -0.744 OA
ENDBRANCH  89  93
ENDBRANCH  63  86
ENDBRANCH  37  38
ENDBRANCH  29  32
ENDBRANCH  27  28
ENDBRANCH  26  27
ENDBRANCH   1  26
TORSDOF 17
ENDMDL
MODEL 3
REMARK VINA RESULT:     -11.7      5.581     10.823
REMARK SMILES C[C@H](C[C@@H]1CCCC[NH2+]1)Nc1cc(C(=O)NCCCNC(=O)c2ccc(-c3c4nc(c(-c5cc(S(=O)(=O)[O-])ccc5F)c5ccc([nH]5)c(-c5cc(S(=O)(=O)[O-])ccc5F)c5nc(c(-c6cc(S(=O)(=O)[O-])ccc6F)c6ccc3[nH]6)C=C5)C=C4)cc2)ccc1F
REMARK SMILES IDX 17 1 16 2 14 3 15 4 13 6 11 7 12 8 88 9 87 10 89 11 86 12
REMARK SMILES IDX 10 13 2 15 1 16 3 17 4 18 5 19 9 20 6 21 8 22 7 25 18 26
REMARK SMILES IDX 19 27 20 28 21 29 22 31 23 32 24 33 85 34 25 35 84 36 26 37
REMARK SMILES IDX 27 38 28 39 78 40 29 41 83 42 77 43 79 44 30 45 82 46 76 47
REMARK SMILES IDX 75 48 31 50 63 51 43 52 62 53 44 54 47 55 61 56 80 57 45 58
REMARK SMILES IDX 46 59 60 61 81 62 48 63 32 64 33 65 41 66 34 67 40 68 42 69
REMARK SMILES IDX 39 70 35 71 36 72 37 73 38 74 64 75 65 76 73 77 66 78 72 79
REMARK SMILES IDX 74 80 71 81 67 82 68 83 69 84 70 85 49 86 50 87 58 88 51 89
REMARK SMILES IDX 57 90 59 91 56 92 52 93 53 94 54 95 55 96
REMARK H PARENT 16 5 10 14 9 23 9 24 20 30 79 49 47 60
REMARK Flexibility Score: inf
ROOT
ATOM      1  C   UNL A   1      31.627  30.543  26.217  1.00  0.00     0.118 C 
ENDROOT
BRANCH   1   2
ATOM      2  N   UNL A   1      32.902  30.032  26.681  1.00  0.00    -0.352 N 
ATOM      3  C   UNL A   1      33.765  29.107  26.156  1.00  0.00     0.251 C 
ATOM      4  O   UNL A   1      34.798  28.874  26.784  1.00  0.00    -0.269 OA
ATOM      5  H   UNL A   1      33.204  30.424  27.532  1.00  0.00     0.163 HD
BRANCH   3   6
ATOM      6  C   UNL A   1      33.550  28.448  24.838  1.00  0.00     0.042 A 
ATOM      7  C   UNL A   1      33.131  26.301  23.717  1.00  0.00     0.071 A 
ATOM      8  C   UNL A   1      33.259  27.076  24.879  1.00  0.00     0.042 A 
ATOM      9  C   UNL A   1      33.349  26.942  22.493  1.00  0.00     0.146 A 
ATOM     10  C   UNL A   1      33.546  28.319  22.424  1.00  0.00     0.042 A 
ATOM     11  F   UNL A   1      33.333  26.263  21.338  1.00  0.00    -0.205 F 
ATOM     12  C   UNL A   1      33.619  29.075  23.594  1.00  0.00     0.017 A 
BRANCH   7  13
ATOM     13  N   UNL A   1      32.880  24.958  23.895  1.00  0.00    -0.380 N 
ATOM     14  H   UNL A   1      32.873  24.634  24.826  1.00  0.00     0.160 HD
BRANCH  13  15
ATOM     15  C   UNL A   1      32.624  23.960  22.862  1.00  0.00     0.082 C 
ATOM     16  C   UNL A   1      31.412  23.122  23.270  1.00  0.00     0.031 C 
BRANCH  15  17
ATOM     17  C   UNL A   1      33.988  23.226  22.641  1.00  0.00     0.089 C 
BRANCH  17  18
ATOM     18  C   UNL A   1      34.880  22.864  23.839  1.00  0.00     0.184 C 
ATOM     19  C   UNL A   1      36.357  22.772  23.427  1.00  0.00     0.065 C 
ATOM     20  N   UNL A   1      34.340  21.678  24.503  1.00  0.00    -0.344 N 
ATOM     21  C   UNL A   1      37.219  22.162  24.524  1.00  0.00     0.012 C 
ATOM     22  C   UNL A   1      35.194  21.096  25.524  1.00  0.00     0.260 C 
ATOM     23  H   UNL A   1      34.169  20.968  23.792  1.00  0.00     0.346 HD
ATOM     24  H   UNL A   1      33.495  21.986  24.985  1.00  0.00     0.346 HD
ATOM     25  C   UNL A   1      36.605  20.854  25.002  1.00  0.00     0.062 C 
ENDBRANCH  17  18
ENDBRANCH  15  17
ENDBRANCH  13  15
ENDBRANCH   7  13
ENDBRANCH   3   6
ENDBRANCH   1   2
BRANCH   1  26
ATOM     26  C   UNL A   1      31.471  32.017  26.590  1.00  0.00     0.042 C 
BRANCH  26  27
ATOM     27  C   UNL A   1      32.752  32.624  27.152  1.00  0.00     0.118 C 
BRANCH  27  28
ATOM     28  N   UNL A   1      32.543  33.997  27.585  1.00  0.00    -0.352 N 
ATOM     29  C   UNL A   1      33.082  34.670  28.653  1.00  0.00     0.251 C 
ATOM     30  H   UNL A   1      31.923  34.522  27.029  1.00  0.00     0.163 HD
ATOM     31  O   UNL A   1      32.573  35.729  29.008  1.00  0.00    -0.269 OA
BRANCH  29  32
ATOM     32  C   UNL A   1      34.255  34.126  29.372  1.00  0.00     0.039 A 
ATOM     33  C   UNL A   1      34.042  33.286  30.468  1.00  0.00     0.014 A 
ATOM     34  C   UNL A   1      35.557  34.476  29.002  1.00  0.00     0.014 A 
ATOM     35  C   UNL A   1      35.134  32.761  31.162  1.00  0.00     0.010 A 
ATOM     36  C   UNL A   1      36.645  33.897  29.651  1.00  0.00     0.010 A 
ATOM     37  C   UNL A   1      36.444  33.040  30.742  1.00  0.00    -0.014 A 
BRANCH  37  38
ATOM     38  C   UNL A   1      37.618  32.453  31.438  1.00  0.00     0.031 A 
ATOM     39  C   UNL A   1      38.376  31.316  30.809  1.00  0.00     0.074 A 
ATOM     40  C   UNL A   1      37.971  32.914  32.654  1.00  0.00     0.049 A 
ATOM     41  N   UNL A   1      39.365  30.614  31.298  1.00  0.00    -0.248 NA
ATOM     42  C   UNL A   1      37.952  30.900  29.463  1.00  0.00     0.031 C 
ATOM     43  C   UNL A   1      37.300  34.001  33.371  1.00  0.00     0.029 A 
ATOM     44  N   UNL A   1      38.979  32.532  33.501  1.00  0.00    -0.354 N 
ATOM     45  C   UNL A   1      39.674  29.667  30.328  1.00  0.00     0.074 A 
ATOM     46  C   UNL A   1      38.735  29.853  29.242  1.00  0.00     0.031 C 
ATOM     47  C   UNL A   1      37.936  34.220  34.533  1.00  0.00     0.029 A 
ATOM     48  C   UNL A   1      39.027  33.260  34.667  1.00  0.00     0.049 A 
ATOM     49  H   UNL A   1      39.609  31.805  33.295  1.00  0.00     0.167 HD
ATOM     50  C   UNL A   1      40.663  28.741  30.335  1.00  0.00     0.034 A 
ATOM     51  C   UNL A   1      39.850  33.160  35.730  1.00  0.00     0.034 A 
ATOM     52  C   UNL A   1      41.607  28.581  31.411  1.00  0.00     0.049 A 
ATOM     53  C   UNL A   1      40.922  32.105  35.727  1.00  0.00     0.074 A 
ATOM     54  C   UNL A   1      42.671  27.699  31.498  1.00  0.00     0.029 A 
ATOM     55  N   UNL A   1      41.606  29.321  32.585  1.00  0.00    -0.354 N 
ATOM     56  N   UNL A   1      41.194  31.212  34.804  1.00  0.00    -0.248 NA
ATOM     57  C   UNL A   1      41.796  32.041  36.906  1.00  0.00     0.031 C 
ATOM     58  C   UNL A   1      43.278  27.869  32.745  1.00  0.00     0.029 A 
ATOM     59  C   UNL A   1      42.636  28.901  33.411  1.00  0.00     0.049 A 
ATOM     60  H   UNL A   1      40.967  30.039  32.799  1.00  0.00     0.167 HD
ATOM     61  C   UNL A   1      42.284  30.493  35.282  1.00  0.00     0.074 A 
ATOM     62  C   UNL A   1      42.622  31.056  36.574  1.00  0.00     0.031 C 
ATOM     63  C   UNL A   1      42.950  29.465  34.701  1.00  0.00     0.034 A 
BRANCH  50  64
ATOM     64  C   UNL A   1      40.768  27.820  29.145  1.00  0.00     0.023 A 
ATOM     65  C   UNL A   1      41.678  28.068  28.104  1.00  0.00     0.031 A 
ATOM     66  C   UNL A   1      39.963  26.671  29.064  1.00  0.00     0.131 A 
ATOM     67  C   UNL A   1      41.730  27.202  27.002  1.00  0.00     0.055 A 
ATOM     68  C   UNL A   1      40.065  25.778  27.995  1.00  0.00     0.041 A 
ATOM     69  F   UNL A   1      39.066  26.396  30.023  1.00  0.00    -0.206 F 
ATOM     70  C   UNL A   1      40.946  26.046  26.952  1.00  0.00     0.022 A 
BRANCH  67  71
ATOM     71  S   UNL A   1      42.779  27.648  25.592  1.00  0.00     0.124 S 
ATOM     72  O   UNL A   1      44.041  27.968  26.257  1.00  0.00    -0.237 OA
ATOM     73  O   UNL A   1      42.771  26.430  24.792  1.00  0.00    -0.237 OA
ATOM     74  O   UNL A   1      42.088  28.789  24.998  1.00  0.00    -0.744 OA
ENDBRANCH  67  71
ENDBRANCH  50  64
BRANCH  51  75
ATOM     75  C   UNL A   1      39.685  34.084  36.885  1.00  0.00     0.023 A 
ATOM     76  C   UNL A   1      39.080  33.648  38.074  1.00  0.00     0.031 A 
ATOM     77  C   UNL A   1      40.142  35.412  36.819  1.00  0.00     0.131 A 
ATOM     78  C   UNL A   1      38.931  34.540  39.147  1.00  0.00     0.055 A 
ATOM     79  C   UNL A   1      40.025  36.284  37.902  1.00  0.00     0.041 A 
ATOM     80  F   UNL A   1      40.739  35.869  35.707  1.00  0.00    -0.206 F 
ATOM     81  C   UNL A   1      39.411  35.851  39.074  1.00  0.00     0.022 A 
BRANCH  78  82
ATOM     82  S   UNL A   1      38.079  33.969  40.643  1.00  0.00     0.124 S 
ATOM     83  O   UNL A   1      36.984  33.188  40.080  1.00  0.00    -0.237 OA
ATOM     84  O   UNL A   1      39.127  33.211  41.319  1.00  0.00    -0.237 OA
ATOM     85  O   UNL A   1      37.688  35.211  41.307  1.00  0.00    -0.744 OA
ENDBRANCH  78  82
ENDBRANCH  51  75
BRANCH  63  86
ATOM     86  C   UNL A   1      44.131  28.898  35.440  1.00  0.00     0.023 A 
ATOM     87  C   UNL A   1      43.991  27.827  36.339  1.00  0.00     0.031 A 
ATOM     88  C   UNL A   1      45.420  29.406  35.202  1.00  0.00     0.131 A 
ATOM     89  C   UNL A   1      45.123  27.313  36.988  1.00  0.00     0.055 A 
ATOM     90  C   UNL A   1      46.548  28.861  35.817  1.00  0.00     0.041 A 
ATOM     91  F   UNL A   1      45.604  30.427  34.349  1.00  0.00    -0.206 F 
ATOM     92  C   UNL A   1      46.402  27.811  36.719  1.00  0.00     0.022 A 
BRANCH  89  93
ATOM     93  S   UNL A   1      44.902  25.995  38.213  1.00  0.00     0.124 S 
ATOM     94  O   UNL A   1      43.801  26.513  39.019  1.00  0.00    -0.237 OA
ATOM     95  O   UNL A   1      44.593  24.837  37.381  1.00  0.00    -0.237 OA
ATOM     96  O   UNL A   1      46.196  25.938  38.892  1.00  0.00    -0.744 OA
ENDBRANCH  89  93
ENDBRANCH  63  86
ENDBRANCH  37  38
ENDBRANCH  29  32
ENDBRANCH  27  28
ENDBRANCH  26  27
ENDBRANCH   1  26
TORSDOF 17
ENDMDL
