MODEL 1
REMARK VINA RESULT:     -12.9      0.000      0.000
REMARK SMILES COc1cc([C@@H]2[NH2+][C@H](C(=O)NCCCNC(=O)c3ccc(-c4c5nc(c(-c6cc(S(=O)(=O)[O-])ccc6F)c6ccc([nH]6)c(-c6cc(S(=O)(=O)[O-])ccc6F)c6nc(c(-c7cc(S(=O)(=O)[O-])ccc7F)c7ccc4[nH]7)C=C6)C=C5)cc3)CS2)ccc1OCc1ccc(Cl)cc1
REMARK SMILES IDX 12 1 11 2 9 3 10 4 8 6 6 7 7 8 82 9 81 12 5 13 3 14 4 15
REMARK SMILES IDX 85 16 84 17 83 18 2 19 1 20 86 21 87 22 88 23 89 24 94 25
REMARK SMILES IDX 90 26 93 27 91 28 92 29 13 30 14 31 15 32 16 33 17 35 18 36
REMARK SMILES IDX 19 37 80 38 20 39 79 40 21 41 22 42 23 43 73 44 24 45 78 46
REMARK SMILES IDX 72 47 74 48 25 49 77 50 71 51 70 52 26 54 58 55 38 56 57 57
REMARK SMILES IDX 39 58 42 59 56 60 75 61 40 62 41 63 55 65 76 66 43 67 27 68
REMARK SMILES IDX 28 69 36 70 29 71 35 72 37 73 34 74 30 75 31 76 32 77 33 78
REMARK SMILES IDX 59 79 60 80 68 81 61 82 67 83 69 84 66 85 62 86 63 87 64 88
REMARK SMILES IDX 65 89 44 90 45 91 53 92 46 93 52 94 54 95 51 96 47 97 48 98
REMARK SMILES IDX 49 99 50 100
REMARK H PARENT 11 5 7 10 7 11 15 34 74 53 42 64
REMARK Flexibility Score: inf
ROOT
ATOM      1  C   UNL A   1      35.137  25.051  25.078  1.00  0.00     0.118 C 
ENDROOT
BRANCH   1   2
ATOM      2  N   UNL A   1      33.330  24.883  26.084  1.00  0.00    -0.351 N 
ATOM      3  C   UNL A   1      32.318  24.111  26.736  1.00  0.00     0.279 C 
ATOM      4  O   UNL A   1      31.438  24.808  27.278  1.00  0.00    -0.268 OA
ATOM      5  H   UNL A   1      33.002  25.810  26.145  1.00  0.00     0.163 HD
BRANCH   3   6
ATOM      6  C   UNL A   1      32.165  22.539  26.879  1.00  0.00     0.283 C 
ATOM      7  C   UNL A   1      30.896  22.016  25.029  1.00  0.00     0.274 C 
ATOM      8  N   UNL A   1      30.810  22.051  26.484  1.00  0.00    -0.321 N 
ATOM      9  S   UNL A   1      32.316  20.929  24.753  1.00  0.00    -0.088 SA
ATOM     10  H   UNL A   1      30.627  21.122  26.866  1.00  0.00     0.348 HD
ATOM     11  H   UNL A   1      30.051  22.636  26.832  1.00  0.00     0.348 HD
ATOM     12  C   UNL A   1      33.216  21.669  26.167  1.00  0.00     0.151 C 
BRANCH   7  13
ATOM     13  C   UNL A   1      31.169  23.441  24.631  1.00  0.00     0.024 A 
ATOM     14  C   UNL A   1      32.347  25.238  22.309  1.00  0.00     0.161 A 
ATOM     15  C   UNL A   1      32.358  23.684  23.244  1.00  0.00     0.061 A 
ATOM     16  C   UNL A   1      31.133  26.533  22.693  1.00  0.00     0.161 A 
ATOM     17  C   UNL A   1      29.907  26.241  23.975  1.00  0.00     0.051 A 
ATOM     18  C   UNL A   1      29.923  24.733  24.969  1.00  0.00     0.015 A 
BRANCH  14  19
ATOM     19  O   UNL A   1      33.215  25.213  21.252  1.00  0.00    -0.493 OA
ATOM     20  C   UNL A   1      32.612  25.274  19.977  1.00  0.00     0.278 C 
ENDBRANCH  14  19
BRANCH  16  21
ATOM     21  O   UNL A   1      30.977  27.739  22.072  1.00  0.00    -0.485 OA
BRANCH  21  22
ATOM     22  C   UNL A   1      31.571  28.896  22.689  1.00  0.00     0.265 C 
BRANCH  22  23
ATOM     23  C   UNL A   1      32.187  28.908  24.093  1.00  0.00    -0.011 A 
ATOM     24  C   UNL A   1      33.439  28.388  24.430  1.00  0.00     0.009 A 
ATOM     25  C   UNL A   1      31.549  29.713  25.064  1.00  0.00     0.009 A 
ATOM     26  C   UNL A   1      34.101  28.765  25.607  1.00  0.00     0.021 A 
ATOM     27  C   UNL A   1      32.189  30.068  26.263  1.00  0.00     0.021 A 
ATOM     28  C   UNL A   1      33.487  29.632  26.504  1.00  0.00     0.041 A 
ATOM     29  Cl  UNL A   1      34.383  30.258  27.835  1.00  0.00    -0.084 Cl
ENDBRANCH  22  23
ENDBRANCH  21  22
ENDBRANCH  16  21
ENDBRANCH   7  13
ENDBRANCH   3   6
ENDBRANCH   1   2
BRANCH   1  30
ATOM     30  C   UNL A   1      36.524  24.026  24.956  1.00  0.00     0.042 C 
BRANCH  30  31
ATOM     31  C   UNL A   1      36.843  23.354  26.299  1.00  0.00     0.118 C 
BRANCH  31  32
ATOM     32  N   UNL A   1      38.020  22.503  26.208  1.00  0.00    -0.352 N 
ATOM     33  C   UNL A   1      39.307  22.776  26.542  1.00  0.00     0.251 C 
ATOM     34  H   UNL A   1      37.860  21.599  25.853  1.00  0.00     0.163 HD
ATOM     35  O   UNL A   1      40.198  21.945  26.487  1.00  0.00    -0.269 OA
BRANCH  33  36
ATOM     36  C   UNL A   1      39.695  24.111  26.903  1.00  0.00     0.039 A 
ATOM     37  C   UNL A   1      39.540  24.436  28.254  1.00  0.00     0.014 A 
ATOM     38  C   UNL A   1      40.111  25.015  25.932  1.00  0.00     0.014 A 
ATOM     39  C   UNL A   1      39.841  25.711  28.656  1.00  0.00     0.010 A 
ATOM     40  C   UNL A   1      40.463  26.273  26.341  1.00  0.00     0.010 A 
ATOM     41  C   UNL A   1      40.327  26.604  27.696  1.00  0.00    -0.014 A 
BRANCH  41  42
ATOM     42  C   UNL A   1      40.803  27.914  28.104  1.00  0.00     0.031 A 
ATOM     43  C   UNL A   1      42.269  28.140  28.166  1.00  0.00     0.074 A 
ATOM     44  C   UNL A   1      39.855  28.762  28.527  1.00  0.00     0.049 A 
ATOM     45  N   UNL A   1      42.910  29.179  28.609  1.00  0.00    -0.248 NA
ATOM     46  C   UNL A   1      43.131  27.030  27.721  1.00  0.00     0.031 C 
ATOM     47  C   UNL A   1      38.411  28.477  28.533  1.00  0.00     0.029 A 
ATOM     48  N   UNL A   1      39.949  30.008  29.055  1.00  0.00    -0.354 N 
ATOM     49  C   UNL A   1      44.254  28.857  28.491  1.00  0.00     0.074 A 
ATOM     50  C   UNL A   1      44.334  27.495  28.017  1.00  0.00     0.031 C 
ATOM     51  C   UNL A   1      37.757  29.536  29.028  1.00  0.00     0.029 A 
ATOM     52  C   UNL A   1      38.734  30.544  29.402  1.00  0.00     0.049 A 
ATOM     53  H   UNL A   1      40.805  30.481  29.177  1.00  0.00     0.167 HD
ATOM     54  C   UNL A   1      45.307  29.667  28.739  1.00  0.00     0.034 A 
ATOM     55  C   UNL A   1      38.472  31.734  29.963  1.00  0.00     0.034 A 
ATOM     56  C   UNL A   1      45.121  31.005  29.240  1.00  0.00     0.049 A 
ATOM     57  C   UNL A   1      39.663  32.616  30.220  1.00  0.00     0.074 A 
ATOM     58  C   UNL A   1      46.065  31.970  29.524  1.00  0.00     0.029 A 
ATOM     59  N   UNL A   1      43.875  31.562  29.536  1.00  0.00    -0.354 N 
ATOM     60  N   UNL A   1      40.939  32.345  30.038  1.00  0.00    -0.248 NA
ATOM     61  C   UNL A   1      39.389  33.959  30.722  1.00  0.00     0.031 C 
ATOM     62  C   UNL A   1      45.397  33.082  30.049  1.00  0.00     0.029 A 
ATOM     63  C   UNL A   1      44.027  32.848  30.017  1.00  0.00     0.049 A 
ATOM     64  H   UNL A   1      43.011  31.103  29.421  1.00  0.00     0.167 HD
ATOM     65  C   UNL A   1      41.624  33.503  30.370  1.00  0.00     0.074 A 
ATOM     66  C   UNL A   1      40.608  34.477  30.740  1.00  0.00     0.031 C 
ATOM     67  C   UNL A   1      42.960  33.756  30.378  1.00  0.00     0.034 A 
BRANCH  54  68
ATOM     68  C   UNL A   1      46.687  29.113  28.485  1.00  0.00     0.023 A 
ATOM     69  C   UNL A   1      47.145  28.861  27.179  1.00  0.00     0.031 A 
ATOM     70  C   UNL A   1      47.539  28.778  29.551  1.00  0.00     0.131 A 
ATOM     71  C   UNL A   1      48.379  28.226  26.973  1.00  0.00     0.055 A 
ATOM     72  C   UNL A   1      48.803  28.224  29.336  1.00  0.00     0.041 A 
ATOM     73  F   UNL A   1      47.148  28.960  30.822  1.00  0.00    -0.206 F 
ATOM     74  C   UNL A   1      49.225  27.930  28.043  1.00  0.00     0.022 A 
BRANCH  71  75
ATOM     75  S   UNL A   1      48.795  27.663  25.298  1.00  0.00     0.124 S 
ATOM     76  O   UNL A   1      47.716  28.257  24.512  1.00  0.00    -0.237 OA
ATOM     77  O   UNL A   1      50.122  28.231  25.093  1.00  0.00    -0.237 OA
ATOM     78  O   UNL A   1      48.750  26.206  25.406  1.00  0.00    -0.744 OA
ENDBRANCH  71  75
ENDBRANCH  54  68
BRANCH  55  79
ATOM     79  C   UNL A   1      37.073  32.153  30.231  1.00  0.00     0.023 A 
ATOM     80  C   UNL A   1      36.344  32.843  29.254  1.00  0.00     0.031 A 
ATOM     81  C   UNL A   1      36.433  31.870  31.451  1.00  0.00     0.131 A 
ATOM     82  C   UNL A   1      35.043  33.289  29.533  1.00  0.00     0.055 A 
ATOM     83  C   UNL A   1      35.115  32.259  31.702  1.00  0.00     0.041 A 
ATOM     84  F   UNL A   1      37.073  31.184  32.413  1.00  0.00    -0.206 F 
ATOM     85  C   UNL A   1      34.418  32.990  30.745  1.00  0.00     0.022 A 
BRANCH  82  86
ATOM     86  S   UNL A   1      34.230  34.363  28.322  1.00  0.00     0.124 S 
ATOM     87  O   UNL A   1      35.191  34.355  27.226  1.00  0.00    -0.237 OA
ATOM     88  O   UNL A   1      32.978  33.654  28.083  1.00  0.00    -0.237 OA
ATOM     89  O   UNL A   1      34.101  35.635  29.032  1.00  0.00    -0.744 OA
ENDBRANCH  82  86
ENDBRANCH  55  79
BRANCH  67  90
ATOM     90  C   UNL A   1      43.356  35.150  30.773  1.00  0.00     0.023 A 
ATOM     91  C   UNL A   1      43.392  36.188  29.831  1.00  0.00     0.031 A 
ATOM     92  C   UNL A   1      43.717  35.430  32.101  1.00  0.00     0.131 A 
ATOM     93  C   UNL A   1      43.856  37.450  30.215  1.00  0.00     0.055 A 
ATOM     94  C   UNL A   1      44.098  36.711  32.495  1.00  0.00     0.041 A 
ATOM     95  F   UNL A   1      43.701  34.465  33.034  1.00  0.00    -0.206 F 
ATOM     96  C   UNL A   1      44.186  37.725  31.545  1.00  0.00     0.022 A 
BRANCH  93  97
ATOM     97  S   UNL A   1      44.141  38.686  28.923  1.00  0.00     0.124 S 
ATOM     98  O   UNL A   1      45.320  39.382  29.428  1.00  0.00    -0.237 OA
ATOM     99  O   UNL A   1      44.347  37.860  27.739  1.00  0.00    -0.237 OA
ATOM    100  O   UNL A   1      42.908  39.472  28.926  1.00  0.00    -0.744 OA
ENDBRANCH  93  97
ENDBRANCH  67  90
ENDBRANCH  41  42
ENDBRANCH  33  36
ENDBRANCH  31  32
ENDBRANCH  30  31
ENDBRANCH   1  30
TORSDOF 18
ENDMDL
MODEL 2
REMARK VINA RESULT:     -12.8      1.794      2.027
REMARK SMILES COc1cc([C@@H]2[NH2+][C@H](C(=O)NCCCNC(=O)c3ccc(-c4c5nc(c(-c6cc(S(=O)(=O)[O-])ccc6F)c6ccc([nH]6)c(-c6cc(S(=O)(=O)[O-])ccc6F)c6nc(c(-c7cc(S(=O)(=O)[O-])ccc7F)c7ccc4[nH]7)C=C6)C=C5)cc3)CS2)ccc1OCc1ccc(Cl)cc1
REMARK SMILES IDX 12 1 11 2 9 3 10 4 8 6 6 7 7 8 82 9 81 12 5 13 3 14 4 15
REMARK SMILES IDX 85 16 84 17 83 18 2 19 1 20 86 21 87 22 88 23 89 24 94 25
REMARK SMILES IDX 90 26 93 27 91 28 92 29 13 30 14 31 15 32 16 33 17 35 18 36
REMARK SMILES IDX 19 37 80 38 20 39 79 40 21 41 22 42 23 43 73 44 24 45 78 46
REMARK SMILES IDX 72 47 74 48 25 49 77 50 71 51 70 52 26 54 58 55 38 56 57 57
REMARK SMILES IDX 39 58 42 59 56 60 75 61 40 62 41 63 55 65 76 66 43 67 27 68
REMARK SMILES IDX 28 69 36 70 29 71 35 72 37 73 34 74 30 75 31 76 32 77 33 78
REMARK SMILES IDX 59 79 60 80 68 81 61 82 67 83 69 84 66 85 62 86 63 87 64 88
REMARK SMILES IDX 65 89 44 90 45 91 53 92 46 93 52 94 54 95 51 96 47 97 48 98
REMARK SMILES IDX 49 99 50 100
REMARK H PARENT 11 5 7 10 7 11 15 34 74 53 42 64
REMARK Flexibility Score: inf
ROOT
ATOM      1  C   UNL A   1      35.149  25.061  25.143  1.00  0.00     0.118 C 
ENDROOT
BRANCH   1   2
ATOM      2  N   UNL A   1      33.318  24.917  26.109  1.00  0.00    -0.351 N 
ATOM      3  C   UNL A   1      32.290  24.161  26.754  1.00  0.00     0.279 C 
ATOM      4  O   UNL A   1      31.397  24.869  27.257  1.00  0.00    -0.268 OA
ATOM      5  H   UNL A   1      32.988  25.844  26.137  1.00  0.00     0.163 HD
BRANCH   3   6
ATOM      6  C   UNL A   1      32.135  22.592  26.934  1.00  0.00     0.283 C 
ATOM      7  C   UNL A   1      30.842  22.033  25.111  1.00  0.00     0.274 C 
ATOM      8  N   UNL A   1      30.773  22.100  26.566  1.00  0.00    -0.321 N 
ATOM      9  S   UNL A   1      32.256  20.936  24.843  1.00  0.00    -0.088 SA
ATOM     10  H   UNL A   1      30.593  21.180  26.970  1.00  0.00     0.348 HD
ATOM     11  H   UNL A   1      30.020  22.695  26.910  1.00  0.00     0.348 HD
ATOM     12  C   UNL A   1      33.175  21.704  26.228  1.00  0.00     0.151 C 
BRANCH   7  13
ATOM     13  C   UNL A   1      31.114  23.448  24.678  1.00  0.00     0.024 A 
ATOM     14  C   UNL A   1      32.294  25.188  22.315  1.00  0.00     0.161 A 
ATOM     15  C   UNL A   1      32.305  23.658  23.288  1.00  0.00     0.061 A 
ATOM     16  C   UNL A   1      31.079  26.491  22.665  1.00  0.00     0.161 A 
ATOM     17  C   UNL A   1      29.850  26.229  23.952  1.00  0.00     0.051 A 
ATOM     18  C   UNL A   1      29.866  24.746  24.983  1.00  0.00     0.015 A 
BRANCH  14  19
ATOM     19  O   UNL A   1      33.164  25.138  21.261  1.00  0.00    -0.493 OA
ATOM     20  C   UNL A   1      32.591  25.396  19.997  1.00  0.00     0.278 C 
ENDBRANCH  14  19
BRANCH  16  21
ATOM     21  O   UNL A   1      30.923  27.681  22.015  1.00  0.00    -0.485 OA
BRANCH  21  22
ATOM     22  C   UNL A   1      31.455  28.865  22.638  1.00  0.00     0.265 C 
BRANCH  22  23
ATOM     23  C   UNL A   1      32.128  28.889  24.015  1.00  0.00    -0.011 A 
ATOM     24  C   UNL A   1      33.393  28.371  24.305  1.00  0.00     0.009 A 
ATOM     25  C   UNL A   1      31.531  29.703  25.004  1.00  0.00     0.009 A 
ATOM     26  C   UNL A   1      34.103  28.759  25.450  1.00  0.00     0.021 A 
ATOM     27  C   UNL A   1      32.219  30.068  26.173  1.00  0.00     0.021 A 
ATOM     28  C   UNL A   1      33.526  29.635  26.364  1.00  0.00     0.041 A 
ATOM     29  Cl  UNL A   1      34.476  30.272  27.651  1.00  0.00    -0.084 Cl
ENDBRANCH  22  23
ENDBRANCH  21  22
ENDBRANCH  16  21
ENDBRANCH   7  13
ENDBRANCH   3   6
ENDBRANCH   1   2
BRANCH   1  30
ATOM     30  C   UNL A   1      36.489  23.980  24.978  1.00  0.00     0.042 C 
BRANCH  30  31
ATOM     31  C   UNL A   1      36.865  23.346  26.325  1.00  0.00     0.118 C 
BRANCH  31  32
ATOM     32  N   UNL A   1      38.043  22.500  26.209  1.00  0.00    -0.352 N 
ATOM     33  C   UNL A   1      39.334  22.776  26.522  1.00  0.00     0.251 C 
ATOM     34  H   UNL A   1      37.880  21.596  25.853  1.00  0.00     0.163 HD
ATOM     35  O   UNL A   1      40.228  21.949  26.448  1.00  0.00    -0.269 OA
BRANCH  33  36
ATOM     36  C   UNL A   1      39.723  24.112  26.881  1.00  0.00     0.039 A 
ATOM     37  C   UNL A   1      39.568  24.438  28.232  1.00  0.00     0.014 A 
ATOM     38  C   UNL A   1      40.142  25.014  25.909  1.00  0.00     0.014 A 
ATOM     39  C   UNL A   1      39.870  25.714  28.633  1.00  0.00     0.010 A 
ATOM     40  C   UNL A   1      40.495  26.272  26.317  1.00  0.00     0.010 A 
ATOM     41  C   UNL A   1      40.358  26.605  27.672  1.00  0.00    -0.014 A 
BRANCH  41  42
ATOM     42  C   UNL A   1      40.834  27.915  28.078  1.00  0.00     0.031 A 
ATOM     43  C   UNL A   1      42.301  28.145  28.123  1.00  0.00     0.074 A 
ATOM     44  C   UNL A   1      39.889  28.758  28.517  1.00  0.00     0.049 A 
ATOM     45  N   UNL A   1      42.944  29.184  28.563  1.00  0.00    -0.248 NA
ATOM     46  C   UNL A   1      43.160  27.039  27.664  1.00  0.00     0.031 C 
ATOM     47  C   UNL A   1      38.446  28.469  28.539  1.00  0.00     0.029 A 
ATOM     48  N   UNL A   1      39.986  30.003  29.048  1.00  0.00    -0.354 N 
ATOM     49  C   UNL A   1      44.287  28.866  28.427  1.00  0.00     0.074 A 
ATOM     50  C   UNL A   1      44.366  27.506  27.947  1.00  0.00     0.031 C 
ATOM     51  C   UNL A   1      37.795  29.524  29.046  1.00  0.00     0.029 A 
ATOM     52  C   UNL A   1      38.774  30.534  29.412  1.00  0.00     0.049 A 
ATOM     53  H   UNL A   1      40.842  30.478  29.161  1.00  0.00     0.167 HD
ATOM     54  C   UNL A   1      45.341  29.679  28.665  1.00  0.00     0.034 A 
ATOM     55  C   UNL A   1      38.515  31.721  29.979  1.00  0.00     0.034 A 
ATOM     56  C   UNL A   1      45.157  31.015  29.173  1.00  0.00     0.049 A 
ATOM     57  C   UNL A   1      39.707  32.605  30.226  1.00  0.00     0.074 A 
ATOM     58  C   UNL A   1      46.102  31.981  29.450  1.00  0.00     0.029 A 
ATOM     59  N   UNL A   1      43.914  31.566  29.487  1.00  0.00    -0.354 N 
ATOM     60  N   UNL A   1      40.982  32.339  30.027  1.00  0.00    -0.248 NA
ATOM     61  C   UNL A   1      39.435  33.946  30.736  1.00  0.00     0.031 C 
ATOM     62  C   UNL A   1      45.437  33.090  29.986  1.00  0.00     0.029 A 
ATOM     63  C   UNL A   1      44.067  32.851  29.970  1.00  0.00     0.049 A 
ATOM     64  H   UNL A   1      43.050  31.106  29.380  1.00  0.00     0.167 HD
ATOM     65  C   UNL A   1      41.667  33.498  30.355  1.00  0.00     0.074 A 
ATOM     66  C   UNL A   1      40.652  34.468  30.741  1.00  0.00     0.031 C 
ATOM     67  C   UNL A   1      43.002  33.755  30.347  1.00  0.00     0.034 A 
BRANCH  54  68
ATOM     68  C   UNL A   1      46.719  29.129  28.393  1.00  0.00     0.023 A 
ATOM     69  C   UNL A   1      47.425  28.407  29.373  1.00  0.00     0.031 A 
ATOM     70  C   UNL A   1      47.364  29.368  27.169  1.00  0.00     0.131 A 
ATOM     71  C   UNL A   1      48.753  28.017  29.145  1.00  0.00     0.055 A 
ATOM     72  C   UNL A   1      48.658  28.903  26.915  1.00  0.00     0.041 A 
ATOM     73  F   UNL A   1      46.761  30.081  26.205  1.00  0.00    -0.206 F 
ATOM     74  C   UNL A   1      49.366  28.236  27.910  1.00  0.00     0.022 A 
BRANCH  71  75
ATOM     75  S   UNL A   1      49.712  27.350  30.534  1.00  0.00     0.124 S 
ATOM     76  O   UNL A   1      51.083  27.556  30.070  1.00  0.00    -0.237 OA
ATOM     77  O   UNL A   1      49.282  28.187  31.647  1.00  0.00    -0.237 OA
ATOM     78  O   UNL A   1      49.288  25.953  30.602  1.00  0.00    -0.744 OA
ENDBRANCH  71  75
ENDBRANCH  54  68
BRANCH  55  79
ATOM     79  C   UNL A   1      37.118  32.135  30.266  1.00  0.00     0.023 A 
ATOM     80  C   UNL A   1      36.369  32.811  29.294  1.00  0.00     0.031 A 
ATOM     81  C   UNL A   1      36.500  31.861  31.499  1.00  0.00     0.131 A 
ATOM     82  C   UNL A   1      35.071  33.252  29.589  1.00  0.00     0.055 A 
ATOM     83  C   UNL A   1      35.184  32.245  31.768  1.00  0.00     0.041 A 
ATOM     84  F   UNL A   1      37.159  31.189  32.458  1.00  0.00    -0.206 F 
ATOM     85  C   UNL A   1      34.468  32.962  30.815  1.00  0.00     0.022 A 
BRANCH  82  86
ATOM     86  S   UNL A   1      34.232  34.309  28.381  1.00  0.00     0.124 S 
ATOM     87  O   UNL A   1      35.167  34.282  27.263  1.00  0.00    -0.237 OA
ATOM     88  O   UNL A   1      32.973  33.599  28.183  1.00  0.00    -0.237 OA
ATOM     89  O   UNL A   1      34.122  35.592  29.074  1.00  0.00    -0.744 OA
ENDBRANCH  82  86
ENDBRANCH  55  79
BRANCH  67  90
ATOM     90  C   UNL A   1      43.398  35.148  30.742  1.00  0.00     0.023 A 
ATOM     91  C   UNL A   1      43.561  35.503  32.090  1.00  0.00     0.031 A 
ATOM     92  C   UNL A   1      43.595  36.131  29.758  1.00  0.00     0.131 A 
ATOM     93  C   UNL A   1      43.837  36.832  32.423  1.00  0.00     0.055 A 
ATOM     94  C   UNL A   1      43.953  37.434  30.094  1.00  0.00     0.041 A 
ATOM     95  F   UNL A   1      43.445  35.836  28.456  1.00  0.00    -0.206 F 
ATOM     96  C   UNL A   1      44.058  37.794  31.434  1.00  0.00     0.022 A 
BRANCH  93  97
ATOM     97  S   UNL A   1      43.777  37.306  34.170  1.00  0.00     0.124 S 
ATOM     98  O   UNL A   1      42.573  38.130  34.217  1.00  0.00    -0.237 OA
ATOM     99  O   UNL A   1      43.690  36.013  34.842  1.00  0.00    -0.237 OA
ATOM    100  O   UNL A   1      45.033  38.027  34.371  1.00  0.00    -0.744 OA
ENDBRANCH  93  97
ENDBRANCH  67  90
ENDBRANCH  41  42
ENDBRANCH  33  36
ENDBRANCH  31  32
ENDBRANCH  30  31
ENDBRANCH   1  30
TORSDOF 18
ENDMDL
MODEL 3
REMARK VINA RESULT:     -12.7      4.661      9.649
REMARK SMILES COc1cc([C@@H]2[NH2+][C@H](C(=O)NCCCNC(=O)c3ccc(-c4c5nc(c(-c6cc(S(=O)(=O)[O-])ccc6F)c6ccc([nH]6)c(-c6cc(S(=O)(=O)[O-])ccc6F)c6nc(c(-c7cc(S(=O)(=O)[O-])ccc7F)c7ccc4[nH]7)C=C6)C=C5)cc3)CS2)ccc1OCc1ccc(Cl)cc1
REMARK SMILES IDX 12 1 11 2 9 3 10 4 8 6 6 7 7 8 82 9 81 12 5 13 3 14 4 15
REMARK SMILES IDX 85 16 84 17 83 18 2 19 1 20 86 21 87 22 88 23 89 24 94 25
REMARK SMILES IDX 90 26 93 27 91 28 92 29 13 30 14 31 15 32 16 33 17 35 18 36
REMARK SMILES IDX 19 37 80 38 20 39 79 40 21 41 22 42 23 43 73 44 24 45 78 46
REMARK SMILES IDX 72 47 74 48 25 49 77 50 71 51 70 52 26 54 58 55 38 56 57 57
REMARK SMILES IDX 39 58 42 59 56 60 75 61 40 62 41 63 55 65 76 66 43 67 27 68
REMARK SMILES IDX 28 69 36 70 29 71 35 72 37 73 34 74 30 75 31 76 32 77 33 78
REMARK SMILES IDX 59 79 60 80 68 81 61 82 67 83 69 84 66 85 62 86 63 87 64 88
REMARK SMILES IDX 65 89 44 90 45 91 53 92 46 93 52 94 54 95 51 96 47 97 48 98
REMARK SMILES IDX 49 99 50 100
REMARK H PARENT 11 5 7 10 7 11 15 34 74 53 42 64
REMARK Flexibility Score: inf
ROOT
ATOM      1  C   UNL A   1      33.974  26.399  26.125  1.00  0.00     0.118 C 
ENDROOT
BRANCH   1   2
ATOM      2  N   UNL A   1      33.994  25.811  24.136  1.00  0.00    -0.351 N 
ATOM      3  C   UNL A   1      33.661  26.011  22.759  1.00  0.00     0.279 C 
ATOM      4  O   UNL A   1      34.176  25.168  21.999  1.00  0.00    -0.268 OA
ATOM      5  H   UNL A   1      34.483  24.956  24.143  1.00  0.00     0.163 HD
BRANCH   3   6
ATOM      6  C   UNL A   1      32.770  27.131  22.075  1.00  0.00     0.283 C 
ATOM      7  C   UNL A   1      30.697  26.125  22.035  1.00  0.00     0.274 C 
ATOM      8  N   UNL A   1      31.756  26.567  21.134  1.00  0.00    -0.321 N 
ATOM      9  S   UNL A   1      30.292  27.646  22.928  1.00  0.00    -0.088 SA
ATOM     10  H   UNL A   1      31.416  27.281  20.488  1.00  0.00     0.348 HD
ATOM     11  H   UNL A   1      32.122  25.823  20.542  1.00  0.00     0.348 HD
ATOM     12  C   UNL A   1      32.058  28.123  23.012  1.00  0.00     0.151 C 
BRANCH   7  13
ATOM     13  C   UNL A   1      31.352  25.093  22.912  1.00  0.00     0.024 A 
ATOM     14  C   UNL A   1      31.109  23.623  25.702  1.00  0.00     0.161 A 
ATOM     15  C   UNL A   1      30.860  25.105  24.688  1.00  0.00     0.061 A 
ATOM     16  C   UNL A   1      31.788  22.108  24.965  1.00  0.00     0.161 A 
ATOM     17  C   UNL A   1      32.162  22.074  23.207  1.00  0.00     0.051 A 
ATOM     18  C   UNL A   1      31.985  23.545  22.176  1.00  0.00     0.015 A 
BRANCH  14  19
ATOM     19  O   UNL A   1      30.596  23.765  26.963  1.00  0.00    -0.493 OA
ATOM     20  C   UNL A   1      29.478  22.952  27.250  1.00  0.00     0.278 C 
ENDBRANCH  14  19
BRANCH  16  21
ATOM     21  O   UNL A   1      32.012  20.910  25.581  1.00  0.00    -0.485 OA
BRANCH  21  22
ATOM     22  C   UNL A   1      33.302  20.692  26.182  1.00  0.00     0.265 C 
BRANCH  22  23
ATOM     23  C   UNL A   1      34.565  21.487  25.831  1.00  0.00    -0.011 A 
ATOM     24  C   UNL A   1      34.847  22.786  26.262  1.00  0.00     0.009 A 
ATOM     25  C   UNL A   1      35.625  20.771  25.230  1.00  0.00     0.009 A 
ATOM     26  C   UNL A   1      36.151  23.302  26.240  1.00  0.00     0.021 A 
ATOM     27  C   UNL A   1      36.927  21.293  25.170  1.00  0.00     0.021 A 
ATOM     28  C   UNL A   1      37.193  22.540  25.725  1.00  0.00     0.041 A 
ATOM     29  Cl  UNL A   1      38.817  23.089  25.895  1.00  0.00    -0.084 Cl
ENDBRANCH  22  23
ENDBRANCH  21  22
ENDBRANCH  16  21
ENDBRANCH   7  13
ENDBRANCH   3   6
ENDBRANCH   1   2
BRANCH   1  30
ATOM     30  C   UNL A   1      33.649  27.905  26.912  1.00  0.00     0.042 C 
BRANCH  30  31
ATOM     31  C   UNL A   1      34.301  29.078  26.166  1.00  0.00     0.118 C 
BRANCH  31  32
ATOM     32  N   UNL A   1      34.036  30.348  26.826  1.00  0.00    -0.352 N 
ATOM     33  C   UNL A   1      34.792  31.022  27.729  1.00  0.00     0.251 C 
ATOM     34  H   UNL A   1      33.186  30.780  26.581  1.00  0.00     0.163 HD
ATOM     35  O   UNL A   1      34.492  32.124  28.157  1.00  0.00    -0.269 OA
BRANCH  33  36
ATOM     36  C   UNL A   1      35.963  30.410  28.295  1.00  0.00     0.039 A 
ATOM     37  C   UNL A   1      37.138  30.566  27.553  1.00  0.00     0.014 A 
ATOM     38  C   UNL A   1      35.876  29.654  29.458  1.00  0.00     0.014 A 
ATOM     39  C   UNL A   1      38.282  29.963  28.008  1.00  0.00     0.010 A 
ATOM     40  C   UNL A   1      37.028  29.095  29.942  1.00  0.00     0.010 A 
ATOM     41  C   UNL A   1      38.215  29.259  29.215  1.00  0.00    -0.014 A 
BRANCH  41  42
ATOM     42  C   UNL A   1      39.430  28.735  29.812  1.00  0.00     0.031 A 
ATOM     43  C   UNL A   1      40.021  29.469  30.960  1.00  0.00     0.074 A 
ATOM     44  C   UNL A   1      39.986  27.699  29.168  1.00  0.00     0.049 A 
ATOM     45  N   UNL A   1      41.150  29.253  31.565  1.00  0.00    -0.248 NA
ATOM     46  C   UNL A   1      39.270  30.636  31.458  1.00  0.00     0.031 C 
ATOM     47  C   UNL A   1      39.417  27.044  27.979  1.00  0.00     0.029 A 
ATOM     48  N   UNL A   1      41.147  27.034  29.389  1.00  0.00    -0.354 N 
ATOM     49  C   UNL A   1      41.246  30.250  32.524  1.00  0.00     0.074 A 
ATOM     50  C   UNL A   1      40.106  31.121  32.362  1.00  0.00     0.031 C 
ATOM     51  C   UNL A   1      40.234  26.055  27.590  1.00  0.00     0.029 A 
ATOM     52  C   UNL A   1      41.386  26.039  28.476  1.00  0.00     0.049 A 
ATOM     53  H   UNL A   1      41.759  27.245  30.133  1.00  0.00     0.167 HD
ATOM     54  C   UNL A   1      42.207  30.378  33.466  1.00  0.00     0.034 A 
ATOM     55  C   UNL A   1      42.439  25.213  28.392  1.00  0.00     0.034 A 
ATOM     56  C   UNL A   1      43.325  29.470  33.525  1.00  0.00     0.049 A 
ATOM     57  C   UNL A   1      43.489  25.375  29.457  1.00  0.00     0.074 A 
ATOM     58  C   UNL A   1      44.374  29.434  34.420  1.00  0.00     0.029 A 
ATOM     59  N   UNL A   1      43.529  28.423  32.624  1.00  0.00    -0.354 N 
ATOM     60  N   UNL A   1      43.548  26.272  30.420  1.00  0.00    -0.248 NA
ATOM     61  C   UNL A   1      44.585  24.410  29.451  1.00  0.00     0.031 C 
ATOM     62  C   UNL A   1      45.240  28.408  34.024  1.00  0.00     0.029 A 
ATOM     63  C   UNL A   1      44.694  27.748  32.929  1.00  0.00     0.049 A 
ATOM     64  H   UNL A   1      42.928  28.199  31.876  1.00  0.00     0.167 HD
ATOM     65  C   UNL A   1      44.675  25.957  31.162  1.00  0.00     0.074 A 
ATOM     66  C   UNL A   1      45.245  24.771  30.541  1.00  0.00     0.031 C 
ATOM     67  C   UNL A   1      45.204  26.576  32.251  1.00  0.00     0.034 A 
BRANCH  54  68
ATOM     68  C   UNL A   1      42.075  31.518  34.445  1.00  0.00     0.023 A 
ATOM     69  C   UNL A   1      41.136  31.477  35.493  1.00  0.00     0.031 A 
ATOM     70  C   UNL A   1      42.849  32.682  34.309  1.00  0.00     0.131 A 
ATOM     71  C   UNL A   1      40.940  32.599  36.311  1.00  0.00     0.055 A 
ATOM     72  C   UNL A   1      42.709  33.765  35.181  1.00  0.00     0.041 A 
ATOM     73  F   UNL A   1      43.737  32.800  33.310  1.00  0.00    -0.206 F 
ATOM     74  C   UNL A   1      41.741  33.735  36.180  1.00  0.00     0.022 A 
BRANCH  71  75
ATOM     75  S   UNL A   1      39.529  32.605  37.452  1.00  0.00     0.124 S 
ATOM     76  O   UNL A   1      40.187  32.357  38.734  1.00  0.00    -0.237 OA
ATOM     77  O   UNL A   1      38.976  33.942  37.266  1.00  0.00    -0.237 OA
ATOM     78  O   UNL A   1      38.692  31.510  36.967  1.00  0.00    -0.744 OA
ENDBRANCH  71  75
ENDBRANCH  54  68
BRANCH  55  79
ATOM     79  C   UNL A   1      42.498  24.164  27.341  1.00  0.00     0.023 A 
ATOM     80  C   UNL A   1      41.909  22.912  27.561  1.00  0.00     0.031 A 
ATOM     81  C   UNL A   1      43.126  24.387  26.103  1.00  0.00     0.131 A 
ATOM     82  C   UNL A   1      42.018  21.905  26.591  1.00  0.00     0.055 A 
ATOM     83  C   UNL A   1      43.177  23.403  25.112  1.00  0.00     0.041 A 
ATOM     84  F   UNL A   1      43.681  25.578  25.824  1.00  0.00    -0.206 F 
ATOM     85  C   UNL A   1      42.636  22.146  25.362  1.00  0.00     0.022 A 
BRANCH  82  86
ATOM     86  S   UNL A   1      41.435  20.243  27.014  1.00  0.00     0.124 S 
ATOM     87  O   UNL A   1      42.654  19.620  27.515  1.00  0.00    -0.237 OA
ATOM     88  O   UNL A   1      40.405  20.529  28.008  1.00  0.00    -0.237 OA
ATOM     89  O   UNL A   1      40.944  19.723  25.739  1.00  0.00    -0.744 OA
ENDBRANCH  82  86
ENDBRANCH  55  79
BRANCH  67  90
ATOM     90  C   UNL A   1      46.437  25.939  32.826  1.00  0.00     0.023 A 
ATOM     91  C   UNL A   1      46.347  24.904  33.769  1.00  0.00     0.031 A 
ATOM     92  C   UNL A   1      47.710  26.389  32.437  1.00  0.00     0.131 A 
ATOM     93  C   UNL A   1      47.514  24.401  34.352  1.00  0.00     0.055 A 
ATOM     94  C   UNL A   1      48.870  25.824  32.960  1.00  0.00     0.041 A 
ATOM     95  F   UNL A   1      47.841  27.379  31.540  1.00  0.00    -0.206 F 
ATOM     96  C   UNL A   1      48.775  24.836  33.936  1.00  0.00     0.022 A 
BRANCH  93  97
ATOM     97  S   UNL A   1      47.349  23.261  35.749  1.00  0.00     0.124 S 
ATOM     98  O   UNL A   1      46.059  23.654  36.307  1.00  0.00    -0.237 OA
ATOM     99  O   UNL A   1      47.389  21.957  35.096  1.00  0.00    -0.237 OA
ATOM    100  O   UNL A   1      48.508  23.574  36.583  1.00  0.00    -0.744 OA
ENDBRANCH  93  97
ENDBRANCH  67  90
ENDBRANCH  41  42
ENDBRANCH  33  36
ENDBRANCH  31  32
ENDBRANCH  30  31
ENDBRANCH   1  30
TORSDOF 18
ENDMDL
