MODEL 1
REMARK VINA RESULT:     -10.9      0.000      0.000
REMARK SMILES CCCO[C@@H]1CCC[C@]([NH3+])(C(=O)NCCCNC(=O)c2ccc(-c3c4nc(c(-c5cc(S(=O)(=O)[O-])ccc5F)c5ccc([nH]5)c(-c5cc(S(=O)(=O)[O-])ccc5F)c5nc(c(-c6cc(S(=O)(=O)[O-])ccc6F)c6ccc3[nH]6)C=C5)C=C4)cc2)C1
REMARK SMILES IDX 15 1 14 2 13 3 11 4 12 5 9 7 5 8 6 9 83 10 7 11 8 12 4 13
REMARK SMILES IDX 3 14 2 15 1 16 10 17 16 21 17 22 18 23 19 25 20 26 21 27
REMARK SMILES IDX 82 28 22 29 81 30 23 31 24 32 25 33 75 34 26 35 80 36 74 37
REMARK SMILES IDX 76 38 27 39 79 40 73 41 72 42 28 44 60 45 40 46 59 47 41 48
REMARK SMILES IDX 44 49 58 50 77 51 42 52 43 53 57 55 78 56 45 57 29 58 30 59
REMARK SMILES IDX 38 60 31 61 37 62 39 63 36 64 32 65 33 66 34 67 35 68 61 69
REMARK SMILES IDX 62 70 70 71 63 72 69 73 71 74 68 75 64 76 65 77 66 78 67 79
REMARK SMILES IDX 46 80 47 81 55 82 48 83 54 84 56 85 53 86 49 87 50 88 51 89
REMARK SMILES IDX 52 90
REMARK H PARENT 13 6 10 18 10 19 10 20 17 24 76 43 44 54
REMARK Flexibility Score: inf
ROOT
ATOM      1  C   UNL A   1      31.395  31.995  26.503  1.00  0.00     0.042 C 
ENDROOT
BRANCH   1   2
ATOM      2  C   UNL A   1      31.385  30.494  26.257  1.00  0.00     0.118 C 
BRANCH   2   3
ATOM      3  N   UNL A   1      32.622  30.056  25.642  1.00  0.00    -0.351 N 
ATOM      4  C   UNL A   1      32.954  29.057  24.796  1.00  0.00     0.281 C 
ATOM      5  O   UNL A   1      34.176  28.901  24.636  1.00  0.00    -0.268 OA
ATOM      6  H   UNL A   1      33.394  30.614  25.897  1.00  0.00     0.163 HD
BRANCH   4   7
ATOM      7  C   UNL A   1      31.951  28.081  24.076  1.00  0.00     0.176 C 
ATOM      8  C   UNL A   1      29.938  28.486  22.412  1.00  0.00     0.125 C 
ATOM      9  C   UNL A   1      29.021  27.706  23.350  1.00  0.00     0.032 C 
ATOM     10  C   UNL A   1      31.264  28.971  23.008  1.00  0.00     0.111 C 
ATOM     11  C   UNL A   1      29.784  26.704  24.193  1.00  0.00     0.010 C 
ATOM     12  C   UNL A   1      30.907  27.389  24.958  1.00  0.00     0.079 C 
BRANCH   8  13
ATOM     13  O   UNL A   1      29.158  29.493  21.750  1.00  0.00    -0.378 OA
BRANCH  13  14
ATOM     14  C   UNL A   1      27.960  29.999  22.335  1.00  0.00     0.160 C 
BRANCH  14  15
ATOM     15  C   UNL A   1      28.134  30.990  23.492  1.00  0.00     0.025 C 
ATOM     16  C   UNL A   1      28.717  32.349  23.127  1.00  0.00     0.006 C 
ENDBRANCH  14  15
ENDBRANCH  13  14
ENDBRANCH   8  13
BRANCH   7  17
ATOM     17  N   UNL A   1      32.753  27.038  23.396  1.00  0.00    -0.345 N 
ATOM     18  H   UNL A   1      32.379  26.875  22.461  1.00  0.00     0.345 HD
ATOM     19  H   UNL A   1      32.711  26.171  23.934  1.00  0.00     0.345 HD
ATOM     20  H   UNL A   1      33.722  27.346  23.325  1.00  0.00     0.345 HD
ENDBRANCH   7  17
ENDBRANCH   4   7
ENDBRANCH   2   3
ENDBRANCH   1   2
BRANCH   1  21
ATOM     21  C   UNL A   1      32.664  32.450  27.214  1.00  0.00     0.118 C 
BRANCH  21  22
ATOM     22  N   UNL A   1      32.581  33.849  27.623  1.00  0.00    -0.352 N 
ATOM     23  C   UNL A   1      33.230  34.509  28.636  1.00  0.00     0.251 C 
ATOM     24  H   UNL A   1      31.965  34.403  27.091  1.00  0.00     0.163 HD
ATOM     25  O   UNL A   1      32.812  35.600  29.011  1.00  0.00    -0.269 OA
BRANCH  23  26
ATOM     26  C   UNL A   1      34.419  33.901  29.264  1.00  0.00     0.039 A 
ATOM     27  C   UNL A   1      35.692  34.352  28.907  1.00  0.00     0.014 A 
ATOM     28  C   UNL A   1      34.272  32.868  30.193  1.00  0.00     0.014 A 
ATOM     29  C   UNL A   1      36.815  33.807  29.531  1.00  0.00     0.010 A 
ATOM     30  C   UNL A   1      35.383  32.395  30.879  1.00  0.00     0.010 A 
ATOM     31  C   UNL A   1      36.667  32.849  30.547  1.00  0.00    -0.014 A 
BRANCH  31  32
ATOM     32  C   UNL A   1      37.837  32.272  31.259  1.00  0.00     0.031 A 
ATOM     33  C   UNL A   1      38.617  31.157  30.615  1.00  0.00     0.074 A 
ATOM     34  C   UNL A   1      38.138  32.691  32.503  1.00  0.00     0.049 A 
ATOM     35  N   UNL A   1      39.573  30.420  31.117  1.00  0.00    -0.248 NA
ATOM     36  C   UNL A   1      38.244  30.801  29.237  1.00  0.00     0.031 C 
ATOM     37  C   UNL A   1      37.431  33.745  33.237  1.00  0.00     0.029 A 
ATOM     38  N   UNL A   1      39.106  32.272  33.381  1.00  0.00    -0.354 N 
ATOM     39  C   UNL A   1      39.900  29.499  30.126  1.00  0.00     0.074 A 
ATOM     40  C   UNL A   1      38.996  29.733  29.020  1.00  0.00     0.031 C 
ATOM     41  C   UNL A   1      38.003  33.901  34.441  1.00  0.00     0.029 A 
ATOM     42  C   UNL A   1      39.076  32.924  34.593  1.00  0.00     0.049 A 
ATOM     43  H   UNL A   1      39.761  31.570  33.164  1.00  0.00     0.167 HD
ATOM     44  C   UNL A   1      40.879  28.563  30.131  1.00  0.00     0.034 A 
ATOM     45  C   UNL A   1      39.814  32.739  35.706  1.00  0.00     0.034 A 
ATOM     46  C   UNL A   1      41.784  28.365  31.236  1.00  0.00     0.049 A 
ATOM     47  C   UNL A   1      40.880  31.669  35.696  1.00  0.00     0.074 A 
ATOM     48  C   UNL A   1      42.846  27.483  31.329  1.00  0.00     0.029 A 
ATOM     49  N   UNL A   1      41.731  29.053  32.440  1.00  0.00    -0.354 N 
ATOM     50  N   UNL A   1      41.203  30.834  34.735  1.00  0.00    -0.248 NA
ATOM     51  C   UNL A   1      41.687  31.524  36.914  1.00  0.00     0.031 C 
ATOM     52  C   UNL A   1      43.387  27.585  32.614  1.00  0.00     0.029 A 
ATOM     53  C   UNL A   1      42.723  28.595  33.292  1.00  0.00     0.049 A 
ATOM     54  H   UNL A   1      41.084  29.763  32.658  1.00  0.00     0.167 HD
ATOM     55  C   UNL A   1      42.282  30.097  35.220  1.00  0.00     0.074 A 
ATOM     56  C   UNL A   1      42.556  30.591  36.553  1.00  0.00     0.031 C 
ATOM     57  C   UNL A   1      42.987  29.107  34.616  1.00  0.00     0.034 A 
BRANCH  44  58
ATOM     58  C   UNL A   1      41.005  27.672  28.918  1.00  0.00     0.023 A 
ATOM     59  C   UNL A   1      42.008  27.869  27.954  1.00  0.00     0.031 A 
ATOM     60  C   UNL A   1      40.100  26.614  28.717  1.00  0.00     0.131 A 
ATOM     61  C   UNL A   1      42.042  27.068  26.803  1.00  0.00     0.055 A 
ATOM     62  C   UNL A   1      40.192  25.766  27.612  1.00  0.00     0.041 A 
ATOM     63  F   UNL A   1      39.105  26.390  29.590  1.00  0.00    -0.206 F 
ATOM     64  C   UNL A   1      41.159  26.000  26.639  1.00  0.00     0.022 A 
BRANCH  61  65
ATOM     65  S   UNL A   1      43.169  27.530  25.459  1.00  0.00     0.124 S 
ATOM     66  O   UNL A   1      43.641  26.223  25.010  1.00  0.00    -0.237 OA
ATOM     67  O   UNL A   1      42.289  28.243  24.540  1.00  0.00    -0.237 OA
ATOM     68  O   UNL A   1      44.175  28.354  26.125  1.00  0.00    -0.744 OA
ENDBRANCH  61  65
ENDBRANCH  44  58
BRANCH  45  69
ATOM     69  C   UNL A   1      39.571  33.560  36.927  1.00  0.00     0.023 A 
ATOM     70  C   UNL A   1      40.342  34.703  37.193  1.00  0.00     0.031 A 
ATOM     71  C   UNL A   1      38.608  33.183  37.880  1.00  0.00     0.131 A 
ATOM     72  C   UNL A   1      40.184  35.389  38.408  1.00  0.00     0.055 A 
ATOM     73  C   UNL A   1      38.409  33.907  39.058  1.00  0.00     0.041 A 
ATOM     74  F   UNL A   1      37.840  32.101  37.678  1.00  0.00    -0.206 F 
ATOM     75  C   UNL A   1      39.213  35.008  39.334  1.00  0.00     0.022 A 
BRANCH  72  76
ATOM     76  S   UNL A   1      41.353  36.717  38.810  1.00  0.00     0.124 S 
ATOM     77  O   UNL A   1      40.452  37.799  39.188  1.00  0.00    -0.237 OA
ATOM     78  O   UNL A   1      42.129  36.118  39.892  1.00  0.00    -0.237 OA
ATOM     79  O   UNL A   1      42.082  36.918  37.559  1.00  0.00    -0.744 OA
ENDBRANCH  72  76
ENDBRANCH  45  69
BRANCH  57  80
ATOM     80  C   UNL A   1      44.173  28.546  35.363  1.00  0.00     0.023 A 
ATOM     81  C   UNL A   1      44.059  27.444  36.226  1.00  0.00     0.031 A 
ATOM     82  C   UNL A   1      45.444  29.123  35.189  1.00  0.00     0.131 A 
ATOM     83  C   UNL A   1      45.188  26.983  36.922  1.00  0.00     0.055 A 
ATOM     84  C   UNL A   1      46.575  28.620  35.833  1.00  0.00     0.041 A 
ATOM     85  F   UNL A   1      45.610  30.181  34.379  1.00  0.00    -0.206 F 
ATOM     86  C   UNL A   1      46.447  27.551  36.714  1.00  0.00     0.022 A 
BRANCH  83  87
ATOM     87  S   UNL A   1      44.974  25.682  38.166  1.00  0.00     0.124 S 
ATOM     88  O   UNL A   1      44.732  26.459  39.378  1.00  0.00    -0.237 OA
ATOM     89  O   UNL A   1      43.830  24.938  37.648  1.00  0.00    -0.237 OA
ATOM     90  O   UNL A   1      46.245  24.963  38.134  1.00  0.00    -0.744 OA
ENDBRANCH  83  87
ENDBRANCH  57  80
ENDBRANCH  31  32
ENDBRANCH  23  26
ENDBRANCH  21  22
ENDBRANCH   1  21
TORSDOF 17
ENDMDL
MODEL 2
REMARK VINA RESULT:     -10.7      1.203      2.450
REMARK SMILES CCCO[C@@H]1CCC[C@]([NH3+])(C(=O)NCCCNC(=O)c2ccc(-c3c4nc(c(-c5cc(S(=O)(=O)[O-])ccc5F)c5ccc([nH]5)c(-c5cc(S(=O)(=O)[O-])ccc5F)c5nc(c(-c6cc(S(=O)(=O)[O-])ccc6F)c6ccc3[nH]6)C=C5)C=C4)cc2)C1
REMARK SMILES IDX 15 1 14 2 13 3 11 4 12 5 9 7 5 8 6 9 83 10 7 11 8 12 4 13
REMARK SMILES IDX 3 14 2 15 1 16 10 17 16 21 17 22 18 23 19 25 20 26 21 27
REMARK SMILES IDX 82 28 22 29 81 30 23 31 24 32 25 33 75 34 26 35 80 36 74 37
REMARK SMILES IDX 76 38 27 39 79 40 73 41 72 42 28 44 60 45 40 46 59 47 41 48
REMARK SMILES IDX 44 49 58 50 77 51 42 52 43 53 57 55 78 56 45 57 29 58 30 59
REMARK SMILES IDX 38 60 31 61 37 62 39 63 36 64 32 65 33 66 34 67 35 68 61 69
REMARK SMILES IDX 62 70 70 71 63 72 69 73 71 74 68 75 64 76 65 77 66 78 67 79
REMARK SMILES IDX 46 80 47 81 55 82 48 83 54 84 56 85 53 86 49 87 50 88 51 89
REMARK SMILES IDX 52 90
REMARK H PARENT 13 6 10 18 10 19 10 20 17 24 76 43 44 54
REMARK Flexibility Score: inf
ROOT
ATOM      1  C   UNL A   1      31.452  31.824  26.520  1.00  0.00     0.042 C 
ENDROOT
BRANCH   1   2
ATOM      2  C   UNL A   1      31.754  30.505  25.825  1.00  0.00     0.118 C 
BRANCH   2   3
ATOM      3  N   UNL A   1      30.896  30.311  24.673  1.00  0.00    -0.351 N 
ATOM      4  C   UNL A   1      30.805  29.366  23.712  1.00  0.00     0.281 C 
ATOM      5  O   UNL A   1      30.039  29.654  22.778  1.00  0.00    -0.268 OA
ATOM      6  H   UNL A   1      30.230  31.030  24.568  1.00  0.00     0.163 HD
BRANCH   4   7
ATOM      7  C   UNL A   1      31.608  28.014  23.663  1.00  0.00     0.176 C 
ATOM      8  C   UNL A   1      31.643  25.891  25.238  1.00  0.00     0.125 C 
ATOM      9  C   UNL A   1      33.155  26.040  25.385  1.00  0.00     0.032 C 
ATOM     10  C   UNL A   1      30.891  27.114  24.702  1.00  0.00     0.111 C 
ATOM     11  C   UNL A   1      33.779  26.746  24.197  1.00  0.00     0.010 C 
ATOM     12  C   UNL A   1      33.109  28.091  23.958  1.00  0.00     0.079 C 
BRANCH   8  13
ATOM     13  O   UNL A   1      31.122  25.334  26.454  1.00  0.00    -0.378 OA
BRANCH  13  14
ATOM     14  C   UNL A   1      30.396  24.107  26.448  1.00  0.00     0.160 C 
BRANCH  14  15
ATOM     15  C   UNL A   1      31.230  22.822  26.510  1.00  0.00     0.025 C 
ATOM     16  C   UNL A   1      32.593  22.940  27.179  1.00  0.00     0.006 C 
ENDBRANCH  14  15
ENDBRANCH  13  14
ENDBRANCH   8  13
BRANCH   7  17
ATOM     17  N   UNL A   1      31.427  27.435  22.312  1.00  0.00    -0.345 N 
ATOM     18  H   UNL A   1      31.372  26.419  22.381  1.00  0.00     0.345 HD
ATOM     19  H   UNL A   1      32.219  27.694  21.722  1.00  0.00     0.345 HD
ATOM     20  H   UNL A   1      30.566  27.795  21.900  1.00  0.00     0.345 HD
ENDBRANCH   7  17
ENDBRANCH   4   7
ENDBRANCH   2   3
ENDBRANCH   1   2
BRANCH   1  21
ATOM     21  C   UNL A   1      32.665  32.367  27.267  1.00  0.00     0.118 C 
BRANCH  21  22
ATOM     22  N   UNL A   1      32.538  33.797  27.532  1.00  0.00    -0.352 N 
ATOM     23  C   UNL A   1      33.108  34.562  28.519  1.00  0.00     0.251 C 
ATOM     24  H   UNL A   1      31.954  34.287  26.909  1.00  0.00     0.163 HD
ATOM     25  O   UNL A   1      32.653  35.676  28.758  1.00  0.00    -0.269 OA
BRANCH  23  26
ATOM     26  C   UNL A   1      34.258  34.038  29.282  1.00  0.00     0.039 A 
ATOM     27  C   UNL A   1      34.033  33.190  30.368  1.00  0.00     0.014 A 
ATOM     28  C   UNL A   1      35.559  34.403  28.930  1.00  0.00     0.014 A 
ATOM     29  C   UNL A   1      35.121  32.659  31.064  1.00  0.00     0.010 A 
ATOM     30  C   UNL A   1      36.639  33.801  29.563  1.00  0.00     0.010 A 
ATOM     31  C   UNL A   1      36.433  32.933  30.644  1.00  0.00    -0.014 A 
BRANCH  31  32
ATOM     32  C   UNL A   1      37.615  32.359  31.337  1.00  0.00     0.031 A 
ATOM     33  C   UNL A   1      38.374  31.231  30.691  1.00  0.00     0.074 A 
ATOM     34  C   UNL A   1      37.947  32.791  32.569  1.00  0.00     0.049 A 
ATOM     35  N   UNL A   1      39.337  30.494  31.180  1.00  0.00    -0.248 NA
ATOM     36  C   UNL A   1      37.967  30.858  29.326  1.00  0.00     0.031 C 
ATOM     37  C   UNL A   1      37.263  33.859  33.304  1.00  0.00     0.029 A 
ATOM     38  N   UNL A   1      38.932  32.379  33.429  1.00  0.00    -0.354 N 
ATOM     39  C   UNL A   1      39.635  29.559  30.194  1.00  0.00     0.074 A 
ATOM     40  C   UNL A   1      38.708  29.783  29.107  1.00  0.00     0.031 C 
ATOM     41  C   UNL A   1      37.863  34.028  34.492  1.00  0.00     0.029 A 
ATOM     42  C   UNL A   1      38.933  33.046  34.633  1.00  0.00     0.049 A 
ATOM     43  H   UNL A   1      39.578  31.670  33.207  1.00  0.00     0.167 HD
ATOM     44  C   UNL A   1      40.609  28.616  30.189  1.00  0.00     0.034 A 
ATOM     45  C   UNL A   1      39.696  32.871  35.731  1.00  0.00     0.034 A 
ATOM     46  C   UNL A   1      41.538  28.427  31.276  1.00  0.00     0.049 A 
ATOM     47  C   UNL A   1      40.755  31.796  35.712  1.00  0.00     0.074 A 
ATOM     48  C   UNL A   1      42.597  27.540  31.357  1.00  0.00     0.029 A 
ATOM     49  N   UNL A   1      41.517  29.132  32.472  1.00  0.00    -0.354 N 
ATOM     50  N   UNL A   1      41.051  30.946  34.754  1.00  0.00    -0.248 NA
ATOM     51  C   UNL A   1      41.589  31.661  36.913  1.00  0.00     0.031 C 
ATOM     52  C   UNL A   1      43.167  27.656  32.628  1.00  0.00     0.029 A 
ATOM     53  C   UNL A   1      42.525  28.679  33.307  1.00  0.00     0.049 A 
ATOM     54  H   UNL A   1      40.878  29.849  32.695  1.00  0.00     0.167 HD
ATOM     55  C   UNL A   1      42.137  30.209  35.225  1.00  0.00     0.074 A 
ATOM     56  C   UNL A   1      42.444  30.719  36.544  1.00  0.00     0.031 C 
ATOM     57  C   UNL A   1      42.822  29.207  34.618  1.00  0.00     0.034 A 
BRANCH  44  58
ATOM     58  C   UNL A   1      40.702  27.709  28.986  1.00  0.00     0.023 A 
ATOM     59  C   UNL A   1      41.662  27.909  27.979  1.00  0.00     0.031 A 
ATOM     60  C   UNL A   1      39.810  26.631  28.839  1.00  0.00     0.131 A 
ATOM     61  C   UNL A   1      41.664  27.090  26.840  1.00  0.00     0.055 A 
ATOM     62  C   UNL A   1      39.873  25.768  27.743  1.00  0.00     0.041 A 
ATOM     63  F   UNL A   1      38.855  26.404  29.755  1.00  0.00    -0.206 F 
ATOM     64  C   UNL A   1      40.795  26.004  26.728  1.00  0.00     0.022 A 
BRANCH  61  65
ATOM     65  S   UNL A   1      42.726  27.552  25.444  1.00  0.00     0.124 S 
ATOM     66  O   UNL A   1      41.959  28.636  24.836  1.00  0.00    -0.237 OA
ATOM     67  O   UNL A   1      43.966  27.940  26.106  1.00  0.00    -0.237 OA
ATOM     68  O   UNL A   1      42.799  26.327  24.650  1.00  0.00    -0.744 OA
ENDBRANCH  61  65
ENDBRANCH  44  58
BRANCH  45  69
ATOM     69  C   UNL A   1      39.485  33.710  36.947  1.00  0.00     0.023 A 
ATOM     70  C   UNL A   1      40.313  34.813  37.215  1.00  0.00     0.031 A 
ATOM     71  C   UNL A   1      38.495  33.389  37.893  1.00  0.00     0.131 A 
ATOM     72  C   UNL A   1      40.180  35.512  38.425  1.00  0.00     0.055 A 
ATOM     73  C   UNL A   1      38.324  34.128  39.065  1.00  0.00     0.041 A 
ATOM     74  F   UNL A   1      37.673  32.347  37.688  1.00  0.00    -0.206 F 
ATOM     75  C   UNL A   1      39.182  35.186  39.344  1.00  0.00     0.022 A 
BRANCH  72  76
ATOM     76  S   UNL A   1      41.413  36.778  38.832  1.00  0.00     0.124 S 
ATOM     77  O   UNL A   1      42.162  36.128  39.901  1.00  0.00    -0.237 OA
ATOM     78  O   UNL A   1      42.113  36.938  37.562  1.00  0.00    -0.237 OA
ATOM     79  O   UNL A   1      40.602  37.922  39.244  1.00  0.00    -0.744 OA
ENDBRANCH  72  76
ENDBRANCH  45  69
BRANCH  57  80
ATOM     80  C   UNL A   1      44.021  28.649  35.346  1.00  0.00     0.023 A 
ATOM     81  C   UNL A   1      43.909  27.606  36.280  1.00  0.00     0.031 A 
ATOM     82  C   UNL A   1      45.303  29.166  35.080  1.00  0.00     0.131 A 
ATOM     83  C   UNL A   1      45.053  27.147  36.952  1.00  0.00     0.055 A 
ATOM     84  C   UNL A   1      46.444  28.661  35.703  1.00  0.00     0.041 A 
ATOM     85  F   UNL A   1      45.466  30.166  34.197  1.00  0.00    -0.206 F 
ATOM     86  C   UNL A   1      46.321  27.654  36.654  1.00  0.00     0.022 A 
BRANCH  83  87
ATOM     87  S   UNL A   1      44.853  25.934  38.284  1.00  0.00     0.124 S 
ATOM     88  O   UNL A   1      43.756  25.111  37.784  1.00  0.00    -0.237 OA
ATOM     89  O   UNL A   1      46.164  25.293  38.323  1.00  0.00    -0.237 OA
ATOM     90  O   UNL A   1      44.531  26.753  39.450  1.00  0.00    -0.744 OA
ENDBRANCH  83  87
ENDBRANCH  57  80
ENDBRANCH  31  32
ENDBRANCH  23  26
ENDBRANCH  21  22
ENDBRANCH   1  21
TORSDOF 17
ENDMDL
MODEL 3
REMARK VINA RESULT:     -10.7      2.026      2.275
REMARK SMILES CCCO[C@@H]1CCC[C@]([NH3+])(C(=O)NCCCNC(=O)c2ccc(-c3c4nc(c(-c5cc(S(=O)(=O)[O-])ccc5F)c5ccc([nH]5)c(-c5cc(S(=O)(=O)[O-])ccc5F)c5nc(c(-c6cc(S(=O)(=O)[O-])ccc6F)c6ccc3[nH]6)C=C5)C=C4)cc2)C1
REMARK SMILES IDX 15 1 14 2 13 3 11 4 12 5 9 7 5 8 6 9 83 10 7 11 8 12 4 13
REMARK SMILES IDX 3 14 2 15 1 16 10 17 16 21 17 22 18 23 19 25 20 26 21 27
REMARK SMILES IDX 82 28 22 29 81 30 23 31 24 32 25 33 75 34 26 35 80 36 74 37
REMARK SMILES IDX 76 38 27 39 79 40 73 41 72 42 28 44 60 45 40 46 59 47 41 48
REMARK SMILES IDX 44 49 58 50 77 51 42 52 43 53 57 55 78 56 45 57 29 58 30 59
REMARK SMILES IDX 38 60 31 61 37 62 39 63 36 64 32 65 33 66 34 67 35 68 61 69
REMARK SMILES IDX 62 70 70 71 63 72 69 73 71 74 68 75 64 76 65 77 66 78 67 79
REMARK SMILES IDX 46 80 47 81 55 82 48 83 54 84 56 85 53 86 49 87 50 88 51 89
REMARK SMILES IDX 52 90
REMARK H PARENT 13 6 10 18 10 19 10 20 17 24 76 43 44 54
REMARK Flexibility Score: inf
ROOT
ATOM      1  C   UNL A   1      31.184  31.774  26.543  1.00  0.00     0.042 C 
ENDROOT
BRANCH   1   2
ATOM      2  C   UNL A   1      31.260  30.716  25.452  1.00  0.00     0.118 C 
BRANCH   2   3
ATOM      3  N   UNL A   1      32.456  29.910  25.586  1.00  0.00    -0.351 N 
ATOM      4  C   UNL A   1      32.782  28.641  25.255  1.00  0.00     0.281 C 
ATOM      5  O   UNL A   1      33.874  28.256  25.703  1.00  0.00    -0.268 OA
ATOM      6  H   UNL A   1      33.200  30.397  26.012  1.00  0.00     0.163 HD
BRANCH   4   7
ATOM      7  C   UNL A   1      31.890  27.641  24.430  1.00  0.00     0.176 C 
ATOM      8  C   UNL A   1      29.949  27.999  22.673  1.00  0.00     0.125 C 
ATOM      9  C   UNL A   1      29.038  27.110  23.516  1.00  0.00     0.032 C 
ATOM     10  C   UNL A   1      31.203  28.538  23.369  1.00  0.00     0.111 C 
ATOM     11  C   UNL A   1      29.821  26.118  24.352  1.00  0.00     0.010 C 
ATOM     12  C   UNL A   1      30.850  26.835  25.214  1.00  0.00     0.079 C 
BRANCH   8  13
ATOM     13  O   UNL A   1      29.139  28.986  22.017  1.00  0.00    -0.378 OA
BRANCH  13  14
ATOM     14  C   UNL A   1      27.920  29.443  22.599  1.00  0.00     0.160 C 
BRANCH  14  15
ATOM     15  C   UNL A   1      28.005  30.726  23.435  1.00  0.00     0.025 C 
ATOM     16  C   UNL A   1      28.218  32.018  22.658  1.00  0.00     0.006 C 
ENDBRANCH  14  15
ENDBRANCH  13  14
ENDBRANCH   8  13
BRANCH   7  17
ATOM     17  N   UNL A   1      32.799  26.690  23.748  1.00  0.00    -0.345 N 
ATOM     18  H   UNL A   1      33.375  27.193  23.073  1.00  0.00     0.345 HD
ATOM     19  H   UNL A   1      32.248  25.980  23.264  1.00  0.00     0.345 HD
ATOM     20  H   UNL A   1      33.400  26.240  24.438  1.00  0.00     0.345 HD
ENDBRANCH   7  17
ENDBRANCH   4   7
ENDBRANCH   2   3
ENDBRANCH   1   2
BRANCH   1  21
ATOM     21  C   UNL A   1      32.563  32.302  26.923  1.00  0.00     0.118 C 
BRANCH  21  22
ATOM     22  N   UNL A   1      32.502  33.691  27.369  1.00  0.00    -0.352 N 
ATOM     23  C   UNL A   1      33.189  34.321  28.376  1.00  0.00     0.251 C 
ATOM     24  H   UNL A   1      31.873  34.262  26.872  1.00  0.00     0.163 HD
ATOM     25  O   UNL A   1      32.791  35.405  28.792  1.00  0.00    -0.269 OA
BRANCH  23  26
ATOM     26  C   UNL A   1      34.394  33.690  28.950  1.00  0.00     0.039 A 
ATOM     27  C   UNL A   1      35.653  34.220  28.658  1.00  0.00     0.014 A 
ATOM     28  C   UNL A   1      34.276  32.559  29.760  1.00  0.00     0.014 A 
ATOM     29  C   UNL A   1      36.789  33.650  29.233  1.00  0.00     0.010 A 
ATOM     30  C   UNL A   1      35.397  32.053  30.405  1.00  0.00     0.010 A 
ATOM     31  C   UNL A   1      36.668  32.584  30.139  1.00  0.00    -0.014 A 
BRANCH  31  32
ATOM     32  C   UNL A   1      37.851  31.974  30.798  1.00  0.00     0.031 A 
ATOM     33  C   UNL A   1      38.639  30.918  30.071  1.00  0.00     0.074 A 
ATOM     34  C   UNL A   1      38.158  32.308  32.067  1.00  0.00     0.049 A 
ATOM     35  N   UNL A   1      39.610  30.160  30.511  1.00  0.00    -0.248 NA
ATOM     36  C   UNL A   1      38.258  30.654  28.674  1.00  0.00     0.031 C 
ATOM     37  C   UNL A   1      37.445  33.298  32.879  1.00  0.00     0.029 A 
ATOM     38  N   UNL A   1      39.140  31.841  32.904  1.00  0.00    -0.354 N 
ATOM     39  C   UNL A   1      39.939  29.316  29.455  1.00  0.00     0.074 A 
ATOM     40  C   UNL A   1      39.022  29.614  28.376  1.00  0.00     0.031 C 
ATOM     41  C   UNL A   1      38.025  33.377  34.086  1.00  0.00     0.029 A 
ATOM     42  C   UNL A   1      39.112  32.405  34.159  1.00  0.00     0.049 A 
ATOM     43  H   UNL A   1      39.802  31.166  32.633  1.00  0.00     0.167 HD
ATOM     44  C   UNL A   1      40.930  28.395  29.385  1.00  0.00     0.034 A 
ATOM     45  C   UNL A   1      39.863  32.152  35.250  1.00  0.00     0.034 A 
ATOM     46  C   UNL A   1      41.847  28.131  30.466  1.00  0.00     0.049 A 
ATOM     47  C   UNL A   1      40.943  31.101  35.156  1.00  0.00     0.074 A 
ATOM     48  C   UNL A   1      42.921  27.259  30.489  1.00  0.00     0.029 A 
ATOM     49  N   UNL A   1      41.797  28.733  31.717  1.00  0.00    -0.354 N 
ATOM     50  N   UNL A   1      41.267  30.339  34.136  1.00  0.00    -0.248 NA
ATOM     51  C   UNL A   1      41.762  30.881  36.355  1.00  0.00     0.031 C 
ATOM     52  C   UNL A   1      43.473  27.278  31.773  1.00  0.00     0.029 A 
ATOM     53  C   UNL A   1      42.803  28.229  32.526  1.00  0.00     0.049 A 
ATOM     54  H   UNL A   1      41.143  29.417  31.989  1.00  0.00     0.167 HD
ATOM     55  C   UNL A   1      42.360  29.585  34.559  1.00  0.00     0.074 A 
ATOM     56  C   UNL A   1      42.640  29.988  35.921  1.00  0.00     0.031 C 
ATOM     57  C   UNL A   1      43.073  28.650  33.881  1.00  0.00     0.034 A 
BRANCH  44  58
ATOM     58  C   UNL A   1      41.056  27.594  28.112  1.00  0.00     0.023 A 
ATOM     59  C   UNL A   1      40.648  26.251  28.037  1.00  0.00     0.031 A 
ATOM     60  C   UNL A   1      41.602  28.180  26.956  1.00  0.00     0.131 A 
ATOM     61  C   UNL A   1      40.855  25.520  26.858  1.00  0.00     0.055 A 
ATOM     62  C   UNL A   1      41.726  27.471  25.759  1.00  0.00     0.041 A 
ATOM     63  F   UNL A   1      42.032  29.451  26.972  1.00  0.00    -0.206 F 
ATOM     64  C   UNL A   1      41.364  26.128  25.710  1.00  0.00     0.022 A 
BRANCH  61  65
ATOM     65  S   UNL A   1      40.577  23.728  26.890  1.00  0.00     0.124 S 
ATOM     66  O   UNL A   1      40.787  23.423  28.303  1.00  0.00    -0.237 OA
ATOM     67  O   UNL A   1      39.206  23.613  26.408  1.00  0.00    -0.237 OA
ATOM     68  O   UNL A   1      41.602  23.206  25.989  1.00  0.00    -0.744 OA
ENDBRANCH  61  65
ENDBRANCH  44  58
BRANCH  45  69
ATOM     69  C   UNL A   1      39.621  32.882  36.529  1.00  0.00     0.023 A 
ATOM     70  C   UNL A   1      38.728  32.379  37.489  1.00  0.00     0.031 A 
ATOM     71  C   UNL A   1      40.228  34.124  36.786  1.00  0.00     0.131 A 
ATOM     72  C   UNL A   1      38.418  33.142  38.626  1.00  0.00     0.055 A 
ATOM     73  C   UNL A   1      39.967  34.849  37.951  1.00  0.00     0.041 A 
ATOM     74  F   UNL A   1      41.093  34.653  35.906  1.00  0.00    -0.206 F 
ATOM     75  C   UNL A   1      39.042  34.365  38.870  1.00  0.00     0.022 A 
BRANCH  72  76
ATOM     76  S   UNL A   1      37.092  32.563  39.721  1.00  0.00     0.124 S 
ATOM     77  O   UNL A   1      35.924  32.675  38.855  1.00  0.00    -0.237 OA
ATOM     78  O   UNL A   1      37.531  31.207  40.036  1.00  0.00    -0.237 OA
ATOM     79  O   UNL A   1      37.137  33.506  40.836  1.00  0.00    -0.744 OA
ENDBRANCH  72  76
ENDBRANCH  45  69
BRANCH  57  80
ATOM     80  C   UNL A   1      44.272  28.054  34.577  1.00  0.00     0.023 A 
ATOM     81  C   UNL A   1      44.163  26.952  35.441  1.00  0.00     0.031 A 
ATOM     82  C   UNL A   1      45.551  28.595  34.351  1.00  0.00     0.131 A 
ATOM     83  C   UNL A   1      45.307  26.458  36.088  1.00  0.00     0.055 A 
ATOM     84  C   UNL A   1      46.692  28.059  34.946  1.00  0.00     0.041 A 
ATOM     85  F   UNL A   1      45.712  29.651  33.536  1.00  0.00    -0.206 F 
ATOM     86  C   UNL A   1      46.572  26.991  35.829  1.00  0.00     0.022 A 
BRANCH  83  87
ATOM     87  S   UNL A   1      45.109  25.160  37.338  1.00  0.00     0.124 S 
ATOM     88  O   UNL A   1      43.748  25.397  37.810  1.00  0.00    -0.237 OA
ATOM     89  O   UNL A   1      45.309  23.942  36.558  1.00  0.00    -0.237 OA
ATOM     90  O   UNL A   1      46.162  25.453  38.308  1.00  0.00    -0.744 OA
ENDBRANCH  83  87
ENDBRANCH  57  80
ENDBRANCH  31  32
ENDBRANCH  23  26
ENDBRANCH  21  22
ENDBRANCH   1  21
TORSDOF 17
ENDMDL
