MODEL 1
REMARK VINA RESULT:     -11.9      0.000      0.000
REMARK SMILES O=C(C[C@H]1C[C@H]2CC[C@@H](C1)N2C(=O)c1c[nH]c(=O)[nH]1)NCCCNC(=O)c1ccc(-c2c3nc(c(-c4cc(S(=O)(=O)[O-])ccc4F)c4ccc([nH]4)c(-c4cc(S(=O)(=O)[O-])ccc4F)c4nc(c(-c5cc(S(=O)(=O)[O-])ccc5F)c5ccc2[nH]5)C=C4)C=C3)cc1
REMARK SMILES IDX 22 1 21 2 20 3 1 4 2 5 3 7 4 8 5 9 10 10 6 11 9 12 7 13
REMARK SMILES IDX 11 14 8 15 12 16 13 17 14 18 15 19 19 20 16 21 17 22 18 25
REMARK SMILES IDX 23 26 24 27 25 28 26 30 27 31 28 32 89 33 29 34 88 35 30 36
REMARK SMILES IDX 31 37 32 38 82 39 33 40 87 41 81 42 83 43 34 44 86 45 80 46
REMARK SMILES IDX 79 47 35 49 67 50 47 51 66 52 48 53 51 54 65 55 84 56 49 57
REMARK SMILES IDX 50 58 64 60 85 61 52 62 36 63 37 64 45 65 38 66 44 67 46 68
REMARK SMILES IDX 43 69 39 70 40 71 41 72 42 73 68 74 69 75 77 76 70 77 76 78
REMARK SMILES IDX 78 79 75 80 71 81 72 82 73 83 74 84 53 85 54 86 62 87 55 88
REMARK SMILES IDX 61 89 63 90 60 91 56 92 57 93 58 94 59 95
REMARK H PARENT 20 6 19 23 16 24 24 29 83 48 51 59
REMARK Flexibility Score: inf
ROOT
ATOM      1  C   UNL A   1      32.123  28.371  27.170  1.00  0.00     0.042 C 
ENDROOT
BRANCH   1   2
ATOM      2  C   UNL A   1      31.782  27.546  25.935  1.00  0.00     0.117 C 
BRANCH   2   3
ATOM      3  N   UNL A   1      32.572  26.332  25.861  1.00  0.00    -0.356 N 
ATOM      4  O   UNL A   1      31.051  24.978  26.925  1.00  0.00    -0.275 OA
ATOM      5  C   UNL A   1      32.146  25.143  26.398  1.00  0.00     0.220 C 
ATOM      6  H   UNL A   1      33.446  26.362  25.409  1.00  0.00     0.163 HD
BRANCH   5   7
ATOM      7  C   UNL A   1      33.148  24.015  26.282  1.00  0.00     0.103 C 
BRANCH   7   8
ATOM      8  C   UNL A   1      32.521  22.608  26.202  1.00  0.00     0.002 C 
ATOM      9  C   UNL A   1      31.783  22.408  24.850  1.00  0.00     0.029 C 
ATOM     10  C   UNL A   1      33.497  21.440  26.511  1.00  0.00     0.029 C 
ATOM     11  C   UNL A   1      32.608  21.680  23.770  1.00  0.00     0.086 C 
ATOM     12  C   UNL A   1      34.163  20.826  25.269  1.00  0.00     0.086 C 
ATOM     13  C   UNL A   1      33.918  22.392  23.421  1.00  0.00     0.027 C 
ATOM     14  N   UNL A   1      33.102  20.446  24.350  1.00  0.00    -0.331 N 
ATOM     15  C   UNL A   1      34.939  21.862  24.445  1.00  0.00     0.027 C 
BRANCH  14  16
ATOM     16  C   UNL A   1      32.785  19.210  23.845  1.00  0.00     0.272 C 
ATOM     17  O   UNL A   1      32.239  19.044  22.756  1.00  0.00    -0.267 OA
BRANCH  16  18
ATOM     18  C   UNL A   1      33.201  18.029  24.631  1.00  0.00     0.125 A 
ATOM     19  C   UNL A   1      32.644  17.511  25.736  1.00  0.00     0.119 A 
ATOM     20  N   UNL A   1      34.257  17.233  24.254  1.00  0.00    -0.302 N 
ATOM     21  N   UNL A   1      33.358  16.393  26.095  1.00  0.00    -0.312 N 
ATOM     22  C   UNL A   1      34.394  16.188  25.170  1.00  0.00     0.323 A 
ATOM     23  H   UNL A   1      34.827  17.377  23.464  1.00  0.00     0.172 HD
ATOM     24  H   UNL A   1      33.171  15.826  26.878  1.00  0.00     0.171 HD
ATOM     25  O   UNL A   1      35.221  15.298  25.171  1.00  0.00    -0.248 OA
ENDBRANCH  16  18
ENDBRANCH  14  16
ENDBRANCH   7   8
ENDBRANCH   5   7
ENDBRANCH   2   3
ENDBRANCH   1   2
BRANCH   1  26
ATOM     26  C   UNL A   1      33.562  28.879  27.207  1.00  0.00     0.118 C 
BRANCH  26  27
ATOM     27  N   UNL A   1      33.663  30.291  27.552  1.00  0.00    -0.352 N 
ATOM     28  C   UNL A   1      34.680  30.963  28.187  1.00  0.00     0.251 C 
ATOM     29  H   UNL A   1      32.890  30.844  27.291  1.00  0.00     0.163 HD
ATOM     30  O   UNL A   1      34.519  32.134  28.519  1.00  0.00    -0.269 OA
BRANCH  28  31
ATOM     31  C   UNL A   1      35.944  30.262  28.497  1.00  0.00     0.039 A 
ATOM     32  C   UNL A   1      37.004  30.344  27.589  1.00  0.00     0.014 A 
ATOM     33  C   UNL A   1      36.092  29.548  29.690  1.00  0.00     0.014 A 
ATOM     34  C   UNL A   1      38.241  29.782  27.918  1.00  0.00     0.010 A 
ATOM     35  C   UNL A   1      37.341  29.048  30.042  1.00  0.00     0.010 A 
ATOM     36  C   UNL A   1      38.433  29.171  29.167  1.00  0.00    -0.014 A 
BRANCH  36  37
ATOM     37  C   UNL A   1      39.764  28.666  29.597  1.00  0.00     0.031 A 
ATOM     38  C   UNL A   1      40.526  29.385  30.675  1.00  0.00     0.074 A 
ATOM     39  C   UNL A   1      40.326  27.625  28.948  1.00  0.00     0.049 A 
ATOM     40  N   UNL A   1      41.758  29.209  31.076  1.00  0.00    -0.248 NA
ATOM     41  C   UNL A   1      39.813  30.465  31.370  1.00  0.00     0.031 C 
ATOM     42  C   UNL A   1      39.696  26.862  27.869  1.00  0.00     0.029 A 
ATOM     43  N   UNL A   1      41.562  27.045  29.086  1.00  0.00    -0.354 N 
ATOM     44  C   UNL A   1      41.977  30.171  32.056  1.00  0.00     0.074 A 
ATOM     45  C   UNL A   1      40.764  30.957  32.150  1.00  0.00     0.031 C 
ATOM     46  C   UNL A   1      40.546  25.911  27.449  1.00  0.00     0.029 A 
ATOM     47  C   UNL A   1      41.800  26.029  28.187  1.00  0.00     0.049 A 
ATOM     48  H   UNL A   1      42.218  27.328  29.763  1.00  0.00     0.167 HD
ATOM     49  C   UNL A   1      43.083  30.370  32.817  1.00  0.00     0.034 A 
ATOM     50  C   UNL A   1      42.908  25.296  27.964  1.00  0.00     0.034 A 
ATOM     51  C   UNL A   1      44.279  29.568  32.721  1.00  0.00     0.049 A 
ATOM     52  C   UNL A   1      44.137  25.555  28.799  1.00  0.00     0.074 A 
ATOM     53  C   UNL A   1      45.435  29.650  33.476  1.00  0.00     0.029 A 
ATOM     54  N   UNL A   1      44.475  28.538  31.808  1.00  0.00    -0.354 N 
ATOM     55  N   UNL A   1      44.319  26.449  29.742  1.00  0.00    -0.248 NA
ATOM     56  C   UNL A   1      45.306  24.702  28.545  1.00  0.00     0.031 C 
ATOM     57  C   UNL A   1      46.352  28.716  32.981  1.00  0.00     0.029 A 
ATOM     58  C   UNL A   1      45.742  27.998  31.965  1.00  0.00     0.049 A 
ATOM     59  H   UNL A   1      43.810  28.237  31.147  1.00  0.00     0.167 HD
ATOM     60  C   UNL A   1      45.610  26.239  30.219  1.00  0.00     0.074 A 
ATOM     61  C   UNL A   1      46.161  25.136  29.460  1.00  0.00     0.031 C 
ATOM     62  C   UNL A   1      46.277  26.895  31.203  1.00  0.00     0.034 A 
BRANCH  49  63
ATOM     63  C   UNL A   1      43.054  31.518  33.796  1.00  0.00     0.023 A 
ATOM     64  C   UNL A   1      42.505  31.378  35.083  1.00  0.00     0.031 A 
ATOM     65  C   UNL A   1      43.559  32.779  33.431  1.00  0.00     0.131 A 
ATOM     66  C   UNL A   1      42.400  32.495  35.925  1.00  0.00     0.055 A 
ATOM     67  C   UNL A   1      43.528  33.867  34.306  1.00  0.00     0.041 A 
ATOM     68  F   UNL A   1      44.077  32.981  32.209  1.00  0.00    -0.206 F 
ATOM     69  C   UNL A   1      42.930  33.732  35.556  1.00  0.00     0.022 A 
BRANCH  66  70
ATOM     70  S   UNL A   1      41.423  32.341  37.445  1.00  0.00     0.124 S 
ATOM     71  O   UNL A   1      41.340  33.733  37.885  1.00  0.00    -0.237 OA
ATOM     72  O   UNL A   1      40.180  31.749  36.963  1.00  0.00    -0.237 OA
ATOM     73  O   UNL A   1      42.240  31.475  38.292  1.00  0.00    -0.744 OA
ENDBRANCH  66  70
ENDBRANCH  49  63
BRANCH  50  74
ATOM     74  C   UNL A   1      42.924  24.259  26.892  1.00  0.00     0.023 A 
ATOM     75  C   UNL A   1      42.258  23.035  27.062  1.00  0.00     0.031 A 
ATOM     76  C   UNL A   1      43.635  24.463  25.696  1.00  0.00     0.131 A 
ATOM     77  C   UNL A   1      42.355  22.044  26.073  1.00  0.00     0.055 A 
ATOM     78  C   UNL A   1      43.685  23.494  24.693  1.00  0.00     0.041 A 
ATOM     79  F   UNL A   1      44.284  25.619  25.480  1.00  0.00    -0.206 F 
ATOM     80  C   UNL A   1      43.052  22.269  24.885  1.00  0.00     0.022 A 
BRANCH  77  81
ATOM     81  S   UNL A   1      41.621  20.418  26.402  1.00  0.00     0.124 S 
ATOM     82  O   UNL A   1      42.128  20.128  27.739  1.00  0.00    -0.237 OA
ATOM     83  O   UNL A   1      40.194  20.706  26.304  1.00  0.00    -0.237 OA
ATOM     84  O   UNL A   1      42.160  19.580  25.334  1.00  0.00    -0.744 OA
ENDBRANCH  77  81
ENDBRANCH  50  74
BRANCH  62  85
ATOM     85  C   UNL A   1      47.651  26.389  31.561  1.00  0.00     0.023 A 
ATOM     86  C   UNL A   1      48.805  26.825  30.889  1.00  0.00     0.031 A 
ATOM     87  C   UNL A   1      47.803  25.463  32.609  1.00  0.00     0.131 A 
ATOM     88  C   UNL A   1      50.059  26.305  31.247  1.00  0.00     0.055 A 
ATOM     89  C   UNL A   1      49.057  24.988  32.995  1.00  0.00     0.041 A 
ATOM     90  F   UNL A   1      46.732  25.013  33.283  1.00  0.00    -0.206 F 
ATOM     91  C   UNL A   1      50.194  25.403  32.307  1.00  0.00     0.022 A 
BRANCH  88  92
ATOM     92  S   UNL A   1      51.512  26.779  30.272  1.00  0.00     0.124 S 
ATOM     93  O   UNL A   1      51.409  25.890  29.119  1.00  0.00    -0.237 OA
ATOM     94  O   UNL A   1      51.267  28.194  30.010  1.00  0.00    -0.237 OA
ATOM     95  O   UNL A   1      52.634  26.502  31.169  1.00  0.00    -0.744 OA
ENDBRANCH  88  92
ENDBRANCH  62  85
ENDBRANCH  36  37
ENDBRANCH  28  31
ENDBRANCH  26  27
ENDBRANCH   1  26
TORSDOF 16
ENDMDL
MODEL 2
REMARK VINA RESULT:     -11.9      3.193      8.599
REMARK SMILES O=C(C[C@H]1C[C@H]2CC[C@@H](C1)N2C(=O)c1c[nH]c(=O)[nH]1)NCCCNC(=O)c1ccc(-c2c3nc(c(-c4cc(S(=O)(=O)[O-])ccc4F)c4ccc([nH]4)c(-c4cc(S(=O)(=O)[O-])ccc4F)c4nc(c(-c5cc(S(=O)(=O)[O-])ccc5F)c5ccc2[nH]5)C=C4)C=C3)cc1
REMARK SMILES IDX 22 1 21 2 20 3 1 4 2 5 3 7 4 8 5 9 10 10 6 11 9 12 7 13
REMARK SMILES IDX 11 14 8 15 12 16 13 17 14 18 15 19 19 20 16 21 17 22 18 25
REMARK SMILES IDX 23 26 24 27 25 28 26 30 27 31 28 32 89 33 29 34 88 35 30 36
REMARK SMILES IDX 31 37 32 38 82 39 33 40 87 41 81 42 83 43 34 44 86 45 80 46
REMARK SMILES IDX 79 47 35 49 67 50 47 51 66 52 48 53 51 54 65 55 84 56 49 57
REMARK SMILES IDX 50 58 64 60 85 61 52 62 36 63 37 64 45 65 38 66 44 67 46 68
REMARK SMILES IDX 43 69 39 70 40 71 41 72 42 73 68 74 69 75 77 76 70 77 76 78
REMARK SMILES IDX 78 79 75 80 71 81 72 82 73 83 74 84 53 85 54 86 62 87 55 88
REMARK SMILES IDX 61 89 63 90 60 91 56 92 57 93 58 94 59 95
REMARK H PARENT 20 6 19 23 16 24 24 29 83 48 51 59
REMARK Flexibility Score: inf
ROOT
ATOM      1  C   UNL A   1      32.063  28.124  26.517  1.00  0.00     0.042 C 
ENDROOT
BRANCH   1   2
ATOM      2  C   UNL A   1      31.146  27.427  25.519  1.00  0.00     0.117 C 
BRANCH   2   3
ATOM      3  N   UNL A   1      31.479  26.025  25.367  1.00  0.00    -0.356 N 
ATOM      4  O   UNL A   1      29.643  25.207  26.478  1.00  0.00    -0.275 OA
ATOM      5  C   UNL A   1      30.705  25.022  25.893  1.00  0.00     0.220 C 
ATOM      6  H   UNL A   1      32.292  25.783  24.866  1.00  0.00     0.163 HD
BRANCH   5   7
ATOM      7  C   UNL A   1      31.266  23.632  25.689  1.00  0.00     0.103 C 
BRANCH   7   8
ATOM      8  C   UNL A   1      32.798  23.531  25.836  1.00  0.00     0.002 C 
ATOM      9  C   UNL A   1      33.186  22.386  26.811  1.00  0.00     0.029 C 
ATOM     10  C   UNL A   1      33.578  23.444  24.496  1.00  0.00     0.029 C 
ATOM     11  C   UNL A   1      33.552  21.055  26.124  1.00  0.00     0.086 C 
ATOM     12  C   UNL A   1      33.885  22.011  24.034  1.00  0.00     0.086 C 
ATOM     13  C   UNL A   1      32.428  20.489  25.253  1.00  0.00     0.027 C 
ATOM     14  N   UNL A   1      34.567  21.338  25.128  1.00  0.00    -0.331 N 
ATOM     15  C   UNL A   1      32.619  21.159  23.879  1.00  0.00     0.027 C 
BRANCH  14  16
ATOM     16  C   UNL A   1      35.818  20.775  25.163  1.00  0.00     0.272 C 
ATOM     17  O   UNL A   1      36.040  19.601  24.873  1.00  0.00    -0.267 OA
BRANCH  16  18
ATOM     18  C   UNL A   1      36.953  21.662  25.495  1.00  0.00     0.125 A 
ATOM     19  C   UNL A   1      38.259  21.495  25.237  1.00  0.00     0.119 A 
ATOM     20  N   UNL A   1      36.776  22.883  26.103  1.00  0.00    -0.302 N 
ATOM     21  N   UNL A   1      38.935  22.595  25.705  1.00  0.00    -0.312 N 
ATOM     22  C   UNL A   1      38.018  23.499  26.264  1.00  0.00     0.323 A 
ATOM     23  H   UNL A   1      35.911  23.261  26.381  1.00  0.00     0.172 HD
ATOM     24  H   UNL A   1      39.910  22.728  25.657  1.00  0.00     0.171 HD
ATOM     25  O   UNL A   1      38.258  24.577  26.772  1.00  0.00    -0.248 OA
ENDBRANCH  16  18
ENDBRANCH  14  16
ENDBRANCH   7   8
ENDBRANCH   5   7
ENDBRANCH   2   3
ENDBRANCH   1   2
BRANCH   1  26
ATOM     26  C   UNL A   1      32.933  29.221  25.908  1.00  0.00     0.118 C 
BRANCH  26  27
ATOM     27  N   UNL A   1      32.518  30.563  26.296  1.00  0.00    -0.352 N 
ATOM     28  C   UNL A   1      33.123  31.447  27.158  1.00  0.00     0.251 C 
ATOM     29  H   UNL A   1      31.684  30.882  25.881  1.00  0.00     0.163 HD
ATOM     30  O   UNL A   1      32.543  32.482  27.470  1.00  0.00    -0.269 OA
BRANCH  28  31
ATOM     31  C   UNL A   1      34.448  31.128  27.729  1.00  0.00     0.039 A 
ATOM     32  C   UNL A   1      35.394  32.149  27.859  1.00  0.00     0.014 A 
ATOM     33  C   UNL A   1      34.748  29.831  28.159  1.00  0.00     0.014 A 
ATOM     34  C   UNL A   1      36.609  31.889  28.500  1.00  0.00     0.010 A 
ATOM     35  C   UNL A   1      35.930  29.593  28.854  1.00  0.00     0.010 A 
ATOM     36  C   UNL A   1      36.867  30.621  29.044  1.00  0.00    -0.014 A 
BRANCH  36  37
ATOM     37  C   UNL A   1      38.097  30.342  29.830  1.00  0.00     0.031 A 
ATOM     38  C   UNL A   1      39.096  29.335  29.328  1.00  0.00     0.074 A 
ATOM     39  C   UNL A   1      38.264  30.916  31.039  1.00  0.00     0.049 A 
ATOM     40  N   UNL A   1      40.138  28.829  29.934  1.00  0.00    -0.248 NA
ATOM     41  C   UNL A   1      38.868  28.809  27.975  1.00  0.00     0.031 C 
ATOM     42  C   UNL A   1      37.354  31.889  31.646  1.00  0.00     0.029 A 
ATOM     43  N   UNL A   1      39.246  30.748  31.985  1.00  0.00    -0.354 N 
ATOM     44  C   UNL A   1      40.681  27.907  29.045  1.00  0.00     0.074 A 
ATOM     45  C   UNL A   1      39.819  27.891  27.881  1.00  0.00     0.031 C 
ATOM     46  C   UNL A   1      37.822  32.235  32.855  1.00  0.00     0.029 A 
ATOM     47  C   UNL A   1      39.034  31.472  33.136  1.00  0.00     0.049 A 
ATOM     48  H   UNL A   1      40.026  30.164  31.852  1.00  0.00     0.167 HD
ATOM     49  C   UNL A   1      41.801  27.155  29.183  1.00  0.00     0.034 A 
ATOM     50  C   UNL A   1      39.722  31.499  34.295  1.00  0.00     0.034 A 
ATOM     51  C   UNL A   1      42.657  27.194  30.344  1.00  0.00     0.049 A 
ATOM     52  C   UNL A   1      40.946  30.631  34.439  1.00  0.00     0.074 A 
ATOM     53  C   UNL A   1      43.841  26.514  30.566  1.00  0.00     0.029 A 
ATOM     54  N   UNL A   1      42.417  27.953  31.484  1.00  0.00    -0.354 N 
ATOM     55  N   UNL A   1      41.463  29.785  33.578  1.00  0.00    -0.248 NA
ATOM     56  C   UNL A   1      41.684  30.726  35.706  1.00  0.00     0.031 C 
ATOM     57  C   UNL A   1      44.284  26.810  31.860  1.00  0.00     0.029 A 
ATOM     58  C   UNL A   1      43.417  27.734  32.419  1.00  0.00     0.049 A 
ATOM     59  H   UNL A   1      41.650  28.557  31.607  1.00  0.00     0.167 HD
ATOM     60  C   UNL A   1      42.608  29.277  34.187  1.00  0.00     0.074 A 
ATOM     61  C   UNL A   1      42.706  29.911  35.485  1.00  0.00     0.031 C 
ATOM     62  C   UNL A   1      43.503  28.376  33.710  1.00  0.00     0.034 A 
BRANCH  49  63
ATOM     63  C   UNL A   1      42.144  26.208  28.058  1.00  0.00     0.023 A 
ATOM     64  C   UNL A   1      41.792  24.847  28.106  1.00  0.00     0.031 A 
ATOM     65  C   UNL A   1      42.854  26.663  26.934  1.00  0.00     0.131 A 
ATOM     66  C   UNL A   1      42.220  23.977  27.093  1.00  0.00     0.055 A 
ATOM     67  C   UNL A   1      43.205  25.808  25.887  1.00  0.00     0.041 A 
ATOM     68  F   UNL A   1      43.236  27.947  26.840  1.00  0.00    -0.206 F 
ATOM     69  C   UNL A   1      42.902  24.452  25.971  1.00  0.00     0.022 A 
BRANCH  66  70
ATOM     70  S   UNL A   1      42.006  22.193  27.339  1.00  0.00     0.124 S 
ATOM     71  O   UNL A   1      43.143  21.876  28.201  1.00  0.00    -0.237 OA
ATOM     72  O   UNL A   1      40.690  22.117  27.963  1.00  0.00    -0.237 OA
ATOM     73  O   UNL A   1      42.088  21.648  25.986  1.00  0.00    -0.744 OA
ENDBRANCH  66  70
ENDBRANCH  49  63
BRANCH  50  74
ATOM     74  C   UNL A   1      39.264  32.359  35.424  1.00  0.00     0.023 A 
ATOM     75  C   UNL A   1      39.736  33.672  35.569  1.00  0.00     0.031 A 
ATOM     76  C   UNL A   1      38.374  31.866  36.396  1.00  0.00     0.131 A 
ATOM     77  C   UNL A   1      39.354  34.434  36.685  1.00  0.00     0.055 A 
ATOM     78  C   UNL A   1      37.955  32.646  37.475  1.00  0.00     0.041 A 
ATOM     79  F   UNL A   1      37.887  30.618  36.300  1.00  0.00    -0.206 F 
ATOM     80  C   UNL A   1      38.458  33.934  37.631  1.00  0.00     0.022 A 
BRANCH  77  81
ATOM     81  S   UNL A   1      40.115  36.063  36.924  1.00  0.00     0.124 S 
ATOM     82  O   UNL A   1      41.514  35.709  37.138  1.00  0.00    -0.237 OA
ATOM     83  O   UNL A   1      39.806  36.728  35.662  1.00  0.00    -0.237 OA
ATOM     84  O   UNL A   1      39.418  36.594  38.093  1.00  0.00    -0.744 OA
ENDBRANCH  77  81
ENDBRANCH  50  74
BRANCH  62  85
ATOM     85  C   UNL A   1      44.703  28.073  34.570  1.00  0.00     0.023 A 
ATOM     86  C   UNL A   1      44.705  27.025  35.506  1.00  0.00     0.031 A 
ATOM     87  C   UNL A   1      45.872  28.843  34.435  1.00  0.00     0.131 A 
ATOM     88  C   UNL A   1      45.842  26.799  36.299  1.00  0.00     0.055 A 
ATOM     89  C   UNL A   1      47.016  28.583  35.189  1.00  0.00     0.041 A 
ATOM     90  F   UNL A   1      45.923  29.858  33.557  1.00  0.00    -0.206 F 
ATOM     91  C   UNL A   1      47.002  27.560  36.134  1.00  0.00     0.022 A 
BRANCH  88  92
ATOM     92  S   UNL A   1      45.767  25.531  37.593  1.00  0.00     0.124 S 
ATOM     93  O   UNL A   1      44.394  25.663  38.069  1.00  0.00    -0.237 OA
ATOM     94  O   UNL A   1      46.070  24.309  36.853  1.00  0.00    -0.237 OA
ATOM     95  O   UNL A   1      46.796  25.950  38.544  1.00  0.00    -0.744 OA
ENDBRANCH  88  92
ENDBRANCH  62  85
ENDBRANCH  36  37
ENDBRANCH  28  31
ENDBRANCH  26  27
ENDBRANCH   1  26
TORSDOF 16
ENDMDL
MODEL 3
REMARK VINA RESULT:     -11.9      4.694      8.195
REMARK SMILES O=C(C[C@H]1C[C@H]2CC[C@@H](C1)N2C(=O)c1c[nH]c(=O)[nH]1)NCCCNC(=O)c1ccc(-c2c3nc(c(-c4cc(S(=O)(=O)[O-])ccc4F)c4ccc([nH]4)c(-c4cc(S(=O)(=O)[O-])ccc4F)c4nc(c(-c5cc(S(=O)(=O)[O-])ccc5F)c5ccc2[nH]5)C=C4)C=C3)cc1
REMARK SMILES IDX 22 1 21 2 20 3 1 4 2 5 3 7 4 8 5 9 10 10 6 11 9 12 7 13
REMARK SMILES IDX 11 14 8 15 12 16 13 17 14 18 15 19 19 20 16 21 17 22 18 25
REMARK SMILES IDX 23 26 24 27 25 28 26 30 27 31 28 32 89 33 29 34 88 35 30 36
REMARK SMILES IDX 31 37 32 38 82 39 33 40 87 41 81 42 83 43 34 44 86 45 80 46
REMARK SMILES IDX 79 47 35 49 67 50 47 51 66 52 48 53 51 54 65 55 84 56 49 57
REMARK SMILES IDX 50 58 64 60 85 61 52 62 36 63 37 64 45 65 38 66 44 67 46 68
REMARK SMILES IDX 43 69 39 70 40 71 41 72 42 73 68 74 69 75 77 76 70 77 76 78
REMARK SMILES IDX 78 79 75 80 71 81 72 82 73 83 74 84 53 85 54 86 62 87 55 88
REMARK SMILES IDX 61 89 63 90 60 91 56 92 57 93 58 94 59 95
REMARK H PARENT 20 6 19 23 16 24 24 29 83 48 51 59
REMARK Flexibility Score: inf
ROOT
ATOM      1  C   UNL A   1      34.890  21.602  26.384  1.00  0.00     0.042 C 
ENDROOT
BRANCH   1   2
ATOM      2  C   UNL A   1      33.686  21.646  25.450  1.00  0.00     0.117 C 
BRANCH   2   3
ATOM      3  N   UNL A   1      33.620  22.891  24.711  1.00  0.00    -0.356 N 
ATOM      4  O   UNL A   1      31.872  22.283  23.350  1.00  0.00    -0.275 OA
ATOM      5  C   UNL A   1      32.727  23.095  23.690  1.00  0.00     0.220 C 
ATOM      6  H   UNL A   1      34.239  23.619  24.952  1.00  0.00     0.163 HD
BRANCH   5   7
ATOM      7  C   UNL A   1      32.870  24.433  22.998  1.00  0.00     0.103 C 
BRANCH   7   8
ATOM      8  C   UNL A   1      31.631  25.346  23.107  1.00  0.00     0.002 C 
ATOM      9  C   UNL A   1      31.519  25.955  24.532  1.00  0.00     0.029 C 
ATOM     10  C   UNL A   1      31.518  26.429  22.000  1.00  0.00     0.029 C 
ATOM     11  C   UNL A   1      32.100  27.377  24.669  1.00  0.00     0.086 C 
ATOM     12  C   UNL A   1      32.116  27.792  22.385  1.00  0.00     0.086 C 
ATOM     13  C   UNL A   1      33.583  27.467  24.301  1.00  0.00     0.027 C 
ATOM     14  N   UNL A   1      31.500  28.200  23.637  1.00  0.00    -0.331 N 
ATOM     15  C   UNL A   1      33.596  27.695  22.777  1.00  0.00     0.027 C 
BRANCH  14  16
ATOM     16  C   UNL A   1      30.749  29.312  23.919  1.00  0.00     0.272 C 
ATOM     17  O   UNL A   1      30.958  30.044  24.884  1.00  0.00    -0.267 OA
BRANCH  16  18
ATOM     18  C   UNL A   1      29.686  29.675  22.957  1.00  0.00     0.125 A 
ATOM     19  C   UNL A   1      28.513  29.066  22.725  1.00  0.00     0.119 A 
ATOM     20  N   UNL A   1      29.763  30.799  22.169  1.00  0.00    -0.302 N 
ATOM     21  N   UNL A   1      27.840  29.779  21.763  1.00  0.00    -0.312 N 
ATOM     22  C   UNL A   1      28.610  30.891  21.387  1.00  0.00     0.323 A 
ATOM     23  H   UNL A   1      30.512  31.438  22.158  1.00  0.00     0.172 HD
ATOM     24  H   UNL A   1      26.956  29.547  21.396  1.00  0.00     0.171 HD
ATOM     25  O   UNL A   1      28.331  31.741  20.564  1.00  0.00    -0.248 OA
ENDBRANCH  16  18
ENDBRANCH  14  16
ENDBRANCH   7   8
ENDBRANCH   5   7
ENDBRANCH   2   3
ENDBRANCH   1   2
BRANCH   1  26
ATOM     26  C   UNL A   1      36.189  22.097  25.755  1.00  0.00     0.118 C 
BRANCH  26  27
ATOM     27  N   UNL A   1      37.184  21.045  25.592  1.00  0.00    -0.352 N 
ATOM     28  C   UNL A   1      38.544  21.092  25.790  1.00  0.00     0.251 C 
ATOM     29  H   UNL A   1      36.831  20.174  25.297  1.00  0.00     0.163 HD
ATOM     30  O   UNL A   1      39.238  20.136  25.461  1.00  0.00    -0.269 OA
BRANCH  28  31
ATOM     31  C   UNL A   1      39.162  22.306  26.365  1.00  0.00     0.039 A 
ATOM     32  C   UNL A   1      40.238  22.166  27.245  1.00  0.00     0.014 A 
ATOM     33  C   UNL A   1      38.697  23.578  26.016  1.00  0.00     0.014 A 
ATOM     34  C   UNL A   1      40.905  23.304  27.708  1.00  0.00     0.010 A 
ATOM     35  C   UNL A   1      39.403  24.704  26.426  1.00  0.00     0.010 A 
ATOM     36  C   UNL A   1      40.522  24.581  27.266  1.00  0.00    -0.014 A 
BRANCH  36  37
ATOM     37  C   UNL A   1      41.279  25.802  27.646  1.00  0.00     0.031 A 
ATOM     38  C   UNL A   1      40.607  26.880  28.450  1.00  0.00     0.074 A 
ATOM     39  C   UNL A   1      42.533  25.984  27.184  1.00  0.00     0.049 A 
ATOM     40  N   UNL A   1      41.031  28.082  28.742  1.00  0.00    -0.248 NA
ATOM     41  C   UNL A   1      39.266  26.570  28.966  1.00  0.00     0.031 C 
ATOM     42  C   UNL A   1      43.284  25.022  26.374  1.00  0.00     0.029 A 
ATOM     43  N   UNL A   1      43.389  27.050  27.309  1.00  0.00    -0.354 N 
ATOM     44  C   UNL A   1      40.000  28.683  29.458  1.00  0.00     0.074 A 
ATOM     45  C   UNL A   1      38.914  27.726  29.509  1.00  0.00     0.031 C 
ATOM     46  C   UNL A   1      44.488  25.538  26.082  1.00  0.00     0.029 A 
ATOM     47  C   UNL A   1      44.578  26.887  26.634  1.00  0.00     0.049 A 
ATOM     48  H   UNL A   1      43.173  27.855  27.831  1.00  0.00     0.167 HD
ATOM     49  C   UNL A   1      39.970  29.912  30.030  1.00  0.00     0.034 A 
ATOM     50  C   UNL A   1      45.611  27.734  26.457  1.00  0.00     0.034 A 
ATOM     51  C   UNL A   1      41.068  30.848  29.981  1.00  0.00     0.049 A 
ATOM     52  C   UNL A   1      45.543  29.108  27.075  1.00  0.00     0.074 A 
ATOM     53  C   UNL A   1      41.163  32.097  30.569  1.00  0.00     0.029 A 
ATOM     54  N   UNL A   1      42.262  30.639  29.301  1.00  0.00    -0.354 N 
ATOM     55  N   UNL A   1      44.573  29.651  27.773  1.00  0.00    -0.248 NA
ATOM     56  C   UNL A   1      46.711  29.980  26.887  1.00  0.00     0.031 C 
ATOM     57  C   UNL A   1      42.383  32.670  30.193  1.00  0.00     0.029 A 
ATOM     58  C   UNL A   1      43.084  31.747  29.433  1.00  0.00     0.049 A 
ATOM     59  H   UNL A   1      42.489  29.824  28.799  1.00  0.00     0.167 HD
ATOM     60  C   UNL A   1      45.032  30.914  28.139  1.00  0.00     0.074 A 
ATOM     61  C   UNL A   1      46.363  31.051  27.586  1.00  0.00     0.031 C 
ATOM     62  C   UNL A   1      44.411  31.870  28.877  1.00  0.00     0.034 A 
BRANCH  49  63
ATOM     63  C   UNL A   1      38.697  30.321  30.731  1.00  0.00     0.023 A 
ATOM     64  C   UNL A   1      37.643  30.947  30.043  1.00  0.00     0.031 A 
ATOM     65  C   UNL A   1      38.543  30.105  32.112  1.00  0.00     0.131 A 
ATOM     66  C   UNL A   1      36.522  31.407  30.749  1.00  0.00     0.055 A 
ATOM     67  C   UNL A   1      37.387  30.489  32.794  1.00  0.00     0.041 A 
ATOM     68  F   UNL A   1      39.522  29.529  32.828  1.00  0.00    -0.206 F 
ATOM     69  C   UNL A   1      36.374  31.160  32.114  1.00  0.00     0.022 A 
BRANCH  66  70
ATOM     70  S   UNL A   1      35.332  32.467  29.882  1.00  0.00     0.124 S 
ATOM     71  O   UNL A   1      34.345  32.720  30.930  1.00  0.00    -0.237 OA
ATOM     72  O   UNL A   1      36.152  33.606  29.489  1.00  0.00    -0.237 OA
ATOM     73  O   UNL A   1      34.862  31.627  28.783  1.00  0.00    -0.744 OA
ENDBRANCH  66  70
ENDBRANCH  49  63
BRANCH  50  74
ATOM     74  C   UNL A   1      46.791  27.325  25.644  1.00  0.00     0.023 A 
ATOM     75  C   UNL A   1      46.963  27.796  24.333  1.00  0.00     0.031 A 
ATOM     76  C   UNL A   1      47.748  26.428  26.153  1.00  0.00     0.131 A 
ATOM     77  C   UNL A   1      48.039  27.333  23.559  1.00  0.00     0.055 A 
ATOM     78  C   UNL A   1      48.844  26.011  25.398  1.00  0.00     0.041 A 
ATOM     79  F   UNL A   1      47.633  25.953  27.404  1.00  0.00    -0.206 F 
ATOM     80  C   UNL A   1      48.987  26.454  24.086  1.00  0.00     0.022 A 
BRANCH  77  81
ATOM     81  S   UNL A   1      48.134  27.834  21.818  1.00  0.00     0.124 S 
ATOM     82  O   UNL A   1      48.344  26.554  21.151  1.00  0.00    -0.237 OA
ATOM     83  O   UNL A   1      46.832  28.460  21.613  1.00  0.00    -0.237 OA
ATOM     84  O   UNL A   1      49.273  28.748  21.790  1.00  0.00    -0.744 OA
ENDBRANCH  77  81
ENDBRANCH  50  74
BRANCH  62  85
ATOM     85  C   UNL A   1      45.193  33.121  29.184  1.00  0.00     0.023 A 
ATOM     86  C   UNL A   1      45.122  34.263  28.370  1.00  0.00     0.031 A 
ATOM     87  C   UNL A   1      46.013  33.170  30.326  1.00  0.00     0.131 A 
ATOM     88  C   UNL A   1      45.889  35.396  28.689  1.00  0.00     0.055 A 
ATOM     89  C   UNL A   1      46.733  34.315  30.666  1.00  0.00     0.041 A 
ATOM     90  F   UNL A   1      46.117  32.104  31.137  1.00  0.00    -0.206 F 
ATOM     91  C   UNL A   1      46.680  35.435  29.840  1.00  0.00     0.022 A 
BRANCH  88  92
ATOM     92  S   UNL A   1      45.886  36.804  27.545  1.00  0.00     0.124 S 
ATOM     93  O   UNL A   1      46.848  36.377  26.535  1.00  0.00    -0.237 OA
ATOM     94  O   UNL A   1      44.491  36.856  27.116  1.00  0.00    -0.237 OA
ATOM     95  O   UNL A   1      46.318  37.925  28.380  1.00  0.00    -0.744 OA
ENDBRANCH  88  92
ENDBRANCH  62  85
ENDBRANCH  36  37
ENDBRANCH  28  31
ENDBRANCH  26  27
ENDBRANCH   1  26
TORSDOF 16
ENDMDL
