MODEL 1
REMARK VINA RESULT:     -10.5      0.000      0.000
REMARK SMILES N#Cc1cccc(NCCCC(=O)NCCCNC(=O)c2ccc(-c3c4nc(c(-c5cc(S(=O)(=O)[O-])ccc5F)c5ccc([nH]5)c(-c5cc(S(=O)(=O)[O-])ccc5F)c5nc(c(-c6cc(S(=O)(=O)[O-])ccc6F)c6ccc3[nH]6)C=C5)C=C4)cc2)c1
REMARK SMILES IDX 15 1 14 2 12 3 13 4 11 6 10 7 9 8 8 9 7 11 3 12 4 13 84 14
REMARK SMILES IDX 5 15 6 16 2 17 1 18 16 19 17 20 18 21 19 22 20 24 21 25
REMARK SMILES IDX 22 26 83 27 23 28 82 29 24 30 25 31 26 32 76 33 27 34 81 35
REMARK SMILES IDX 75 36 77 37 28 38 80 39 74 40 73 41 29 43 61 44 41 45 60 46
REMARK SMILES IDX 42 47 45 48 59 49 78 50 43 51 44 52 58 54 79 55 46 56 30 57
REMARK SMILES IDX 31 58 39 59 32 60 38 61 40 62 37 63 33 64 34 65 35 66 36 67
REMARK SMILES IDX 62 68 63 69 71 70 64 71 70 72 72 73 69 74 65 75 66 76 67 77
REMARK SMILES IDX 68 78 47 79 48 80 56 81 49 82 55 83 57 84 54 85 50 86 51 87
REMARK SMILES IDX 52 88 53 89
REMARK H PARENT 14 5 8 10 18 23 77 42 45 53
REMARK Flexibility Score: inf
ROOT
ATOM      1  C   UNL A   1      31.888  29.781  25.658  1.00  0.00     0.117 C 
ENDROOT
BRANCH   1   2
ATOM      2  N   UNL A   1      32.913  29.777  24.630  1.00  0.00    -0.356 N 
ATOM      3  C   UNL A   1      33.514  28.734  24.000  1.00  0.00     0.220 C 
ATOM      4  O   UNL A   1      34.426  28.974  23.207  1.00  0.00    -0.275 OA
ATOM      5  H   UNL A   1      33.219  30.669  24.344  1.00  0.00     0.163 HD
BRANCH   3   6
ATOM      6  C   UNL A   1      33.041  27.315  24.232  1.00  0.00     0.102 C 
BRANCH   6   7
ATOM      7  C   UNL A   1      32.416  26.633  23.014  1.00  0.00     0.031 C 
BRANCH   7   8
ATOM      8  C   UNL A   1      30.905  26.780  22.807  1.00  0.00     0.113 C 
BRANCH   8   9
ATOM      9  N   UNL A   1      30.552  28.079  22.265  1.00  0.00    -0.385 N 
ATOM     10  H   UNL A   1      31.130  28.447  21.558  1.00  0.00     0.160 HD
BRANCH   9  11
ATOM     11  C   UNL A   1      29.468  28.839  22.662  1.00  0.00     0.035 A 
ATOM     12  C   UNL A   1      28.541  31.073  23.038  1.00  0.00     0.054 A 
ATOM     13  C   UNL A   1      27.290  30.520  23.309  1.00  0.00     0.019 A 
ATOM     14  C   UNL A   1      29.619  30.232  22.730  1.00  0.00     0.045 A 
ATOM     15  C   UNL A   1      27.135  29.135  23.299  1.00  0.00     0.003 A 
ATOM     16  C   UNL A   1      28.219  28.304  22.988  1.00  0.00     0.026 A 
BRANCH  12  17
ATOM     17  C   UNL A   1      28.725  32.492  23.038  1.00  0.00     0.099 C 
ATOM     18  N   UNL A   1      28.864  33.647  23.012  1.00  0.00    -0.192 NA
ENDBRANCH  12  17
ENDBRANCH   9  11
ENDBRANCH   8   9
ENDBRANCH   7   8
ENDBRANCH   6   7
ENDBRANCH   3   6
ENDBRANCH   1   2
BRANCH   1  19
ATOM     19  C   UNL A   1      31.615  31.196  26.149  1.00  0.00     0.042 C 
BRANCH  19  20
ATOM     20  C   UNL A   1      32.544  31.638  27.266  1.00  0.00     0.118 C 
BRANCH  20  21
ATOM     21  N   UNL A   1      32.538  33.080  27.445  1.00  0.00    -0.352 N 
ATOM     22  C   UNL A   1      33.316  33.857  28.269  1.00  0.00     0.251 C 
ATOM     23  H   UNL A   1      31.883  33.570  26.900  1.00  0.00     0.163 HD
ATOM     24  O   UNL A   1      33.005  35.029  28.459  1.00  0.00    -0.269 OA
BRANCH  22  25
ATOM     25  C   UNL A   1      34.505  33.277  28.937  1.00  0.00     0.039 A 
ATOM     26  C   UNL A   1      35.774  33.753  28.600  1.00  0.00     0.014 A 
ATOM     27  C   UNL A   1      34.373  32.262  29.889  1.00  0.00     0.014 A 
ATOM     28  C   UNL A   1      36.900  33.250  29.256  1.00  0.00     0.010 A 
ATOM     29  C   UNL A   1      35.482  31.843  30.617  1.00  0.00     0.010 A 
ATOM     30  C   UNL A   1      36.762  32.317  30.297  1.00  0.00    -0.014 A 
BRANCH  30  31
ATOM     31  C   UNL A   1      37.941  31.783  31.029  1.00  0.00     0.031 A 
ATOM     32  C   UNL A   1      38.759  30.675  30.416  1.00  0.00     0.074 A 
ATOM     33  C   UNL A   1      38.254  32.261  32.251  1.00  0.00     0.049 A 
ATOM     34  N   UNL A   1      39.759  30.005  30.928  1.00  0.00    -0.248 NA
ATOM     35  C   UNL A   1      38.387  30.248  29.057  1.00  0.00     0.031 C 
ATOM     36  C   UNL A   1      37.529  33.322  32.955  1.00  0.00     0.029 A 
ATOM     37  N   UNL A   1      39.259  31.918  33.120  1.00  0.00    -0.354 N 
ATOM     38  C   UNL A   1      40.136  29.084  29.955  1.00  0.00     0.074 A 
ATOM     39  C   UNL A   1      39.204  29.225  28.858  1.00  0.00     0.031 C 
ATOM     40  C   UNL A   1      38.134  33.562  34.130  1.00  0.00     0.029 A 
ATOM     41  C   UNL A   1      39.247  32.634  34.296  1.00  0.00     0.049 A 
ATOM     42  H   UNL A   1      39.928  31.224  32.921  1.00  0.00     0.167 HD
ATOM     43  C   UNL A   1      41.185  28.227  29.958  1.00  0.00     0.034 A 
ATOM     44  C   UNL A   1      40.030  32.537  35.391  1.00  0.00     0.034 A 
ATOM     45  C   UNL A   1      42.111  28.100  31.053  1.00  0.00     0.049 A 
ATOM     46  C   UNL A   1      41.137  31.506  35.401  1.00  0.00     0.074 A 
ATOM     47  C   UNL A   1      43.212  27.267  31.154  1.00  0.00     0.029 A 
ATOM     48  N   UNL A   1      42.049  28.824  32.235  1.00  0.00    -0.354 N 
ATOM     49  N   UNL A   1      41.488  30.659  34.461  1.00  0.00    -0.248 NA
ATOM     50  C   UNL A   1      41.962  31.426  36.615  1.00  0.00     0.031 C 
ATOM     51  C   UNL A   1      43.771  27.433  32.423  1.00  0.00     0.029 A 
ATOM     52  C   UNL A   1      43.079  28.439  33.078  1.00  0.00     0.049 A 
ATOM     53  H   UNL A   1      41.375  29.510  32.443  1.00  0.00     0.167 HD
ATOM     54  C   UNL A   1      42.608  29.990  34.953  1.00  0.00     0.074 A 
ATOM     55  C   UNL A   1      42.878  30.539  36.263  1.00  0.00     0.031 C 
ATOM     56  C   UNL A   1      43.349  29.012  34.375  1.00  0.00     0.034 A 
BRANCH  43  57
ATOM     57  C   UNL A   1      41.385  27.362  28.739  1.00  0.00     0.023 A 
ATOM     58  C   UNL A   1      42.400  27.638  27.807  1.00  0.00     0.031 A 
ATOM     59  C   UNL A   1      40.569  26.241  28.511  1.00  0.00     0.131 A 
ATOM     60  C   UNL A   1      42.538  26.840  26.664  1.00  0.00     0.055 A 
ATOM     61  C   UNL A   1      40.764  25.400  27.415  1.00  0.00     0.041 A 
ATOM     62  F   UNL A   1      39.566  25.943  29.354  1.00  0.00    -0.206 F 
ATOM     63  C   UNL A   1      41.747  25.703  26.477  1.00  0.00     0.022 A 
BRANCH  60  64
ATOM     64  S   UNL A   1      43.680  27.380  25.364  1.00  0.00     0.124 S 
ATOM     65  O   UNL A   1      44.419  28.441  26.045  1.00  0.00    -0.237 OA
ATOM     66  O   UNL A   1      44.428  26.164  25.075  1.00  0.00    -0.237 OA
ATOM     67  O   UNL A   1      42.791  27.836  24.297  1.00  0.00    -0.744 OA
ENDBRANCH  60  64
ENDBRANCH  43  57
BRANCH  44  68
ATOM     68  C   UNL A   1      39.799  33.403  36.586  1.00  0.00     0.023 A 
ATOM     69  C   UNL A   1      39.180  32.889  37.737  1.00  0.00     0.031 A 
ATOM     70  C   UNL A   1      40.084  34.780  36.558  1.00  0.00     0.131 A 
ATOM     71  C   UNL A   1      38.774  33.755  38.762  1.00  0.00     0.055 A 
ATOM     72  C   UNL A   1      39.759  35.625  37.622  1.00  0.00     0.041 A 
ATOM     73  F   UNL A   1      40.674  35.332  35.487  1.00  0.00    -0.206 F 
ATOM     74  C   UNL A   1      39.075  35.118  38.721  1.00  0.00     0.022 A 
BRANCH  71  75
ATOM     75  S   UNL A   1      37.685  33.105  40.060  1.00  0.00     0.124 S 
ATOM     76  O   UNL A   1      38.415  31.915  40.483  1.00  0.00    -0.237 OA
ATOM     77  O   UNL A   1      37.654  34.212  41.010  1.00  0.00    -0.237 OA
ATOM     78  O   UNL A   1      36.431  32.853  39.355  1.00  0.00    -0.744 OA
ENDBRANCH  71  75
ENDBRANCH  44  68
BRANCH  56  79
ATOM     79  C   UNL A   1      44.574  28.534  35.116  1.00  0.00     0.023 A 
ATOM     80  C   UNL A   1      44.552  27.401  35.947  1.00  0.00     0.031 A 
ATOM     81  C   UNL A   1      45.790  29.228  34.977  1.00  0.00     0.131 A 
ATOM     82  C   UNL A   1      45.706  27.031  36.652  1.00  0.00     0.055 A 
ATOM     83  C   UNL A   1      46.954  28.811  35.622  1.00  0.00     0.041 A 
ATOM     84  F   UNL A   1      45.870  30.321  34.200  1.00  0.00    -0.206 F 
ATOM     85  C   UNL A   1      46.913  27.714  36.477  1.00  0.00     0.022 A 
BRANCH  82  86
ATOM     86  S   UNL A   1      45.587  25.705  37.883  1.00  0.00     0.124 S 
ATOM     87  O   UNL A   1      45.627  26.451  39.137  1.00  0.00    -0.237 OA
ATOM     88  O   UNL A   1      44.307  25.087  37.553  1.00  0.00    -0.237 OA
ATOM     89  O   UNL A   1      46.761  24.879  37.614  1.00  0.00    -0.744 OA
ENDBRANCH  82  86
ENDBRANCH  56  79
ENDBRANCH  30  31
ENDBRANCH  22  25
ENDBRANCH  20  21
ENDBRANCH  19  20
ENDBRANCH   1  19
TORSDOF 18
ENDMDL
MODEL 2
REMARK VINA RESULT:     -10.5      2.395      3.690
REMARK SMILES N#Cc1cccc(NCCCC(=O)NCCCNC(=O)c2ccc(-c3c4nc(c(-c5cc(S(=O)(=O)[O-])ccc5F)c5ccc([nH]5)c(-c5cc(S(=O)(=O)[O-])ccc5F)c5nc(c(-c6cc(S(=O)(=O)[O-])ccc6F)c6ccc3[nH]6)C=C5)C=C4)cc2)c1
REMARK SMILES IDX 15 1 14 2 12 3 13 4 11 6 10 7 9 8 8 9 7 11 3 12 4 13 84 14
REMARK SMILES IDX 5 15 6 16 2 17 1 18 16 19 17 20 18 21 19 22 20 24 21 25
REMARK SMILES IDX 22 26 83 27 23 28 82 29 24 30 25 31 26 32 76 33 27 34 81 35
REMARK SMILES IDX 75 36 77 37 28 38 80 39 74 40 73 41 29 43 61 44 41 45 60 46
REMARK SMILES IDX 42 47 45 48 59 49 78 50 43 51 44 52 58 54 79 55 46 56 30 57
REMARK SMILES IDX 31 58 39 59 32 60 38 61 40 62 37 63 33 64 34 65 35 66 36 67
REMARK SMILES IDX 62 68 63 69 71 70 64 71 70 72 72 73 69 74 65 75 66 76 67 77
REMARK SMILES IDX 68 78 47 79 48 80 56 81 49 82 55 83 57 84 54 85 50 86 51 87
REMARK SMILES IDX 52 88 53 89
REMARK H PARENT 14 5 8 10 18 23 77 42 45 53
REMARK Flexibility Score: inf
ROOT
ATOM      1  C   UNL A   1      31.674  30.577  25.916  1.00  0.00     0.117 C 
ENDROOT
BRANCH   1   2
ATOM      2  N   UNL A   1      30.961  30.427  24.660  1.00  0.00    -0.356 N 
ATOM      3  C   UNL A   1      30.676  29.307  23.946  1.00  0.00     0.220 C 
ATOM      4  O   UNL A   1      30.121  29.433  22.853  1.00  0.00    -0.275 OA
ATOM      5  H   UNL A   1      30.632  31.268  24.266  1.00  0.00     0.163 HD
BRANCH   3   6
ATOM      6  C   UNL A   1      30.990  27.935  24.502  1.00  0.00     0.102 C 
BRANCH   6   7
ATOM      7  C   UNL A   1      30.757  26.775  23.533  1.00  0.00     0.031 C 
BRANCH   7   8
ATOM      8  C   UNL A   1      29.748  25.695  23.936  1.00  0.00     0.113 C 
BRANCH   8   9
ATOM      9  N   UNL A   1      30.033  25.145  25.248  1.00  0.00    -0.385 N 
ATOM     10  H   UNL A   1      29.385  25.330  25.967  1.00  0.00     0.160 HD
BRANCH   9  11
ATOM     11  C   UNL A   1      31.140  24.382  25.568  1.00  0.00     0.035 A 
ATOM     12  C   UNL A   1      32.240  22.198  25.466  1.00  0.00     0.054 A 
ATOM     13  C   UNL A   1      33.396  22.742  26.026  1.00  0.00     0.019 A 
ATOM     14  C   UNL A   1      31.122  23.015  25.253  1.00  0.00     0.045 A 
ATOM     15  C   UNL A   1      33.413  24.086  26.394  1.00  0.00     0.003 A 
ATOM     16  C   UNL A   1      32.290  24.893  26.175  1.00  0.00     0.026 A 
BRANCH  12  17
ATOM     17  C   UNL A   1      32.199  20.822  25.076  1.00  0.00     0.099 C 
ATOM     18  N   UNL A   1      32.139  19.706  24.750  1.00  0.00    -0.192 NA
ENDBRANCH  12  17
ENDBRANCH   9  11
ENDBRANCH   8   9
ENDBRANCH   7   8
ENDBRANCH   6   7
ENDBRANCH   3   6
ENDBRANCH   1   2
BRANCH   1  19
ATOM     19  C   UNL A   1      31.441  31.957  26.514  1.00  0.00     0.042 C 
BRANCH  19  20
ATOM     20  C   UNL A   1      32.652  32.512  27.243  1.00  0.00     0.118 C 
BRANCH  20  21
ATOM     21  N   UNL A   1      32.525  33.933  27.516  1.00  0.00    -0.352 N 
ATOM     22  C   UNL A   1      33.148  34.694  28.475  1.00  0.00     0.251 C 
ATOM     23  H   UNL A   1      31.902  34.421  26.931  1.00  0.00     0.163 HD
ATOM     24  O   UNL A   1      32.734  35.827  28.704  1.00  0.00    -0.269 OA
BRANCH  22  25
ATOM     25  C   UNL A   1      34.291  34.142  29.239  1.00  0.00     0.039 A 
ATOM     26  C   UNL A   1      34.040  33.289  30.316  1.00  0.00     0.014 A 
ATOM     27  C   UNL A   1      35.608  34.467  28.902  1.00  0.00     0.014 A 
ATOM     28  C   UNL A   1      35.108  32.723  31.016  1.00  0.00     0.010 A 
ATOM     29  C   UNL A   1      36.666  33.817  29.526  1.00  0.00     0.010 A 
ATOM     30  C   UNL A   1      36.431  32.952  30.605  1.00  0.00    -0.014 A 
BRANCH  30  31
ATOM     31  C   UNL A   1      37.587  32.342  31.315  1.00  0.00     0.031 A 
ATOM     32  C   UNL A   1      38.301  31.165  30.701  1.00  0.00     0.074 A 
ATOM     33  C   UNL A   1      37.968  32.814  32.519  1.00  0.00     0.049 A 
ATOM     34  N   UNL A   1      39.261  30.429  31.199  1.00  0.00    -0.248 NA
ATOM     35  C   UNL A   1      37.860  30.745  29.360  1.00  0.00     0.031 C 
ATOM     36  C   UNL A   1      37.346  33.939  33.223  1.00  0.00     0.029 A 
ATOM     37  N   UNL A   1      38.969  32.409  33.368  1.00  0.00    -0.354 N 
ATOM     38  C   UNL A   1      39.540  29.466  30.234  1.00  0.00     0.074 A 
ATOM     39  C   UNL A   1      38.591  29.660  29.159  1.00  0.00     0.031 C 
ATOM     40  C   UNL A   1      37.999  34.151  34.378  1.00  0.00     0.029 A 
ATOM     41  C   UNL A   1      39.043  33.144  34.531  1.00  0.00     0.049 A 
ATOM     42  H   UNL A   1      39.577  31.663  33.164  1.00  0.00     0.167 HD
ATOM     43  C   UNL A   1      40.521  28.532  30.224  1.00  0.00     0.034 A 
ATOM     44  C   UNL A   1      39.846  33.005  35.606  1.00  0.00     0.034 A 
ATOM     45  C   UNL A   1      41.465  28.352  31.297  1.00  0.00     0.049 A 
ATOM     46  C   UNL A   1      40.872  31.893  35.606  1.00  0.00     0.074 A 
ATOM     47  C   UNL A   1      42.501  27.439  31.384  1.00  0.00     0.029 A 
ATOM     48  N   UNL A   1      41.490  29.098  32.467  1.00  0.00    -0.354 N 
ATOM     49  N   UNL A   1      41.132  31.006  34.672  1.00  0.00    -0.248 NA
ATOM     50  C   UNL A   1      41.721  31.770  36.800  1.00  0.00     0.031 C 
ATOM     51  C   UNL A   1      43.106  27.583  32.635  1.00  0.00     0.029 A 
ATOM     52  C   UNL A   1      42.511  28.649  33.290  1.00  0.00     0.049 A 
ATOM     53  H   UNL A   1      40.876  29.836  32.680  1.00  0.00     0.167 HD
ATOM     54  C   UNL A   1      42.211  30.262  35.148  1.00  0.00     0.074 A 
ATOM     55  C   UNL A   1      42.558  30.809  36.440  1.00  0.00     0.031 C 
ATOM     56  C   UNL A   1      42.859  29.220  34.568  1.00  0.00     0.034 A 
BRANCH  43  57
ATOM     57  C   UNL A   1      40.621  27.634  29.016  1.00  0.00     0.023 A 
ATOM     58  C   UNL A   1      41.556  27.884  27.997  1.00  0.00     0.031 A 
ATOM     59  C   UNL A   1      39.789  26.509  28.886  1.00  0.00     0.131 A 
ATOM     60  C   UNL A   1      41.600  27.055  26.869  1.00  0.00     0.055 A 
ATOM     61  C   UNL A   1      39.895  25.638  27.800  1.00  0.00     0.041 A 
ATOM     62  F   UNL A   1      38.860  26.235  29.816  1.00  0.00    -0.206 F 
ATOM     63  C   UNL A   1      40.797  25.915  26.777  1.00  0.00     0.022 A 
BRANCH  60  64
ATOM     64  S   UNL A   1      42.631  27.559  25.466  1.00  0.00     0.124 S 
ATOM     65  O   UNL A   1      42.640  26.343  24.656  1.00  0.00    -0.237 OA
ATOM     66  O   UNL A   1      41.889  28.687  24.917  1.00  0.00    -0.237 OA
ATOM     67  O   UNL A   1      43.911  27.896  26.086  1.00  0.00    -0.744 OA
ENDBRANCH  60  64
ENDBRANCH  43  57
BRANCH  44  68
ATOM     68  C   UNL A   1      39.715  33.905  36.791  1.00  0.00     0.023 A 
ATOM     69  C   UNL A   1      40.620  34.959  36.996  1.00  0.00     0.031 A 
ATOM     70  C   UNL A   1      38.762  33.658  37.796  1.00  0.00     0.131 A 
ATOM     71  C   UNL A   1      40.622  35.656  38.213  1.00  0.00     0.055 A 
ATOM     72  C   UNL A   1      38.710  34.415  38.969  1.00  0.00     0.041 A 
ATOM     73  F   UNL A   1      37.870  32.664  37.660  1.00  0.00    -0.206 F 
ATOM     74  C   UNL A   1      39.661  35.404  39.195  1.00  0.00     0.022 A 
BRANCH  71  75
ATOM     75  S   UNL A   1      42.011  36.768  38.568  1.00  0.00     0.124 S 
ATOM     76  O   UNL A   1      42.947  35.864  39.227  1.00  0.00    -0.237 OA
ATOM     77  O   UNL A   1      42.384  37.219  37.232  1.00  0.00    -0.237 OA
ATOM     78  O   UNL A   1      41.417  37.789  39.428  1.00  0.00    -0.744 OA
ENDBRANCH  71  75
ENDBRANCH  44  68
BRANCH  56  79
ATOM     79  C   UNL A   1      44.065  28.663  35.285  1.00  0.00     0.023 A 
ATOM     80  C   UNL A   1      43.962  27.621  36.223  1.00  0.00     0.031 A 
ATOM     81  C   UNL A   1      45.343  29.185  35.014  1.00  0.00     0.131 A 
ATOM     82  C   UNL A   1      45.108  27.176  36.897  1.00  0.00     0.055 A 
ATOM     83  C   UNL A   1      46.489  28.686  35.633  1.00  0.00     0.041 A 
ATOM     84  F   UNL A   1      45.501  30.184  34.131  1.00  0.00    -0.206 F 
ATOM     85  C   UNL A   1      46.373  27.684  36.592  1.00  0.00     0.022 A 
BRANCH  82  86
ATOM     86  S   UNL A   1      44.912  25.991  38.257  1.00  0.00     0.124 S 
ATOM     87  O   UNL A   1      43.872  25.107  37.740  1.00  0.00    -0.237 OA
ATOM     88  O   UNL A   1      46.247  25.411  38.360  1.00  0.00    -0.237 OA
ATOM     89  O   UNL A   1      44.511  26.827  39.386  1.00  0.00    -0.744 OA
ENDBRANCH  82  86
ENDBRANCH  56  79
ENDBRANCH  30  31
ENDBRANCH  22  25
ENDBRANCH  20  21
ENDBRANCH  19  20
ENDBRANCH   1  19
TORSDOF 18
ENDMDL
MODEL 3
REMARK VINA RESULT:     -10.4      4.386     10.305
REMARK SMILES N#Cc1cccc(NCCCC(=O)NCCCNC(=O)c2ccc(-c3c4nc(c(-c5cc(S(=O)(=O)[O-])ccc5F)c5ccc([nH]5)c(-c5cc(S(=O)(=O)[O-])ccc5F)c5nc(c(-c6cc(S(=O)(=O)[O-])ccc6F)c6ccc3[nH]6)C=C5)C=C4)cc2)c1
REMARK SMILES IDX 15 1 14 2 12 3 13 4 11 6 10 7 9 8 8 9 7 11 3 12 4 13 84 14
REMARK SMILES IDX 5 15 6 16 2 17 1 18 16 19 17 20 18 21 19 22 20 24 21 25
REMARK SMILES IDX 22 26 83 27 23 28 82 29 24 30 25 31 26 32 76 33 27 34 81 35
REMARK SMILES IDX 75 36 77 37 28 38 80 39 74 40 73 41 29 43 61 44 41 45 60 46
REMARK SMILES IDX 42 47 45 48 59 49 78 50 43 51 44 52 58 54 79 55 46 56 30 57
REMARK SMILES IDX 31 58 39 59 32 60 38 61 40 62 37 63 33 64 34 65 35 66 36 67
REMARK SMILES IDX 62 68 63 69 71 70 64 71 70 72 72 73 69 74 65 75 66 76 67 77
REMARK SMILES IDX 68 78 47 79 48 80 56 81 49 82 55 83 57 84 54 85 50 86 51 87
REMARK SMILES IDX 52 88 53 89
REMARK H PARENT 14 5 8 10 18 23 77 42 45 53
REMARK Flexibility Score: inf
ROOT
ATOM      1  C   UNL A   1      35.274  34.801  28.678  1.00  0.00     0.117 C 
ENDROOT
BRANCH   1   2
ATOM      2  N   UNL A   1      34.612  36.084  28.533  1.00  0.00    -0.356 N 
ATOM      3  C   UNL A   1      33.525  36.584  29.176  1.00  0.00     0.220 C 
ATOM      4  O   UNL A   1      33.088  37.681  28.826  1.00  0.00    -0.275 OA
ATOM      5  H   UNL A   1      35.014  36.686  27.864  1.00  0.00     0.163 HD
BRANCH   3   6
ATOM      6  C   UNL A   1      32.895  35.831  30.328  1.00  0.00     0.102 C 
BRANCH   6   7
ATOM      7  C   UNL A   1      32.771  36.625  31.630  1.00  0.00     0.031 C 
BRANCH   7   8
ATOM      8  C   UNL A   1      33.937  36.563  32.621  1.00  0.00     0.113 C 
BRANCH   8   9
ATOM      9  N   UNL A   1      34.076  35.248  33.219  1.00  0.00    -0.385 N 
ATOM     10  H   UNL A   1      33.470  35.022  33.963  1.00  0.00     0.160 HD
BRANCH   9  11
ATOM     11  C   UNL A   1      34.990  34.289  32.828  1.00  0.00     0.035 A 
ATOM     12  C   UNL A   1      37.337  33.713  32.435  1.00  0.00     0.054 A 
ATOM     13  C   UNL A   1      36.983  32.387  32.193  1.00  0.00     0.019 A 
ATOM     14  C   UNL A   1      36.342  34.653  32.738  1.00  0.00     0.045 A 
ATOM     15  C   UNL A   1      35.639  32.019  32.225  1.00  0.00     0.003 A 
ATOM     16  C   UNL A   1      34.653  32.966  32.530  1.00  0.00     0.026 A 
BRANCH  12  17
ATOM     17  C   UNL A   1      38.710  34.115  32.412  1.00  0.00     0.099 C 
ATOM     18  N   UNL A   1      39.819  34.468  32.401  1.00  0.00    -0.192 NA
ENDBRANCH  12  17
ENDBRANCH   9  11
ENDBRANCH   8   9
ENDBRANCH   7   8
ENDBRANCH   6   7
ENDBRANCH   3   6
ENDBRANCH   1   2
BRANCH   1  19
ATOM     19  C   UNL A   1      34.464  33.692  28.021  1.00  0.00     0.042 C 
BRANCH  19  20
ATOM     20  C   UNL A   1      34.391  32.423  28.852  1.00  0.00     0.118 C 
BRANCH  20  21
ATOM     21  N   UNL A   1      33.808  31.316  28.113  1.00  0.00    -0.352 N 
ATOM     22  C   UNL A   1      34.407  30.173  27.644  1.00  0.00     0.251 C 
ATOM     23  H   UNL A   1      32.846  31.398  27.920  1.00  0.00     0.163 HD
ATOM     24  O   UNL A   1      33.807  29.468  26.838  1.00  0.00    -0.269 OA
BRANCH  22  25
ATOM     25  C   UNL A   1      35.772  29.809  28.089  1.00  0.00     0.039 A 
ATOM     26  C   UNL A   1      35.953  29.298  29.377  1.00  0.00     0.014 A 
ATOM     27  C   UNL A   1      36.875  29.977  27.247  1.00  0.00     0.014 A 
ATOM     28  C   UNL A   1      37.227  28.906  29.794  1.00  0.00     0.010 A 
ATOM     29  C   UNL A   1      38.119  29.485  27.624  1.00  0.00     0.010 A 
ATOM     30  C   UNL A   1      38.317  28.961  28.909  1.00  0.00    -0.014 A 
BRANCH  30  31
ATOM     31  C   UNL A   1      39.679  28.526  29.319  1.00  0.00     0.031 A 
ATOM     32  C   UNL A   1      40.432  29.319  30.357  1.00  0.00     0.074 A 
ATOM     33  C   UNL A   1      40.251  27.452  28.738  1.00  0.00     0.049 A 
ATOM     34  N   UNL A   1      41.661  29.170  30.779  1.00  0.00    -0.248 NA
ATOM     35  C   UNL A   1      39.717  30.444  30.983  1.00  0.00     0.031 C 
ATOM     36  C   UNL A   1      39.628  26.613  27.711  1.00  0.00     0.029 A 
ATOM     37  N   UNL A   1      41.486  26.881  28.924  1.00  0.00    -0.354 N 
ATOM     38  C   UNL A   1      41.862  30.175  31.720  1.00  0.00     0.074 A 
ATOM     39  C   UNL A   1      40.660  30.978  31.744  1.00  0.00     0.031 C 
ATOM     40  C   UNL A   1      40.471  25.619  27.384  1.00  0.00     0.029 A 
ATOM     41  C   UNL A   1      41.716  25.784  28.125  1.00  0.00     0.049 A 
ATOM     42  H   UNL A   1      42.145  27.225  29.569  1.00  0.00     0.167 HD
ATOM     43  C   UNL A   1      42.935  30.388  32.520  1.00  0.00     0.034 A 
ATOM     44  C   UNL A   1      42.816  25.012  27.991  1.00  0.00     0.034 A 
ATOM     45  C   UNL A   1      44.125  29.578  32.493  1.00  0.00     0.049 A 
ATOM     46  C   UNL A   1      44.032  25.330  28.832  1.00  0.00     0.074 A 
ATOM     47  C   UNL A   1      45.267  29.703  33.266  1.00  0.00     0.029 A 
ATOM     48  N   UNL A   1      44.330  28.493  31.653  1.00  0.00    -0.354 N 
ATOM     49  N   UNL A   1      44.193  26.274  29.731  1.00  0.00    -0.248 NA
ATOM     50  C   UNL A   1      45.211  24.472  28.649  1.00  0.00     0.031 C 
ATOM     51  C   UNL A   1      46.189  28.743  32.844  1.00  0.00     0.029 A 
ATOM     52  C   UNL A   1      45.588  27.955  31.875  1.00  0.00     0.049 A 
ATOM     53  H   UNL A   1      43.678  28.154  30.998  1.00  0.00     0.167 HD
ATOM     54  C   UNL A   1      45.470  26.082  30.256  1.00  0.00     0.074 A 
ATOM     55  C   UNL A   1      46.028  24.930  29.584  1.00  0.00     0.031 C 
ATOM     56  C   UNL A   1      46.123  26.792  31.211  1.00  0.00     0.034 A 
BRANCH  43  57
ATOM     57  C   UNL A   1      42.867  31.540  33.490  1.00  0.00     0.023 A 
ATOM     58  C   UNL A   1      42.429  31.356  34.813  1.00  0.00     0.031 A 
ATOM     59  C   UNL A   1      43.259  32.832  33.100  1.00  0.00     0.131 A 
ATOM     60  C   UNL A   1      42.341  32.452  35.680  1.00  0.00     0.055 A 
ATOM     61  C   UNL A   1      43.249  33.905  33.993  1.00  0.00     0.041 A 
ATOM     62  F   UNL A   1      43.662  33.073  31.841  1.00  0.00    -0.206 F 
ATOM     63  C   UNL A   1      42.778  33.721  35.289  1.00  0.00     0.022 A 
BRANCH  60  64
ATOM     64  S   UNL A   1      41.529  32.222  37.284  1.00  0.00     0.124 S 
ATOM     65  O   UNL A   1      42.353  31.174  37.883  1.00  0.00    -0.237 OA
ATOM     66  O   UNL A   1      41.639  33.543  37.888  1.00  0.00    -0.237 OA
ATOM     67  O   UNL A   1      40.174  31.809  36.925  1.00  0.00    -0.744 OA
ENDBRANCH  60  64
ENDBRANCH  43  57
BRANCH  44  68
ATOM     68  C   UNL A   1      42.854  23.883  27.013  1.00  0.00     0.023 A 
ATOM     69  C   UNL A   1      42.156  22.691  27.265  1.00  0.00     0.031 A 
ATOM     70  C   UNL A   1      43.677  23.928  25.874  1.00  0.00     0.131 A 
ATOM     71  C   UNL A   1      42.372  21.566  26.455  1.00  0.00     0.055 A 
ATOM     72  C   UNL A   1      43.819  22.833  25.019  1.00  0.00     0.041 A 
ATOM     73  F   UNL A   1      44.371  25.039  25.579  1.00  0.00    -0.206 F 
ATOM     74  C   UNL A   1      43.185  21.634  25.323  1.00  0.00     0.022 A 
BRANCH  71  75
ATOM     75  S   UNL A   1      41.720  19.966  27.011  1.00  0.00     0.124 S 
ATOM     76  O   UNL A   1      42.836  19.454  27.798  1.00  0.00    -0.237 OA
ATOM     77  O   UNL A   1      40.534  20.367  27.760  1.00  0.00    -0.237 OA
ATOM     78  O   UNL A   1      41.458  19.255  25.762  1.00  0.00    -0.744 OA
ENDBRANCH  71  75
ENDBRANCH  44  68
BRANCH  56  79
ATOM     79  C   UNL A   1      47.478  26.290  31.649  1.00  0.00     0.023 A 
ATOM     80  C   UNL A   1      48.658  26.631  30.966  1.00  0.00     0.031 A 
ATOM     81  C   UNL A   1      47.584  25.459  32.779  1.00  0.00     0.131 A 
ATOM     82  C   UNL A   1      49.885  26.096  31.385  1.00  0.00     0.055 A 
ATOM     83  C   UNL A   1      48.816  24.991  33.236  1.00  0.00     0.041 A 
ATOM     84  F   UNL A   1      46.490  25.097  33.467  1.00  0.00    -0.206 F 
ATOM     85  C   UNL A   1      49.975  25.297  32.528  1.00  0.00     0.022 A 
BRANCH  82  86
ATOM     86  S   UNL A   1      51.352  26.371  30.355  1.00  0.00     0.124 S 
ATOM     87  O   UNL A   1      50.987  25.686  29.119  1.00  0.00    -0.237 OA
ATOM     88  O   UNL A   1      51.412  27.828  30.281  1.00  0.00    -0.237 OA
ATOM     89  O   UNL A   1      52.430  25.745  31.117  1.00  0.00    -0.744 OA
ENDBRANCH  82  86
ENDBRANCH  56  79
ENDBRANCH  30  31
ENDBRANCH  22  25
ENDBRANCH  20  21
ENDBRANCH  19  20
ENDBRANCH   1  19
TORSDOF 18
ENDMDL
