MODEL 1
REMARK VINA RESULT:     -11.3      0.000      0.000
REMARK SMILES O=C(CC1CC1)NCc1ccc(C(=O)NCCCNC(=O)c2ccc(-c3c4nc(c(-c5cc(S(=O)(=O)[O-])ccc5F)c5ccc([nH]5)c(-c5cc(S(=O)(=O)[O-])ccc5F)c5nc(c(-c6cc(S(=O)(=O)[O-])ccc6F)c6ccc3[nH]6)C=C5)C=C4)cc2)o1
REMARK SMILES IDX 16 1 15 2 13 3 14 4 12 6 9 7 10 8 85 9 11 10 8 11 7 12 1 13
REMARK SMILES IDX 2 14 3 16 4 17 5 18 6 19 17 20 18 21 19 22 20 23 21 25 22 26
REMARK SMILES IDX 23 27 84 28 24 29 83 30 25 31 26 32 27 33 77 34 28 35 82 36
REMARK SMILES IDX 76 37 78 38 29 39 81 40 75 41 74 42 30 44 62 45 42 46 61 47
REMARK SMILES IDX 43 48 46 49 60 50 79 51 44 52 45 53 59 55 80 56 47 57 31 58
REMARK SMILES IDX 32 59 40 60 33 61 39 62 41 63 38 64 34 65 35 66 36 67 37 68
REMARK SMILES IDX 63 69 64 70 72 71 65 72 71 73 73 74 70 75 66 76 67 77 68 78
REMARK SMILES IDX 69 79 48 80 49 81 57 82 50 83 56 84 58 85 55 86 51 87 52 88
REMARK SMILES IDX 53 89 54 90
REMARK H PARENT 15 5 7 15 19 24 78 43 46 54
REMARK Flexibility Score: inf
ROOT
ATOM      1  C   UNL A   1      32.192  28.359  23.002  1.00  0.00     0.118 C 
ENDROOT
BRANCH   1   2
ATOM      2  N   UNL A   1      32.818  27.425  22.087  1.00  0.00    -0.349 N 
ATOM      3  C   UNL A   1      33.314  26.155  22.280  1.00  0.00     0.286 C 
ATOM      4  O   UNL A   1      33.642  25.553  21.255  1.00  0.00    -0.266 OA
ATOM      5  H   UNL A   1      32.904  27.757  21.164  1.00  0.00     0.163 HD
BRANCH   3   6
ATOM      6  C   UNL A   1      33.431  25.568  23.605  1.00  0.00     0.191 A 
ATOM      7  C   UNL A   1      33.044  23.949  25.076  1.00  0.00     0.124 A 
ATOM      8  C   UNL A   1      33.822  24.883  25.721  1.00  0.00     0.048 A 
ATOM      9  O   UNL A   1      32.778  24.369  23.808  1.00  0.00    -0.454 OA
ATOM     10  C   UNL A   1      34.096  25.897  24.774  1.00  0.00     0.056 A 
BRANCH   7  11
ATOM     11  C   UNL A   1      32.528  22.630  25.524  1.00  0.00     0.191 C 
BRANCH  11  12
ATOM     12  N   UNL A   1      33.403  21.547  25.150  1.00  0.00    -0.349 N 
ATOM     13  O   UNL A   1      31.790  19.924  25.315  1.00  0.00    -0.275 OA
ATOM     14  C   UNL A   1      32.929  20.266  25.008  1.00  0.00     0.220 C 
ATOM     15  H   UNL A   1      34.358  21.729  24.993  1.00  0.00     0.163 HD
BRANCH  14  16
ATOM     16  C   UNL A   1      33.894  19.315  24.328  1.00  0.00     0.103 C 
BRANCH  16  17
ATOM     17  C   UNL A   1      33.292  17.951  24.094  1.00  0.00    -0.002 C 
ATOM     18  C   UNL A   1      33.862  17.041  23.032  1.00  0.00     0.004 C 
ATOM     19  C   UNL A   1      34.025  16.683  24.479  1.00  0.00     0.004 C 
ENDBRANCH  16  17
ENDBRANCH  14  16
ENDBRANCH  11  12
ENDBRANCH   7  11
ENDBRANCH   3   6
ENDBRANCH   1   2
BRANCH   1  20
ATOM     20  C   UNL A   1      33.214  29.177  23.790  1.00  0.00     0.042 C 
BRANCH  20  21
ATOM     21  C   UNL A   1      32.974  29.166  25.300  1.00  0.00     0.118 C 
BRANCH  21  22
ATOM     22  N   UNL A   1      32.521  30.462  25.790  1.00  0.00    -0.352 N 
ATOM     23  C   UNL A   1      32.917  31.200  26.878  1.00  0.00     0.251 C 
ATOM     24  H   UNL A   1      31.810  30.879  25.251  1.00  0.00     0.163 HD
ATOM     25  O   UNL A   1      32.220  32.149  27.230  1.00  0.00    -0.269 OA
BRANCH  23  26
ATOM     26  C   UNL A   1      34.152  30.870  27.626  1.00  0.00     0.039 A 
ATOM     27  C   UNL A   1      35.082  31.887  27.870  1.00  0.00     0.014 A 
ATOM     28  C   UNL A   1      34.434  29.562  28.030  1.00  0.00     0.014 A 
ATOM     29  C   UNL A   1      36.262  31.605  28.562  1.00  0.00     0.010 A 
ATOM     30  C   UNL A   1      35.581  29.295  28.778  1.00  0.00     0.010 A 
ATOM     31  C   UNL A   1      36.508  30.312  29.050  1.00  0.00    -0.014 A 
BRANCH  31  32
ATOM     32  C   UNL A   1      37.727  30.010  29.847  1.00  0.00     0.031 A 
ATOM     33  C   UNL A   1      38.786  29.090  29.299  1.00  0.00     0.074 A 
ATOM     34  C   UNL A   1      37.850  30.516  31.091  1.00  0.00     0.049 A 
ATOM     35  N   UNL A   1      39.875  28.646  29.871  1.00  0.00    -0.248 NA
ATOM     36  C   UNL A   1      38.574  28.585  27.934  1.00  0.00     0.031 C 
ATOM     37  C   UNL A   1      36.873  31.389  31.746  1.00  0.00     0.029 A 
ATOM     38  N   UNL A   1      38.839  30.363  32.030  1.00  0.00    -0.354 N 
ATOM     39  C   UNL A   1      40.473  27.796  28.945  1.00  0.00     0.074 A 
ATOM     40  C   UNL A   1      39.591  27.747  27.797  1.00  0.00     0.031 C 
ATOM     41  C   UNL A   1      37.321  31.710  32.970  1.00  0.00     0.029 A 
ATOM     42  C   UNL A   1      38.591  31.031  33.207  1.00  0.00     0.049 A 
ATOM     43  H   UNL A   1      39.650  29.827  31.876  1.00  0.00     0.167 HD
ATOM     44  C   UNL A   1      41.655  27.136  29.036  1.00  0.00     0.034 A 
ATOM     45  C   UNL A   1      39.298  31.081  34.354  1.00  0.00     0.034 A 
ATOM     46  C   UNL A   1      42.527  27.206  30.186  1.00  0.00     0.049 A 
ATOM     47  C   UNL A   1      40.598  30.323  34.439  1.00  0.00     0.074 A 
ATOM     48  C   UNL A   1      43.769  26.622  30.363  1.00  0.00     0.029 A 
ATOM     49  N   UNL A   1      42.244  27.896  31.359  1.00  0.00    -0.354 N 
ATOM     50  N   UNL A   1      41.172  29.561  33.536  1.00  0.00    -0.248 NA
ATOM     51  C   UNL A   1      41.350  30.441  35.695  1.00  0.00     0.031 C 
ATOM     52  C   UNL A   1      44.207  26.903  31.663  1.00  0.00     0.029 A 
ATOM     53  C   UNL A   1      43.273  27.726  32.273  1.00  0.00     0.049 A 
ATOM     54  H   UNL A   1      41.430  28.427  31.517  1.00  0.00     0.167 HD
ATOM     55  C   UNL A   1      42.368  29.135  34.107  1.00  0.00     0.074 A 
ATOM     56  C   UNL A   1      42.438  29.737  35.421  1.00  0.00     0.031 C 
ATOM     57  C   UNL A   1      43.324  28.321  33.588  1.00  0.00     0.034 A 
BRANCH  44  58
ATOM     58  C   UNL A   1      42.056  26.262  27.869  1.00  0.00     0.023 A 
ATOM     59  C   UNL A   1      41.650  24.919  27.780  1.00  0.00     0.031 A 
ATOM     60  C   UNL A   1      42.876  26.769  26.845  1.00  0.00     0.131 A 
ATOM     61  C   UNL A   1      42.129  24.108  26.739  1.00  0.00     0.055 A 
ATOM     62  C   UNL A   1      43.279  25.979  25.766  1.00  0.00     0.041 A 
ATOM     63  F   UNL A   1      43.312  28.038  26.884  1.00  0.00    -0.206 F 
ATOM     64  C   UNL A   1      42.920  24.637  25.716  1.00  0.00     0.022 A 
BRANCH  61  65
ATOM     65  S   UNL A   1      41.824  22.323  26.822  1.00  0.00     0.124 S 
ATOM     66  O   UNL A   1      42.676  21.930  27.941  1.00  0.00    -0.237 OA
ATOM     67  O   UNL A   1      40.386  22.258  27.059  1.00  0.00    -0.237 OA
ATOM     68  O   UNL A   1      42.262  21.838  25.515  1.00  0.00    -0.744 OA
ENDBRANCH  61  65
ENDBRANCH  44  58
BRANCH  45  69
ATOM     69  C   UNL A   1      38.794  31.864  35.518  1.00  0.00     0.023 A 
ATOM     70  C   UNL A   1      38.227  31.222  36.631  1.00  0.00     0.031 A 
ATOM     71  C   UNL A   1      38.835  33.270  35.517  1.00  0.00     0.131 A 
ATOM     72  C   UNL A   1      37.684  31.983  37.676  1.00  0.00     0.055 A 
ATOM     73  C   UNL A   1      38.340  34.022  36.585  1.00  0.00     0.041 A 
ATOM     74  F   UNL A   1      39.372  33.933  34.482  1.00  0.00    -0.206 F 
ATOM     75  C   UNL A   1      37.748  33.378  37.667  1.00  0.00     0.022 A 
BRANCH  72  76
ATOM     76  S   UNL A   1      36.816  31.122  39.016  1.00  0.00     0.124 S 
ATOM     77  O   UNL A   1      35.619  31.940  39.169  1.00  0.00    -0.237 OA
ATOM     78  O   UNL A   1      36.619  29.795  38.445  1.00  0.00    -0.237 OA
ATOM     79  O   UNL A   1      37.762  31.185  40.129  1.00  0.00    -0.744 OA
ENDBRANCH  72  76
ENDBRANCH  45  69
BRANCH  57  80
ATOM     80  C   UNL A   1      44.547  28.077  34.439  1.00  0.00     0.023 A 
ATOM     81  C   UNL A   1      44.599  27.032  35.377  1.00  0.00     0.031 A 
ATOM     82  C   UNL A   1      45.668  28.917  34.322  1.00  0.00     0.131 A 
ATOM     83  C   UNL A   1      45.724  26.890  36.204  1.00  0.00     0.055 A 
ATOM     84  C   UNL A   1      46.810  28.733  35.104  1.00  0.00     0.041 A 
ATOM     85  F   UNL A   1      45.673  29.934  33.444  1.00  0.00    -0.206 F 
ATOM     86  C   UNL A   1      46.836  27.724  36.061  1.00  0.00     0.022 A 
BRANCH  83  87
ATOM     87  S   UNL A   1      45.676  25.661  37.537  1.00  0.00     0.124 S 
ATOM     88  O   UNL A   1      45.044  24.523  36.878  1.00  0.00    -0.237 OA
ATOM     89  O   UNL A   1      47.088  25.503  37.868  1.00  0.00    -0.237 OA
ATOM     90  O   UNL A   1      44.866  26.307  38.570  1.00  0.00    -0.744 OA
ENDBRANCH  83  87
ENDBRANCH  57  80
ENDBRANCH  31  32
ENDBRANCH  23  26
ENDBRANCH  21  22
ENDBRANCH  20  21
ENDBRANCH   1  20
TORSDOF 17
ENDMDL
MODEL 2
REMARK VINA RESULT:     -11.0      5.668     10.861
REMARK SMILES O=C(CC1CC1)NCc1ccc(C(=O)NCCCNC(=O)c2ccc(-c3c4nc(c(-c5cc(S(=O)(=O)[O-])ccc5F)c5ccc([nH]5)c(-c5cc(S(=O)(=O)[O-])ccc5F)c5nc(c(-c6cc(S(=O)(=O)[O-])ccc6F)c6ccc3[nH]6)C=C5)C=C4)cc2)o1
REMARK SMILES IDX 16 1 15 2 13 3 14 4 12 6 9 7 10 8 85 9 11 10 8 11 7 12 1 13
REMARK SMILES IDX 2 14 3 16 4 17 5 18 6 19 17 20 18 21 19 22 20 23 21 25 22 26
REMARK SMILES IDX 23 27 84 28 24 29 83 30 25 31 26 32 27 33 77 34 28 35 82 36
REMARK SMILES IDX 76 37 78 38 29 39 81 40 75 41 74 42 30 44 62 45 42 46 61 47
REMARK SMILES IDX 43 48 46 49 60 50 79 51 44 52 45 53 59 55 80 56 47 57 31 58
REMARK SMILES IDX 32 59 40 60 33 61 39 62 41 63 38 64 34 65 35 66 36 67 37 68
REMARK SMILES IDX 63 69 64 70 72 71 65 72 71 73 73 74 70 75 66 76 67 77 68 78
REMARK SMILES IDX 69 79 48 80 49 81 57 82 50 83 56 84 58 85 55 86 51 87 52 88
REMARK SMILES IDX 53 89 54 90
REMARK H PARENT 15 5 7 15 19 24 78 43 46 54
REMARK Flexibility Score: inf
ROOT
ATOM      1  C   UNL A   1      36.448  19.892  24.997  1.00  0.00     0.118 C 
ENDROOT
BRANCH   1   2
ATOM      2  N   UNL A   1      35.558  18.759  24.836  1.00  0.00    -0.349 N 
ATOM      3  C   UNL A   1      34.199  18.692  24.620  1.00  0.00     0.286 C 
ATOM      4  O   UNL A   1      33.759  17.568  24.365  1.00  0.00    -0.266 OA
ATOM      5  H   UNL A   1      36.003  17.883  24.891  1.00  0.00     0.163 HD
BRANCH   3   6
ATOM      6  C   UNL A   1      33.352  19.871  24.680  1.00  0.00     0.191 A 
ATOM      7  C   UNL A   1      32.543  21.656  25.727  1.00  0.00     0.124 A 
ATOM      8  C   UNL A   1      31.993  21.663  24.466  1.00  0.00     0.048 A 
ATOM      9  O   UNL A   1      33.340  20.561  25.876  1.00  0.00    -0.454 OA
ATOM     10  C   UNL A   1      32.535  20.545  23.788  1.00  0.00     0.056 A 
BRANCH   7  11
ATOM     11  C   UNL A   1      32.428  22.623  26.849  1.00  0.00     0.191 C 
BRANCH  11  12
ATOM     12  N   UNL A   1      32.788  23.961  26.453  1.00  0.00    -0.349 N 
ATOM     13  O   UNL A   1      30.649  24.784  26.573  1.00  0.00    -0.275 OA
ATOM     14  C   UNL A   1      31.854  24.967  26.416  1.00  0.00     0.220 C 
ATOM     15  H   UNL A   1      33.720  24.158  26.207  1.00  0.00     0.163 HD
BRANCH  14  16
ATOM     16  C   UNL A   1      32.439  26.359  26.276  1.00  0.00     0.103 C 
BRANCH  16  17
ATOM     17  C   UNL A   1      31.425  27.442  26.543  1.00  0.00    -0.002 C 
ATOM     18  C   UNL A   1      31.583  28.354  27.738  1.00  0.00     0.004 C 
ATOM     19  C   UNL A   1      31.760  28.907  26.356  1.00  0.00     0.004 C 
ENDBRANCH  16  17
ENDBRANCH  14  16
ENDBRANCH  11  12
ENDBRANCH   7  11
ENDBRANCH   3   6
ENDBRANCH   1   2
BRANCH   1  20
ATOM     20  C   UNL A   1      37.906  19.533  24.714  1.00  0.00     0.042 C 
BRANCH  20  21
ATOM     21  C   UNL A   1      38.880  20.041  25.778  1.00  0.00     0.118 C 
BRANCH  21  22
ATOM     22  N   UNL A   1      40.012  19.140  25.957  1.00  0.00    -0.352 N 
ATOM     23  C   UNL A   1      41.349  19.400  26.130  1.00  0.00     0.251 C 
ATOM     24  H   UNL A   1      39.779  18.183  25.951  1.00  0.00     0.163 HD
ATOM     25  O   UNL A   1      42.148  18.473  26.011  1.00  0.00    -0.269 OA
BRANCH  23  26
ATOM     26  C   UNL A   1      41.836  20.762  26.446  1.00  0.00     0.039 A 
ATOM     27  C   UNL A   1      41.995  21.677  25.399  1.00  0.00     0.014 A 
ATOM     28  C   UNL A   1      42.200  21.125  27.744  1.00  0.00     0.014 A 
ATOM     29  C   UNL A   1      42.465  22.967  25.662  1.00  0.00     0.010 A 
ATOM     30  C   UNL A   1      42.606  22.433  28.016  1.00  0.00     0.010 A 
ATOM     31  C   UNL A   1      42.745  23.366  26.978  1.00  0.00    -0.014 A 
BRANCH  31  32
ATOM     32  C   UNL A   1      43.181  24.755  27.284  1.00  0.00     0.031 A 
ATOM     33  C   UNL A   1      42.234  25.722  27.944  1.00  0.00     0.074 A 
ATOM     34  C   UNL A   1      44.411  25.162  26.912  1.00  0.00     0.049 A 
ATOM     35  N   UNL A   1      42.402  26.989  28.219  1.00  0.00    -0.248 NA
ATOM     36  C   UNL A   1      40.914  25.195  28.320  1.00  0.00     0.031 C 
ATOM     37  C   UNL A   1      45.405  24.327  26.232  1.00  0.00     0.029 A 
ATOM     38  N   UNL A   1      45.033  26.378  27.040  1.00  0.00    -0.354 N 
ATOM     39  C   UNL A   1      41.206  27.419  28.785  1.00  0.00     0.074 A 
ATOM     40  C   UNL A   1      40.304  26.286  28.760  1.00  0.00     0.031 C 
ATOM     41  C   UNL A   1      46.517  25.050  26.023  1.00  0.00     0.029 A 
ATOM     42  C   UNL A   1      46.302  26.409  26.509  1.00  0.00     0.049 A 
ATOM     43  H   UNL A   1      44.611  27.155  27.473  1.00  0.00     0.167 HD
ATOM     44  C   UNL A   1      40.896  28.637  29.296  1.00  0.00     0.034 A 
ATOM     45  C   UNL A   1      47.187  27.421  26.409  1.00  0.00     0.034 A 
ATOM     46  C   UNL A   1      41.812  29.754  29.321  1.00  0.00     0.049 A 
ATOM     47  C   UNL A   1      46.813  28.771  26.965  1.00  0.00     0.074 A 
ATOM     48  C   UNL A   1      41.622  31.015  29.861  1.00  0.00     0.029 A 
ATOM     49  N   UNL A   1      43.091  29.747  28.776  1.00  0.00    -0.354 N 
ATOM     50  N   UNL A   1      45.694  29.147  27.540  1.00  0.00    -0.248 NA
ATOM     51  C   UNL A   1      47.827  29.829  26.868  1.00  0.00     0.031 C 
ATOM     52  C   UNL A   1      42.755  31.788  29.585  1.00  0.00     0.029 A 
ATOM     53  C   UNL A   1      43.686  30.989  28.940  1.00  0.00     0.049 A 
ATOM     54  H   UNL A   1      43.512  28.972  28.337  1.00  0.00     0.167 HD
ATOM     55  C   UNL A   1      45.883  30.479  27.900  1.00  0.00     0.074 A 
ATOM     56  C   UNL A   1      47.227  30.832  27.492  1.00  0.00     0.031 C 
ATOM     57  C   UNL A   1      45.024  31.332  28.515  1.00  0.00     0.034 A 
BRANCH  44  58
ATOM     58  C   UNL A   1      39.499  28.828  29.841  1.00  0.00     0.023 A 
ATOM     59  C   UNL A   1      38.448  29.296  29.033  1.00  0.00     0.031 A 
ATOM     60  C   UNL A   1      39.219  28.565  31.194  1.00  0.00     0.131 A 
ATOM     61  C   UNL A   1      37.191  29.563  29.599  1.00  0.00     0.055 A 
ATOM     62  C   UNL A   1      37.943  28.752  31.732  1.00  0.00     0.041 A 
ATOM     63  F   UNL A   1      40.184  28.135  32.022  1.00  0.00    -0.206 F 
ATOM     64  C   UNL A   1      36.924  29.269  30.938  1.00  0.00     0.022 A 
BRANCH  61  65
ATOM     65  S   UNL A   1      35.958  30.436  28.597  1.00  0.00     0.124 S 
ATOM     66  O   UNL A   1      35.106  29.336  28.154  1.00  0.00    -0.237 OA
ATOM     67  O   UNL A   1      35.365  31.358  29.558  1.00  0.00    -0.237 OA
ATOM     68  O   UNL A   1      36.753  31.061  27.542  1.00  0.00    -0.744 OA
ENDBRANCH  61  65
ENDBRANCH  44  58
BRANCH  45  69
ATOM     69  C   UNL A   1      48.508  27.206  25.751  1.00  0.00     0.023 A 
ATOM     70  C   UNL A   1      49.621  26.773  26.489  1.00  0.00     0.031 A 
ATOM     71  C   UNL A   1      48.685  27.467  24.381  1.00  0.00     0.131 A 
ATOM     72  C   UNL A   1      50.872  26.659  25.865  1.00  0.00     0.055 A 
ATOM     73  C   UNL A   1      49.922  27.301  23.753  1.00  0.00     0.041 A 
ATOM     74  F   UNL A   1      47.653  27.876  23.628  1.00  0.00    -0.206 F 
ATOM     75  C   UNL A   1      51.028  26.907  24.500  1.00  0.00     0.022 A 
BRANCH  72  76
ATOM     76  S   UNL A   1      52.317  26.257  26.885  1.00  0.00     0.124 S 
ATOM     77  O   UNL A   1      51.804  26.487  28.231  1.00  0.00    -0.237 OA
ATOM     78  O   UNL A   1      52.567  24.867  26.522  1.00  0.00    -0.237 OA
ATOM     79  O   UNL A   1      53.329  27.209  26.431  1.00  0.00    -0.744 OA
ENDBRANCH  72  76
ENDBRANCH  45  69
BRANCH  57  80
ATOM     80  C   UNL A   1      45.540  32.718  28.819  1.00  0.00     0.023 A 
ATOM     81  C   UNL A   1      45.363  33.787  27.925  1.00  0.00     0.031 A 
ATOM     82  C   UNL A   1      46.236  32.965  30.016  1.00  0.00     0.131 A 
ATOM     83  C   UNL A   1      45.928  35.039  28.210  1.00  0.00     0.055 A 
ATOM     84  C   UNL A   1      46.743  34.229  30.324  1.00  0.00     0.041 A 
ATOM     85  F   UNL A   1      46.437  31.981  30.906  1.00  0.00    -0.206 F 
ATOM     86  C   UNL A   1      46.602  35.270  29.412  1.00  0.00     0.022 A 
BRANCH  83  87
ATOM     87  S   UNL A   1      45.855  36.337  26.945  1.00  0.00     0.124 S 
ATOM     88  O   UNL A   1      46.709  37.370  27.521  1.00  0.00    -0.237 OA
ATOM     89  O   UNL A   1      46.385  35.656  25.768  1.00  0.00    -0.237 OA
ATOM     90  O   UNL A   1      44.434  36.673  26.880  1.00  0.00    -0.744 OA
ENDBRANCH  83  87
ENDBRANCH  57  80
ENDBRANCH  31  32
ENDBRANCH  23  26
ENDBRANCH  21  22
ENDBRANCH  20  21
ENDBRANCH   1  20
TORSDOF 17
ENDMDL
MODEL 3
REMARK VINA RESULT:     -11.0      5.599      9.563
REMARK SMILES O=C(CC1CC1)NCc1ccc(C(=O)NCCCNC(=O)c2ccc(-c3c4nc(c(-c5cc(S(=O)(=O)[O-])ccc5F)c5ccc([nH]5)c(-c5cc(S(=O)(=O)[O-])ccc5F)c5nc(c(-c6cc(S(=O)(=O)[O-])ccc6F)c6ccc3[nH]6)C=C5)C=C4)cc2)o1
REMARK SMILES IDX 16 1 15 2 13 3 14 4 12 6 9 7 10 8 85 9 11 10 8 11 7 12 1 13
REMARK SMILES IDX 2 14 3 16 4 17 5 18 6 19 17 20 18 21 19 22 20 23 21 25 22 26
REMARK SMILES IDX 23 27 84 28 24 29 83 30 25 31 26 32 27 33 77 34 28 35 82 36
REMARK SMILES IDX 76 37 78 38 29 39 81 40 75 41 74 42 30 44 62 45 42 46 61 47
REMARK SMILES IDX 43 48 46 49 60 50 79 51 44 52 45 53 59 55 80 56 47 57 31 58
REMARK SMILES IDX 32 59 40 60 33 61 39 62 41 63 38 64 34 65 35 66 36 67 37 68
REMARK SMILES IDX 63 69 64 70 72 71 65 72 71 73 73 74 70 75 66 76 67 77 68 78
REMARK SMILES IDX 69 79 48 80 49 81 57 82 50 83 56 84 58 85 55 86 51 87 52 88
REMARK SMILES IDX 53 89 54 90
REMARK H PARENT 15 5 7 15 19 24 78 43 46 54
REMARK Flexibility Score: inf
ROOT
ATOM      1  C   UNL A   1      42.305  20.238  27.830  1.00  0.00     0.118 C 
ENDROOT
BRANCH   1   2
ATOM      2  N   UNL A   1      42.140  19.014  27.070  1.00  0.00    -0.349 N 
ATOM      3  C   UNL A   1      42.899  18.457  26.064  1.00  0.00     0.286 C 
ATOM      4  O   UNL A   1      42.576  17.315  25.729  1.00  0.00    -0.266 OA
ATOM      5  H   UNL A   1      41.345  18.489  27.315  1.00  0.00     0.163 HD
BRANCH   3   6
ATOM      6  C   UNL A   1      44.009  19.169  25.454  1.00  0.00     0.191 A 
ATOM      7  C   UNL A   1      44.879  20.933  24.421  1.00  0.00     0.124 A 
ATOM      8  C   UNL A   1      45.916  20.053  24.629  1.00  0.00     0.048 A 
ATOM      9  O   UNL A   1      43.718  20.395  24.889  1.00  0.00    -0.454 OA
ATOM     10  C   UNL A   1      45.368  18.945  25.316  1.00  0.00     0.056 A 
BRANCH   7  11
ATOM     11  C   UNL A   1      44.859  22.300  23.839  1.00  0.00     0.191 C 
BRANCH  11  12
ATOM     12  N   UNL A   1      45.863  23.155  24.421  1.00  0.00    -0.349 N 
ATOM     13  O   UNL A   1      44.506  23.938  26.099  1.00  0.00    -0.275 OA
ATOM     14  C   UNL A   1      45.613  23.864  25.570  1.00  0.00     0.220 C 
ATOM     15  H   UNL A   1      46.743  23.230  23.988  1.00  0.00     0.163 HD
BRANCH  14  16
ATOM     16  C   UNL A   1      46.846  24.469  26.211  1.00  0.00     0.103 C 
BRANCH  16  17
ATOM     17  C   UNL A   1      46.944  25.958  25.986  1.00  0.00    -0.002 C 
ATOM     18  C   UNL A   1      47.567  26.496  24.719  1.00  0.00     0.004 C 
ATOM     19  C   UNL A   1      46.095  26.661  24.948  1.00  0.00     0.004 C 
ENDBRANCH  16  17
ENDBRANCH  14  16
ENDBRANCH  11  12
ENDBRANCH   7  11
ENDBRANCH   3   6
ENDBRANCH   1   2
BRANCH   1  20
ATOM     20  C   UNL A   1      41.133  21.201  27.646  1.00  0.00     0.042 C 
BRANCH  20  21
ATOM     21  C   UNL A   1      40.933  21.652  26.198  1.00  0.00     0.118 C 
BRANCH  21  22
ATOM     22  N   UNL A   1      39.524  21.853  25.879  1.00  0.00    -0.352 N 
ATOM     23  C   UNL A   1      38.672  22.885  26.186  1.00  0.00     0.251 C 
ATOM     24  H   UNL A   1      39.115  21.127  25.357  1.00  0.00     0.163 HD
ATOM     25  O   UNL A   1      37.466  22.719  26.022  1.00  0.00    -0.269 OA
BRANCH  23  26
ATOM     26  C   UNL A   1      39.178  24.174  26.710  1.00  0.00     0.039 A 
ATOM     27  C   UNL A   1      39.844  25.040  25.836  1.00  0.00     0.014 A 
ATOM     28  C   UNL A   1      39.066  24.508  28.062  1.00  0.00     0.014 A 
ATOM     29  C   UNL A   1      40.344  26.259  26.302  1.00  0.00     0.010 A 
ATOM     30  C   UNL A   1      39.506  25.753  28.513  1.00  0.00     0.010 A 
ATOM     31  C   UNL A   1      40.153  26.640  27.640  1.00  0.00    -0.014 A 
BRANCH  31  32
ATOM     32  C   UNL A   1      40.619  27.962  28.137  1.00  0.00     0.031 A 
ATOM     33  C   UNL A   1      42.088  28.291  28.157  1.00  0.00     0.074 A 
ATOM     34  C   UNL A   1      39.722  28.841  28.627  1.00  0.00     0.049 A 
ATOM     35  N   UNL A   1      42.693  29.353  28.623  1.00  0.00    -0.248 NA
ATOM     36  C   UNL A   1      42.997  27.278  27.601  1.00  0.00     0.031 C 
ATOM     37  C   UNL A   1      38.276  28.620  28.695  1.00  0.00     0.029 A 
ATOM     38  N   UNL A   1      39.892  30.090  29.171  1.00  0.00    -0.354 N 
ATOM     39  C   UNL A   1      44.054  29.132  28.433  1.00  0.00     0.074 A 
ATOM     40  C   UNL A   1      44.183  27.808  27.860  1.00  0.00     0.031 C 
ATOM     41  C   UNL A   1      37.690  29.704  29.228  1.00  0.00     0.029 A 
ATOM     42  C   UNL A   1      38.718  30.677  29.584  1.00  0.00     0.049 A 
ATOM     43  H   UNL A   1      40.771  30.525  29.256  1.00  0.00     0.167 HD
ATOM     44  C   UNL A   1      45.095  29.963  28.693  1.00  0.00     0.034 A 
ATOM     45  C   UNL A   1      38.495  31.858  30.194  1.00  0.00     0.034 A 
ATOM     46  C   UNL A   1      44.945  31.285  29.256  1.00  0.00     0.049 A 
ATOM     47  C   UNL A   1      39.669  32.755  30.492  1.00  0.00     0.074 A 
ATOM     48  C   UNL A   1      45.924  32.230  29.511  1.00  0.00     0.029 A 
ATOM     49  N   UNL A   1      43.740  31.847  29.659  1.00  0.00    -0.354 N 
ATOM     50  N   UNL A   1      40.946  32.550  30.262  1.00  0.00    -0.248 NA
ATOM     51  C   UNL A   1      39.369  34.048  31.120  1.00  0.00     0.031 C 
ATOM     52  C   UNL A   1      45.322  33.333  30.127  1.00  0.00     0.029 A 
ATOM     53  C   UNL A   1      43.956  33.111  30.188  1.00  0.00     0.049 A 
ATOM     54  H   UNL A   1      42.861  31.411  29.581  1.00  0.00     0.167 HD
ATOM     55  C   UNL A   1      41.597  33.703  30.692  1.00  0.00     0.074 A 
ATOM     56  C   UNL A   1      40.571  34.602  31.177  1.00  0.00     0.031 C 
ATOM     57  C   UNL A   1      42.924  33.993  30.683  1.00  0.00     0.034 A 
BRANCH  44  58
ATOM     58  C   UNL A   1      46.485  29.450  28.396  1.00  0.00     0.023 A 
ATOM     59  C   UNL A   1      47.204  28.681  29.328  1.00  0.00     0.031 A 
ATOM     60  C   UNL A   1      47.112  29.755  27.174  1.00  0.00     0.131 A 
ATOM     61  C   UNL A   1      48.532  28.313  29.060  1.00  0.00     0.055 A 
ATOM     62  C   UNL A   1      48.405  29.313  26.879  1.00  0.00     0.041 A 
ATOM     63  F   UNL A   1      46.486  30.501  26.251  1.00  0.00    -0.206 F 
ATOM     64  C   UNL A   1      49.128  28.602  27.831  1.00  0.00     0.022 A 
BRANCH  61  65
ATOM     65  S   UNL A   1      49.514  27.583  30.398  1.00  0.00     0.124 S 
ATOM     66  O   UNL A   1      49.985  26.347  29.777  1.00  0.00    -0.237 OA
ATOM     67  O   UNL A   1      50.528  28.603  30.639  1.00  0.00    -0.237 OA
ATOM     68  O   UNL A   1      48.544  27.400  31.476  1.00  0.00    -0.744 OA
ENDBRANCH  61  65
ENDBRANCH  44  58
BRANCH  45  69
ATOM     69  C   UNL A   1      37.111  32.261  30.574  1.00  0.00     0.023 A 
ATOM     70  C   UNL A   1      36.252  32.864  29.642  1.00  0.00     0.031 A 
ATOM     71  C   UNL A   1      36.640  32.083  31.887  1.00  0.00     0.131 A 
ATOM     72  C   UNL A   1      34.985  33.310  30.046  1.00  0.00     0.055 A 
ATOM     73  C   UNL A   1      35.358  32.482  32.271  1.00  0.00     0.041 A 
ATOM     74  F   UNL A   1      37.418  31.506  32.816  1.00  0.00    -0.206 F 
ATOM     75  C   UNL A   1      34.527  33.112  31.350  1.00  0.00     0.022 A 
BRANCH  72  76
ATOM     76  S   UNL A   1      33.970  34.230  28.857  1.00  0.00     0.124 S 
ATOM     77  O   UNL A   1      32.863  34.678  29.694  1.00  0.00    -0.237 OA
ATOM     78  O   UNL A   1      34.894  35.265  28.406  1.00  0.00    -0.237 OA
ATOM     79  O   UNL A   1      33.627  33.224  27.853  1.00  0.00    -0.744 OA
ENDBRANCH  72  76
ENDBRANCH  45  69
BRANCH  57  80
ATOM     80  C   UNL A   1      43.326  35.361  31.177  1.00  0.00     0.023 A 
ATOM     81  C   UNL A   1      43.496  36.445  30.299  1.00  0.00     0.031 A 
ATOM     82  C   UNL A   1      43.560  35.577  32.547  1.00  0.00     0.131 A 
ATOM     83  C   UNL A   1      43.949  37.679  30.791  1.00  0.00     0.055 A 
ATOM     84  C   UNL A   1      43.950  36.823  33.039  1.00  0.00     0.041 A 
ATOM     85  F   UNL A   1      43.415  34.577  33.431  1.00  0.00    -0.206 F 
ATOM     86  C   UNL A   1      44.160  37.879  32.157  1.00  0.00     0.022 A 
BRANCH  83  87
ATOM     87  S   UNL A   1      44.352  38.994  29.608  1.00  0.00     0.124 S 
ATOM     88  O   UNL A   1      44.441  40.164  30.474  1.00  0.00    -0.237 OA
ATOM     89  O   UNL A   1      45.611  38.526  29.037  1.00  0.00    -0.237 OA
ATOM     90  O   UNL A   1      43.215  38.988  28.688  1.00  0.00    -0.744 OA
ENDBRANCH  83  87
ENDBRANCH  57  80
ENDBRANCH  31  32
ENDBRANCH  23  26
ENDBRANCH  21  22
ENDBRANCH  20  21
ENDBRANCH   1  20
TORSDOF 17
ENDMDL
