MODEL 1
REMARK VINA RESULT:     -11.2      0.000      0.000
REMARK SMILES Cc1cc(NS(=O)(=O)CC(=O)NCCCNC(=O)c2ccc(-c3c4nc(c(-c5cc(S(=O)(=O)[O-])ccc5F)c5ccc([nH]5)c(-c5cc(S(=O)(=O)[O-])ccc5F)c5nc(c(-c6cc(S(=O)(=O)[O-])ccc6F)c6ccc3[nH]6)C=C5)C=C4)cc2)ccn1
REMARK SMILES IDX 14 1 13 2 12 3 10 4 11 5 9 7 6 8 7 9 8 10 5 11 4 13 1 14
REMARK SMILES IDX 2 15 3 16 84 17 83 18 82 19 15 20 16 21 17 22 18 24 19 25
REMARK SMILES IDX 20 26 81 27 21 28 80 29 22 30 23 31 24 32 74 33 25 34 79 35
REMARK SMILES IDX 73 36 75 37 26 38 78 39 72 40 71 41 27 43 59 44 39 45 58 46
REMARK SMILES IDX 40 47 43 48 57 49 76 50 41 51 42 52 56 54 77 55 44 56 28 57
REMARK SMILES IDX 29 58 37 59 30 60 36 61 38 62 35 63 31 64 32 65 33 66 34 67
REMARK SMILES IDX 60 68 61 69 69 70 62 71 68 72 70 73 67 74 63 75 64 76 65 77
REMARK SMILES IDX 66 78 45 79 46 80 54 81 47 82 53 83 55 84 52 85 48 86 49 87
REMARK SMILES IDX 50 88 51 89
REMARK H PARENT 12 6 5 12 16 23 75 42 43 53
REMARK Flexibility Score: inf
ROOT
ATOM      1  C   UNL A   1      31.475  31.619  26.536  1.00  0.00     0.042 C 
ENDROOT
BRANCH   1   2
ATOM      2  C   UNL A   1      31.640  30.147  26.187  1.00  0.00     0.117 C 
BRANCH   2   3
ATOM      3  N   UNL A   1      32.531  29.954  25.059  1.00  0.00    -0.355 N 
ATOM      4  C   UNL A   1      32.580  28.943  24.157  1.00  0.00     0.237 C 
ATOM      5  O   UNL A   1      33.380  29.063  23.224  1.00  0.00    -0.274 OA
ATOM      6  H   UNL A   1      33.201  30.664  24.930  1.00  0.00     0.163 HD
BRANCH   4   7
ATOM      7  C   UNL A   1      31.622  27.800  24.208  1.00  0.00     0.259 C 
BRANCH   7   8
ATOM      8  S   UNL A   1      30.549  27.665  22.799  1.00  0.00     0.241 S 
ATOM      9  O   UNL A   1      29.218  27.346  23.266  1.00  0.00    -0.206 OA
ATOM     10  O   UNL A   1      31.209  26.778  21.855  1.00  0.00    -0.206 OA
BRANCH   8  11
ATOM     11  N   UNL A   1      30.499  29.134  22.015  1.00  0.00    -0.283 N 
ATOM     12  H   UNL A   1      31.181  29.318  21.330  1.00  0.00     0.180 HD
BRANCH  11  13
ATOM     13  C   UNL A   1      29.517  30.145  22.282  1.00  0.00     0.052 A 
ATOM     14  C   UNL A   1      27.633  32.774  20.304  1.00  0.00     0.067 C 
ATOM     15  C   UNL A   1      28.226  31.985  21.432  1.00  0.00     0.039 A 
ATOM     16  C   UNL A   1      28.992  30.846  21.196  1.00  0.00     0.050 A 
ATOM     17  N   UNL A   1      28.020  32.479  22.674  1.00  0.00    -0.261 NA
ATOM     18  C   UNL A   1      28.549  31.793  23.703  1.00  0.00     0.113 A 
ATOM     19  C   UNL A   1      29.260  30.617  23.561  1.00  0.00     0.047 A 
ENDBRANCH  11  13
ENDBRANCH   8  11
ENDBRANCH   7   8
ENDBRANCH   4   7
ENDBRANCH   2   3
ENDBRANCH   1   2
BRANCH   1  20
ATOM     20  C   UNL A   1      32.781  32.330  26.878  1.00  0.00     0.118 C 
BRANCH  20  21
ATOM     21  N   UNL A   1      32.574  33.697  27.335  1.00  0.00    -0.352 N 
ATOM     22  C   UNL A   1      33.132  34.384  28.385  1.00  0.00     0.251 C 
ATOM     23  H   UNL A   1      31.928  34.215  26.803  1.00  0.00     0.163 HD
ATOM     24  O   UNL A   1      32.634  35.454  28.725  1.00  0.00    -0.269 OA
BRANCH  22  25
ATOM     25  C   UNL A   1      34.301  33.841  29.113  1.00  0.00     0.039 A 
ATOM     26  C   UNL A   1      34.084  32.898  30.120  1.00  0.00     0.014 A 
ATOM     27  C   UNL A   1      35.600  34.277  28.838  1.00  0.00     0.014 A 
ATOM     28  C   UNL A   1      35.172  32.344  30.797  1.00  0.00     0.010 A 
ATOM     29  C   UNL A   1      36.688  33.656  29.446  1.00  0.00     0.010 A 
ATOM     30  C   UNL A   1      36.486  32.684  30.436  1.00  0.00    -0.014 A 
BRANCH  30  31
ATOM     31  C   UNL A   1      37.645  32.005  31.075  1.00  0.00     0.031 A 
ATOM     32  C   UNL A   1      38.436  30.963  30.332  1.00  0.00     0.074 A 
ATOM     33  C   UNL A   1      37.952  32.301  32.353  1.00  0.00     0.049 A 
ATOM     34  N   UNL A   1      39.479  30.278  30.729  1.00  0.00    -0.248 NA
ATOM     35  C   UNL A   1      37.975  30.625  28.979  1.00  0.00     0.031 C 
ATOM     36  C   UNL A   1      37.211  33.239  33.200  1.00  0.00     0.029 A 
ATOM     37  N   UNL A   1      38.961  31.850  33.165  1.00  0.00    -0.354 N 
ATOM     38  C   UNL A   1      39.792  29.420  29.679  1.00  0.00     0.074 A 
ATOM     39  C   UNL A   1      38.783  29.625  28.661  1.00  0.00     0.031 C 
ATOM     40  C   UNL A   1      37.813  33.322  34.396  1.00  0.00     0.029 A 
ATOM     41  C   UNL A   1      38.950  32.409  34.421  1.00  0.00     0.049 A 
ATOM     42  H   UNL A   1      39.631  31.188  32.876  1.00  0.00     0.167 HD
ATOM     43  C   UNL A   1      40.836  28.560  29.568  1.00  0.00     0.034 A 
ATOM     44  C   UNL A   1      39.756  32.204  35.482  1.00  0.00     0.034 A 
ATOM     45  C   UNL A   1      41.828  28.371  30.603  1.00  0.00     0.049 A 
ATOM     46  C   UNL A   1      40.907  31.246  35.341  1.00  0.00     0.074 A 
ATOM     47  C   UNL A   1      42.970  27.588  30.570  1.00  0.00     0.029 A 
ATOM     48  N   UNL A   1      41.785  28.951  31.866  1.00  0.00    -0.354 N 
ATOM     49  N   UNL A   1      41.247  30.509  34.308  1.00  0.00    -0.248 NA
ATOM     50  C   UNL A   1      41.792  31.106  36.502  1.00  0.00     0.031 C 
ATOM     51  C   UNL A   1      43.563  27.623  31.837  1.00  0.00     0.029 A 
ATOM     52  C   UNL A   1      42.850  28.503  32.636  1.00  0.00     0.049 A 
ATOM     53  H   UNL A   1      41.098  29.587  32.171  1.00  0.00     0.167 HD
ATOM     54  C   UNL A   1      42.396  29.824  34.693  1.00  0.00     0.074 A 
ATOM     55  C   UNL A   1      42.705  30.266  36.040  1.00  0.00     0.031 C 
ATOM     56  C   UNL A   1      43.128  28.915  33.996  1.00  0.00     0.034 A 
BRANCH  43  57
ATOM     57  C   UNL A   1      40.924  27.733  28.302  1.00  0.00     0.023 A 
ATOM     58  C   UNL A   1      40.605  26.363  28.284  1.00  0.00     0.031 A 
ATOM     59  C   UNL A   1      41.384  28.311  27.104  1.00  0.00     0.131 A 
ATOM     60  C   UNL A   1      40.846  25.600  27.131  1.00  0.00     0.055 A 
ATOM     61  C   UNL A   1      41.528  27.565  25.932  1.00  0.00     0.041 A 
ATOM     62  F   UNL A   1      41.727  29.607  27.057  1.00  0.00    -0.206 F 
ATOM     63  C   UNL A   1      41.280  26.196  25.946  1.00  0.00     0.022 A 
BRANCH  60  64
ATOM     64  S   UNL A   1      40.770  23.790  27.261  1.00  0.00     0.124 S 
ATOM     65  O   UNL A   1      41.507  23.377  26.069  1.00  0.00    -0.237 OA
ATOM     66  O   UNL A   1      41.426  23.539  28.538  1.00  0.00    -0.237 OA
ATOM     67  O   UNL A   1      39.336  23.505  27.226  1.00  0.00    -0.744 OA
ENDBRANCH  60  64
ENDBRANCH  43  57
BRANCH  44  68
ATOM     68  C   UNL A   1      39.484  32.911  36.766  1.00  0.00     0.023 A 
ATOM     69  C   UNL A   1      38.621  32.373  37.734  1.00  0.00     0.031 A 
ATOM     70  C   UNL A   1      40.101  34.145  37.045  1.00  0.00     0.131 A 
ATOM     71  C   UNL A   1      38.378  33.080  38.922  1.00  0.00     0.055 A 
ATOM     72  C   UNL A   1      39.896  34.818  38.250  1.00  0.00     0.041 A 
ATOM     73  F   UNL A   1      40.940  34.699  36.156  1.00  0.00    -0.206 F 
ATOM     74  C   UNL A   1      39.023  34.289  39.193  1.00  0.00     0.022 A 
BRANCH  71  75
ATOM     75  S   UNL A   1      37.161  32.422  40.096  1.00  0.00     0.124 S 
ATOM     76  O   UNL A   1      36.039  32.111  39.218  1.00  0.00    -0.237 OA
ATOM     77  O   UNL A   1      37.871  31.279  40.660  1.00  0.00    -0.237 OA
ATOM     78  O   UNL A   1      36.943  33.533  41.020  1.00  0.00    -0.744 OA
ENDBRANCH  71  75
ENDBRANCH  44  68
BRANCH  56  79
ATOM     79  C   UNL A   1      44.346  28.348  34.691  1.00  0.00     0.023 A 
ATOM     80  C   UNL A   1      44.273  27.175  35.465  1.00  0.00     0.031 A 
ATOM     81  C   UNL A   1      45.584  29.011  34.618  1.00  0.00     0.131 A 
ATOM     82  C   UNL A   1      45.390  26.751  36.200  1.00  0.00     0.055 A 
ATOM     83  C   UNL A   1      46.714  28.538  35.287  1.00  0.00     0.041 A 
ATOM     84  F   UNL A   1      45.715  30.139  33.901  1.00  0.00    -0.206 F 
ATOM     85  C   UNL A   1      46.616  27.413  36.100  1.00  0.00     0.022 A 
BRANCH  82  86
ATOM     86  S   UNL A   1      45.179  25.409  37.403  1.00  0.00     0.124 S 
ATOM     87  O   UNL A   1      44.323  26.035  38.405  1.00  0.00    -0.237 OA
ATOM     88  O   UNL A   1      44.558  24.363  36.597  1.00  0.00    -0.237 OA
ATOM     89  O   UNL A   1      46.544  25.125  37.843  1.00  0.00    -0.744 OA
ENDBRANCH  82  86
ENDBRANCH  56  79
ENDBRANCH  30  31
ENDBRANCH  22  25
ENDBRANCH  20  21
ENDBRANCH   1  20
TORSDOF 16
ENDMDL
MODEL 2
REMARK VINA RESULT:     -11.2      7.253     12.382
REMARK SMILES Cc1cc(NS(=O)(=O)CC(=O)NCCCNC(=O)c2ccc(-c3c4nc(c(-c5cc(S(=O)(=O)[O-])ccc5F)c5ccc([nH]5)c(-c5cc(S(=O)(=O)[O-])ccc5F)c5nc(c(-c6cc(S(=O)(=O)[O-])ccc6F)c6ccc3[nH]6)C=C5)C=C4)cc2)ccn1
REMARK SMILES IDX 14 1 13 2 12 3 10 4 11 5 9 7 6 8 7 9 8 10 5 11 4 13 1 14
REMARK SMILES IDX 2 15 3 16 84 17 83 18 82 19 15 20 16 21 17 22 18 24 19 25
REMARK SMILES IDX 20 26 81 27 21 28 80 29 22 30 23 31 24 32 74 33 25 34 79 35
REMARK SMILES IDX 73 36 75 37 26 38 78 39 72 40 71 41 27 43 59 44 39 45 58 46
REMARK SMILES IDX 40 47 43 48 57 49 76 50 41 51 42 52 56 54 77 55 44 56 28 57
REMARK SMILES IDX 29 58 37 59 30 60 36 61 38 62 35 63 31 64 32 65 33 66 34 67
REMARK SMILES IDX 60 68 61 69 69 70 62 71 68 72 70 73 67 74 63 75 64 76 65 77
REMARK SMILES IDX 66 78 45 79 46 80 54 81 47 82 53 83 55 84 52 85 48 86 49 87
REMARK SMILES IDX 50 88 51 89
REMARK H PARENT 12 6 5 12 16 23 75 42 43 53
REMARK Flexibility Score: inf
ROOT
ATOM      1  C   UNL A   1      37.765  19.859  24.989  1.00  0.00     0.042 C 
ENDROOT
BRANCH   1   2
ATOM      2  C   UNL A   1      36.614  20.840  24.813  1.00  0.00     0.117 C 
BRANCH   2   3
ATOM      3  N   UNL A   1      35.924  21.094  26.063  1.00  0.00    -0.355 N 
ATOM      4  C   UNL A   1      34.701  21.636  26.282  1.00  0.00     0.237 C 
ATOM      5  O   UNL A   1      34.298  21.657  27.449  1.00  0.00    -0.274 OA
ATOM      6  H   UNL A   1      36.419  20.833  26.874  1.00  0.00     0.163 HD
BRANCH   4   7
ATOM      7  C   UNL A   1      33.822  22.068  25.156  1.00  0.00     0.259 C 
BRANCH   7   8
ATOM      8  S   UNL A   1      32.356  21.089  24.939  1.00  0.00     0.241 S 
ATOM      9  O   UNL A   1      32.196  20.809  23.530  1.00  0.00    -0.206 OA
ATOM     10  O   UNL A   1      31.290  21.766  25.661  1.00  0.00    -0.206 OA
BRANCH   8  11
ATOM     11  N   UNL A   1      32.545  19.646  25.749  1.00  0.00    -0.283 N 
ATOM     12  H   UNL A   1      32.318  19.616  26.706  1.00  0.00     0.180 HD
BRANCH  11  13
ATOM     13  C   UNL A   1      33.020  18.443  25.128  1.00  0.00     0.052 A 
ATOM     14  C   UNL A   1      32.515  14.711  25.564  1.00  0.00     0.067 C 
ATOM     15  C   UNL A   1      33.068  16.039  25.147  1.00  0.00     0.039 A 
ATOM     16  C   UNL A   1      32.469  17.231  25.548  1.00  0.00     0.050 A 
ATOM     17  N   UNL A   1      34.206  16.007  24.418  1.00  0.00    -0.261 NA
ATOM     18  C   UNL A   1      34.727  17.188  24.039  1.00  0.00     0.113 A 
ATOM     19  C   UNL A   1      34.156  18.412  24.332  1.00  0.00     0.047 A 
ENDBRANCH  11  13
ENDBRANCH   8  11
ENDBRANCH   7   8
ENDBRANCH   4   7
ENDBRANCH   2   3
ENDBRANCH   1   2
BRANCH   1  20
ATOM     20  C   UNL A   1      38.928  20.401  25.815  1.00  0.00     0.118 C 
BRANCH  20  21
ATOM     21  N   UNL A   1      40.002  19.432  25.977  1.00  0.00    -0.352 N 
ATOM     22  C   UNL A   1      41.352  19.612  26.151  1.00  0.00     0.251 C 
ATOM     23  H   UNL A   1      39.713  18.491  25.961  1.00  0.00     0.163 HD
ATOM     24  O   UNL A   1      42.100  18.646  26.030  1.00  0.00    -0.269 OA
BRANCH  22  25
ATOM     25  C   UNL A   1      41.907  20.950  26.457  1.00  0.00     0.039 A 
ATOM     26  C   UNL A   1      42.154  21.830  25.401  1.00  0.00     0.014 A 
ATOM     27  C   UNL A   1      42.216  21.331  27.765  1.00  0.00     0.014 A 
ATOM     28  C   UNL A   1      42.643  23.111  25.666  1.00  0.00     0.010 A 
ATOM     29  C   UNL A   1      42.613  22.638  28.036  1.00  0.00     0.010 A 
ATOM     30  C   UNL A   1      42.835  23.543  26.989  1.00  0.00    -0.014 A 
BRANCH  30  31
ATOM     31  C   UNL A   1      43.242  24.944  27.275  1.00  0.00     0.031 A 
ATOM     32  C   UNL A   1      42.287  25.907  27.926  1.00  0.00     0.074 A 
ATOM     33  C   UNL A   1      44.467  25.359  26.899  1.00  0.00     0.049 A 
ATOM     34  N   UNL A   1      42.474  27.160  28.257  1.00  0.00    -0.248 NA
ATOM     35  C   UNL A   1      40.936  25.406  28.214  1.00  0.00     0.031 C 
ATOM     36  C   UNL A   1      45.452  24.537  26.192  1.00  0.00     0.029 A 
ATOM     37  N   UNL A   1      45.096  26.568  27.054  1.00  0.00    -0.354 N 
ATOM     38  C   UNL A   1      41.263  27.601  28.781  1.00  0.00     0.074 A 
ATOM     39  C   UNL A   1      40.332  26.499  28.656  1.00  0.00     0.031 C 
ATOM     40  C   UNL A   1      46.573  25.252  26.010  1.00  0.00     0.029 A 
ATOM     41  C   UNL A   1      46.371  26.595  26.540  1.00  0.00     0.049 A 
ATOM     42  H   UNL A   1      44.675  27.343  27.493  1.00  0.00     0.167 HD
ATOM     43  C   UNL A   1      40.964  28.804  29.335  1.00  0.00     0.034 A 
ATOM     44  C   UNL A   1      47.276  27.593  26.489  1.00  0.00     0.034 A 
ATOM     45  C   UNL A   1      41.912  29.890  29.444  1.00  0.00     0.049 A 
ATOM     46  C   UNL A   1      46.928  28.919  27.107  1.00  0.00     0.074 A 
ATOM     47  C   UNL A   1      41.746  31.121  30.055  1.00  0.00     0.029 A 
ATOM     48  N   UNL A   1      43.196  29.886  28.910  1.00  0.00    -0.354 N 
ATOM     49  N   UNL A   1      45.808  29.293  27.684  1.00  0.00    -0.248 NA
ATOM     50  C   UNL A   1      47.970  29.951  27.081  1.00  0.00     0.031 C 
ATOM     51  C   UNL A   1      42.889  31.890  29.811  1.00  0.00     0.029 A 
ATOM     52  C   UNL A   1      43.811  31.111  29.132  1.00  0.00     0.049 A 
ATOM     53  H   UNL A   1      43.609  29.125  28.441  1.00  0.00     0.167 HD
ATOM     54  C   UNL A   1      46.016  30.604  28.101  1.00  0.00     0.074 A 
ATOM     55  C   UNL A   1      47.381  30.938  27.739  1.00  0.00     0.031 C 
ATOM     56  C   UNL A   1      45.159  31.453  28.728  1.00  0.00     0.034 A 
BRANCH  43  57
ATOM     57  C   UNL A   1      39.544  29.012  29.820  1.00  0.00     0.023 A 
ATOM     58  C   UNL A   1      38.596  29.724  29.063  1.00  0.00     0.031 A 
ATOM     59  C   UNL A   1      39.145  28.536  31.083  1.00  0.00     0.131 A 
ATOM     60  C   UNL A   1      37.341  30.027  29.613  1.00  0.00     0.055 A 
ATOM     61  C   UNL A   1      37.860  28.757  31.584  1.00  0.00     0.041 A 
ATOM     62  F   UNL A   1      40.006  27.868  31.866  1.00  0.00    -0.206 F 
ATOM     63  C   UNL A   1      36.956  29.526  30.858  1.00  0.00     0.022 A 
BRANCH  60  64
ATOM     64  S   UNL A   1      36.296  31.245  28.763  1.00  0.00     0.124 S 
ATOM     65  O   UNL A   1      35.893  30.506  27.568  1.00  0.00    -0.237 OA
ATOM     66  O   UNL A   1      35.248  31.498  29.743  1.00  0.00    -0.237 OA
ATOM     67  O   UNL A   1      37.206  32.362  28.515  1.00  0.00    -0.744 OA
ENDBRANCH  60  64
ENDBRANCH  43  57
BRANCH  44  68
ATOM     68  C   UNL A   1      48.587  27.369  25.814  1.00  0.00     0.023 A 
ATOM     69  C   UNL A   1      48.730  27.498  24.424  1.00  0.00     0.031 A 
ATOM     70  C   UNL A   1      49.727  27.027  26.565  1.00  0.00     0.131 A 
ATOM     71  C   UNL A   1      49.977  27.261  23.825  1.00  0.00     0.055 A 
ATOM     72  C   UNL A   1      50.976  26.844  25.971  1.00  0.00     0.041 A 
ATOM     73  F   UNL A   1      49.646  26.899  27.899  1.00  0.00    -0.206 F 
ATOM     74  C   UNL A   1      51.104  26.952  24.591  1.00  0.00     0.022 A 
BRANCH  71  75
ATOM     75  S   UNL A   1      50.101  27.310  22.015  1.00  0.00     0.124 S 
ATOM     76  O   UNL A   1      49.009  26.428  21.619  1.00  0.00    -0.237 OA
ATOM     77  O   UNL A   1      49.913  28.729  21.737  1.00  0.00    -0.237 OA
ATOM     78  O   UNL A   1      51.444  26.799  21.751  1.00  0.00    -0.744 OA
ENDBRANCH  71  75
ENDBRANCH  44  68
BRANCH  56  79
ATOM     79  C   UNL A   1      45.691  32.828  29.066  1.00  0.00     0.023 A 
ATOM     80  C   UNL A   1      45.661  33.879  28.132  1.00  0.00     0.031 A 
ATOM     81  C   UNL A   1      46.276  33.079  30.320  1.00  0.00     0.131 A 
ATOM     82  C   UNL A   1      46.280  35.101  28.434  1.00  0.00     0.055 A 
ATOM     83  C   UNL A   1      46.817  34.325  30.644  1.00  0.00     0.041 A 
ATOM     84  F   UNL A   1      46.340  32.114  31.252  1.00  0.00    -0.206 F 
ATOM     85  C   UNL A   1      46.839  35.338  29.692  1.00  0.00     0.022 A 
BRANCH  82  86
ATOM     86  S   UNL A   1      46.473  36.327  27.110  1.00  0.00     0.124 S 
ATOM     87  O   UNL A   1      47.920  36.513  27.080  1.00  0.00    -0.237 OA
ATOM     88  O   UNL A   1      45.895  35.638  25.961  1.00  0.00    -0.237 OA
ATOM     89  O   UNL A   1      45.709  37.476  27.592  1.00  0.00    -0.744 OA
ENDBRANCH  82  86
ENDBRANCH  56  79
ENDBRANCH  30  31
ENDBRANCH  22  25
ENDBRANCH  20  21
ENDBRANCH   1  20
TORSDOF 16
ENDMDL
MODEL 3
REMARK VINA RESULT:     -11.0      3.869     10.137
REMARK SMILES Cc1cc(NS(=O)(=O)CC(=O)NCCCNC(=O)c2ccc(-c3c4nc(c(-c5cc(S(=O)(=O)[O-])ccc5F)c5ccc([nH]5)c(-c5cc(S(=O)(=O)[O-])ccc5F)c5nc(c(-c6cc(S(=O)(=O)[O-])ccc6F)c6ccc3[nH]6)C=C5)C=C4)cc2)ccn1
REMARK SMILES IDX 14 1 13 2 12 3 10 4 11 5 9 7 6 8 7 9 8 10 5 11 4 13 1 14
REMARK SMILES IDX 2 15 3 16 84 17 83 18 82 19 15 20 16 21 17 22 18 24 19 25
REMARK SMILES IDX 20 26 81 27 21 28 80 29 22 30 23 31 24 32 74 33 25 34 79 35
REMARK SMILES IDX 73 36 75 37 26 38 78 39 72 40 71 41 27 43 59 44 39 45 58 46
REMARK SMILES IDX 40 47 43 48 57 49 76 50 41 51 42 52 56 54 77 55 44 56 28 57
REMARK SMILES IDX 29 58 37 59 30 60 36 61 38 62 35 63 31 64 32 65 33 66 34 67
REMARK SMILES IDX 60 68 61 69 69 70 62 71 68 72 70 73 67 74 63 75 64 76 65 77
REMARK SMILES IDX 66 78 45 79 46 80 54 81 47 82 53 83 55 84 52 85 48 86 49 87
REMARK SMILES IDX 50 88 51 89
REMARK H PARENT 12 6 5 12 16 23 75 42 43 53
REMARK Flexibility Score: inf
ROOT
ATOM      1  C   UNL A   1      33.689  34.201  28.700  1.00  0.00     0.042 C 
ENDROOT
BRANCH   1   2
ATOM      2  C   UNL A   1      33.859  34.252  30.211  1.00  0.00     0.117 C 
BRANCH   2   3
ATOM      3  N   UNL A   1      34.547  33.081  30.718  1.00  0.00    -0.355 N 
ATOM      4  C   UNL A   1      34.768  32.693  31.998  1.00  0.00     0.237 C 
ATOM      5  O   UNL A   1      35.303  31.593  32.166  1.00  0.00    -0.274 OA
ATOM      6  H   UNL A   1      34.908  32.477  30.029  1.00  0.00     0.163 HD
BRANCH   4   7
ATOM      7  C   UNL A   1      34.270  33.492  33.156  1.00  0.00     0.259 C 
BRANCH   7   8
ATOM      8  S   UNL A   1      35.520  34.422  34.011  1.00  0.00     0.241 S 
ATOM      9  O   UNL A   1      35.163  34.490  35.410  1.00  0.00    -0.206 OA
ATOM     10  O   UNL A   1      35.713  35.651  33.260  1.00  0.00    -0.206 OA
BRANCH   8  11
ATOM     11  N   UNL A   1      36.976  33.624  33.873  1.00  0.00    -0.283 N 
ATOM     12  H   UNL A   1      37.073  32.754  34.322  1.00  0.00     0.180 HD
BRANCH  11  13
ATOM     13  C   UNL A   1      38.095  34.134  33.135  1.00  0.00     0.052 A 
ATOM     14  C   UNL A   1      39.143  34.377  29.500  1.00  0.00     0.067 C 
ATOM     15  C   UNL A   1      39.169  34.377  30.998  1.00  0.00     0.039 A 
ATOM     16  C   UNL A   1      38.019  34.118  31.742  1.00  0.00     0.050 A 
ATOM     17  N   UNL A   1      40.375  34.581  31.572  1.00  0.00    -0.261 NA
ATOM     18  C   UNL A   1      40.425  34.577  32.916  1.00  0.00     0.113 A 
ATOM     19  C   UNL A   1      39.321  34.400  33.728  1.00  0.00     0.047 A 
ENDBRANCH  11  13
ENDBRANCH   8  11
ENDBRANCH   7   8
ENDBRANCH   4   7
ENDBRANCH   2   3
ENDBRANCH   1   2
BRANCH   1  20
ATOM     20  C   UNL A   1      34.604  33.198  28.001  1.00  0.00     0.118 C 
BRANCH  20  21
ATOM     21  N   UNL A   1      33.914  31.972  27.627  1.00  0.00    -0.352 N 
ATOM     22  C   UNL A   1      34.363  30.677  27.560  1.00  0.00     0.251 C 
ATOM     23  H   UNL A   1      32.968  32.091  27.381  1.00  0.00     0.163 HD
ATOM     24  O   UNL A   1      33.670  29.837  26.992  1.00  0.00    -0.269 OA
BRANCH  22  25
ATOM     25  C   UNL A   1      35.670  30.295  28.141  1.00  0.00     0.039 A 
ATOM     26  C   UNL A   1      35.693  29.699  29.405  1.00  0.00     0.014 A 
ATOM     27  C   UNL A   1      36.869  30.548  27.471  1.00  0.00     0.014 A 
ATOM     28  C   UNL A   1      36.910  29.296  29.959  1.00  0.00     0.010 A 
ATOM     29  C   UNL A   1      38.070  30.061  27.981  1.00  0.00     0.010 A 
ATOM     30  C   UNL A   1      38.105  29.433  29.234  1.00  0.00    -0.014 A 
BRANCH  30  31
ATOM     31  C   UNL A   1      39.382  28.896  29.774  1.00  0.00     0.031 A 
ATOM     32  C   UNL A   1      40.026  29.509  30.988  1.00  0.00     0.074 A 
ATOM     33  C   UNL A   1      39.986  27.876  29.133  1.00  0.00     0.049 A 
ATOM     34  N   UNL A   1      41.131  29.165  31.600  1.00  0.00    -0.248 NA
ATOM     35  C   UNL A   1      39.357  30.680  31.570  1.00  0.00     0.031 C 
ATOM     36  C   UNL A   1      39.496  27.250  27.903  1.00  0.00     0.029 A 
ATOM     37  N   UNL A   1      41.136  27.187  29.419  1.00  0.00    -0.354 N 
ATOM     38  C   UNL A   1      41.296  30.084  32.632  1.00  0.00     0.074 A 
ATOM     39  C   UNL A   1      40.214  31.039  32.513  1.00  0.00     0.031 C 
ATOM     40  C   UNL A   1      40.317  26.245  27.563  1.00  0.00     0.029 A 
ATOM     41  C   UNL A   1      41.418  26.187  28.518  1.00  0.00     0.049 A 
ATOM     42  H   UNL A   1      41.707  27.389  30.195  1.00  0.00     0.167 HD
ATOM     43  C   UNL A   1      42.248  30.114  33.599  1.00  0.00     0.034 A 
ATOM     44  C   UNL A   1      42.452  25.325  28.457  1.00  0.00     0.034 A 
ATOM     45  C   UNL A   1      43.321  29.149  33.692  1.00  0.00     0.049 A 
ATOM     46  C   UNL A   1      43.498  25.372  29.537  1.00  0.00     0.074 A 
ATOM     47  C   UNL A   1      44.293  29.033  34.671  1.00  0.00     0.029 A 
ATOM     48  N   UNL A   1      43.580  28.150  32.761  1.00  0.00    -0.354 N 
ATOM     49  N   UNL A   1      43.591  26.189  30.562  1.00  0.00    -0.248 NA
ATOM     50  C   UNL A   1      44.568  24.372  29.461  1.00  0.00     0.031 C 
ATOM     51  C   UNL A   1      45.188  28.029  34.285  1.00  0.00     0.029 A 
ATOM     52  C   UNL A   1      44.725  27.448  33.115  1.00  0.00     0.049 A 
ATOM     53  H   UNL A   1      43.030  27.966  31.964  1.00  0.00     0.167 HD
ATOM     54  C   UNL A   1      44.727  25.792  31.261  1.00  0.00     0.074 A 
ATOM     55  C   UNL A   1      45.261  24.642  30.556  1.00  0.00     0.031 C 
ATOM     56  C   UNL A   1      45.277  26.328  32.382  1.00  0.00     0.034 A 
BRANCH  43  57
ATOM     57  C   UNL A   1      42.188  31.249  34.599  1.00  0.00     0.023 A 
ATOM     58  C   UNL A   1      41.222  31.291  35.621  1.00  0.00     0.031 A 
ATOM     59  C   UNL A   1      43.077  32.335  34.499  1.00  0.00     0.131 A 
ATOM     60  C   UNL A   1      41.102  32.432  36.430  1.00  0.00     0.055 A 
ATOM     61  C   UNL A   1      43.015  33.425  35.372  1.00  0.00     0.041 A 
ATOM     62  F   UNL A   1      44.009  32.370  33.534  1.00  0.00    -0.206 F 
ATOM     63  C   UNL A   1      42.009  33.488  36.330  1.00  0.00     0.022 A 
BRANCH  60  64
ATOM     64  S   UNL A   1      39.628  32.597  37.477  1.00  0.00     0.124 S 
ATOM     65  O   UNL A   1      40.186  32.381  38.810  1.00  0.00    -0.237 OA
ATOM     66  O   UNL A   1      39.183  33.953  37.182  1.00  0.00    -0.237 OA
ATOM     67  O   UNL A   1      38.748  31.532  37.000  1.00  0.00    -0.744 OA
ENDBRANCH  60  64
ENDBRANCH  43  57
BRANCH  44  68
ATOM     68  C   UNL A   1      42.547  24.360  27.324  1.00  0.00     0.023 A 
ATOM     69  C   UNL A   1      41.918  23.106  27.373  1.00  0.00     0.031 A 
ATOM     70  C   UNL A   1      43.271  24.691  26.164  1.00  0.00     0.131 A 
ATOM     71  C   UNL A   1      42.047  22.218  26.292  1.00  0.00     0.055 A 
ATOM     72  C   UNL A   1      43.352  23.826  25.072  1.00  0.00     0.041 A 
ATOM     73  F   UNL A   1      43.885  25.881  26.064  1.00  0.00    -0.206 F 
ATOM     74  C   UNL A   1      42.745  22.577  25.136  1.00  0.00     0.022 A 
BRANCH  71  75
ATOM     75  S   UNL A   1      41.332  20.557  26.436  1.00  0.00     0.124 S 
ATOM     76  O   UNL A   1      42.083  19.822  25.424  1.00  0.00    -0.237 OA
ATOM     77  O   UNL A   1      41.625  20.220  27.824  1.00  0.00    -0.237 OA
ATOM     78  O   UNL A   1      39.918  20.767  26.134  1.00  0.00    -0.744 OA
ENDBRANCH  71  75
ENDBRANCH  44  68
BRANCH  56  79
ATOM     79  C   UNL A   1      46.523  25.656  32.916  1.00  0.00     0.023 A 
ATOM     80  C   UNL A   1      46.450  24.594  33.835  1.00  0.00     0.031 A 
ATOM     81  C   UNL A   1      47.798  26.111  32.537  1.00  0.00     0.131 A 
ATOM     82  C   UNL A   1      47.624  24.082  34.407  1.00  0.00     0.055 A 
ATOM     83  C   UNL A   1      48.966  25.541  33.048  1.00  0.00     0.041 A 
ATOM     84  F   UNL A   1      47.934  27.126  31.668  1.00  0.00    -0.206 F 
ATOM     85  C   UNL A   1      48.883  24.534  34.004  1.00  0.00     0.022 A 
BRANCH  82  86
ATOM     86  S   UNL A   1      47.479  22.918  35.792  1.00  0.00     0.124 S 
ATOM     87  O   UNL A   1      48.869  22.779  36.215  1.00  0.00    -0.237 OA
ATOM     88  O   UNL A   1      46.602  23.636  36.711  1.00  0.00    -0.237 OA
ATOM     89  O   UNL A   1      46.895  21.727  35.179  1.00  0.00    -0.744 OA
ENDBRANCH  82  86
ENDBRANCH  56  79
ENDBRANCH  30  31
ENDBRANCH  22  25
ENDBRANCH  20  21
ENDBRANCH   1  20
TORSDOF 16
ENDMDL
