MODEL 1
REMARK VINA RESULT:     -12.4      0.000      0.000
REMARK SMILES COc1cc(N[C@H]2C=C[C@@H](C(=O)NCCCNC(=O)c3ccc(-c4c5nc(c(-c6cc(S(=O)(=O)[O-])ccc6F)c6ccc([nH]6)c(-c6cc(S(=O)(=O)[O-])ccc6F)c6nc(c(-c7cc(S(=O)(=O)[O-])ccc7F)c7ccc4[nH]7)C=C6)C=C5)cc3)C2)c([N+](=O)[O-])cc1F
REMARK SMILES IDX 15 1 14 2 13 3 11 4 12 5 10 7 7 8 8 9 83 10 9 11 6 12 5 14
REMARK SMILES IDX 3 15 4 16 89 17 88 18 90 19 84 20 2 21 1 22 85 23 86 24
REMARK SMILES IDX 87 25 16 26 17 27 18 28 19 30 20 31 21 32 82 33 22 34 81 35
REMARK SMILES IDX 23 36 24 37 25 38 75 39 26 40 80 41 74 42 76 43 27 44 79 45
REMARK SMILES IDX 73 46 72 47 28 49 60 50 40 51 59 52 41 53 44 54 58 55 77 56
REMARK SMILES IDX 42 57 43 58 57 60 78 61 45 62 29 63 30 64 38 65 31 66 37 67
REMARK SMILES IDX 39 68 36 69 32 70 33 71 34 72 35 73 61 74 62 75 70 76 63 77
REMARK SMILES IDX 69 78 71 79 68 80 64 81 65 82 66 83 67 84 46 85 47 86 55 87
REMARK SMILES IDX 48 88 54 89 56 90 53 91 49 92 50 93 51 94 52 95
REMARK H PARENT 13 6 6 13 17 29 76 48 44 59
REMARK Flexibility Score: inf
ROOT
ATOM      1  C   UNL A   1      35.704  21.503  24.610  1.00  0.00     0.042 C 
ENDROOT
BRANCH   1   2
ATOM      2  C   UNL A   1      34.784  21.652  25.820  1.00  0.00     0.117 C 
BRANCH   2   3
ATOM      3  N   UNL A   1      34.051  20.451  26.141  1.00  0.00    -0.356 N 
ATOM      4  C   UNL A   1      32.925  19.956  25.562  1.00  0.00     0.227 C 
ATOM      5  O   UNL A   1      32.663  18.768  25.784  1.00  0.00    -0.274 OA
ATOM      6  H   UNL A   1      34.416  19.917  26.883  1.00  0.00     0.163 HD
BRANCH   4   7
ATOM      7  C   UNL A   1      32.014  20.773  24.631  1.00  0.00     0.103 C 
ATOM      8  C   UNL A   1      31.835  23.034  23.667  1.00  0.00     0.103 C 
ATOM      9  C   UNL A   1      32.317  22.040  22.675  1.00  0.00    -0.006 C 
ATOM     10  C   UNL A   1      31.732  22.241  24.986  1.00  0.00     0.046 C 
ATOM     11  C   UNL A   1      32.460  20.817  23.200  1.00  0.00    -0.016 C 
BRANCH   8  12
ATOM     12  N   UNL A   1      32.649  24.238  23.804  1.00  0.00    -0.373 N 
ATOM     13  H   UNL A   1      33.596  24.073  23.596  1.00  0.00     0.161 HD
BRANCH  12  14
ATOM     14  C   UNL A   1      32.413  25.557  24.153  1.00  0.00     0.117 A 
ATOM     15  C   UNL A   1      31.471  27.236  25.700  1.00  0.00     0.157 A 
ATOM     16  C   UNL A   1      31.792  25.915  25.364  1.00  0.00     0.082 A 
ATOM     17  C   UNL A   1      31.818  28.266  24.839  1.00  0.00     0.172 A 
ATOM     18  C   UNL A   1      32.463  27.986  23.645  1.00  0.00     0.131 A 
ATOM     19  F   UNL A   1      31.586  29.543  25.163  1.00  0.00    -0.203 F 
ATOM     20  C   UNL A   1      32.769  26.648  23.307  1.00  0.00     0.295 A 
BRANCH  15  21
ATOM     21  O   UNL A   1      30.907  27.427  26.933  1.00  0.00    -0.494 OA
ATOM     22  C   UNL A   1      31.777  28.090  27.850  1.00  0.00     0.278 C 
ENDBRANCH  15  21
BRANCH  20  23
ATOM     23  N   UNL A   1      33.481  26.439  22.029  1.00  0.00     0.065 N 
ATOM     24  O   UNL A   1      33.491  25.299  21.538  1.00  0.00    -0.258 OA
ATOM     25  O   UNL A   1      34.043  27.416  21.515  1.00  0.00    -0.258 OA
ENDBRANCH  20  23
ENDBRANCH  12  14
ENDBRANCH   8  12
ENDBRANCH   4   7
ENDBRANCH   2   3
ENDBRANCH   1   2
BRANCH   1  26
ATOM     26  C   UNL A   1      37.119  22.031  24.831  1.00  0.00     0.118 C 
BRANCH  26  27
ATOM     27  N   UNL A   1      38.080  20.993  25.161  1.00  0.00    -0.352 N 
ATOM     28  C   UNL A   1      39.199  21.014  25.966  1.00  0.00     0.251 C 
ATOM     29  H   UNL A   1      37.901  20.124  24.735  1.00  0.00     0.163 HD
ATOM     30  O   UNL A   1      39.833  19.980  26.122  1.00  0.00    -0.269 OA
BRANCH  28  31
ATOM     31  C   UNL A   1      39.660  22.279  26.571  1.00  0.00     0.039 A 
ATOM     32  C   UNL A   1      40.638  22.210  27.568  1.00  0.00     0.014 A 
ATOM     33  C   UNL A   1      39.175  23.513  26.143  1.00  0.00     0.014 A 
ATOM     34  C   UNL A   1      41.209  23.385  28.056  1.00  0.00     0.010 A 
ATOM     35  C   UNL A   1      39.795  24.680  26.573  1.00  0.00     0.010 A 
ATOM     36  C   UNL A   1      40.832  24.622  27.515  1.00  0.00    -0.014 A 
BRANCH  36  37
ATOM     37  C   UNL A   1      41.527  25.875  27.888  1.00  0.00     0.031 A 
ATOM     38  C   UNL A   1      40.793  26.927  28.667  1.00  0.00     0.074 A 
ATOM     39  C   UNL A   1      42.775  26.096  27.433  1.00  0.00     0.049 A 
ATOM     40  N   UNL A   1      41.143  28.157  28.927  1.00  0.00    -0.248 NA
ATOM     41  C   UNL A   1      39.469  26.551  29.186  1.00  0.00     0.031 C 
ATOM     42  C   UNL A   1      43.566  25.151  26.638  1.00  0.00     0.029 A 
ATOM     43  N   UNL A   1      43.596  27.186  27.561  1.00  0.00    -0.354 N 
ATOM     44  C   UNL A   1      40.071  28.717  29.612  1.00  0.00     0.074 A 
ATOM     45  C   UNL A   1      39.044  27.699  29.692  1.00  0.00     0.031 C 
ATOM     46  C   UNL A   1      44.767  25.692  26.377  1.00  0.00     0.029 A 
ATOM     47  C   UNL A   1      44.813  27.036  26.940  1.00  0.00     0.049 A 
ATOM     48  H   UNL A   1      43.338  28.000  28.051  1.00  0.00     0.167 HD
ATOM     49  C   UNL A   1      39.962  29.963  30.134  1.00  0.00     0.034 A 
ATOM     50  C   UNL A   1      45.845  27.894  26.824  1.00  0.00     0.034 A 
ATOM     51  C   UNL A   1      41.013  30.946  30.067  1.00  0.00     0.049 A 
ATOM     52  C   UNL A   1      45.714  29.261  27.435  1.00  0.00     0.074 A 
ATOM     53  C   UNL A   1      41.029  32.231  30.580  1.00  0.00     0.029 A 
ATOM     54  N   UNL A   1      42.245  30.745  29.457  1.00  0.00    -0.354 N 
ATOM     55  N   UNL A   1      44.684  29.786  28.057  1.00  0.00    -0.248 NA
ATOM     56  C   UNL A   1      46.876  30.152  27.327  1.00  0.00     0.031 C 
ATOM     57  C   UNL A   1      42.257  32.818  30.250  1.00  0.00     0.029 A 
ATOM     58  C   UNL A   1      43.026  31.881  29.576  1.00  0.00     0.049 A 
ATOM     59  H   UNL A   1      42.521  29.915  29.005  1.00  0.00     0.167 HD
ATOM     60  C   UNL A   1      45.078  31.066  28.427  1.00  0.00     0.074 A 
ATOM     61  C   UNL A   1      46.442  31.232  27.963  1.00  0.00     0.031 C 
ATOM     62  C   UNL A   1      44.378  32.018  29.093  1.00  0.00     0.034 A 
BRANCH  49  63
ATOM     63  C   UNL A   1      38.655  30.323  30.791  1.00  0.00     0.023 A 
ATOM     64  C   UNL A   1      37.626  30.961  30.078  1.00  0.00     0.031 A 
ATOM     65  C   UNL A   1      38.451  30.062  32.157  1.00  0.00     0.131 A 
ATOM     66  C   UNL A   1      36.469  31.383  30.750  1.00  0.00     0.055 A 
ATOM     67  C   UNL A   1      37.265  30.420  32.803  1.00  0.00     0.041 A 
ATOM     68  F   UNL A   1      39.409  29.475  32.891  1.00  0.00    -0.206 F 
ATOM     69  C   UNL A   1      36.271  31.095  32.101  1.00  0.00     0.022 A 
BRANCH  66  70
ATOM     70  S   UNL A   1      35.275  32.414  29.856  1.00  0.00     0.124 S 
ATOM     71  O   UNL A   1      34.287  32.685  30.898  1.00  0.00    -0.237 OA
ATOM     72  O   UNL A   1      36.084  33.550  29.434  1.00  0.00    -0.237 OA
ATOM     73  O   UNL A   1      34.812  31.544  28.777  1.00  0.00    -0.744 OA
ENDBRANCH  66  70
ENDBRANCH  49  63
BRANCH  50  74
ATOM     74  C   UNL A   1      47.078  27.480  26.105  1.00  0.00     0.023 A 
ATOM     75  C   UNL A   1      47.222  27.726  24.731  1.00  0.00     0.031 A 
ATOM     76  C   UNL A   1      48.141  26.862  26.786  1.00  0.00     0.131 A 
ATOM     77  C   UNL A   1      48.401  27.342  24.074  1.00  0.00     0.055 A 
ATOM     78  C   UNL A   1      49.323  26.508  26.134  1.00  0.00     0.041 A 
ATOM     79  F   UNL A   1      48.054  26.622  28.103  1.00  0.00    -0.206 F 
ATOM     80  C   UNL A   1      49.457  26.745  24.768  1.00  0.00     0.022 A 
BRANCH  77  81
ATOM     81  S   UNL A   1      48.535  27.627  22.288  1.00  0.00     0.124 S 
ATOM     82  O   UNL A   1      48.586  26.264  21.773  1.00  0.00    -0.237 OA
ATOM     83  O   UNL A   1      47.315  28.377  22.005  1.00  0.00    -0.237 OA
ATOM     84  O   UNL A   1      49.774  28.392  22.158  1.00  0.00    -0.744 OA
ENDBRANCH  77  81
ENDBRANCH  50  74
BRANCH  62  85
ATOM     85  C   UNL A   1      45.091  33.308  29.385  1.00  0.00     0.023 A 
ATOM     86  C   UNL A   1      45.108  34.358  28.454  1.00  0.00     0.031 A 
ATOM     87  C   UNL A   1      45.722  33.497  30.625  1.00  0.00     0.131 A 
ATOM     88  C   UNL A   1      45.770  35.553  28.771  1.00  0.00     0.055 A 
ATOM     89  C   UNL A   1      46.346  34.700  30.949  1.00  0.00     0.041 A 
ATOM     90  F   UNL A   1      45.725  32.519  31.546  1.00  0.00    -0.206 F 
ATOM     91  C   UNL A   1      46.376  35.736  30.018  1.00  0.00     0.022 A 
BRANCH  88  92
ATOM     92  S   UNL A   1      45.843  36.867  27.524  1.00  0.00     0.124 S 
ATOM     93  O   UNL A   1      47.160  37.444  27.772  1.00  0.00    -0.237 OA
ATOM     94  O   UNL A   1      45.696  36.128  26.275  1.00  0.00    -0.237 OA
ATOM     95  O   UNL A   1      44.713  37.728  27.868  1.00  0.00    -0.744 OA
ENDBRANCH  88  92
ENDBRANCH  62  85
ENDBRANCH  36  37
ENDBRANCH  28  31
ENDBRANCH  26  27
ENDBRANCH   1  26
TORSDOF 17
ENDMDL
MODEL 2
REMARK VINA RESULT:     -12.2      5.054     10.103
REMARK SMILES COc1cc(N[C@H]2C=C[C@@H](C(=O)NCCCNC(=O)c3ccc(-c4c5nc(c(-c6cc(S(=O)(=O)[O-])ccc6F)c6ccc([nH]6)c(-c6cc(S(=O)(=O)[O-])ccc6F)c6nc(c(-c7cc(S(=O)(=O)[O-])ccc7F)c7ccc4[nH]7)C=C6)C=C5)cc3)C2)c([N+](=O)[O-])cc1F
REMARK SMILES IDX 15 1 14 2 13 3 11 4 12 5 10 7 7 8 8 9 83 10 9 11 6 12 5 14
REMARK SMILES IDX 3 15 4 16 89 17 88 18 90 19 84 20 2 21 1 22 85 23 86 24
REMARK SMILES IDX 87 25 16 26 17 27 18 28 19 30 20 31 21 32 82 33 22 34 81 35
REMARK SMILES IDX 23 36 24 37 25 38 75 39 26 40 80 41 74 42 76 43 27 44 79 45
REMARK SMILES IDX 73 46 72 47 28 49 60 50 40 51 59 52 41 53 44 54 58 55 77 56
REMARK SMILES IDX 42 57 43 58 57 60 78 61 45 62 29 63 30 64 38 65 31 66 37 67
REMARK SMILES IDX 39 68 36 69 32 70 33 71 34 72 35 73 61 74 62 75 70 76 63 77
REMARK SMILES IDX 69 78 71 79 68 80 64 81 65 82 66 83 67 84 46 85 47 86 55 87
REMARK SMILES IDX 48 88 54 89 56 90 53 91 49 92 50 93 51 94 52 95
REMARK H PARENT 13 6 6 13 17 29 76 48 44 59
REMARK Flexibility Score: inf
ROOT
ATOM      1  C   UNL A   1      31.880  29.455  25.254  1.00  0.00     0.042 C 
ENDROOT
BRANCH   1   2
ATOM      2  C   UNL A   1      31.455  27.995  25.114  1.00  0.00     0.117 C 
BRANCH   2   3
ATOM      3  N   UNL A   1      32.461  27.155  24.510  1.00  0.00    -0.356 N 
ATOM      4  C   UNL A   1      32.468  25.805  24.353  1.00  0.00     0.227 C 
ATOM      5  O   UNL A   1      33.271  25.344  23.533  1.00  0.00    -0.274 OA
ATOM      6  H   UNL A   1      33.254  27.626  24.164  1.00  0.00     0.163 HD
BRANCH   4   7
ATOM      7  C   UNL A   1      31.514  24.855  25.097  1.00  0.00     0.103 C 
ATOM      8  C   UNL A   1      31.242  22.458  25.598  1.00  0.00     0.103 C 
ATOM      9  C   UNL A   1      31.742  23.221  26.770  1.00  0.00    -0.006 C 
ATOM     10  C   UNL A   1      31.187  23.497  24.459  1.00  0.00     0.046 C 
ATOM     11  C   UNL A   1      31.935  24.516  26.496  1.00  0.00    -0.016 C 
BRANCH   8  12
ATOM     12  N   UNL A   1      32.015  21.274  25.235  1.00  0.00    -0.373 N 
ATOM     13  H   UNL A   1      31.441  20.529  24.946  1.00  0.00     0.161 HD
BRANCH  12  14
ATOM     14  C   UNL A   1      33.358  20.944  25.199  1.00  0.00     0.117 A 
ATOM     15  C   UNL A   1      35.737  21.585  25.385  1.00  0.00     0.157 A 
ATOM     16  C   UNL A   1      34.371  21.875  25.495  1.00  0.00     0.082 A 
ATOM     17  C   UNL A   1      36.138  20.309  25.022  1.00  0.00     0.172 A 
ATOM     18  C   UNL A   1      35.193  19.333  24.750  1.00  0.00     0.131 A 
ATOM     19  F   UNL A   1      37.435  19.982  24.974  1.00  0.00    -0.203 F 
ATOM     20  C   UNL A   1      33.817  19.640  24.847  1.00  0.00     0.295 A 
BRANCH  15  21
ATOM     21  O   UNL A   1      36.599  22.584  25.749  1.00  0.00    -0.494 OA
ATOM     22  C   UNL A   1      36.216  23.865  25.247  1.00  0.00     0.278 C 
ENDBRANCH  15  21
BRANCH  20  23
ATOM     23  N   UNL A   1      32.875  18.535  24.567  1.00  0.00     0.065 N 
ATOM     24  O   UNL A   1      31.988  18.290  25.400  1.00  0.00    -0.258 OA
ATOM     25  O   UNL A   1      33.027  17.901  23.514  1.00  0.00    -0.258 OA
ENDBRANCH  20  23
ENDBRANCH  12  14
ENDBRANCH   8  12
ENDBRANCH   4   7
ENDBRANCH   2   3
ENDBRANCH   1   2
BRANCH   1  26
ATOM     26  C   UNL A   1      32.320  29.847  26.662  1.00  0.00     0.118 C 
BRANCH  26  27
ATOM     27  N   UNL A   1      32.202  31.269  26.931  1.00  0.00    -0.352 N 
ATOM     28  C   UNL A   1      33.119  32.183  27.408  1.00  0.00     0.251 C 
ATOM     29  H   UNL A   1      31.313  31.647  26.741  1.00  0.00     0.163 HD
ATOM     30  O   UNL A   1      32.786  33.355  27.510  1.00  0.00    -0.269 OA
BRANCH  28  31
ATOM     31  C   UNL A   1      34.454  31.738  27.853  1.00  0.00     0.039 A 
ATOM     32  C   UNL A   1      35.456  32.704  27.986  1.00  0.00     0.014 A 
ATOM     33  C   UNL A   1      34.711  30.407  28.173  1.00  0.00     0.014 A 
ATOM     34  C   UNL A   1      36.684  32.352  28.547  1.00  0.00     0.010 A 
ATOM     35  C   UNL A   1      35.905  30.071  28.801  1.00  0.00     0.010 A 
ATOM     36  C   UNL A   1      36.889  31.046  29.013  1.00  0.00    -0.014 A 
BRANCH  36  37
ATOM     37  C   UNL A   1      38.113  30.673  29.760  1.00  0.00     0.031 A 
ATOM     38  C   UNL A   1      39.094  29.718  29.146  1.00  0.00     0.074 A 
ATOM     39  C   UNL A   1      38.275  31.117  31.020  1.00  0.00     0.049 A 
ATOM     40  N   UNL A   1      40.115  29.118  29.694  1.00  0.00    -0.248 NA
ATOM     41  C   UNL A   1      38.866  29.362  27.736  1.00  0.00     0.031 C 
ATOM     42  C   UNL A   1      37.362  32.024  31.723  1.00  0.00     0.029 A 
ATOM     43  N   UNL A   1      39.256  30.860  31.942  1.00  0.00    -0.354 N 
ATOM     44  C   UNL A   1      40.636  28.286  28.710  1.00  0.00     0.074 A 
ATOM     45  C   UNL A   1      39.791  28.434  27.543  1.00  0.00     0.031 C 
ATOM     46  C   UNL A   1      37.843  32.270  32.952  1.00  0.00     0.029 A 
ATOM     47  C   UNL A   1      39.067  31.501  33.143  1.00  0.00     0.049 A 
ATOM     48  H   UNL A   1      40.024  30.271  31.761  1.00  0.00     0.167 HD
ATOM     49  C   UNL A   1      41.725  27.482  28.774  1.00  0.00     0.034 A 
ATOM     50  C   UNL A   1      39.793  31.461  34.277  1.00  0.00     0.034 A 
ATOM     51  C   UNL A   1      42.567  27.378  29.939  1.00  0.00     0.049 A 
ATOM     52  C   UNL A   1      41.014  30.584  34.318  1.00  0.00     0.074 A 
ATOM     53  C   UNL A   1      43.710  26.619  30.115  1.00  0.00     0.029 A 
ATOM     54  N   UNL A   1      42.360  28.070  31.127  1.00  0.00    -0.354 N 
ATOM     55  N   UNL A   1      41.480  29.784  33.388  1.00  0.00    -0.248 NA
ATOM     56  C   UNL A   1      41.803  30.601  35.555  1.00  0.00     0.031 C 
ATOM     57  C   UNL A   1      44.174  26.825  31.419  1.00  0.00     0.029 A 
ATOM     58  C   UNL A   1      43.351  27.752  32.040  1.00  0.00     0.049 A 
ATOM     59  H   UNL A   1      41.618  28.694  31.294  1.00  0.00     0.167 HD
ATOM     60  C   UNL A   1      42.626  29.209  33.923  1.00  0.00     0.074 A 
ATOM     61  C   UNL A   1      42.784  29.760  35.255  1.00  0.00     0.031 C 
ATOM     62  C   UNL A   1      43.474  28.310  33.364  1.00  0.00     0.034 A 
BRANCH  49  63
ATOM     63  C   UNL A   1      42.037  26.646  27.561  1.00  0.00     0.023 A 
ATOM     64  C   UNL A   1      41.656  25.295  27.482  1.00  0.00     0.031 A 
ATOM     65  C   UNL A   1      42.760  27.193  26.487  1.00  0.00     0.131 A 
ATOM     66  C   UNL A   1      42.063  24.518  26.388  1.00  0.00     0.055 A 
ATOM     67  C   UNL A   1      43.099  26.432  25.366  1.00  0.00     0.041 A 
ATOM     68  F   UNL A   1      43.169  28.471  26.519  1.00  0.00    -0.206 F 
ATOM     69  C   UNL A   1      42.760  25.082  25.318  1.00  0.00     0.022 A 
BRANCH  66  70
ATOM     70  S   UNL A   1      41.764  22.730  26.435  1.00  0.00     0.124 S 
ATOM     71  O   UNL A   1      40.305  22.680  26.468  1.00  0.00    -0.237 OA
ATOM     72  O   UNL A   1      42.390  22.268  25.203  1.00  0.00    -0.237 OA
ATOM     73  O   UNL A   1      42.426  22.306  27.667  1.00  0.00    -0.744 OA
ENDBRANCH  66  70
ENDBRANCH  49  63
BRANCH  50  74
ATOM     74  C   UNL A   1      39.381  32.272  35.452  1.00  0.00     0.023 A 
ATOM     75  C   UNL A   1      39.845  33.586  35.613  1.00  0.00     0.031 A 
ATOM     76  C   UNL A   1      38.494  31.757  36.413  1.00  0.00     0.131 A 
ATOM     77  C   UNL A   1      39.432  34.342  36.722  1.00  0.00     0.055 A 
ATOM     78  C   UNL A   1      38.062  32.522  37.498  1.00  0.00     0.041 A 
ATOM     79  F   UNL A   1      38.011  30.512  36.291  1.00  0.00    -0.206 F 
ATOM     80  C   UNL A   1      38.535  33.822  37.659  1.00  0.00     0.022 A 
BRANCH  77  81
ATOM     81  S   UNL A   1      40.091  36.019  36.928  1.00  0.00     0.124 S 
ATOM     82  O   UNL A   1      39.804  36.613  35.629  1.00  0.00    -0.237 OA
ATOM     83  O   UNL A   1      39.307  36.519  38.053  1.00  0.00    -0.237 OA
ATOM     84  O   UNL A   1      41.507  35.795  37.214  1.00  0.00    -0.744 OA
ENDBRANCH  77  81
ENDBRANCH  50  74
BRANCH  62  85
ATOM     85  C   UNL A   1      44.663  27.895  34.183  1.00  0.00     0.023 A 
ATOM     86  C   UNL A   1      44.627  26.749  34.992  1.00  0.00     0.031 A 
ATOM     87  C   UNL A   1      45.855  28.635  34.116  1.00  0.00     0.131 A 
ATOM     88  C   UNL A   1      45.764  26.386  35.728  1.00  0.00     0.055 A 
ATOM     89  C   UNL A   1      46.993  28.248  34.821  1.00  0.00     0.041 A 
ATOM     90  F   UNL A   1      45.933  29.736  33.351  1.00  0.00    -0.206 F 
ATOM     91  C   UNL A   1      46.950  27.119  35.636  1.00  0.00     0.022 A 
BRANCH  88  92
ATOM     92  S   UNL A   1      45.669  24.945  36.825  1.00  0.00     0.124 S 
ATOM     93  O   UNL A   1      46.969  24.984  37.486  1.00  0.00    -0.237 OA
ATOM     94  O   UNL A   1      44.517  25.259  37.663  1.00  0.00    -0.237 OA
ATOM     95  O   UNL A   1      45.474  23.827  35.904  1.00  0.00    -0.744 OA
ENDBRANCH  88  92
ENDBRANCH  62  85
ENDBRANCH  36  37
ENDBRANCH  28  31
ENDBRANCH  26  27
ENDBRANCH   1  26
TORSDOF 17
ENDMDL
MODEL 3
REMARK VINA RESULT:     -12.2      5.269     10.280
REMARK SMILES COc1cc(N[C@H]2C=C[C@@H](C(=O)NCCCNC(=O)c3ccc(-c4c5nc(c(-c6cc(S(=O)(=O)[O-])ccc6F)c6ccc([nH]6)c(-c6cc(S(=O)(=O)[O-])ccc6F)c6nc(c(-c7cc(S(=O)(=O)[O-])ccc7F)c7ccc4[nH]7)C=C6)C=C5)cc3)C2)c([N+](=O)[O-])cc1F
REMARK SMILES IDX 15 1 14 2 13 3 11 4 12 5 10 7 7 8 8 9 83 10 9 11 6 12 5 14
REMARK SMILES IDX 3 15 4 16 89 17 88 18 90 19 84 20 2 21 1 22 85 23 86 24
REMARK SMILES IDX 87 25 16 26 17 27 18 28 19 30 20 31 21 32 82 33 22 34 81 35
REMARK SMILES IDX 23 36 24 37 25 38 75 39 26 40 80 41 74 42 76 43 27 44 79 45
REMARK SMILES IDX 73 46 72 47 28 49 60 50 40 51 59 52 41 53 44 54 58 55 77 56
REMARK SMILES IDX 42 57 43 58 57 60 78 61 45 62 29 63 30 64 38 65 31 66 37 67
REMARK SMILES IDX 39 68 36 69 32 70 33 71 34 72 35 73 61 74 62 75 70 76 63 77
REMARK SMILES IDX 69 78 71 79 68 80 64 81 65 82 66 83 67 84 46 85 47 86 55 87
REMARK SMILES IDX 48 88 54 89 56 90 53 91 49 92 50 93 51 94 52 95
REMARK H PARENT 13 6 6 13 17 29 76 48 44 59
REMARK Flexibility Score: inf
ROOT
ATOM      1  C   UNL A   1      32.500  29.108  24.635  1.00  0.00     0.042 C 
ENDROOT
BRANCH   1   2
ATOM      2  C   UNL A   1      31.064  29.628  24.623  1.00  0.00     0.117 C 
BRANCH   2   3
ATOM      3  N   UNL A   1      30.615  30.059  23.322  1.00  0.00    -0.356 N 
ATOM      4  C   UNL A   1      29.836  29.400  22.423  1.00  0.00     0.227 C 
ATOM      5  O   UNL A   1      29.323  30.081  21.528  1.00  0.00    -0.274 OA
ATOM      6  H   UNL A   1      30.915  30.955  23.046  1.00  0.00     0.163 HD
BRANCH   4   7
ATOM      7  C   UNL A   1      29.538  27.893  22.497  1.00  0.00     0.103 C 
ATOM      8  C   UNL A   1      30.514  25.814  23.392  1.00  0.00     0.103 C 
ATOM      9  C   UNL A   1      29.375  26.297  24.215  1.00  0.00    -0.006 C 
ATOM     10  C   UNL A   1      30.703  26.907  22.320  1.00  0.00     0.046 C 
ATOM     11  C   UNL A   1      28.867  27.450  23.762  1.00  0.00    -0.016 C 
BRANCH   8  12
ATOM     12  N   UNL A   1      31.746  25.529  24.120  1.00  0.00    -0.373 N 
ATOM     13  H   UNL A   1      32.000  26.263  24.723  1.00  0.00     0.161 HD
BRANCH  12  14
ATOM     14  C   UNL A   1      32.644  24.477  24.169  1.00  0.00     0.117 A 
ATOM     15  C   UNL A   1      33.656  22.567  25.365  1.00  0.00     0.157 A 
ATOM     16  C   UNL A   1      32.703  23.587  25.258  1.00  0.00     0.082 A 
ATOM     17  C   UNL A   1      34.564  22.368  24.337  1.00  0.00     0.172 A 
ATOM     18  C   UNL A   1      34.540  23.186  23.219  1.00  0.00     0.131 A 
ATOM     19  F   UNL A   1      35.443  21.359  24.380  1.00  0.00    -0.203 F 
ATOM     20  C   UNL A   1      33.584  24.223  23.127  1.00  0.00     0.295 A 
BRANCH  15  21
ATOM     21  O   UNL A   1      33.556  21.759  26.466  1.00  0.00    -0.494 OA
ATOM     22  C   UNL A   1      33.961  22.404  27.673  1.00  0.00     0.278 C 
ENDBRANCH  15  21
BRANCH  20  23
ATOM     23  N   UNL A   1      33.609  25.032  21.890  1.00  0.00     0.065 N 
ATOM     24  O   UNL A   1      34.036  26.196  21.954  1.00  0.00    -0.258 OA
ATOM     25  O   UNL A   1      33.189  24.507  20.849  1.00  0.00    -0.258 OA
ENDBRANCH  20  23
ENDBRANCH  12  14
ENDBRANCH   8  12
ENDBRANCH   4   7
ENDBRANCH   2   3
ENDBRANCH   1   2
BRANCH   1  26
ATOM     26  C   UNL A   1      33.271  29.427  25.913  1.00  0.00     0.118 C 
BRANCH  26  27
ATOM     27  N   UNL A   1      32.904  30.700  26.509  1.00  0.00    -0.352 N 
ATOM     28  C   UNL A   1      33.595  31.541  27.356  1.00  0.00     0.251 C 
ATOM     29  H   UNL A   1      32.004  31.018  26.267  1.00  0.00     0.163 HD
ATOM     30  O   UNL A   1      33.079  32.597  27.690  1.00  0.00    -0.269 OA
BRANCH  28  31
ATOM     31  C   UNL A   1      34.906  31.137  27.902  1.00  0.00     0.039 A 
ATOM     32  C   UNL A   1      35.900  32.113  28.010  1.00  0.00     0.014 A 
ATOM     33  C   UNL A   1      35.146  29.836  28.339  1.00  0.00     0.014 A 
ATOM     34  C   UNL A   1      37.097  31.811  28.659  1.00  0.00     0.010 A 
ATOM     35  C   UNL A   1      36.305  29.554  29.052  1.00  0.00     0.010 A 
ATOM     36  C   UNL A   1      37.277  30.547  29.237  1.00  0.00    -0.014 A 
BRANCH  36  37
ATOM     37  C   UNL A   1      38.461  30.238  30.071  1.00  0.00     0.031 A 
ATOM     38  C   UNL A   1      39.509  29.298  29.554  1.00  0.00     0.074 A 
ATOM     39  C   UNL A   1      38.527  30.726  31.325  1.00  0.00     0.049 A 
ATOM     40  N   UNL A   1      40.511  28.749  30.186  1.00  0.00    -0.248 NA
ATOM     41  C   UNL A   1      39.385  28.892  28.145  1.00  0.00     0.031 C 
ATOM     42  C   UNL A   1      37.542  31.623  31.937  1.00  0.00     0.029 A 
ATOM     43  N   UNL A   1      39.454  30.530  32.315  1.00  0.00    -0.354 N 
ATOM     44  C   UNL A   1      41.121  27.906  29.264  1.00  0.00     0.074 A 
ATOM     45  C   UNL A   1      40.349  27.989  28.041  1.00  0.00     0.031 C 
ATOM     46  C   UNL A   1      37.934  31.922  33.186  1.00  0.00     0.029 A 
ATOM     47  C   UNL A   1      39.167  31.201  33.480  1.00  0.00     0.049 A 
ATOM     48  H   UNL A   1      40.250  29.961  32.203  1.00  0.00     0.167 HD
ATOM     49  C   UNL A   1      42.228  27.141  29.425  1.00  0.00     0.034 A 
ATOM     50  C   UNL A   1      39.818  31.220  34.659  1.00  0.00     0.034 A 
ATOM     51  C   UNL A   1      42.995  27.100  30.644  1.00  0.00     0.049 A 
ATOM     52  C   UNL A   1      41.060  30.386  34.807  1.00  0.00     0.074 A 
ATOM     53  C   UNL A   1      44.147  26.386  30.918  1.00  0.00     0.029 A 
ATOM     54  N   UNL A   1      42.690  27.821  31.793  1.00  0.00    -0.354 N 
ATOM     55  N   UNL A   1      41.611  29.573  33.935  1.00  0.00    -0.248 NA
ATOM     56  C   UNL A   1      41.767  30.468  36.091  1.00  0.00     0.031 C 
ATOM     57  C   UNL A   1      44.519  26.647  32.242  1.00  0.00     0.029 A 
ATOM     58  C   UNL A   1      43.628  27.565  32.778  1.00  0.00     0.049 A 
ATOM     59  H   UNL A   1      41.919  28.425  31.891  1.00  0.00     0.167 HD
ATOM     60  C   UNL A   1      42.737  29.054  34.561  1.00  0.00     0.074 A 
ATOM     61  C   UNL A   1      42.791  29.651  35.882  1.00  0.00     0.031 C 
ATOM     62  C   UNL A   1      43.647  28.167  34.088  1.00  0.00     0.034 A 
BRANCH  49  63
ATOM     63  C   UNL A   1      42.644  26.278  28.262  1.00  0.00     0.023 A 
ATOM     64  C   UNL A   1      42.054  25.024  28.029  1.00  0.00     0.031 A 
ATOM     65  C   UNL A   1      43.673  26.696  27.400  1.00  0.00     0.131 A 
ATOM     66  C   UNL A   1      42.545  24.200  27.007  1.00  0.00     0.055 A 
ATOM     67  C   UNL A   1      44.108  25.901  26.337  1.00  0.00     0.041 A 
ATOM     68  F   UNL A   1      44.288  27.874  27.589  1.00  0.00    -0.206 F 
ATOM     69  C   UNL A   1      43.551  24.639  26.144  1.00  0.00     0.022 A 
BRANCH  66  70
ATOM     70  S   UNL A   1      41.927  22.500  26.890  1.00  0.00     0.124 S 
ATOM     71  O   UNL A   1      42.080  22.232  25.462  1.00  0.00    -0.237 OA
ATOM     72  O   UNL A   1      42.826  21.770  27.775  1.00  0.00    -0.237 OA
ATOM     73  O   UNL A   1      40.546  22.606  27.355  1.00  0.00    -0.744 OA
ENDBRANCH  66  70
ENDBRANCH  49  63
BRANCH  50  74
ATOM     74  C   UNL A   1      39.305  32.053  35.778  1.00  0.00     0.023 A 
ATOM     75  C   UNL A   1      38.510  31.486  36.786  1.00  0.00     0.031 A 
ATOM     76  C   UNL A   1      39.627  33.418  35.873  1.00  0.00     0.131 A 
ATOM     77  C   UNL A   1      38.048  32.286  37.842  1.00  0.00     0.055 A 
ATOM     78  C   UNL A   1      39.191  34.203  36.941  1.00  0.00     0.041 A 
ATOM     79  F   UNL A   1      40.399  33.998  34.941  1.00  0.00    -0.206 F 
ATOM     80  C   UNL A   1      38.393  33.638  37.933  1.00  0.00     0.022 A 
BRANCH  77  81
ATOM     81  S   UNL A   1      36.979  31.536  39.101  1.00  0.00     0.124 S 
ATOM     82  O   UNL A   1      35.846  32.453  39.113  1.00  0.00    -0.237 OA
ATOM     83  O   UNL A   1      36.729  30.212  38.540  1.00  0.00    -0.237 OA
ATOM     84  O   UNL A   1      37.809  31.550  40.304  1.00  0.00    -0.744 OA
ENDBRANCH  77  81
ENDBRANCH  50  74
BRANCH  62  85
ATOM     85  C   UNL A   1      44.793  27.818  34.994  1.00  0.00     0.023 A 
ATOM     86  C   UNL A   1      44.727  26.715  35.860  1.00  0.00     0.031 A 
ATOM     87  C   UNL A   1      45.976  28.574  34.956  1.00  0.00     0.131 A 
ATOM     88  C   UNL A   1      45.825  26.412  36.679  1.00  0.00     0.055 A 
ATOM     89  C   UNL A   1      47.077  28.246  35.745  1.00  0.00     0.041 A 
ATOM     90  F   UNL A   1      46.082  29.635  34.139  1.00  0.00    -0.206 F 
ATOM     91  C   UNL A   1      47.003  27.160  36.616  1.00  0.00     0.022 A 
BRANCH  88  92
ATOM     92  S   UNL A   1      45.688  25.030  37.844  1.00  0.00     0.124 S 
ATOM     93  O   UNL A   1      44.734  25.549  38.818  1.00  0.00    -0.237 OA
ATOM     94  O   UNL A   1      45.206  23.945  36.995  1.00  0.00    -0.237 OA
ATOM     95  O   UNL A   1      47.054  24.864  38.339  1.00  0.00    -0.744 OA
ENDBRANCH  88  92
ENDBRANCH  62  85
ENDBRANCH  36  37
ENDBRANCH  28  31
ENDBRANCH  26  27
ENDBRANCH   1  26
TORSDOF 17
ENDMDL
