MODEL 1
REMARK VINA RESULT:     -13.3      0.000      0.000
REMARK SMILES C[C@@H](C(=O)NCCCNC(=O)c1ccc(-c2c3nc(c(-c4cc(S(=O)(=O)[O-])ccc4F)c4ccc([nH]4)c(-c4cc(S(=O)(=O)[O-])ccc4F)c4nc(c(-c5cc(S(=O)(=O)[O-])ccc5F)c5ccc2[nH]5)C=C4)C=C3)cc1)c1ccc(-c2ccc3[nH]ccc3c2)cc1
REMARK SMILES IDX 7 1 6 2 5 3 3 4 4 5 2 7 1 8 75 9 76 10 89 11 77 12 88 13
REMARK SMILES IDX 78 14 79 15 80 16 87 17 81 18 86 19 82 20 85 21 83 22 84 23
REMARK SMILES IDX 8 25 9 26 10 27 11 29 12 30 13 31 74 32 14 33 73 34 15 35
REMARK SMILES IDX 16 36 17 37 67 38 18 39 72 40 66 41 68 42 19 43 71 44 65 45
REMARK SMILES IDX 64 46 20 48 52 49 32 50 51 51 33 52 36 53 50 54 69 55 34 56
REMARK SMILES IDX 35 57 49 59 70 60 37 61 21 62 22 63 30 64 23 65 29 66 31 67
REMARK SMILES IDX 28 68 24 69 25 70 26 71 27 72 53 73 54 74 62 75 55 76 61 77
REMARK SMILES IDX 63 78 60 79 56 80 57 81 58 82 59 83 38 84 39 85 47 86 40 87
REMARK SMILES IDX 46 88 48 89 45 90 41 91 42 92 43 93 44 94
REMARK H PARENT 5 6 83 24 9 28 68 47 36 58
REMARK Flexibility Score: inf
ROOT
ATOM      1  C   UNL A   1      35.906  21.796  25.162  1.00  0.00     0.042 C 
ENDROOT
BRANCH   1   2
ATOM      2  C   UNL A   1      34.928  22.058  24.016  1.00  0.00     0.117 C 
BRANCH   2   3
ATOM      3  N   UNL A   1      33.669  21.367  24.227  1.00  0.00    -0.356 N 
ATOM      4  C   UNL A   1      32.681  21.599  25.141  1.00  0.00     0.227 C 
ATOM      5  O   UNL A   1      31.850  20.700  25.284  1.00  0.00    -0.274 OA
ATOM      6  H   UNL A   1      33.501  20.614  23.614  1.00  0.00     0.163 HD
BRANCH   4   7
ATOM      7  C   UNL A   1      32.651  22.931  25.917  1.00  0.00     0.105 C 
ATOM      8  C   UNL A   1      32.386  22.605  27.394  1.00  0.00     0.023 C 
BRANCH   7   9
ATOM      9  C   UNL A   1      31.658  23.969  25.370  1.00  0.00    -0.036 A 
ATOM     10  C   UNL A   1      31.147  24.997  26.178  1.00  0.00     0.005 A 
ATOM     11  C   UNL A   1      31.206  23.910  24.040  1.00  0.00     0.005 A 
ATOM     12  C   UNL A   1      30.347  26.009  25.638  1.00  0.00     0.009 A 
ATOM     13  C   UNL A   1      30.396  24.913  23.503  1.00  0.00     0.009 A 
ATOM     14  C   UNL A   1      29.994  25.997  24.286  1.00  0.00    -0.018 A 
BRANCH  14  15
ATOM     15  C   UNL A   1      29.283  27.126  23.689  1.00  0.00    -0.018 A 
ATOM     16  C   UNL A   1      27.888  27.204  23.810  1.00  0.00     0.011 A 
ATOM     17  C   UNL A   1      29.976  28.133  22.997  1.00  0.00     0.019 A 
ATOM     18  C   UNL A   1      27.160  28.272  23.278  1.00  0.00     0.027 A 
ATOM     19  C   UNL A   1      29.259  29.195  22.412  1.00  0.00    -0.000 A 
ATOM     20  C   UNL A   1      27.877  29.250  22.584  1.00  0.00     0.045 A 
ATOM     21  C   UNL A   1      29.624  30.304  21.601  1.00  0.00     0.028 A 
ATOM     22  N   UNL A   1      27.436  30.394  21.959  1.00  0.00    -0.361 N 
ATOM     23  C   UNL A   1      28.478  31.011  21.316  1.00  0.00     0.083 A 
ATOM     24  H   UNL A   1      26.509  30.723  21.972  1.00  0.00     0.166 HD
ENDBRANCH  14  15
ENDBRANCH   7   9
ENDBRANCH   4   7
ENDBRANCH   2   3
ENDBRANCH   1   2
BRANCH   1  25
ATOM     25  C   UNL A   1      37.376  21.916  24.772  1.00  0.00     0.118 C 
BRANCH  25  26
ATOM     26  N   UNL A   1      38.180  20.827  25.301  1.00  0.00    -0.352 N 
ATOM     27  C   UNL A   1      39.336  20.871  26.046  1.00  0.00     0.251 C 
ATOM     28  H   UNL A   1      37.849  19.923  25.095  1.00  0.00     0.163 HD
ATOM     29  O   UNL A   1      39.983  19.844  26.212  1.00  0.00    -0.269 OA
BRANCH  27  30
ATOM     30  C   UNL A   1      39.807  22.154  26.616  1.00  0.00     0.039 A 
ATOM     31  C   UNL A   1      40.804  22.130  27.594  1.00  0.00     0.014 A 
ATOM     32  C   UNL A   1      39.274  23.374  26.190  1.00  0.00     0.014 A 
ATOM     33  C   UNL A   1      41.327  23.331  28.082  1.00  0.00     0.010 A 
ATOM     34  C   UNL A   1      39.845  24.569  26.625  1.00  0.00     0.010 A 
ATOM     35  C   UNL A   1      40.887  24.560  27.565  1.00  0.00    -0.014 A 
BRANCH  35  36
ATOM     36  C   UNL A   1      41.537  25.842  27.953  1.00  0.00     0.031 A 
ATOM     37  C   UNL A   1      40.745  26.912  28.655  1.00  0.00     0.074 A 
ATOM     38  C   UNL A   1      42.817  26.070  27.593  1.00  0.00     0.049 A 
ATOM     39  N   UNL A   1      41.104  28.130  28.970  1.00  0.00    -0.248 NA
ATOM     40  C   UNL A   1      39.363  26.578  29.034  1.00  0.00     0.031 C 
ATOM     41  C   UNL A   1      43.677  25.118  26.885  1.00  0.00     0.029 A 
ATOM     42  N   UNL A   1      43.616  27.176  27.751  1.00  0.00    -0.354 N 
ATOM     43  C   UNL A   1      39.989  28.715  29.561  1.00  0.00     0.074 A 
ATOM     44  C   UNL A   1      38.932  27.728  29.532  1.00  0.00     0.031 C 
ATOM     45  C   UNL A   1      44.880  25.675  26.681  1.00  0.00     0.029 A 
ATOM     46  C   UNL A   1      44.864  27.045  27.181  1.00  0.00     0.049 A 
ATOM     47  H   UNL A   1      43.324  27.987  28.226  1.00  0.00     0.167 HD
ATOM     48  C   UNL A   1      39.867  29.959  30.085  1.00  0.00     0.034 A 
ATOM     49  C   UNL A   1      45.868  27.936  27.045  1.00  0.00     0.034 A 
ATOM     50  C   UNL A   1      40.939  30.923  30.122  1.00  0.00     0.049 A 
ATOM     51  C   UNL A   1      45.683  29.330  27.594  1.00  0.00     0.074 A 
ATOM     52  C   UNL A   1      40.948  32.173  30.717  1.00  0.00     0.029 A 
ATOM     53  N   UNL A   1      42.182  30.760  29.526  1.00  0.00    -0.354 N 
ATOM     54  N   UNL A   1      44.649  29.835  28.229  1.00  0.00    -0.248 NA
ATOM     55  C   UNL A   1      46.793  30.274  27.411  1.00  0.00     0.031 C 
ATOM     56  C   UNL A   1      42.155  32.801  30.399  1.00  0.00     0.029 A 
ATOM     57  C   UNL A   1      42.939  31.910  29.685  1.00  0.00     0.049 A 
ATOM     58  H   UNL A   1      42.482  29.947  29.057  1.00  0.00     0.167 HD
ATOM     59  C   UNL A   1      45.001  31.145  28.542  1.00  0.00     0.074 A 
ATOM     60  C   UNL A   1      46.347  31.345  28.049  1.00  0.00     0.031 C 
ATOM     61  C   UNL A   1      44.278  32.099  29.181  1.00  0.00     0.034 A 
BRANCH  48  62
ATOM     62  C   UNL A   1      38.521  30.377  30.625  1.00  0.00     0.023 A 
ATOM     63  C   UNL A   1      37.565  31.026  29.827  1.00  0.00     0.031 A 
ATOM     64  C   UNL A   1      38.178  30.083  31.958  1.00  0.00     0.131 A 
ATOM     65  C   UNL A   1      36.329  31.396  30.378  1.00  0.00     0.055 A 
ATOM     66  C   UNL A   1      36.922  30.391  32.480  1.00  0.00     0.041 A 
ATOM     67  F   UNL A   1      39.061  29.484  32.773  1.00  0.00    -0.206 F 
ATOM     68  C   UNL A   1      35.990  31.059  31.692  1.00  0.00     0.022 A 
BRANCH  65  69
ATOM     69  S   UNL A   1      35.206  32.419  29.389  1.00  0.00     0.124 S 
ATOM     70  O   UNL A   1      34.317  32.960  30.413  1.00  0.00    -0.237 OA
ATOM     71  O   UNL A   1      36.116  33.372  28.765  1.00  0.00    -0.237 OA
ATOM     72  O   UNL A   1      34.584  31.462  28.476  1.00  0.00    -0.744 OA
ENDBRANCH  65  69
ENDBRANCH  48  62
BRANCH  49  73
ATOM     73  C   UNL A   1      47.122  27.572  26.317  1.00  0.00     0.023 A 
ATOM     74  C   UNL A   1      47.284  27.878  24.957  1.00  0.00     0.031 A 
ATOM     75  C   UNL A   1      48.141  26.835  26.949  1.00  0.00     0.131 A 
ATOM     76  C   UNL A   1      48.399  27.390  24.257  1.00  0.00     0.055 A 
ATOM     77  C   UNL A   1      49.283  26.414  26.265  1.00  0.00     0.041 A 
ATOM     78  F   UNL A   1      48.041  26.508  28.248  1.00  0.00    -0.206 F 
ATOM     79  C   UNL A   1      49.407  26.674  24.905  1.00  0.00     0.022 A 
BRANCH  76  80
ATOM     80  S   UNL A   1      48.439  27.584  22.453  1.00  0.00     0.124 S 
ATOM     81  O   UNL A   1      48.505  26.197  22.009  1.00  0.00    -0.237 OA
ATOM     82  O   UNL A   1      47.183  28.281  22.196  1.00  0.00    -0.237 OA
ATOM     83  O   UNL A   1      49.648  28.372  22.224  1.00  0.00    -0.744 OA
ENDBRANCH  76  80
ENDBRANCH  49  73
BRANCH  61  84
ATOM     84  C   UNL A   1      44.942  33.433  29.412  1.00  0.00     0.023 A 
ATOM     85  C   UNL A   1      44.886  34.463  28.457  1.00  0.00     0.031 A 
ATOM     86  C   UNL A   1      45.628  33.683  30.615  1.00  0.00     0.131 A 
ATOM     87  C   UNL A   1      45.537  35.681  28.703  1.00  0.00     0.055 A 
ATOM     88  C   UNL A   1      46.222  34.918  30.880  1.00  0.00     0.041 A 
ATOM     89  F   UNL A   1      45.718  32.734  31.560  1.00  0.00    -0.206 F 
ATOM     90  C   UNL A   1      46.186  35.922  29.918  1.00  0.00     0.022 A 
BRANCH  87  91
ATOM     91  S   UNL A   1      45.587  36.925  27.386  1.00  0.00     0.124 S 
ATOM     92  O   UNL A   1      44.171  37.229  27.202  1.00  0.00    -0.237 OA
ATOM     93  O   UNL A   1      46.393  37.984  27.984  1.00  0.00    -0.237 OA
ATOM     94  O   UNL A   1      46.219  36.221  26.271  1.00  0.00    -0.744 OA
ENDBRANCH  87  91
ENDBRANCH  61  84
ENDBRANCH  35  36
ENDBRANCH  27  30
ENDBRANCH  25  26
ENDBRANCH   1  25
TORSDOF 15
ENDMDL
MODEL 2
REMARK VINA RESULT:     -13.1      5.885     11.010
REMARK SMILES C[C@@H](C(=O)NCCCNC(=O)c1ccc(-c2c3nc(c(-c4cc(S(=O)(=O)[O-])ccc4F)c4ccc([nH]4)c(-c4cc(S(=O)(=O)[O-])ccc4F)c4nc(c(-c5cc(S(=O)(=O)[O-])ccc5F)c5ccc2[nH]5)C=C4)C=C3)cc1)c1ccc(-c2ccc3[nH]ccc3c2)cc1
REMARK SMILES IDX 7 1 6 2 5 3 3 4 4 5 2 7 1 8 75 9 76 10 89 11 77 12 88 13
REMARK SMILES IDX 78 14 79 15 80 16 87 17 81 18 86 19 82 20 85 21 83 22 84 23
REMARK SMILES IDX 8 25 9 26 10 27 11 29 12 30 13 31 74 32 14 33 73 34 15 35
REMARK SMILES IDX 16 36 17 37 67 38 18 39 72 40 66 41 68 42 19 43 71 44 65 45
REMARK SMILES IDX 64 46 20 48 52 49 32 50 51 51 33 52 36 53 50 54 69 55 34 56
REMARK SMILES IDX 35 57 49 59 70 60 37 61 21 62 22 63 30 64 23 65 29 66 31 67
REMARK SMILES IDX 28 68 24 69 25 70 26 71 27 72 53 73 54 74 62 75 55 76 61 77
REMARK SMILES IDX 63 78 60 79 56 80 57 81 58 82 59 83 38 84 39 85 47 86 40 87
REMARK SMILES IDX 46 88 48 89 45 90 41 91 42 92 43 93 44 94
REMARK H PARENT 5 6 83 24 9 28 68 47 36 58
REMARK Flexibility Score: inf
ROOT
ATOM      1  C   UNL A   1      31.881  31.445  26.531  1.00  0.00     0.042 C 
ENDROOT
BRANCH   1   2
ATOM      2  C   UNL A   1      32.155  29.960  26.292  1.00  0.00     0.117 C 
BRANCH   2   3
ATOM      3  N   UNL A   1      31.493  29.488  25.089  1.00  0.00    -0.356 N 
ATOM      4  C   UNL A   1      32.010  28.870  23.985  1.00  0.00     0.227 C 
ATOM      5  O   UNL A   1      31.278  28.824  22.995  1.00  0.00    -0.274 OA
ATOM      6  H   UNL A   1      30.520  29.635  25.065  1.00  0.00     0.163 HD
BRANCH   4   7
ATOM      7  C   UNL A   1      33.432  28.275  24.035  1.00  0.00     0.105 C 
ATOM      8  C   UNL A   1      34.159  28.697  22.750  1.00  0.00     0.023 C 
BRANCH   7   9
ATOM      9  C   UNL A   1      33.484  26.755  24.252  1.00  0.00    -0.036 A 
ATOM     10  C   UNL A   1      32.908  25.859  23.338  1.00  0.00     0.005 A 
ATOM     11  C   UNL A   1      34.094  26.207  25.394  1.00  0.00     0.005 A 
ATOM     12  C   UNL A   1      33.072  24.478  23.479  1.00  0.00     0.009 A 
ATOM     13  C   UNL A   1      34.247  24.826  25.543  1.00  0.00     0.009 A 
ATOM     14  C   UNL A   1      33.777  23.949  24.564  1.00  0.00    -0.018 A 
BRANCH  14  15
ATOM     15  C   UNL A   1      34.075  22.520  24.636  1.00  0.00    -0.018 A 
ATOM     16  C   UNL A   1      35.351  22.101  25.041  1.00  0.00     0.011 A 
ATOM     17  C   UNL A   1      33.103  21.561  24.307  1.00  0.00     0.019 A 
ATOM     18  C   UNL A   1      35.684  20.747  25.149  1.00  0.00     0.027 A 
ATOM     19  C   UNL A   1      33.430  20.192  24.363  1.00  0.00    -0.000 A 
ATOM     20  C   UNL A   1      34.699  19.819  24.801  1.00  0.00     0.045 A 
ATOM     21  C   UNL A   1      32.734  18.997  24.033  1.00  0.00     0.028 A 
ATOM     22  N   UNL A   1      34.739  18.444  24.804  1.00  0.00    -0.361 N 
ATOM     23  C   UNL A   1      33.574  17.938  24.290  1.00  0.00     0.083 A 
ATOM     24  H   UNL A   1      35.493  17.902  25.127  1.00  0.00     0.166 HD
ENDBRANCH  14  15
ENDBRANCH   7   9
ENDBRANCH   4   7
ENDBRANCH   2   3
ENDBRANCH   1   2
BRANCH   1  25
ATOM     25  C   UNL A   1      32.984  32.170  27.296  1.00  0.00     0.118 C 
BRANCH  25  26
ATOM     26  N   UNL A   1      32.660  33.565  27.545  1.00  0.00    -0.352 N 
ATOM     27  C   UNL A   1      33.179  34.434  28.477  1.00  0.00     0.251 C 
ATOM     28  H   UNL A   1      31.966  33.945  26.959  1.00  0.00     0.163 HD
ATOM     29  O   UNL A   1      32.622  35.508  28.673  1.00  0.00    -0.269 OA
BRANCH  27  30
ATOM     30  C   UNL A   1      34.381  34.060  29.257  1.00  0.00     0.039 A 
ATOM     31  C   UNL A   1      34.217  33.347  30.447  1.00  0.00     0.014 A 
ATOM     32  C   UNL A   1      35.663  34.407  28.821  1.00  0.00     0.014 A 
ATOM     33  C   UNL A   1      35.339  32.907  31.153  1.00  0.00     0.010 A 
ATOM     34  C   UNL A   1      36.781  33.908  29.488  1.00  0.00     0.010 A 
ATOM     35  C   UNL A   1      36.631  33.139  30.653  1.00  0.00    -0.014 A 
BRANCH  35  36
ATOM     36  C   UNL A   1      37.833  32.548  31.302  1.00  0.00     0.031 A 
ATOM     37  C   UNL A   1      38.569  31.412  30.645  1.00  0.00     0.074 A 
ATOM     38  C   UNL A   1      38.203  32.981  32.525  1.00  0.00     0.049 A 
ATOM     39  N   UNL A   1      39.562  30.697  31.107  1.00  0.00    -0.248 NA
ATOM     40  C   UNL A   1      38.117  31.014  29.302  1.00  0.00     0.031 C 
ATOM     41  C   UNL A   1      37.548  34.058  33.273  1.00  0.00     0.029 A 
ATOM     42  N   UNL A   1      39.204  32.561  33.367  1.00  0.00    -0.354 N 
ATOM     43  C   UNL A   1      39.840  29.751  30.126  1.00  0.00     0.074 A 
ATOM     44  C   UNL A   1      38.889  29.964  29.056  1.00  0.00     0.031 C 
ATOM     45  C   UNL A   1      38.169  34.219  34.452  1.00  0.00     0.029 A 
ATOM     46  C   UNL A   1      39.223  33.218  34.578  1.00  0.00     0.049 A 
ATOM     47  H   UNL A   1      39.847  31.855  33.128  1.00  0.00     0.167 HD
ATOM     48  C   UNL A   1      40.806  28.800  30.120  1.00  0.00     0.034 A 
ATOM     49  C   UNL A   1      39.978  33.017  35.678  1.00  0.00     0.034 A 
ATOM     50  C   UNL A   1      41.758  28.617  31.187  1.00  0.00     0.049 A 
ATOM     51  C   UNL A   1      41.011  31.916  35.658  1.00  0.00     0.074 A 
ATOM     52  C   UNL A   1      42.834  27.748  31.236  1.00  0.00     0.029 A 
ATOM     53  N   UNL A   1      41.739  29.291  32.401  1.00  0.00    -0.354 N 
ATOM     54  N   UNL A   1      41.316  31.088  34.684  1.00  0.00    -0.248 NA
ATOM     55  C   UNL A   1      41.801  31.718  36.881  1.00  0.00     0.031 C 
ATOM     56  C   UNL A   1      43.405  27.828  32.508  1.00  0.00     0.029 A 
ATOM     57  C   UNL A   1      42.745  28.812  33.225  1.00  0.00     0.049 A 
ATOM     58  H   UNL A   1      41.103  30.003  32.641  1.00  0.00     0.167 HD
ATOM     59  C   UNL A   1      42.351  30.295  35.172  1.00  0.00     0.074 A 
ATOM     60  C   UNL A   1      42.633  30.756  36.514  1.00  0.00     0.031 C 
ATOM     61  C   UNL A   1      43.010  29.276  34.565  1.00  0.00     0.034 A 
BRANCH  48  62
ATOM     62  C   UNL A   1      40.866  27.852  28.948  1.00  0.00     0.023 A 
ATOM     63  C   UNL A   1      41.841  27.965  27.943  1.00  0.00     0.031 A 
ATOM     64  C   UNL A   1      39.948  26.788  28.859  1.00  0.00     0.131 A 
ATOM     65  C   UNL A   1      41.851  27.058  26.873  1.00  0.00     0.055 A 
ATOM     66  C   UNL A   1      40.007  25.848  27.830  1.00  0.00     0.041 A 
ATOM     67  F   UNL A   1      38.981  26.643  29.778  1.00  0.00    -0.206 F 
ATOM     68  C   UNL A   1      40.958  25.984  26.823  1.00  0.00     0.022 A 
BRANCH  65  69
ATOM     69  S   UNL A   1      42.981  27.360  25.488  1.00  0.00     0.124 S 
ATOM     70  O   UNL A   1      43.209  26.007  24.990  1.00  0.00    -0.237 OA
ATOM     71  O   UNL A   1      42.196  28.235  24.625  1.00  0.00    -0.237 OA
ATOM     72  O   UNL A   1      44.140  27.987  26.120  1.00  0.00    -0.744 OA
ENDBRANCH  65  69
ENDBRANCH  48  62
BRANCH  49  73
ATOM     73  C   UNL A   1      39.764  33.829  36.914  1.00  0.00     0.023 A 
ATOM     74  C   UNL A   1      40.584  34.929  37.208  1.00  0.00     0.031 A 
ATOM     75  C   UNL A   1      38.793  33.462  37.865  1.00  0.00     0.131 A 
ATOM     76  C   UNL A   1      40.469  35.579  38.447  1.00  0.00     0.055 A 
ATOM     77  C   UNL A   1      38.633  34.159  39.065  1.00  0.00     0.041 A 
ATOM     78  F   UNL A   1      37.981  32.417  37.642  1.00  0.00    -0.206 F 
ATOM     79  C   UNL A   1      39.488  35.211  39.370  1.00  0.00     0.022 A 
BRANCH  76  80
ATOM     80  S   UNL A   1      41.715  36.820  38.891  1.00  0.00     0.124 S 
ATOM     81  O   UNL A   1      40.880  37.953  39.275  1.00  0.00    -0.237 OA
ATOM     82  O   UNL A   1      42.431  36.155  39.974  1.00  0.00    -0.237 OA
ATOM     83  O   UNL A   1      42.476  36.995  37.656  1.00  0.00    -0.744 OA
ENDBRANCH  76  80
ENDBRANCH  49  73
BRANCH  61  84
ATOM     84  C   UNL A   1      44.125  28.615  35.338  1.00  0.00     0.023 A 
ATOM     85  C   UNL A   1      43.871  27.610  36.288  1.00  0.00     0.031 A 
ATOM     86  C   UNL A   1      45.462  28.984  35.107  1.00  0.00     0.131 A 
ATOM     87  C   UNL A   1      44.936  27.038  37.001  1.00  0.00     0.055 A 
ATOM     88  C   UNL A   1      46.521  28.369  35.774  1.00  0.00     0.041 A 
ATOM     89  F   UNL A   1      45.762  29.942  34.215  1.00  0.00    -0.206 F 
ATOM     90  C   UNL A   1      46.260  27.396  36.734  1.00  0.00     0.022 A 
BRANCH  87  91
ATOM     91  S   UNL A   1      44.563  25.867  38.334  1.00  0.00     0.124 S 
ATOM     92  O   UNL A   1      45.564  26.218  39.335  1.00  0.00    -0.237 OA
ATOM     93  O   UNL A   1      43.183  26.201  38.668  1.00  0.00    -0.237 OA
ATOM     94  O   UNL A   1      44.747  24.560  37.704  1.00  0.00    -0.744 OA
ENDBRANCH  87  91
ENDBRANCH  61  84
ENDBRANCH  35  36
ENDBRANCH  27  30
ENDBRANCH  25  26
ENDBRANCH   1  25
TORSDOF 15
ENDMDL
MODEL 3
REMARK VINA RESULT:     -13.1      5.753     11.067
REMARK SMILES C[C@@H](C(=O)NCCCNC(=O)c1ccc(-c2c3nc(c(-c4cc(S(=O)(=O)[O-])ccc4F)c4ccc([nH]4)c(-c4cc(S(=O)(=O)[O-])ccc4F)c4nc(c(-c5cc(S(=O)(=O)[O-])ccc5F)c5ccc2[nH]5)C=C4)C=C3)cc1)c1ccc(-c2ccc3[nH]ccc3c2)cc1
REMARK SMILES IDX 7 1 6 2 5 3 3 4 4 5 2 7 1 8 75 9 76 10 89 11 77 12 88 13
REMARK SMILES IDX 78 14 79 15 80 16 87 17 81 18 86 19 82 20 85 21 83 22 84 23
REMARK SMILES IDX 8 25 9 26 10 27 11 29 12 30 13 31 74 32 14 33 73 34 15 35
REMARK SMILES IDX 16 36 17 37 67 38 18 39 72 40 66 41 68 42 19 43 71 44 65 45
REMARK SMILES IDX 64 46 20 48 52 49 32 50 51 51 33 52 36 53 50 54 69 55 34 56
REMARK SMILES IDX 35 57 49 59 70 60 37 61 21 62 22 63 30 64 23 65 29 66 31 67
REMARK SMILES IDX 28 68 24 69 25 70 26 71 27 72 53 73 54 74 62 75 55 76 61 77
REMARK SMILES IDX 63 78 60 79 56 80 57 81 58 82 59 83 38 84 39 85 47 86 40 87
REMARK SMILES IDX 46 88 48 89 45 90 41 91 42 92 43 93 44 94
REMARK H PARENT 5 6 83 24 9 28 68 47 36 58
REMARK Flexibility Score: inf
ROOT
ATOM      1  C   UNL A   1      31.444  32.685  26.518  1.00  0.00     0.042 C 
ENDROOT
BRANCH   1   2
ATOM      2  C   UNL A   1      31.163  31.182  26.526  1.00  0.00     0.117 C 
BRANCH   2   3
ATOM      3  N   UNL A   1      31.638  30.550  25.308  1.00  0.00    -0.356 N 
ATOM      4  C   UNL A   1      32.524  29.525  25.137  1.00  0.00     0.227 C 
ATOM      5  O   UNL A   1      32.959  29.365  23.995  1.00  0.00    -0.274 OA
ATOM      6  H   UNL A   1      31.260  30.916  24.476  1.00  0.00     0.163 HD
BRANCH   4   7
ATOM      7  C   UNL A   1      32.919  28.643  26.339  1.00  0.00     0.105 C 
ATOM      8  C   UNL A   1      34.279  29.137  26.854  1.00  0.00     0.023 C 
BRANCH   7   9
ATOM      9  C   UNL A   1      32.927  27.134  26.053  1.00  0.00    -0.036 A 
ATOM     10  C   UNL A   1      34.051  26.492  25.510  1.00  0.00     0.005 A 
ATOM     11  C   UNL A   1      31.792  26.342  26.304  1.00  0.00     0.005 A 
ATOM     12  C   UNL A   1      34.092  25.101  25.374  1.00  0.00     0.009 A 
ATOM     13  C   UNL A   1      31.828  24.953  26.156  1.00  0.00     0.009 A 
ATOM     14  C   UNL A   1      32.994  24.314  25.731  1.00  0.00    -0.018 A 
BRANCH  14  15
ATOM     15  C   UNL A   1      33.087  22.856  25.728  1.00  0.00    -0.018 A 
ATOM     16  C   UNL A   1      33.681  22.199  26.816  1.00  0.00     0.011 A 
ATOM     17  C   UNL A   1      32.591  22.102  24.651  1.00  0.00     0.019 A 
ATOM     18  C   UNL A   1      33.776  20.806  26.875  1.00  0.00     0.027 A 
ATOM     19  C   UNL A   1      32.718  20.699  24.667  1.00  0.00    -0.000 A 
ATOM     20  C   UNL A   1      33.285  20.086  25.782  1.00  0.00     0.045 A 
ATOM     21  C   UNL A   1      32.406  19.670  23.737  1.00  0.00     0.028 A 
ATOM     22  N   UNL A   1      33.248  18.729  25.561  1.00  0.00    -0.361 N 
ATOM     23  C   UNL A   1      32.767  18.469  24.304  1.00  0.00     0.083 A 
ATOM     24  H   UNL A   1      33.525  18.044  26.210  1.00  0.00     0.166 HD
ENDBRANCH  14  15
ENDBRANCH   7   9
ENDBRANCH   4   7
ENDBRANCH   2   3
ENDBRANCH   1   2
BRANCH   1  25
ATOM     25  C   UNL A   1      32.753  33.082  27.195  1.00  0.00     0.118 C 
BRANCH  25  26
ATOM     26  N   UNL A   1      32.634  34.319  27.948  1.00  0.00    -0.352 N 
ATOM     27  C   UNL A   1      33.333  34.746  29.053  1.00  0.00     0.251 C 
ATOM     28  H   UNL A   1      31.949  34.946  27.618  1.00  0.00     0.163 HD
ATOM     29  O   UNL A   1      32.938  35.726  29.673  1.00  0.00    -0.269 OA
BRANCH  27  30
ATOM     30  C   UNL A   1      34.536  34.008  29.503  1.00  0.00     0.039 A 
ATOM     31  C   UNL A   1      35.795  34.471  29.111  1.00  0.00     0.014 A 
ATOM     32  C   UNL A   1      34.429  32.870  30.306  1.00  0.00     0.014 A 
ATOM     33  C   UNL A   1      36.946  33.845  29.596  1.00  0.00     0.010 A 
ATOM     34  C   UNL A   1      35.576  32.290  30.845  1.00  0.00     0.010 A 
ATOM     35  C   UNL A   1      36.847  32.781  30.508  1.00  0.00    -0.014 A 
BRANCH  35  36
ATOM     36  C   UNL A   1      38.055  32.201  31.157  1.00  0.00     0.031 A 
ATOM     37  C   UNL A   1      38.797  31.066  30.505  1.00  0.00     0.074 A 
ATOM     38  C   UNL A   1      38.425  32.642  32.377  1.00  0.00     0.049 A 
ATOM     39  N   UNL A   1      39.796  30.360  30.968  1.00  0.00    -0.248 NA
ATOM     40  C   UNL A   1      38.345  30.658  29.165  1.00  0.00     0.031 C 
ATOM     41  C   UNL A   1      37.765  33.719  33.121  1.00  0.00     0.029 A 
ATOM     42  N   UNL A   1      39.430  32.234  33.219  1.00  0.00    -0.354 N 
ATOM     43  C   UNL A   1      40.077  29.411  29.992  1.00  0.00     0.074 A 
ATOM     44  C   UNL A   1      39.123  29.612  28.923  1.00  0.00     0.031 C 
ATOM     45  C   UNL A   1      38.387  33.890  34.298  1.00  0.00     0.029 A 
ATOM     46  C   UNL A   1      39.448  32.897  34.426  1.00  0.00     0.049 A 
ATOM     47  H   UNL A   1      40.077  31.531  32.982  1.00  0.00     0.167 HD
ATOM     48  C   UNL A   1      41.049  28.467  29.988  1.00  0.00     0.034 A 
ATOM     49  C   UNL A   1      40.207  32.707  35.525  1.00  0.00     0.034 A 
ATOM     50  C   UNL A   1      42.005  28.295  31.054  1.00  0.00     0.049 A 
ATOM     51  C   UNL A   1      41.247  31.613  35.509  1.00  0.00     0.074 A 
ATOM     52  C   UNL A   1      43.087  27.433  31.105  1.00  0.00     0.029 A 
ATOM     53  N   UNL A   1      41.984  28.975  32.265  1.00  0.00    -0.354 N 
ATOM     54  N   UNL A   1      41.555  30.781  34.539  1.00  0.00    -0.248 NA
ATOM     55  C   UNL A   1      42.041  31.427  36.731  1.00  0.00     0.031 C 
ATOM     56  C   UNL A   1      43.661  27.524  32.375  1.00  0.00     0.029 A 
ATOM     57  C   UNL A   1      42.996  28.507  33.088  1.00  0.00     0.049 A 
ATOM     58  H   UNL A   1      41.344  29.685  32.502  1.00  0.00     0.167 HD
ATOM     59  C   UNL A   1      42.596  29.997  35.029  1.00  0.00     0.074 A 
ATOM     60  C   UNL A   1      42.879  30.467  36.368  1.00  0.00     0.031 C 
ATOM     61  C   UNL A   1      43.261  28.979  34.426  1.00  0.00     0.034 A 
BRANCH  48  62
ATOM     62  C   UNL A   1      41.113  27.512  28.821  1.00  0.00     0.023 A 
ATOM     63  C   UNL A   1      42.089  27.623  27.817  1.00  0.00     0.031 A 
ATOM     64  C   UNL A   1      40.197  26.446  28.736  1.00  0.00     0.131 A 
ATOM     65  C   UNL A   1      42.102  26.710  26.751  1.00  0.00     0.055 A 
ATOM     66  C   UNL A   1      40.259  25.501  27.712  1.00  0.00     0.041 A 
ATOM     67  F   UNL A   1      39.229  26.304  29.655  1.00  0.00    -0.206 F 
ATOM     68  C   UNL A   1      41.211  25.634  26.706  1.00  0.00     0.022 A 
BRANCH  65  69
ATOM     69  S   UNL A   1      43.234  27.007  25.366  1.00  0.00     0.124 S 
ATOM     70  O   UNL A   1      43.370  25.668  24.801  1.00  0.00    -0.237 OA
ATOM     71  O   UNL A   1      42.495  27.970  24.557  1.00  0.00    -0.237 OA
ATOM     72  O   UNL A   1      44.437  27.529  26.011  1.00  0.00    -0.744 OA
ENDBRANCH  65  69
ENDBRANCH  48  62
BRANCH  49  73
ATOM     73  C   UNL A   1      39.991  33.524  36.758  1.00  0.00     0.023 A 
ATOM     74  C   UNL A   1      39.295  33.002  37.859  1.00  0.00     0.031 A 
ATOM     75  C   UNL A   1      40.399  34.870  36.818  1.00  0.00     0.131 A 
ATOM     76  C   UNL A   1      38.967  33.835  38.940  1.00  0.00     0.055 A 
ATOM     77  C   UNL A   1      40.134  35.674  37.928  1.00  0.00     0.041 A 
ATOM     78  F   UNL A   1      41.065  35.426  35.794  1.00  0.00    -0.206 F 
ATOM     79  C   UNL A   1      39.395  35.163  38.989  1.00  0.00     0.022 A 
BRANCH  76  80
ATOM     80  S   UNL A   1      37.848  33.195  40.217  1.00  0.00     0.124 S 
ATOM     81  O   UNL A   1      37.688  34.360  41.080  1.00  0.00    -0.237 OA
ATOM     82  O   UNL A   1      36.680  32.813  39.431  1.00  0.00    -0.237 OA
ATOM     83  O   UNL A   1      38.598  32.084  40.799  1.00  0.00    -0.744 OA
ENDBRANCH  76  80
ENDBRANCH  49  73
BRANCH  61  84
ATOM     84  C   UNL A   1      44.382  28.330  35.199  1.00  0.00     0.023 A 
ATOM     85  C   UNL A   1      44.136  27.332  36.159  1.00  0.00     0.031 A 
ATOM     86  C   UNL A   1      45.716  28.704  34.959  1.00  0.00     0.131 A 
ATOM     87  C   UNL A   1      45.206  26.771  36.872  1.00  0.00     0.055 A 
ATOM     88  C   UNL A   1      46.781  28.098  35.628  1.00  0.00     0.041 A 
ATOM     89  F   UNL A   1      46.008  29.655  34.058  1.00  0.00    -0.206 F 
ATOM     90  C   UNL A   1      46.528  27.132  36.596  1.00  0.00     0.022 A 
BRANCH  87  91
ATOM     91  S   UNL A   1      44.844  25.609  38.216  1.00  0.00     0.124 S 
ATOM     92  O   UNL A   1      46.173  25.344  38.754  1.00  0.00    -0.237 OA
ATOM     93  O   UNL A   1      43.954  26.387  39.071  1.00  0.00    -0.237 OA
ATOM     94  O   UNL A   1      44.214  24.480  37.533  1.00  0.00    -0.744 OA
ENDBRANCH  87  91
ENDBRANCH  61  84
ENDBRANCH  35  36
ENDBRANCH  27  30
ENDBRANCH  25  26
ENDBRANCH   1  25
TORSDOF 15
ENDMDL
