MODEL 1
REMARK VINA RESULT:     -13.6      0.000      0.000
REMARK SMILES C/C(=N\Nc1nc(-c2ccc(Cl)cc2)cs1)c1nnn(-c2ccc(C(=O)NCCCNC(=O)c3ccc(-c4c5nc(c(-c6cc(S(=O)(=O)[O-])ccc6F)c6ccc([nH]6)c(-c6cc(S(=O)(=O)[O-])ccc6F)c6nc(c(-c7cc(S(=O)(=O)[O-])ccc7F)c7ccc4[nH]7)C=C6)C=C5)cc3)cc2)c1C
REMARK SMILES IDX 28 1 27 2 25 3 26 4 24 6 21 7 22 8 98 9 23 10 97 11 20 12
REMARK SMILES IDX 17 13 18 14 99 15 19 16 100 17 2 18 1 19 3 20 4 21 5 23 6 24
REMARK SMILES IDX 16 25 7 26 15 27 8 28 9 29 14 30 10 31 13 32 11 33 12 34
REMARK SMILES IDX 29 35 30 36 31 37 32 38 33 40 34 41 35 42 96 43 36 44 95 45
REMARK SMILES IDX 37 46 38 47 39 48 89 49 40 50 94 51 88 52 90 53 41 54 93 55
REMARK SMILES IDX 87 56 86 57 42 59 74 60 54 61 73 62 55 63 58 64 72 65 91 66
REMARK SMILES IDX 56 67 57 68 71 70 92 71 59 72 43 73 44 74 52 75 45 76 51 77
REMARK SMILES IDX 53 78 50 79 46 80 47 81 48 82 49 83 75 84 76 85 84 86 77 87
REMARK SMILES IDX 83 88 85 89 82 90 78 91 79 92 80 93 81 94 60 95 61 96 69 97
REMARK SMILES IDX 62 98 68 99 70 100 67 101 63 102 64 103 65 104 66 105
REMARK H PARENT 27 5 4 22 31 39 90 58 58 69
REMARK Flexibility Score: inf
ROOT
ATOM      1  C   UNL A   1      35.858  33.567  29.075  1.00  0.00     0.118 C 
ENDROOT
BRANCH   1   2
ATOM      2  N   UNL A   1      34.670  34.394  28.888  1.00  0.00    -0.352 N 
ATOM      3  C   UNL A   1      33.433  34.126  28.341  1.00  0.00     0.251 C 
ATOM      4  O   UNL A   1      32.541  34.962  28.466  1.00  0.00    -0.269 OA
ATOM      5  H   UNL A   1      34.771  35.318  29.212  1.00  0.00     0.163 HD
BRANCH   3   6
ATOM      6  C   UNL A   1      33.117  32.840  27.661  1.00  0.00     0.039 A 
ATOM      7  C   UNL A   1      32.348  30.358  26.663  1.00  0.00     0.067 A 
ATOM      8  C   UNL A   1      31.439  31.414  26.605  1.00  0.00     0.029 A 
ATOM      9  C   UNL A   1      33.663  30.561  27.075  1.00  0.00     0.029 A 
ATOM     10  C   UNL A   1      31.828  32.655  27.126  1.00  0.00     0.016 A 
ATOM     11  C   UNL A   1      34.046  31.809  27.535  1.00  0.00     0.016 A 
BRANCH   7  12
ATOM     12  N   UNL A   1      31.914  29.035  26.517  1.00  0.00    -0.217 N 
ATOM     13  C   UNL A   1      31.350  27.102  25.700  1.00  0.00     0.132 A 
ATOM     14  N   UNL A   1      31.029  27.132  27.032  1.00  0.00    -0.128 NA
ATOM     15  C   UNL A   1      31.926  28.310  25.342  1.00  0.00     0.071 A 
ATOM     16  N   UNL A   1      31.462  28.283  27.538  1.00  0.00    -0.061 NA
ATOM     17  C   UNL A   1      32.571  28.774  24.082  1.00  0.00     0.069 C 
BRANCH  13  18
ATOM     18  C   UNL A   1      31.214  25.935  24.842  1.00  0.00     0.087 C 
ATOM     19  C   UNL A   1      30.036  25.975  23.901  1.00  0.00     0.071 C 
ATOM     20  N   UNL A   1      32.077  24.976  25.033  1.00  0.00    -0.176 NA
BRANCH  20  21
ATOM     21  N   UNL A   1      32.008  23.736  24.435  1.00  0.00    -0.252 N 
ATOM     22  H   UNL A   1      31.129  23.511  24.055  1.00  0.00     0.193 HD
BRANCH  21  23
ATOM     23  C   UNL A   1      32.952  22.773  24.284  1.00  0.00     0.203 A 
ATOM     24  N   UNL A   1      32.732  21.485  24.179  1.00  0.00    -0.219 NA
ATOM     25  S   UNL A   1      34.633  23.183  24.325  1.00  0.00    -0.103 S 
ATOM     26  C   UNL A   1      33.868  20.774  24.503  1.00  0.00     0.084 A 
ATOM     27  C   UNL A   1      35.014  21.531  24.619  1.00  0.00     0.097 A 
BRANCH  26  28
ATOM     28  C   UNL A   1      33.761  19.358  24.804  1.00  0.00     0.001 A 
ATOM     29  C   UNL A   1      34.789  18.491  24.413  1.00  0.00     0.012 A 
ATOM     30  C   UNL A   1      32.587  18.825  25.357  1.00  0.00     0.012 A 
ATOM     31  C   UNL A   1      34.664  17.112  24.605  1.00  0.00     0.021 A 
ATOM     32  C   UNL A   1      32.457  17.444  25.536  1.00  0.00     0.021 A 
ATOM     33  C   UNL A   1      33.500  16.595  25.167  1.00  0.00     0.041 A 
ATOM     34  Cl  UNL A   1      33.341  14.897  25.393  1.00  0.00    -0.084 Cl
ENDBRANCH  26  28
ENDBRANCH  21  23
ENDBRANCH  20  21
ENDBRANCH  13  18
ENDBRANCH   7  12
ENDBRANCH   3   6
ENDBRANCH   1   2
BRANCH   1  35
ATOM     35  C   UNL A   1      35.978  32.997  30.498  1.00  0.00     0.042 C 
BRANCH  35  36
ATOM     36  C   UNL A   1      36.714  31.675  30.547  1.00  0.00     0.118 C 
BRANCH  36  37
ATOM     37  N   UNL A   1      35.946  30.567  29.973  1.00  0.00    -0.352 N 
ATOM     38  C   UNL A   1      36.409  29.526  29.175  1.00  0.00     0.251 C 
ATOM     39  H   UNL A   1      34.983  30.559  30.176  1.00  0.00     0.163 HD
ATOM     40  O   UNL A   1      35.641  28.915  28.455  1.00  0.00    -0.269 OA
BRANCH  38  41
ATOM     41  C   UNL A   1      37.849  29.196  29.225  1.00  0.00     0.039 A 
ATOM     42  C   UNL A   1      38.405  28.364  30.200  1.00  0.00     0.014 A 
ATOM     43  C   UNL A   1      38.644  29.717  28.214  1.00  0.00     0.014 A 
ATOM     44  C   UNL A   1      39.753  28.019  30.087  1.00  0.00     0.010 A 
ATOM     45  C   UNL A   1      39.858  29.157  27.952  1.00  0.00     0.010 A 
ATOM     46  C   UNL A   1      40.468  28.412  28.943  1.00  0.00    -0.014 A 
BRANCH  46  47
ATOM     47  C   UNL A   1      41.841  28.001  28.682  1.00  0.00     0.031 A 
ATOM     48  C   UNL A   1      41.948  26.727  27.935  1.00  0.00     0.074 A 
ATOM     49  C   UNL A   1      42.901  28.823  28.867  1.00  0.00     0.049 A 
ATOM     50  N   UNL A   1      42.337  25.584  28.388  1.00  0.00    -0.248 NA
ATOM     51  C   UNL A   1      41.377  26.664  26.580  1.00  0.00     0.031 C 
ATOM     52  C   UNL A   1      42.910  30.231  29.291  1.00  0.00     0.029 A 
ATOM     53  N   UNL A   1      44.214  28.597  28.604  1.00  0.00    -0.354 N 
ATOM     54  C   UNL A   1      42.312  24.719  27.300  1.00  0.00     0.074 A 
ATOM     55  C   UNL A   1      41.493  25.362  26.310  1.00  0.00     0.031 C 
ATOM     56  C   UNL A   1      44.119  30.781  29.036  1.00  0.00     0.029 A 
ATOM     57  C   UNL A   1      45.023  29.733  28.602  1.00  0.00     0.049 A 
ATOM     58  H   UNL A   1      44.570  27.695  28.427  1.00  0.00     0.167 HD
ATOM     59  C   UNL A   1      43.185  23.676  27.217  1.00  0.00     0.034 A 
ATOM     60  C   UNL A   1      46.341  29.808  28.263  1.00  0.00     0.034 A 
ATOM     61  C   UNL A   1      43.805  23.427  28.504  1.00  0.00     0.049 A 
ATOM     62  C   UNL A   1      46.880  28.431  28.401  1.00  0.00     0.074 A 
ATOM     63  C   UNL A   1      43.316  23.121  29.761  1.00  0.00     0.029 A 
ATOM     64  N   UNL A   1      45.075  23.921  28.717  1.00  0.00    -0.354 N 
ATOM     65  N   UNL A   1      46.943  27.804  29.546  1.00  0.00    -0.248 NA
ATOM     66  C   UNL A   1      46.854  27.571  27.228  1.00  0.00     0.031 C 
ATOM     67  C   UNL A   1      44.083  23.925  30.657  1.00  0.00     0.029 A 
ATOM     68  C   UNL A   1      45.067  24.591  29.920  1.00  0.00     0.049 A 
ATOM     69  H   UNL A   1      45.848  23.814  28.117  1.00  0.00     0.167 HD
ATOM     70  C   UNL A   1      46.519  26.512  29.273  1.00  0.00     0.074 A 
ATOM     71  C   UNL A   1      46.570  26.402  27.813  1.00  0.00     0.031 C 
ATOM     72  C   UNL A   1      45.888  25.754  30.220  1.00  0.00     0.034 A 
BRANCH  59  73
ATOM     73  C   UNL A   1      43.739  23.113  25.927  1.00  0.00     0.023 A 
ATOM     74  C   UNL A   1      43.589  21.731  25.705  1.00  0.00     0.031 A 
ATOM     75  C   UNL A   1      44.612  23.782  25.037  1.00  0.00     0.131 A 
ATOM     76  C   UNL A   1      44.334  21.071  24.711  1.00  0.00     0.055 A 
ATOM     77  C   UNL A   1      45.300  23.133  24.007  1.00  0.00     0.041 A 
ATOM     78  F   UNL A   1      44.929  25.075  25.161  1.00  0.00    -0.206 F 
ATOM     79  C   UNL A   1      45.186  21.764  23.857  1.00  0.00     0.022 A 
BRANCH  76  80
ATOM     80  S   UNL A   1      44.298  19.262  24.666  1.00  0.00     0.124 S 
ATOM     81  O   UNL A   1      42.921  18.983  25.058  1.00  0.00    -0.237 OA
ATOM     82  O   UNL A   1      44.639  18.992  23.273  1.00  0.00    -0.237 OA
ATOM     83  O   UNL A   1      45.315  18.878  25.642  1.00  0.00    -0.744 OA
ENDBRANCH  76  80
ENDBRANCH  59  73
BRANCH  60  84
ATOM     84  C   UNL A   1      47.035  30.894  27.510  1.00  0.00     0.023 A 
ATOM     85  C   UNL A   1      46.373  32.037  27.006  1.00  0.00     0.031 A 
ATOM     86  C   UNL A   1      48.448  30.933  27.504  1.00  0.00     0.131 A 
ATOM     87  C   UNL A   1      47.119  33.147  26.532  1.00  0.00     0.055 A 
ATOM     88  C   UNL A   1      49.177  32.032  27.040  1.00  0.00     0.041 A 
ATOM     89  F   UNL A   1      49.170  29.933  28.035  1.00  0.00    -0.206 F 
ATOM     90  C   UNL A   1      48.514  33.149  26.560  1.00  0.00     0.022 A 
BRANCH  87  91
ATOM     91  S   UNL A   1      46.279  34.659  25.943  1.00  0.00     0.124 S 
ATOM     92  O   UNL A   1      45.672  34.213  24.694  1.00  0.00    -0.237 OA
ATOM     93  O   UNL A   1      45.365  34.960  27.039  1.00  0.00    -0.237 OA
ATOM     94  O   UNL A   1      47.374  35.619  25.783  1.00  0.00    -0.744 OA
ENDBRANCH  87  91
ENDBRANCH  60  84
BRANCH  72  95
ATOM     95  C   UNL A   1      45.883  26.254  31.659  1.00  0.00     0.023 A 
ATOM     96  C   UNL A   1      44.804  26.918  32.295  1.00  0.00     0.031 A 
ATOM     97  C   UNL A   1      46.997  25.932  32.454  1.00  0.00     0.131 A 
ATOM     98  C   UNL A   1      44.877  27.237  33.669  1.00  0.00     0.055 A 
ATOM     99  C   UNL A   1      47.056  26.227  33.816  1.00  0.00     0.041 A 
ATOM    100  F   UNL A   1      48.047  25.283  31.922  1.00  0.00    -0.206 F 
ATOM    101  C   UNL A   1      45.998  26.887  34.428  1.00  0.00     0.022 A 
BRANCH  98 102
ATOM    102  S   UNL A   1      43.525  28.141  34.499  1.00  0.00     0.124 S 
ATOM    103  O   UNL A   1      43.937  29.536  34.406  1.00  0.00    -0.237 OA
ATOM    104  O   UNL A   1      42.357  27.765  33.706  1.00  0.00    -0.237 OA
ATOM    105  O   UNL A   1      43.535  27.594  35.858  1.00  0.00    -0.744 OA
ENDBRANCH  98 102
ENDBRANCH  72  95
ENDBRANCH  46  47
ENDBRANCH  38  41
ENDBRANCH  36  37
ENDBRANCH  35  36
ENDBRANCH   1  35
TORSDOF 18
ENDMDL
MODEL 2
REMARK VINA RESULT:     -13.3      1.802      2.251
REMARK SMILES C/C(=N\Nc1nc(-c2ccc(Cl)cc2)cs1)c1nnn(-c2ccc(C(=O)NCCCNC(=O)c3ccc(-c4c5nc(c(-c6cc(S(=O)(=O)[O-])ccc6F)c6ccc([nH]6)c(-c6cc(S(=O)(=O)[O-])ccc6F)c6nc(c(-c7cc(S(=O)(=O)[O-])ccc7F)c7ccc4[nH]7)C=C6)C=C5)cc3)cc2)c1C
REMARK SMILES IDX 28 1 27 2 25 3 26 4 24 6 21 7 22 8 98 9 23 10 97 11 20 12
REMARK SMILES IDX 17 13 18 14 99 15 19 16 100 17 2 18 1 19 3 20 4 21 5 23 6 24
REMARK SMILES IDX 16 25 7 26 15 27 8 28 9 29 14 30 10 31 13 32 11 33 12 34
REMARK SMILES IDX 29 35 30 36 31 37 32 38 33 40 34 41 35 42 96 43 36 44 95 45
REMARK SMILES IDX 37 46 38 47 39 48 89 49 40 50 94 51 88 52 90 53 41 54 93 55
REMARK SMILES IDX 87 56 86 57 42 59 74 60 54 61 73 62 55 63 58 64 72 65 91 66
REMARK SMILES IDX 56 67 57 68 71 70 92 71 59 72 43 73 44 74 52 75 45 76 51 77
REMARK SMILES IDX 53 78 50 79 46 80 47 81 48 82 49 83 75 84 76 85 84 86 77 87
REMARK SMILES IDX 83 88 85 89 82 90 78 91 79 92 80 93 81 94 60 95 61 96 69 97
REMARK SMILES IDX 62 98 68 99 70 100 67 101 63 102 64 103 65 104 66 105
REMARK H PARENT 27 5 4 22 31 39 90 58 58 69
REMARK Flexibility Score: inf
ROOT
ATOM      1  C   UNL A   1      36.022  33.622  29.261  1.00  0.00     0.118 C 
ENDROOT
BRANCH   1   2
ATOM      2  N   UNL A   1      34.898  34.533  29.070  1.00  0.00    -0.352 N 
ATOM      3  C   UNL A   1      33.650  34.356  28.513  1.00  0.00     0.251 C 
ATOM      4  O   UNL A   1      32.818  35.253  28.636  1.00  0.00    -0.269 OA
ATOM      5  H   UNL A   1      35.062  35.445  29.401  1.00  0.00     0.163 HD
BRANCH   3   6
ATOM      6  C   UNL A   1      33.248  33.100  27.823  1.00  0.00     0.039 A 
ATOM      7  C   UNL A   1      32.334  30.671  26.816  1.00  0.00     0.067 A 
ATOM      8  C   UNL A   1      31.460  31.757  26.841  1.00  0.00     0.029 A 
ATOM      9  C   UNL A   1      33.678  30.820  27.148  1.00  0.00     0.029 A 
ATOM     10  C   UNL A   1      31.923  32.971  27.367  1.00  0.00     0.016 A 
ATOM     11  C   UNL A   1      34.131  32.043  27.614  1.00  0.00     0.016 A 
BRANCH   7  12
ATOM     12  N   UNL A   1      31.846  29.367  26.665  1.00  0.00    -0.217 N 
ATOM     13  C   UNL A   1      31.171  27.474  25.840  1.00  0.00     0.132 A 
ATOM     14  N   UNL A   1      30.926  27.483  27.188  1.00  0.00    -0.128 NA
ATOM     15  C   UNL A   1      31.768  28.670  25.476  1.00  0.00     0.071 A 
ATOM     16  N   UNL A   1      31.427  28.607  27.693  1.00  0.00    -0.061 NA
ATOM     17  C   UNL A   1      32.357  29.143  24.192  1.00  0.00     0.069 C 
BRANCH  13  18
ATOM     18  C   UNL A   1      30.947  26.334  24.965  1.00  0.00     0.087 C 
ATOM     19  C   UNL A   1      29.612  26.326  24.264  1.00  0.00     0.071 C 
ATOM     20  N   UNL A   1      31.888  25.431  24.943  1.00  0.00    -0.176 NA
BRANCH  20  21
ATOM     21  N   UNL A   1      31.784  24.212  24.308  1.00  0.00    -0.252 N 
ATOM     22  H   UNL A   1      31.017  24.132  23.697  1.00  0.00     0.193 HD
BRANCH  21  23
ATOM     23  C   UNL A   1      32.564  23.105  24.385  1.00  0.00     0.203 A 
ATOM     24  N   UNL A   1      33.634  22.964  25.130  1.00  0.00    -0.219 NA
ATOM     25  S   UNL A   1      32.250  21.742  23.367  1.00  0.00    -0.103 S 
ATOM     26  C   UNL A   1      34.429  21.948  24.643  1.00  0.00     0.084 A 
ATOM     27  C   UNL A   1      33.841  21.163  23.675  1.00  0.00     0.097 A 
BRANCH  26  28
ATOM     28  C   UNL A   1      35.810  21.852  25.079  1.00  0.00     0.001 A 
ATOM     29  C   UNL A   1      36.482  23.007  25.498  1.00  0.00     0.012 A 
ATOM     30  C   UNL A   1      36.523  20.650  24.958  1.00  0.00     0.012 A 
ATOM     31  C   UNL A   1      37.839  22.957  25.829  1.00  0.00     0.021 A 
ATOM     32  C   UNL A   1      37.884  20.603  25.276  1.00  0.00     0.021 A 
ATOM     33  C   UNL A   1      38.533  21.755  25.718  1.00  0.00     0.041 A 
ATOM     34  Cl  UNL A   1      40.206  21.694  26.114  1.00  0.00    -0.084 Cl
ENDBRANCH  26  28
ENDBRANCH  21  23
ENDBRANCH  20  21
ENDBRANCH  13  18
ENDBRANCH   7  12
ENDBRANCH   3   6
ENDBRANCH   1   2
BRANCH   1  35
ATOM     35  C   UNL A   1      35.940  32.828  30.575  1.00  0.00     0.042 C 
BRANCH  35  36
ATOM     36  C   UNL A   1      36.689  31.514  30.522  1.00  0.00     0.118 C 
BRANCH  36  37
ATOM     37  N   UNL A   1      35.948  30.456  29.830  1.00  0.00    -0.352 N 
ATOM     38  C   UNL A   1      36.445  29.485  28.967  1.00  0.00     0.251 C 
ATOM     39  H   UNL A   1      34.979  30.430  29.996  1.00  0.00     0.163 HD
ATOM     40  O   UNL A   1      35.707  28.935  28.171  1.00  0.00    -0.269 OA
BRANCH  38  41
ATOM     41  C   UNL A   1      37.884  29.155  29.043  1.00  0.00     0.039 A 
ATOM     42  C   UNL A   1      38.435  28.392  30.076  1.00  0.00     0.014 A 
ATOM     43  C   UNL A   1      38.682  29.599  27.999  1.00  0.00     0.014 A 
ATOM     44  C   UNL A   1      39.782  28.035  29.990  1.00  0.00     0.010 A 
ATOM     45  C   UNL A   1      39.894  29.018  27.780  1.00  0.00     0.010 A 
ATOM     46  C   UNL A   1      40.500  28.343  28.823  1.00  0.00    -0.014 A 
BRANCH  46  47
ATOM     47  C   UNL A   1      41.873  27.910  28.595  1.00  0.00     0.031 A 
ATOM     48  C   UNL A   1      41.976  26.635  27.848  1.00  0.00     0.074 A 
ATOM     49  C   UNL A   1      42.941  28.714  28.806  1.00  0.00     0.049 A 
ATOM     50  N   UNL A   1      42.335  25.485  28.308  1.00  0.00    -0.248 NA
ATOM     51  C   UNL A   1      41.437  26.583  26.480  1.00  0.00     0.031 C 
ATOM     52  C   UNL A   1      42.963  30.120  29.234  1.00  0.00     0.029 A 
ATOM     53  N   UNL A   1      44.256  28.466  28.575  1.00  0.00    -0.354 N 
ATOM     54  C   UNL A   1      42.322  24.622  27.219  1.00  0.00     0.074 A 
ATOM     55  C   UNL A   1      41.537  25.280  26.211  1.00  0.00     0.031 C 
ATOM     56  C   UNL A   1      44.186  30.651  29.009  1.00  0.00     0.029 A 
ATOM     57  C   UNL A   1      45.083  29.589  28.595  1.00  0.00     0.049 A 
ATOM     58  H   UNL A   1      44.601  27.559  28.405  1.00  0.00     0.167 HD
ATOM     59  C   UNL A   1      43.179  23.565  27.155  1.00  0.00     0.034 A 
ATOM     60  C   UNL A   1      46.410  29.642  28.288  1.00  0.00     0.034 A 
ATOM     61  C   UNL A   1      43.763  23.304  28.456  1.00  0.00     0.049 A 
ATOM     62  C   UNL A   1      46.923  28.257  28.437  1.00  0.00     0.074 A 
ATOM     63  C   UNL A   1      43.239  23.004  29.701  1.00  0.00     0.029 A 
ATOM     64  N   UNL A   1      45.036  23.776  28.702  1.00  0.00    -0.354 N 
ATOM     65  N   UNL A   1      46.948  27.627  29.582  1.00  0.00    -0.248 NA
ATOM     66  C   UNL A   1      46.911  27.398  27.262  1.00  0.00     0.031 C 
ATOM     67  C   UNL A   1      43.998  23.795  30.616  1.00  0.00     0.029 A 
ATOM     68  C   UNL A   1      45.010  24.445  29.904  1.00  0.00     0.049 A 
ATOM     69  H   UNL A   1      45.822  23.658  28.120  1.00  0.00     0.167 HD
ATOM     70  C   UNL A   1      46.509  26.343  29.296  1.00  0.00     0.074 A 
ATOM     71  C   UNL A   1      46.593  26.234  27.838  1.00  0.00     0.031 C 
ATOM     72  C   UNL A   1      45.843  25.593  30.226  1.00  0.00     0.034 A 
BRANCH  59  73
ATOM     73  C   UNL A   1      43.755  22.994  25.878  1.00  0.00     0.023 A 
ATOM     74  C   UNL A   1      43.790  21.593  25.752  1.00  0.00     0.031 A 
ATOM     75  C   UNL A   1      44.490  23.713  24.906  1.00  0.00     0.131 A 
ATOM     76  C   UNL A   1      44.580  20.973  24.767  1.00  0.00     0.055 A 
ATOM     77  C   UNL A   1      45.220  23.094  23.887  1.00  0.00     0.041 A 
ATOM     78  F   UNL A   1      44.628  25.043  24.932  1.00  0.00    -0.206 F 
ATOM     79  C   UNL A   1      45.293  21.715  23.830  1.00  0.00     0.022 A 
BRANCH  76  80
ATOM     80  S   UNL A   1      44.795  19.177  24.838  1.00  0.00     0.124 S 
ATOM     81  O   UNL A   1      43.775  18.795  25.808  1.00  0.00    -0.237 OA
ATOM     82  O   UNL A   1      44.546  18.792  23.453  1.00  0.00    -0.237 OA
ATOM     83  O   UNL A   1      46.176  19.019  25.290  1.00  0.00    -0.744 OA
ENDBRANCH  76  80
ENDBRANCH  59  73
BRANCH  60  84
ATOM     84  C   UNL A   1      47.140  30.718  27.554  1.00  0.00     0.023 A 
ATOM     85  C   UNL A   1      46.509  31.871  27.033  1.00  0.00     0.031 A 
ATOM     86  C   UNL A   1      48.553  30.734  27.584  1.00  0.00     0.131 A 
ATOM     87  C   UNL A   1      47.284  32.969  26.579  1.00  0.00     0.055 A 
ATOM     88  C   UNL A   1      49.311  31.822  27.140  1.00  0.00     0.041 A 
ATOM     89  F   UNL A   1      49.246  29.724  28.134  1.00  0.00    -0.206 F 
ATOM     90  C   UNL A   1      48.678  32.949  26.644  1.00  0.00     0.022 A 
BRANCH  87  91
ATOM     91  S   UNL A   1      46.484  34.494  25.970  1.00  0.00     0.124 S 
ATOM     92  O   UNL A   1      45.779  34.972  27.154  1.00  0.00    -0.237 OA
ATOM     93  O   UNL A   1      47.621  35.292  25.525  1.00  0.00    -0.237 OA
ATOM     94  O   UNL A   1      45.616  34.019  24.890  1.00  0.00    -0.744 OA
ENDBRANCH  87  91
ENDBRANCH  60  84
BRANCH  72  95
ATOM     95  C   UNL A   1      45.811  26.092  31.666  1.00  0.00     0.023 A 
ATOM     96  C   UNL A   1      46.870  25.973  32.601  1.00  0.00     0.031 A 
ATOM     97  C   UNL A   1      44.683  26.830  32.064  1.00  0.00     0.131 A 
ATOM     98  C   UNL A   1      46.763  26.573  33.875  1.00  0.00     0.055 A 
ATOM     99  C   UNL A   1      44.591  27.442  33.313  1.00  0.00     0.041 A 
ATOM    100  F   UNL A   1      43.651  27.003  31.220  1.00  0.00    -0.206 F 
ATOM    101  C   UNL A   1      45.629  27.311  34.228  1.00  0.00     0.022 A 
BRANCH  98 102
ATOM    102  S   UNL A   1      48.087  26.387  35.118  1.00  0.00     0.124 S 
ATOM    103  O   UNL A   1      47.403  25.801  36.264  1.00  0.00    -0.237 OA
ATOM    104  O   UNL A   1      49.046  25.522  34.435  1.00  0.00    -0.237 OA
ATOM    105  O   UNL A   1      48.554  27.760  35.326  1.00  0.00    -0.744 OA
ENDBRANCH  98 102
ENDBRANCH  72  95
ENDBRANCH  46  47
ENDBRANCH  38  41
ENDBRANCH  36  37
ENDBRANCH  35  36
ENDBRANCH   1  35
TORSDOF 18
ENDMDL
MODEL 3
REMARK VINA RESULT:     -13.2      5.685     12.212
REMARK SMILES C/C(=N\Nc1nc(-c2ccc(Cl)cc2)cs1)c1nnn(-c2ccc(C(=O)NCCCNC(=O)c3ccc(-c4c5nc(c(-c6cc(S(=O)(=O)[O-])ccc6F)c6ccc([nH]6)c(-c6cc(S(=O)(=O)[O-])ccc6F)c6nc(c(-c7cc(S(=O)(=O)[O-])ccc7F)c7ccc4[nH]7)C=C6)C=C5)cc3)cc2)c1C
REMARK SMILES IDX 28 1 27 2 25 3 26 4 24 6 21 7 22 8 98 9 23 10 97 11 20 12
REMARK SMILES IDX 17 13 18 14 99 15 19 16 100 17 2 18 1 19 3 20 4 21 5 23 6 24
REMARK SMILES IDX 16 25 7 26 15 27 8 28 9 29 14 30 10 31 13 32 11 33 12 34
REMARK SMILES IDX 29 35 30 36 31 37 32 38 33 40 34 41 35 42 96 43 36 44 95 45
REMARK SMILES IDX 37 46 38 47 39 48 89 49 40 50 94 51 88 52 90 53 41 54 93 55
REMARK SMILES IDX 87 56 86 57 42 59 74 60 54 61 73 62 55 63 58 64 72 65 91 66
REMARK SMILES IDX 56 67 57 68 71 70 92 71 59 72 43 73 44 74 52 75 45 76 51 77
REMARK SMILES IDX 53 78 50 79 46 80 47 81 48 82 49 83 75 84 76 85 84 86 77 87
REMARK SMILES IDX 83 88 85 89 82 90 78 91 79 92 80 93 81 94 60 95 61 96 69 97
REMARK SMILES IDX 62 98 68 99 70 100 67 101 63 102 64 103 65 104 66 105
REMARK H PARENT 27 5 4 22 31 39 90 58 58 69
REMARK Flexibility Score: inf
ROOT
ATOM      1  C   UNL A   1      35.768  34.281  32.657  1.00  0.00     0.118 C 
ENDROOT
BRANCH   1   2
ATOM      2  N   UNL A   1      36.008  33.247  33.659  1.00  0.00    -0.352 N 
ATOM      3  C   UNL A   1      37.168  32.691  34.153  1.00  0.00     0.251 C 
ATOM      4  O   UNL A   1      37.094  31.950  35.132  1.00  0.00    -0.269 OA
ATOM      5  H   UNL A   1      35.187  32.877  34.055  1.00  0.00     0.163 HD
BRANCH   3   6
ATOM      6  C   UNL A   1      38.511  33.001  33.590  1.00  0.00     0.039 A 
ATOM      7  C   UNL A   1      40.862  33.775  32.317  1.00  0.00     0.067 A 
ATOM      8  C   UNL A   1      40.274  34.651  33.229  1.00  0.00     0.029 A 
ATOM      9  C   UNL A   1      40.375  32.481  32.145  1.00  0.00     0.029 A 
ATOM     10  C   UNL A   1      39.082  34.261  33.852  1.00  0.00     0.016 A 
ATOM     11  C   UNL A   1      39.225  32.094  32.811  1.00  0.00     0.016 A 
BRANCH   7  12
ATOM     12  N   UNL A   1      41.815  34.234  31.400  1.00  0.00    -0.217 N 
ATOM     13  C   UNL A   1      42.797  35.018  29.627  1.00  0.00     0.132 A 
ATOM     14  N   UNL A   1      43.753  34.619  30.524  1.00  0.00    -0.128 NA
ATOM     15  C   UNL A   1      41.541  34.788  30.165  1.00  0.00     0.071 A 
ATOM     16  N   UNL A   1      43.139  34.229  31.638  1.00  0.00    -0.061 NA
ATOM     17  C   UNL A   1      40.172  35.143  29.695  1.00  0.00     0.069 C 
BRANCH  13  18
ATOM     18  C   UNL A   1      43.073  35.688  28.366  1.00  0.00     0.087 C 
ATOM     19  C   UNL A   1      43.416  34.768  27.222  1.00  0.00     0.071 C 
ATOM     20  N   UNL A   1      43.057  36.992  28.391  1.00  0.00    -0.176 NA
BRANCH  20  21
ATOM     21  N   UNL A   1      43.453  37.796  27.344  1.00  0.00    -0.252 N 
ATOM     22  H   UNL A   1      43.805  37.311  26.563  1.00  0.00     0.193 HD
BRANCH  21  23
ATOM     23  C   UNL A   1      43.437  39.146  27.210  1.00  0.00     0.203 A 
ATOM     24  N   UNL A   1      43.163  39.811  26.112  1.00  0.00    -0.219 NA
ATOM     25  S   UNL A   1      43.906  40.161  28.530  1.00  0.00    -0.103 S 
ATOM     26  C   UNL A   1      43.677  41.089  26.183  1.00  0.00     0.084 A 
ATOM     27  C   UNL A   1      44.125  41.466  27.430  1.00  0.00     0.097 A 
BRANCH  26  28
ATOM     28  C   UNL A   1      43.811  41.871  24.968  1.00  0.00     0.001 A 
ATOM     29  C   UNL A   1      45.080  42.307  24.567  1.00  0.00     0.012 A 
ATOM     30  C   UNL A   1      42.680  42.312  24.265  1.00  0.00     0.012 A 
ATOM     31  C   UNL A   1      45.223  43.143  23.456  1.00  0.00     0.021 A 
ATOM     32  C   UNL A   1      42.823  43.159  23.161  1.00  0.00     0.021 A 
ATOM     33  C   UNL A   1      44.095  43.563  22.757  1.00  0.00     0.041 A 
ATOM     34  Cl  UNL A   1      44.269  44.600  21.396  1.00  0.00    -0.084 Cl
ENDBRANCH  26  28
ENDBRANCH  21  23
ENDBRANCH  20  21
ENDBRANCH  13  18
ENDBRANCH   7  12
ENDBRANCH   3   6
ENDBRANCH   1   2
BRANCH   1  35
ATOM     35  C   UNL A   1      34.593  33.954  31.720  1.00  0.00     0.042 C 
BRANCH  35  36
ATOM     36  C   UNL A   1      34.650  32.545  31.169  1.00  0.00     0.118 C 
BRANCH  36  37
ATOM     37  N   UNL A   1      34.460  32.487  29.717  1.00  0.00    -0.352 N 
ATOM     38  C   UNL A   1      35.361  32.053  28.751  1.00  0.00     0.251 C 
ATOM     39  H   UNL A   1      33.586  32.795  29.385  1.00  0.00     0.163 HD
ATOM     40  O   UNL A   1      35.244  32.414  27.595  1.00  0.00    -0.269 OA
BRANCH  38  41
ATOM     41  C   UNL A   1      36.457  31.155  29.173  1.00  0.00     0.039 A 
ATOM     42  C   UNL A   1      36.301  29.772  29.299  1.00  0.00     0.014 A 
ATOM     43  C   UNL A   1      37.693  31.743  29.399  1.00  0.00     0.014 A 
ATOM     44  C   UNL A   1      37.429  29.001  29.586  1.00  0.00     0.010 A 
ATOM     45  C   UNL A   1      38.818  30.975  29.393  1.00  0.00     0.010 A 
ATOM     46  C   UNL A   1      38.691  29.617  29.615  1.00  0.00    -0.014 A 
BRANCH  46  47
ATOM     47  C   UNL A   1      39.934  28.877  29.791  1.00  0.00     0.031 A 
ATOM     48  C   UNL A   1      40.281  28.628  31.209  1.00  0.00     0.074 A 
ATOM     49  C   UNL A   1      40.566  28.252  28.770  1.00  0.00     0.049 A 
ATOM     50  N   UNL A   1      41.226  29.178  31.891  1.00  0.00    -0.248 NA
ATOM     51  C   UNL A   1      39.358  27.818  32.020  1.00  0.00     0.031 C 
ATOM     52  C   UNL A   1      40.153  28.139  27.363  1.00  0.00     0.029 A 
ATOM     53  N   UNL A   1      41.683  27.479  28.801  1.00  0.00    -0.354 N 
ATOM     54  C   UNL A   1      41.181  28.583  33.146  1.00  0.00     0.074 A 
ATOM     55  C   UNL A   1      39.888  27.963  33.237  1.00  0.00     0.031 C 
ATOM     56  C   UNL A   1      40.871  27.173  26.748  1.00  0.00     0.029 A 
ATOM     57  C   UNL A   1      41.912  26.722  27.652  1.00  0.00     0.049 A 
ATOM     58  H   UNL A   1      42.287  27.455  29.578  1.00  0.00     0.167 HD
ATOM     59  C   UNL A   1      42.313  28.432  33.889  1.00  0.00     0.034 A 
ATOM     60  C   UNL A   1      42.885  25.788  27.460  1.00  0.00     0.034 A 
ATOM     61  C   UNL A   1      43.380  29.263  33.366  1.00  0.00     0.049 A 
ATOM     62  C   UNL A   1      43.945  26.085  28.457  1.00  0.00     0.074 A 
ATOM     63  C   UNL A   1      43.517  30.622  33.147  1.00  0.00     0.029 A 
ATOM     64  N   UNL A   1      44.333  28.667  32.567  1.00  0.00    -0.354 N 
ATOM     65  N   UNL A   1      44.642  27.191  28.446  1.00  0.00    -0.248 NA
ATOM     66  C   UNL A   1      43.868  25.420  29.749  1.00  0.00     0.031 C 
ATOM     67  C   UNL A   1      44.152  30.724  31.872  1.00  0.00     0.029 A 
ATOM     68  C   UNL A   1      44.468  29.435  31.432  1.00  0.00     0.049 A 
ATOM     69  H   UNL A   1      44.828  27.841  32.771  1.00  0.00     0.167 HD
ATOM     70  C   UNL A   1      44.707  27.589  29.773  1.00  0.00     0.074 A 
ATOM     71  C   UNL A   1      44.296  26.411  30.538  1.00  0.00     0.031 C 
ATOM     72  C   UNL A   1      44.801  28.909  30.117  1.00  0.00     0.034 A 
BRANCH  59  73
ATOM     73  C   UNL A   1      42.570  27.296  34.854  1.00  0.00     0.023 A 
ATOM     74  C   UNL A   1      43.353  26.220  34.397  1.00  0.00     0.031 A 
ATOM     75  C   UNL A   1      41.899  27.083  36.082  1.00  0.00     0.131 A 
ATOM     76  C   UNL A   1      43.380  24.996  35.089  1.00  0.00     0.055 A 
ATOM     77  C   UNL A   1      41.983  25.888  36.803  1.00  0.00     0.041 A 
ATOM     78  F   UNL A   1      41.051  27.970  36.614  1.00  0.00    -0.206 F 
ATOM     79  C   UNL A   1      42.704  24.824  36.293  1.00  0.00     0.022 A 
BRANCH  76  80
ATOM     80  S   UNL A   1      44.181  23.577  34.302  1.00  0.00     0.124 S 
ATOM     81  O   UNL A   1      45.019  23.072  35.383  1.00  0.00    -0.237 OA
ATOM     82  O   UNL A   1      43.034  22.753  33.935  1.00  0.00    -0.237 OA
ATOM     83  O   UNL A   1      44.902  24.175  33.180  1.00  0.00    -0.744 OA
ENDBRANCH  76  80
ENDBRANCH  59  73
BRANCH  60  84
ATOM     84  C   UNL A   1      42.781  24.490  26.730  1.00  0.00     0.023 A 
ATOM     85  C   UNL A   1      43.806  23.980  25.899  1.00  0.00     0.031 A 
ATOM     86  C   UNL A   1      41.737  23.597  27.059  1.00  0.00     0.131 A 
ATOM     87  C   UNL A   1      43.758  22.637  25.444  1.00  0.00     0.055 A 
ATOM     88  C   UNL A   1      41.697  22.273  26.611  1.00  0.00     0.041 A 
ATOM     89  F   UNL A   1      40.759  23.957  27.906  1.00  0.00    -0.206 F 
ATOM     90  C   UNL A   1      42.715  21.784  25.808  1.00  0.00     0.022 A 
BRANCH  87  91
ATOM     91  S   UNL A   1      45.109  21.941  24.430  1.00  0.00     0.124 S 
ATOM     92  O   UNL A   1      46.134  21.658  25.427  1.00  0.00    -0.237 OA
ATOM     93  O   UNL A   1      44.473  20.787  23.805  1.00  0.00    -0.237 OA
ATOM     94  O   UNL A   1      45.438  23.028  23.505  1.00  0.00    -0.744 OA
ENDBRANCH  87  91
ENDBRANCH  60  84
BRANCH  72  95
ATOM     95  C   UNL A   1      45.087  29.923  29.016  1.00  0.00     0.023 A 
ATOM     96  C   UNL A   1      46.373  30.379  28.632  1.00  0.00     0.031 A 
ATOM     97  C   UNL A   1      43.995  30.357  28.244  1.00  0.00     0.131 A 
ATOM     98  C   UNL A   1      46.519  31.240  27.522  1.00  0.00     0.055 A 
ATOM     99  C   UNL A   1      44.145  31.187  27.134  1.00  0.00     0.041 A 
ATOM    100  F   UNL A   1      42.749  29.946  28.537  1.00  0.00    -0.206 F 
ATOM    101  C   UNL A   1      45.409  31.637  26.771  1.00  0.00     0.022 A 
BRANCH  98 102
ATOM    102  S   UNL A   1      48.157  31.886  27.041  1.00  0.00     0.124 S 
ATOM    103  O   UNL A   1      48.702  32.407  28.289  1.00  0.00    -0.237 OA
ATOM    104  O   UNL A   1      48.820  30.702  26.500  1.00  0.00    -0.237 OA
ATOM    105  O   UNL A   1      47.840  32.909  26.042  1.00  0.00    -0.744 OA
ENDBRANCH  98 102
ENDBRANCH  72  95
ENDBRANCH  46  47
ENDBRANCH  38  41
ENDBRANCH  36  37
ENDBRANCH  35  36
ENDBRANCH   1  35
TORSDOF 18
ENDMDL
