MODEL 1
REMARK VINA RESULT:     -11.9      0.000      0.000
REMARK SMILES C[C@H]1SCCC[C@@]1(C(=O)NCCCNC(=O)c1ccc(-c2c3nc(c(-c4cc(S(=O)(=O)[O-])ccc4F)c4ccc([nH]4)c(-c4cc(S(=O)(=O)[O-])ccc4F)c4nc(c(-c5cc(S(=O)(=O)[O-])ccc5F)c5ccc2[nH]5)C=C4)C=C3)cc1)[NH+]1CCCC1
REMARK SMILES IDX 13 1 12 2 11 3 10 4 8 5 9 6 7 8 1 9 2 10 3 11 4 12 6 13 5 14
REMARK SMILES IDX 80 15 81 16 84 17 82 19 83 20 14 21 15 22 16 24 17 25 18 26
REMARK SMILES IDX 79 27 19 28 78 29 20 30 21 31 22 32 72 33 23 34 77 35 71 36
REMARK SMILES IDX 73 37 24 38 76 39 70 40 69 41 25 43 57 44 37 45 56 46 38 47
REMARK SMILES IDX 41 48 55 49 74 50 39 51 40 52 54 54 75 55 42 56 26 57 27 58
REMARK SMILES IDX 35 59 28 60 34 61 36 62 33 63 29 64 30 65 31 66 32 67 58 68
REMARK SMILES IDX 59 69 67 70 60 71 66 72 68 73 65 74 61 75 62 76 63 77 64 78
REMARK SMILES IDX 43 79 44 80 52 81 45 82 51 83 53 84 50 85 46 86 47 87 48 88
REMARK SMILES IDX 49 89
REMARK H PARENT 10 7 80 18 14 23 73 42 41 53
REMARK Flexibility Score: inf
ROOT
ATOM      1  C   UNL A   1      32.158  29.981  26.415  1.00  0.00     0.118 C 
ENDROOT
BRANCH   1   2
ATOM      2  C   UNL A   1      32.533  29.570  24.994  1.00  0.00     0.042 C 
BRANCH   2   3
ATOM      3  C   UNL A   1      32.684  28.060  24.783  1.00  0.00     0.118 C 
BRANCH   3   4
ATOM      4  N   UNL A   1      31.803  27.271  25.630  1.00  0.00    -0.351 N 
ATOM      5  C   UNL A   1      31.642  25.956  25.940  1.00  0.00     0.282 C 
ATOM      6  O   UNL A   1      30.753  25.790  26.789  1.00  0.00    -0.268 OA
ATOM      7  H   UNL A   1      31.150  27.838  26.103  1.00  0.00     0.163 HD
BRANCH   5   8
ATOM      8  C   UNL A   1      32.497  24.724  25.364  1.00  0.00     0.188 C 
ATOM      9  C   UNL A   1      30.830  22.943  26.392  1.00  0.00     0.027 C 
ATOM     10  C   UNL A   1      32.239  23.572  26.449  1.00  0.00     0.115 C 
ATOM     11  S   UNL A   1      33.414  22.150  26.472  1.00  0.00    -0.152 SA
ATOM     12  C   UNL A   1      34.958  23.064  26.587  1.00  0.00     0.070 C 
ATOM     13  C   UNL A   1      33.997  25.144  25.416  1.00  0.00     0.081 C 
ATOM     14  C   UNL A   1      35.097  24.081  25.473  1.00  0.00     0.018 C 
BRANCH   8  15
ATOM     15  N   UNL A   1      31.945  24.224  24.065  1.00  0.00    -0.321 N 
ATOM     16  C   UNL A   1      32.866  23.835  22.998  1.00  0.00     0.263 C 
ATOM     17  C   UNL A   1      30.905  24.961  23.362  1.00  0.00     0.263 C 
ATOM     18  H   UNL A   1      31.545  23.420  24.549  1.00  0.00     0.349 HD
ATOM     19  C   UNL A   1      32.936  25.035  22.068  1.00  0.00     0.067 C 
ATOM     20  C   UNL A   1      31.615  25.759  22.278  1.00  0.00     0.067 C 
ENDBRANCH   8  15
ENDBRANCH   5   8
ENDBRANCH   3   4
ENDBRANCH   2   3
ENDBRANCH   1   2
BRANCH   1  21
ATOM     21  N   UNL A   1      32.068  31.426  26.560  1.00  0.00    -0.352 N 
ATOM     22  C   UNL A   1      32.849  32.284  27.295  1.00  0.00     0.251 C 
ATOM     23  H   UNL A   1      31.337  31.852  26.057  1.00  0.00     0.163 HD
ATOM     24  O   UNL A   1      32.450  33.438  27.486  1.00  0.00    -0.269 OA
BRANCH  22  25
ATOM     25  C   UNL A   1      34.135  31.842  27.886  1.00  0.00     0.039 A 
ATOM     26  C   UNL A   1      35.115  32.800  28.169  1.00  0.00     0.014 A 
ATOM     27  C   UNL A   1      34.402  30.491  28.126  1.00  0.00     0.014 A 
ATOM     28  C   UNL A   1      36.319  32.413  28.768  1.00  0.00     0.010 A 
ATOM     29  C   UNL A   1      35.574  30.116  28.787  1.00  0.00     0.010 A 
ATOM     30  C   UNL A   1      36.542  31.074  29.126  1.00  0.00    -0.014 A 
BRANCH  30  31
ATOM     31  C   UNL A   1      37.762  30.659  29.875  1.00  0.00     0.031 A 
ATOM     32  C   UNL A   1      38.748  29.701  29.260  1.00  0.00     0.074 A 
ATOM     33  C   UNL A   1      37.944  31.089  31.140  1.00  0.00     0.049 A 
ATOM     34  N   UNL A   1      39.797  29.134  29.798  1.00  0.00    -0.248 NA
ATOM     35  C   UNL A   1      38.508  29.316  27.860  1.00  0.00     0.031 C 
ATOM     36  C   UNL A   1      37.052  32.001  31.859  1.00  0.00     0.029 A 
ATOM     37  N   UNL A   1      38.929  30.806  32.055  1.00  0.00    -0.354 N 
ATOM     38  C   UNL A   1      40.339  28.318  28.810  1.00  0.00     0.074 A 
ATOM     39  C   UNL A   1      39.471  28.428  27.656  1.00  0.00     0.031 C 
ATOM     40  C   UNL A   1      37.537  32.212  33.094  1.00  0.00     0.029 A 
ATOM     41  C   UNL A   1      38.740  31.410  33.278  1.00  0.00     0.049 A 
ATOM     42  H   UNL A   1      39.699  30.226  31.854  1.00  0.00     0.167 HD
ATOM     43  C   UNL A   1      41.467  27.563  28.855  1.00  0.00     0.034 A 
ATOM     44  C   UNL A   1      39.438  31.307  34.428  1.00  0.00     0.034 A 
ATOM     45  C   UNL A   1      42.330  27.470  30.007  1.00  0.00     0.049 A 
ATOM     46  C   UNL A   1      40.649  30.409  34.470  1.00  0.00     0.074 A 
ATOM     47  C   UNL A   1      43.525  26.781  30.134  1.00  0.00     0.029 A 
ATOM     48  N   UNL A   1      42.090  28.072  31.234  1.00  0.00    -0.354 N 
ATOM     49  N   UNL A   1      41.170  29.678  33.511  1.00  0.00    -0.248 NA
ATOM     50  C   UNL A   1      41.366  30.320  35.750  1.00  0.00     0.031 C 
ATOM     51  C   UNL A   1      43.971  26.913  31.454  1.00  0.00     0.029 A 
ATOM     52  C   UNL A   1      43.092  27.739  32.133  1.00  0.00     0.049 A 
ATOM     53  H   UNL A   1      41.320  28.652  31.437  1.00  0.00     0.167 HD
ATOM     54  C   UNL A   1      42.285  29.061  34.069  1.00  0.00     0.074 A 
ATOM     55  C   UNL A   1      42.376  29.522  35.439  1.00  0.00     0.031 C 
ATOM     56  C   UNL A   1      43.158  28.191  33.502  1.00  0.00     0.034 A 
BRANCH  43  57
ATOM     57  C   UNL A   1      41.820  26.761  27.626  1.00  0.00     0.023 A 
ATOM     58  C   UNL A   1      41.534  25.388  27.537  1.00  0.00     0.031 A 
ATOM     59  C   UNL A   1      42.443  27.378  26.527  1.00  0.00     0.131 A 
ATOM     60  C   UNL A   1      41.924  24.663  26.400  1.00  0.00     0.055 A 
ATOM     61  C   UNL A   1      42.764  26.666  25.369  1.00  0.00     0.041 A 
ATOM     62  F   UNL A   1      42.755  28.683  26.562  1.00  0.00    -0.206 F 
ATOM     63  C   UNL A   1      42.515  25.298  25.305  1.00  0.00     0.022 A 
BRANCH  60  64
ATOM     64  S   UNL A   1      41.748  22.859  26.419  1.00  0.00     0.124 S 
ATOM     65  O   UNL A   1      42.467  22.481  25.205  1.00  0.00    -0.237 OA
ATOM     66  O   UNL A   1      42.384  22.493  27.679  1.00  0.00    -0.237 OA
ATOM     67  O   UNL A   1      40.302  22.655  26.368  1.00  0.00    -0.744 OA
ENDBRANCH  60  64
ENDBRANCH  43  57
BRANCH  44  68
ATOM     68  C   UNL A   1      38.997  32.034  35.654  1.00  0.00     0.023 A 
ATOM     69  C   UNL A   1      38.327  31.363  36.689  1.00  0.00     0.031 A 
ATOM     70  C   UNL A   1      39.179  33.424  35.779  1.00  0.00     0.131 A 
ATOM     71  C   UNL A   1      37.815  32.087  37.777  1.00  0.00     0.055 A 
ATOM     72  C   UNL A   1      38.718  34.131  36.891  1.00  0.00     0.041 A 
ATOM     73  F   UNL A   1      39.814  34.116  34.819  1.00  0.00    -0.206 F 
ATOM     74  C   UNL A   1      38.017  33.465  37.891  1.00  0.00     0.022 A 
BRANCH  71  75
ATOM     75  S   UNL A   1      36.788  31.217  38.992  1.00  0.00     0.124 S 
ATOM     76  O   UNL A   1      35.573  32.023  38.986  1.00  0.00    -0.237 OA
ATOM     77  O   UNL A   1      36.680  29.888  38.398  1.00  0.00    -0.237 OA
ATOM     78  O   UNL A   1      37.579  31.287  40.219  1.00  0.00    -0.744 OA
ENDBRANCH  71  75
ENDBRANCH  44  68
BRANCH  56  79
ATOM     79  C   UNL A   1      44.295  27.705  34.365  1.00  0.00     0.023 A 
ATOM     80  C   UNL A   1      44.201  26.508  35.097  1.00  0.00     0.031 A 
ATOM     81  C   UNL A   1      45.482  28.450  34.462  1.00  0.00     0.131 A 
ATOM     82  C   UNL A   1      45.256  26.118  35.935  1.00  0.00     0.055 A 
ATOM     83  C   UNL A   1      46.552  28.029  35.255  1.00  0.00     0.041 A 
ATOM     84  F   UNL A   1      45.625  29.602  33.785  1.00  0.00    -0.206 F 
ATOM     85  C   UNL A   1      46.437  26.862  36.006  1.00  0.00     0.022 A 
BRANCH  82  86
ATOM     86  S   UNL A   1      45.037  24.660  36.991  1.00  0.00     0.124 S 
ATOM     87  O   UNL A   1      44.313  23.752  36.108  1.00  0.00    -0.237 OA
ATOM     88  O   UNL A   1      46.414  24.286  37.299  1.00  0.00    -0.237 OA
ATOM     89  O   UNL A   1      44.266  25.169  38.125  1.00  0.00    -0.744 OA
ENDBRANCH  82  86
ENDBRANCH  56  79
ENDBRANCH  30  31
ENDBRANCH  22  25
ENDBRANCH   1  21
TORSDOF 14
ENDMDL
MODEL 2
REMARK VINA RESULT:     -11.9      1.498      1.696
REMARK SMILES C[C@H]1SCCC[C@@]1(C(=O)NCCCNC(=O)c1ccc(-c2c3nc(c(-c4cc(S(=O)(=O)[O-])ccc4F)c4ccc([nH]4)c(-c4cc(S(=O)(=O)[O-])ccc4F)c4nc(c(-c5cc(S(=O)(=O)[O-])ccc5F)c5ccc2[nH]5)C=C4)C=C3)cc1)[NH+]1CCCC1
REMARK SMILES IDX 13 1 12 2 11 3 10 4 8 5 9 6 7 8 1 9 2 10 3 11 4 12 6 13 5 14
REMARK SMILES IDX 80 15 81 16 84 17 82 19 83 20 14 21 15 22 16 24 17 25 18 26
REMARK SMILES IDX 79 27 19 28 78 29 20 30 21 31 22 32 72 33 23 34 77 35 71 36
REMARK SMILES IDX 73 37 24 38 76 39 70 40 69 41 25 43 57 44 37 45 56 46 38 47
REMARK SMILES IDX 41 48 55 49 74 50 39 51 40 52 54 54 75 55 42 56 26 57 27 58
REMARK SMILES IDX 35 59 28 60 34 61 36 62 33 63 29 64 30 65 31 66 32 67 58 68
REMARK SMILES IDX 59 69 67 70 60 71 66 72 68 73 65 74 61 75 62 76 63 77 64 78
REMARK SMILES IDX 43 79 44 80 52 81 45 82 51 83 53 84 50 85 46 86 47 87 48 88
REMARK SMILES IDX 49 89
REMARK H PARENT 10 7 80 18 14 23 73 42 41 53
REMARK Flexibility Score: inf
ROOT
ATOM      1  C   UNL A   1      32.080  30.078  26.347  1.00  0.00     0.118 C 
ENDROOT
BRANCH   1   2
ATOM      2  C   UNL A   1      32.811  29.685  25.067  1.00  0.00     0.042 C 
BRANCH   2   3
ATOM      3  C   UNL A   1      32.662  28.212  24.671  1.00  0.00     0.118 C 
BRANCH   3   4
ATOM      4  N   UNL A   1      31.842  27.449  25.599  1.00  0.00    -0.351 N 
ATOM      5  C   UNL A   1      31.707  26.143  25.960  1.00  0.00     0.282 C 
ATOM      6  O   UNL A   1      30.877  26.003  26.871  1.00  0.00    -0.268 OA
ATOM      7  H   UNL A   1      31.221  28.029  26.097  1.00  0.00     0.163 HD
BRANCH   5   8
ATOM      8  C   UNL A   1      32.526  24.896  25.366  1.00  0.00     0.188 C 
ATOM      9  C   UNL A   1      30.909  23.144  26.517  1.00  0.00     0.027 C 
ATOM     10  C   UNL A   1      32.321  23.768  26.487  1.00  0.00     0.115 C 
ATOM     11  S   UNL A   1      33.491  22.341  26.479  1.00  0.00    -0.152 SA
ATOM     12  C   UNL A   1      35.042  23.250  26.493  1.00  0.00     0.070 C 
ATOM     13  C   UNL A   1      34.028  25.309  25.331  1.00  0.00     0.081 C 
ATOM     14  C   UNL A   1      35.126  24.243  25.352  1.00  0.00     0.018 C 
BRANCH   8  15
ATOM     15  N   UNL A   1      31.905  24.371  24.108  1.00  0.00    -0.321 N 
ATOM     16  C   UNL A   1      32.765  24.001  22.985  1.00  0.00     0.263 C 
ATOM     17  C   UNL A   1      30.800  25.074  23.471  1.00  0.00     0.263 C 
ATOM     18  H   UNL A   1      31.561  23.559  24.622  1.00  0.00     0.349 HD
ATOM     19  C   UNL A   1      32.740  25.196  22.046  1.00  0.00     0.067 C 
ATOM     20  C   UNL A   1      31.415  25.884  22.339  1.00  0.00     0.067 C 
ENDBRANCH   8  15
ENDBRANCH   5   8
ENDBRANCH   3   4
ENDBRANCH   2   3
ENDBRANCH   1   2
BRANCH   1  21
ATOM     21  N   UNL A   1      31.985  31.522  26.502  1.00  0.00    -0.352 N 
ATOM     22  C   UNL A   1      32.766  32.378  27.240  1.00  0.00     0.251 C 
ATOM     23  H   UNL A   1      31.252  31.949  26.003  1.00  0.00     0.163 HD
ATOM     24  O   UNL A   1      32.363  33.529  27.438  1.00  0.00    -0.269 OA
BRANCH  22  25
ATOM     25  C   UNL A   1      34.054  31.937  27.824  1.00  0.00     0.039 A 
ATOM     26  C   UNL A   1      35.074  32.878  28.002  1.00  0.00     0.014 A 
ATOM     27  C   UNL A   1      34.284  30.601  28.161  1.00  0.00     0.014 A 
ATOM     28  C   UNL A   1      36.284  32.496  28.592  1.00  0.00     0.010 A 
ATOM     29  C   UNL A   1      35.464  30.235  28.814  1.00  0.00     0.010 A 
ATOM     30  C   UNL A   1      36.474  31.181  29.047  1.00  0.00    -0.014 A 
BRANCH  30  31
ATOM     31  C   UNL A   1      37.703  30.782  29.790  1.00  0.00     0.031 A 
ATOM     32  C   UNL A   1      38.662  29.781  29.199  1.00  0.00     0.074 A 
ATOM     33  C   UNL A   1      37.919  31.267  31.029  1.00  0.00     0.049 A 
ATOM     34  N   UNL A   1      39.713  29.222  29.741  1.00  0.00    -0.248 NA
ATOM     35  C   UNL A   1      38.387  29.336  27.824  1.00  0.00     0.031 C 
ATOM     36  C   UNL A   1      37.056  32.225  31.723  1.00  0.00     0.029 A 
ATOM     37  N   UNL A   1      38.919  31.011  31.936  1.00  0.00    -0.354 N 
ATOM     38  C   UNL A   1      40.222  28.354  28.781  1.00  0.00     0.074 A 
ATOM     39  C   UNL A   1      39.331  28.424  27.641  1.00  0.00     0.031 C 
ATOM     40  C   UNL A   1      37.570  32.485  32.936  1.00  0.00     0.029 A 
ATOM     41  C   UNL A   1      38.766  31.673  33.133  1.00  0.00     0.049 A 
ATOM     42  H   UNL A   1      39.675  30.410  31.746  1.00  0.00     0.167 HD
ATOM     43  C   UNL A   1      41.339  27.584  28.837  1.00  0.00     0.034 A 
ATOM     44  C   UNL A   1      39.486  31.612  34.272  1.00  0.00     0.034 A 
ATOM     45  C   UNL A   1      42.225  27.530  29.975  1.00  0.00     0.049 A 
ATOM     46  C   UNL A   1      40.684  30.698  34.331  1.00  0.00     0.074 A 
ATOM     47  C   UNL A   1      43.412  26.828  30.108  1.00  0.00     0.029 A 
ATOM     48  N   UNL A   1      42.020  28.192  31.177  1.00  0.00    -0.354 N 
ATOM     49  N   UNL A   1      41.173  29.915  33.396  1.00  0.00    -0.248 NA
ATOM     50  C   UNL A   1      41.427  30.657  35.598  1.00  0.00     0.031 C 
ATOM     51  C   UNL A   1      43.888  27.014  31.412  1.00  0.00     0.029 A 
ATOM     52  C   UNL A   1      43.036  27.885  32.070  1.00  0.00     0.049 A 
ATOM     53  H   UNL A   1      41.264  28.793  31.369  1.00  0.00     0.167 HD
ATOM     54  C   UNL A   1      42.291  29.307  33.959  1.00  0.00     0.074 A 
ATOM     55  C   UNL A   1      42.418  29.829  35.303  1.00  0.00     0.031 C 
ATOM     56  C   UNL A   1      43.138  28.397  33.415  1.00  0.00     0.034 A 
BRANCH  43  57
ATOM     57  C   UNL A   1      41.653  26.720  27.640  1.00  0.00     0.023 A 
ATOM     58  C   UNL A   1      41.335  25.351  27.617  1.00  0.00     0.031 A 
ATOM     59  C   UNL A   1      42.273  27.273  26.505  1.00  0.00     0.131 A 
ATOM     60  C   UNL A   1      41.690  24.569  26.507  1.00  0.00     0.055 A 
ATOM     61  C   UNL A   1      42.558  26.504  25.375  1.00  0.00     0.041 A 
ATOM     62  F   UNL A   1      42.614  28.571  26.477  1.00  0.00    -0.206 F 
ATOM     63  C   UNL A   1      42.277  25.141  25.376  1.00  0.00     0.022 A 
BRANCH  60  64
ATOM     64  S   UNL A   1      41.474  22.772  26.609  1.00  0.00     0.124 S 
ATOM     65  O   UNL A   1      42.162  22.324  25.400  1.00  0.00    -0.237 OA
ATOM     66  O   UNL A   1      42.126  22.446  27.872  1.00  0.00    -0.237 OA
ATOM     67  O   UNL A   1      40.023  22.599  26.593  1.00  0.00    -0.744 OA
ENDBRANCH  60  64
ENDBRANCH  43  57
BRANCH  44  68
ATOM     68  C   UNL A   1      39.082  32.402  35.471  1.00  0.00     0.023 A 
ATOM     69  C   UNL A   1      39.545  33.714  35.661  1.00  0.00     0.031 A 
ATOM     70  C   UNL A   1      38.283  31.833  36.480  1.00  0.00     0.131 A 
ATOM     71  C   UNL A   1      39.251  34.395  36.852  1.00  0.00     0.055 A 
ATOM     72  C   UNL A   1      37.945  32.536  37.638  1.00  0.00     0.041 A 
ATOM     73  F   UNL A   1      37.812  30.583  36.351  1.00  0.00    -0.206 F 
ATOM     74  C   UNL A   1      38.444  33.819  37.837  1.00  0.00     0.022 A 
BRANCH  71  75
ATOM     75  S   UNL A   1      40.028  36.007  37.144  1.00  0.00     0.124 S 
ATOM     76  O   UNL A   1      41.407  35.627  37.428  1.00  0.00    -0.237 OA
ATOM     77  O   UNL A   1      39.798  36.686  35.872  1.00  0.00    -0.237 OA
ATOM     78  O   UNL A   1      39.280  36.545  38.278  1.00  0.00    -0.744 OA
ENDBRANCH  71  75
ENDBRANCH  44  68
BRANCH  56  79
ATOM     79  C   UNL A   1      44.286  27.934  34.275  1.00  0.00     0.023 A 
ATOM     80  C   UNL A   1      44.188  26.778  35.070  1.00  0.00     0.031 A 
ATOM     81  C   UNL A   1      45.489  28.660  34.307  1.00  0.00     0.131 A 
ATOM     82  C   UNL A   1      45.254  26.410  35.903  1.00  0.00     0.055 A 
ATOM     83  C   UNL A   1      46.569  28.259  35.096  1.00  0.00     0.041 A 
ATOM     84  F   UNL A   1      45.636  29.772  33.569  1.00  0.00    -0.206 F 
ATOM     85  C   UNL A   1      46.450  27.134  35.909  1.00  0.00     0.022 A 
BRANCH  82  86
ATOM     86  S   UNL A   1      45.033  25.012  37.037  1.00  0.00     0.124 S 
ATOM     87  O   UNL A   1      43.714  25.283  37.598  1.00  0.00    -0.237 OA
ATOM     88  O   UNL A   1      45.121  23.864  36.139  1.00  0.00    -0.237 OA
ATOM     89  O   UNL A   1      46.146  25.150  37.974  1.00  0.00    -0.744 OA
ENDBRANCH  82  86
ENDBRANCH  56  79
ENDBRANCH  30  31
ENDBRANCH  22  25
ENDBRANCH   1  21
TORSDOF 14
ENDMDL
MODEL 3
REMARK VINA RESULT:     -11.9      5.320     10.406
REMARK SMILES C[C@H]1SCCC[C@@]1(C(=O)NCCCNC(=O)c1ccc(-c2c3nc(c(-c4cc(S(=O)(=O)[O-])ccc4F)c4ccc([nH]4)c(-c4cc(S(=O)(=O)[O-])ccc4F)c4nc(c(-c5cc(S(=O)(=O)[O-])ccc5F)c5ccc2[nH]5)C=C4)C=C3)cc1)[NH+]1CCCC1
REMARK SMILES IDX 13 1 12 2 11 3 10 4 8 5 9 6 7 8 1 9 2 10 3 11 4 12 6 13 5 14
REMARK SMILES IDX 80 15 81 16 84 17 82 19 83 20 14 21 15 22 16 24 17 25 18 26
REMARK SMILES IDX 79 27 19 28 78 29 20 30 21 31 22 32 72 33 23 34 77 35 71 36
REMARK SMILES IDX 73 37 24 38 76 39 70 40 69 41 25 43 57 44 37 45 56 46 38 47
REMARK SMILES IDX 41 48 55 49 74 50 39 51 40 52 54 54 75 55 42 56 26 57 27 58
REMARK SMILES IDX 35 59 28 60 34 61 36 62 33 63 29 64 30 65 31 66 32 67 58 68
REMARK SMILES IDX 59 69 67 70 60 71 66 72 68 73 65 74 61 75 62 76 63 77 64 78
REMARK SMILES IDX 43 79 44 80 52 81 45 82 51 83 53 84 50 85 46 86 47 87 48 88
REMARK SMILES IDX 49 89
REMARK H PARENT 10 7 80 18 14 23 73 42 41 53
REMARK Flexibility Score: inf
ROOT
ATOM      1  C   UNL A   1      37.194  21.676  24.882  1.00  0.00     0.118 C 
ENDROOT
BRANCH   1   2
ATOM      2  C   UNL A   1      35.716  21.330  25.041  1.00  0.00     0.042 C 
BRANCH   2   3
ATOM      3  C   UNL A   1      34.777  22.541  25.086  1.00  0.00     0.118 C 
BRANCH   3   4
ATOM      4  N   UNL A   1      34.432  23.048  23.766  1.00  0.00    -0.351 N 
ATOM      5  C   UNL A   1      33.712  24.087  23.261  1.00  0.00     0.282 C 
ATOM      6  O   UNL A   1      33.766  24.123  22.022  1.00  0.00    -0.268 OA
ATOM      7  H   UNL A   1      34.819  22.493  23.051  1.00  0.00     0.163 HD
BRANCH   5   8
ATOM      8  C   UNL A   1      32.916  25.200  24.102  1.00  0.00     0.188 C 
ATOM      9  C   UNL A   1      31.725  26.144  21.935  1.00  0.00     0.027 C 
ATOM     10  C   UNL A   1      32.762  26.400  23.050  1.00  0.00     0.115 C 
ATOM     11  S   UNL A   1      32.363  28.071  23.723  1.00  0.00    -0.152 SA
ATOM     12  C   UNL A   1      33.676  28.203  24.943  1.00  0.00     0.070 C 
ATOM     13  C   UNL A   1      33.854  25.656  25.260  1.00  0.00     0.081 C 
ATOM     14  C   UNL A   1      33.675  27.033  25.905  1.00  0.00     0.018 C 
BRANCH   8  15
ATOM     15  N   UNL A   1      31.530  24.749  24.448  1.00  0.00    -0.321 N 
ATOM     16  C   UNL A   1      30.987  25.056  25.771  1.00  0.00     0.263 C 
ATOM     17  C   UNL A   1      31.115  23.372  24.223  1.00  0.00     0.263 C 
ATOM     18  H   UNL A   1      31.155  25.357  23.720  1.00  0.00     0.349 HD
ATOM     19  C   UNL A   1      31.191  23.795  26.594  1.00  0.00     0.067 C 
ATOM     20  C   UNL A   1      31.233  22.672  25.569  1.00  0.00     0.067 C 
ENDBRANCH   8  15
ENDBRANCH   5   8
ENDBRANCH   3   4
ENDBRANCH   2   3
ENDBRANCH   1   2
BRANCH   1  21
ATOM     21  N   UNL A   1      38.060  20.616  25.375  1.00  0.00    -0.352 N 
ATOM     22  C   UNL A   1      39.285  20.699  25.991  1.00  0.00     0.251 C 
ATOM     23  H   UNL A   1      37.716  19.702  25.248  1.00  0.00     0.163 HD
ATOM     24  O   UNL A   1      39.967  19.675  26.101  1.00  0.00    -0.269 OA
BRANCH  22  25
ATOM     25  C   UNL A   1      39.810  21.992  26.492  1.00  0.00     0.039 A 
ATOM     26  C   UNL A   1      40.837  21.983  27.442  1.00  0.00     0.014 A 
ATOM     27  C   UNL A   1      39.276  23.211  26.066  1.00  0.00     0.014 A 
ATOM     28  C   UNL A   1      41.380  23.190  27.896  1.00  0.00     0.010 A 
ATOM     29  C   UNL A   1      39.865  24.412  26.467  1.00  0.00     0.010 A 
ATOM     30  C   UNL A   1      40.932  24.416  27.379  1.00  0.00    -0.014 A 
BRANCH  30  31
ATOM     31  C   UNL A   1      41.579  25.705  27.755  1.00  0.00     0.031 A 
ATOM     32  C   UNL A   1      40.801  26.764  28.492  1.00  0.00     0.074 A 
ATOM     33  C   UNL A   1      42.847  25.951  27.366  1.00  0.00     0.049 A 
ATOM     34  N   UNL A   1      41.152  27.987  28.796  1.00  0.00    -0.248 NA
ATOM     35  C   UNL A   1      39.442  26.403  28.925  1.00  0.00     0.031 C 
ATOM     36  C   UNL A   1      43.700  25.018  26.629  1.00  0.00     0.029 A 
ATOM     37  N   UNL A   1      43.636  27.065  27.522  1.00  0.00    -0.354 N 
ATOM     38  C   UNL A   1      40.058  28.547  29.448  1.00  0.00     0.074 A 
ATOM     39  C   UNL A   1      39.015  27.543  29.448  1.00  0.00     0.031 C 
ATOM     40  C   UNL A   1      44.895  25.591  26.409  1.00  0.00     0.029 A 
ATOM     41  C   UNL A   1      44.877  26.951  26.937  1.00  0.00     0.049 A 
ATOM     42  H   UNL A   1      43.342  27.869  28.007  1.00  0.00     0.167 HD
ATOM     43  C   UNL A   1      39.942  29.777  30.011  1.00  0.00     0.034 A 
ATOM     44  C   UNL A   1      45.878  27.847  26.812  1.00  0.00     0.034 A 
ATOM     45  C   UNL A   1      40.993  30.766  30.014  1.00  0.00     0.049 A 
ATOM     46  C   UNL A   1      45.697  29.229  27.388  1.00  0.00     0.074 A 
ATOM     47  C   UNL A   1      40.996  32.017  30.607  1.00  0.00     0.029 A 
ATOM     48  N   UNL A   1      42.223  30.624  29.387  1.00  0.00    -0.354 N 
ATOM     49  N   UNL A   1      44.669  29.726  28.038  1.00  0.00    -0.248 NA
ATOM     50  C   UNL A   1      46.810  30.172  27.212  1.00  0.00     0.031 C 
ATOM     51  C   UNL A   1      42.200  32.655  30.283  1.00  0.00     0.029 A 
ATOM     52  C   UNL A   1      42.976  31.778  29.545  1.00  0.00     0.049 A 
ATOM     53  H   UNL A   1      42.519  29.820  28.900  1.00  0.00     0.167 HD
ATOM     54  C   UNL A   1      45.024  31.031  28.364  1.00  0.00     0.074 A 
ATOM     55  C   UNL A   1      46.366  31.237  27.862  1.00  0.00     0.031 C 
ATOM     56  C   UNL A   1      44.305  31.976  29.021  1.00  0.00     0.034 A 
BRANCH  43  57
ATOM     57  C   UNL A   1      38.622  30.130  30.652  1.00  0.00     0.023 A 
ATOM     58  C   UNL A   1      37.637  30.853  29.958  1.00  0.00     0.031 A 
ATOM     59  C   UNL A   1      38.343  29.734  31.972  1.00  0.00     0.131 A 
ATOM     60  C   UNL A   1      36.443  31.208  30.604  1.00  0.00     0.055 A 
ATOM     61  C   UNL A   1      37.124  30.029  32.586  1.00  0.00     0.041 A 
ATOM     62  F   UNL A   1      39.253  29.056  32.689  1.00  0.00    -0.206 F 
ATOM     63  C   UNL A   1      36.169  30.780  31.906  1.00  0.00     0.022 A 
BRANCH  60  64
ATOM     64  S   UNL A   1      35.300  32.333  29.758  1.00  0.00     0.124 S 
ATOM     65  O   UNL A   1      34.380  32.683  30.837  1.00  0.00    -0.237 OA
ATOM     66  O   UNL A   1      36.185  33.398  29.302  1.00  0.00    -0.237 OA
ATOM     67  O   UNL A   1      34.724  31.504  28.701  1.00  0.00    -0.744 OA
ENDBRANCH  60  64
ENDBRANCH  43  57
BRANCH  44  68
ATOM     68  C   UNL A   1      47.128  27.495  26.077  1.00  0.00     0.023 A 
ATOM     69  C   UNL A   1      47.269  27.786  24.711  1.00  0.00     0.031 A 
ATOM     70  C   UNL A   1      48.174  26.801  26.714  1.00  0.00     0.131 A 
ATOM     71  C   UNL A   1      48.401  27.340  24.013  1.00  0.00     0.055 A 
ATOM     72  C   UNL A   1      49.324  26.409  26.028  1.00  0.00     0.041 A 
ATOM     73  F   UNL A   1      48.092  26.498  28.019  1.00  0.00    -0.206 F 
ATOM     74  C   UNL A   1      49.436  26.664  24.665  1.00  0.00     0.022 A 
BRANCH  71  75
ATOM     75  S   UNL A   1      48.455  27.563  22.214  1.00  0.00     0.124 S 
ATOM     76  O   UNL A   1      47.153  28.164  21.950  1.00  0.00    -0.237 OA
ATOM     77  O   UNL A   1      49.612  28.439  22.054  1.00  0.00    -0.237 OA
ATOM     78  O   UNL A   1      48.631  26.203  21.708  1.00  0.00    -0.744 OA
ENDBRANCH  71  75
ENDBRANCH  44  68
BRANCH  56  79
ATOM     79  C   UNL A   1      44.975  33.308  29.247  1.00  0.00     0.023 A 
ATOM     80  C   UNL A   1      44.928  34.328  28.280  1.00  0.00     0.031 A 
ATOM     81  C   UNL A   1      45.675  33.558  30.440  1.00  0.00     0.131 A 
ATOM     82  C   UNL A   1      45.612  35.531  28.499  1.00  0.00     0.055 A 
ATOM     83  C   UNL A   1      46.309  34.779  30.677  1.00  0.00     0.041 A 
ATOM     84  F   UNL A   1      45.754  32.619  31.397  1.00  0.00    -0.206 F 
ATOM     85  C   UNL A   1      46.289  35.770  29.699  1.00  0.00     0.022 A 
BRANCH  82  86
ATOM     86  S   UNL A   1      45.669  36.758  27.165  1.00  0.00     0.124 S 
ATOM     87  O   UNL A   1      46.604  37.743  27.699  1.00  0.00    -0.237 OA
ATOM     88  O   UNL A   1      46.151  35.970  26.034  1.00  0.00    -0.237 OA
ATOM     89  O   UNL A   1      44.284  37.212  27.056  1.00  0.00    -0.744 OA
ENDBRANCH  82  86
ENDBRANCH  56  79
ENDBRANCH  30  31
ENDBRANCH  22  25
ENDBRANCH   1  21
TORSDOF 14
ENDMDL
