MODEL 1
REMARK VINA RESULT:     -12.2      0.000      0.000
REMARK SMILES CC(C)CSc1cc2c(cc1Cl)C=C(C(=O)NCCCNC(=O)c1ccc(-c3c4nc(c(-c5cc(S(=O)(=O)[O-])ccc5F)c5ccc([nH]5)c(-c5cc(S(=O)(=O)[O-])ccc5F)c5nc(c(-c6cc(S(=O)(=O)[O-])ccc6F)c6ccc3[nH]6)C=C5)C=C4)cc1)[C@H](C(F)(F)F)O2
REMARK SMILES IDX 19 1 18 2 17 3 15 4 16 5 14 7 6 8 7 9 11 10 8 11 10 12 12 13
REMARK SMILES IDX 9 14 92 15 13 16 87 17 5 18 4 19 2 20 1 21 3 22 88 23 89 24
REMARK SMILES IDX 90 25 91 26 20 27 21 28 22 29 23 31 24 32 25 33 86 34 26 35
REMARK SMILES IDX 85 36 27 37 28 38 29 39 79 40 30 41 84 42 78 43 80 44 31 45
REMARK SMILES IDX 83 46 77 47 76 48 32 50 64 51 44 52 63 53 45 54 48 55 62 56
REMARK SMILES IDX 81 57 46 58 47 59 61 61 82 62 49 63 33 64 34 65 42 66 35 67
REMARK SMILES IDX 41 68 43 69 40 70 36 71 37 72 38 73 39 74 65 75 66 76 74 77
REMARK SMILES IDX 67 78 73 79 75 80 72 81 68 82 69 83 70 84 71 85 50 86 51 87
REMARK SMILES IDX 59 88 52 89 58 90 60 91 57 92 53 93 54 94 55 95 56 96
REMARK H PARENT 17 6 21 30 80 49 48 60
REMARK Flexibility Score: inf
ROOT
ATOM      1  C   UNL A   1      31.629  29.038  26.247  1.00  0.00     0.042 C 
ENDROOT
BRANCH   1   2
ATOM      2  C   UNL A   1      31.388  28.976  24.744  1.00  0.00     0.118 C 
BRANCH   2   3
ATOM      3  N   UNL A   1      32.614  29.185  23.985  1.00  0.00    -0.352 N 
ATOM      4  C   UNL A   1      33.567  28.430  23.395  1.00  0.00     0.251 C 
ATOM      5  O   UNL A   1      34.410  29.066  22.752  1.00  0.00    -0.270 OA
ATOM      6  H   UNL A   1      32.800  30.144  23.871  1.00  0.00     0.163 HD
BRANCH   4   7
ATOM      7  C   UNL A   1      33.667  26.944  23.459  1.00  0.00     0.067 C 
ATOM      8  C   UNL A   1      34.262  22.188  25.048  1.00  0.00     0.030 A 
ATOM      9  C   UNL A   1      34.197  22.808  23.791  1.00  0.00     0.063 A 
ATOM     10  C   UNL A   1      34.126  22.989  26.196  1.00  0.00     0.055 A 
ATOM     11  C   UNL A   1      34.063  24.190  23.689  1.00  0.00     0.129 A 
ATOM     12  C   UNL A   1      34.043  24.386  26.084  1.00  0.00     0.033 A 
ATOM     13  Cl  UNL A   1      34.022  22.340  27.795  1.00  0.00    -0.083 Cl
ATOM     14  C   UNL A   1      34.026  24.991  24.828  1.00  0.00     0.019 A 
ATOM     15  O   UNL A   1      34.007  24.714  22.428  1.00  0.00    -0.475 OA
ATOM     16  C   UNL A   1      33.987  26.438  24.667  1.00  0.00     0.025 C 
ATOM     17  C   UNL A   1      33.332  26.003  22.334  1.00  0.00     0.314 C 
BRANCH   8  18
ATOM     18  S   UNL A   1      34.516  20.418  24.995  1.00  0.00    -0.124 SA
BRANCH  18  19
ATOM     19  C   UNL A   1      32.831  19.728  25.189  1.00  0.00     0.078 C 
BRANCH  19  20
ATOM     20  C   UNL A   1      32.528  18.334  24.605  1.00  0.00    -0.007 C 
ATOM     21  C   UNL A   1      33.472  17.878  23.493  1.00  0.00     0.008 C 
ATOM     22  C   UNL A   1      32.605  17.313  25.748  1.00  0.00     0.008 C 
ENDBRANCH  19  20
ENDBRANCH  18  19
ENDBRANCH   8  18
BRANCH  17  23
ATOM     23  C   UNL A   1      31.819  25.811  22.147  1.00  0.00     0.429 C 
ATOM     24  F   UNL A   1      31.499  24.563  21.739  1.00  0.00    -0.167 F 
ATOM     25  F   UNL A   1      31.135  26.039  23.291  1.00  0.00    -0.167 F 
ATOM     26  F   UNL A   1      31.345  26.681  21.222  1.00  0.00    -0.167 F 
ENDBRANCH  17  23
ENDBRANCH   4   7
ENDBRANCH   2   3
ENDBRANCH   1   2
BRANCH   1  27
ATOM     27  C   UNL A   1      32.997  29.612  26.596  1.00  0.00     0.118 C 
BRANCH  27  28
ATOM     28  N   UNL A   1      32.936  31.045  26.856  1.00  0.00    -0.352 N 
ATOM     29  C   UNL A   1      33.749  31.847  27.626  1.00  0.00     0.251 C 
ATOM     30  H   UNL A   1      32.196  31.515  26.409  1.00  0.00     0.163 HD
ATOM     31  O   UNL A   1      33.367  32.975  27.920  1.00  0.00    -0.269 OA
BRANCH  29  32
ATOM     32  C   UNL A   1      35.053  31.345  28.117  1.00  0.00     0.039 A 
ATOM     33  C   UNL A   1      35.181  30.042  28.593  1.00  0.00     0.014 A 
ATOM     34  C   UNL A   1      36.172  32.183  28.087  1.00  0.00     0.014 A 
ATOM     35  C   UNL A   1      36.352  29.647  29.227  1.00  0.00     0.010 A 
ATOM     36  C   UNL A   1      37.391  31.737  28.612  1.00  0.00     0.010 A 
ATOM     37  C   UNL A   1      37.481  30.482  29.235  1.00  0.00    -0.014 A 
BRANCH  37  38
ATOM     38  C   UNL A   1      38.740  30.004  29.872  1.00  0.00     0.031 A 
ATOM     39  C   UNL A   1      39.148  30.486  31.240  1.00  0.00     0.074 A 
ATOM     40  C   UNL A   1      39.494  29.089  29.227  1.00  0.00     0.049 A 
ATOM     41  N   UNL A   1      40.205  30.164  31.941  1.00  0.00    -0.248 NA
ATOM     42  C   UNL A   1      38.263  31.455  31.910  1.00  0.00     0.031 C 
ATOM     43  C   UNL A   1      39.194  28.544  27.901  1.00  0.00     0.029 A 
ATOM     44  N   UNL A   1      40.643  28.435  29.596  1.00  0.00    -0.354 N 
ATOM     45  C   UNL A   1      40.127  30.902  33.118  1.00  0.00     0.074 A 
ATOM     46  C   UNL A   1      38.935  31.715  33.025  1.00  0.00     0.031 C 
ATOM     47  C   UNL A   1      40.089  27.595  27.599  1.00  0.00     0.029 A 
ATOM     48  C   UNL A   1      41.086  27.525  28.662  1.00  0.00     0.049 A 
ATOM     49  H   UNL A   1      41.107  28.600  30.449  1.00  0.00     0.167 HD
ATOM     50  C   UNL A   1      40.964  30.885  34.182  1.00  0.00     0.034 A 
ATOM     51  C   UNL A   1      42.181  26.736  28.645  1.00  0.00     0.034 A 
ATOM     52  C   UNL A   1      42.127  30.039  34.273  1.00  0.00     0.049 A 
ATOM     53  C   UNL A   1      43.113  26.771  29.828  1.00  0.00     0.074 A 
ATOM     54  C   UNL A   1      43.015  29.926  35.329  1.00  0.00     0.029 A 
ATOM     55  N   UNL A   1      42.562  29.159  33.292  1.00  0.00    -0.354 N 
ATOM     56  N   UNL A   1      42.994  27.439  30.952  1.00  0.00    -0.248 NA
ATOM     57  C   UNL A   1      44.328  25.949  29.748  1.00  0.00     0.031 C 
ATOM     58  C   UNL A   1      44.026  29.042  34.958  1.00  0.00     0.029 A 
ATOM     59  C   UNL A   1      43.724  28.527  33.707  1.00  0.00     0.049 A 
ATOM     60  H   UNL A   1      42.112  29.006  32.430  1.00  0.00     0.167 HD
ATOM     61  C   UNL A   1      44.101  27.096  31.721  1.00  0.00     0.074 A 
ATOM     62  C   UNL A   1      44.862  26.136  30.948  1.00  0.00     0.031 C 
ATOM     63  C   UNL A   1      44.461  27.546  32.948  1.00  0.00     0.034 A 
BRANCH  50  64
ATOM     64  C   UNL A   1      40.677  31.779  35.365  1.00  0.00     0.023 A 
ATOM     65  C   UNL A   1      39.631  31.449  36.250  1.00  0.00     0.031 A 
ATOM     66  C   UNL A   1      41.295  33.033  35.505  1.00  0.00     0.131 A 
ATOM     67  C   UNL A   1      39.191  32.389  37.191  1.00  0.00     0.055 A 
ATOM     68  C   UNL A   1      40.885  33.947  36.478  1.00  0.00     0.041 A 
ATOM     69  F   UNL A   1      42.296  33.396  34.686  1.00  0.00    -0.206 F 
ATOM     70  C   UNL A   1      39.816  33.634  37.313  1.00  0.00     0.022 A 
BRANCH  67  71
ATOM     71  S   UNL A   1      37.734  32.070  38.222  1.00  0.00     0.124 S 
ATOM     72  O   UNL A   1      37.406  30.691  37.861  1.00  0.00    -0.237 OA
ATOM     73  O   UNL A   1      38.268  32.250  39.569  1.00  0.00    -0.237 OA
ATOM     74  O   UNL A   1      36.767  33.070  37.785  1.00  0.00    -0.744 OA
ENDBRANCH  67  71
ENDBRANCH  50  64
BRANCH  51  75
ATOM     75  C   UNL A   1      42.424  25.832  27.479  1.00  0.00     0.023 A 
ATOM     76  C   UNL A   1      41.892  24.529  27.446  1.00  0.00     0.031 A 
ATOM     77  C   UNL A   1      43.257  26.227  26.419  1.00  0.00     0.131 A 
ATOM     78  C   UNL A   1      42.256  23.650  26.419  1.00  0.00     0.055 A 
ATOM     79  C   UNL A   1      43.548  25.375  25.351  1.00  0.00     0.041 A 
ATOM     80  F   UNL A   1      43.802  27.453  26.407  1.00  0.00    -0.206 F 
ATOM     81  C   UNL A   1      43.061  24.072  25.357  1.00  0.00     0.022 A 
BRANCH  78  82
ATOM     82  S   UNL A   1      41.815  21.891  26.502  1.00  0.00     0.124 S 
ATOM     83  O   UNL A   1      42.270  21.527  27.839  1.00  0.00    -0.237 OA
ATOM     84  O   UNL A   1      40.365  21.938  26.319  1.00  0.00    -0.237 OA
ATOM     85  O   UNL A   1      42.558  21.297  25.396  1.00  0.00    -0.744 OA
ENDBRANCH  78  82
ENDBRANCH  51  75
BRANCH  63  86
ATOM     86  C   UNL A   1      45.723  27.007  33.579  1.00  0.00     0.023 A 
ATOM     87  C   UNL A   1      45.652  25.912  34.464  1.00  0.00     0.031 A 
ATOM     88  C   UNL A   1      46.955  27.669  33.440  1.00  0.00     0.131 A 
ATOM     89  C   UNL A   1      46.777  25.547  35.214  1.00  0.00     0.055 A 
ATOM     90  C   UNL A   1      48.089  27.262  34.144  1.00  0.00     0.041 A 
ATOM     91  F   UNL A   1      47.073  28.726  32.621  1.00  0.00    -0.206 F 
ATOM     92  C   UNL A   1      47.998  26.208  35.050  1.00  0.00     0.022 A 
BRANCH  89  93
ATOM     93  S   UNL A   1      46.669  24.276  36.503  1.00  0.00     0.124 S 
ATOM     94  O   UNL A   1      45.902  24.962  37.541  1.00  0.00    -0.237 OA
ATOM     95  O   UNL A   1      45.959  23.200  35.814  1.00  0.00    -0.237 OA
ATOM     96  O   UNL A   1      48.060  23.995  36.841  1.00  0.00    -0.744 OA
ENDBRANCH  89  93
ENDBRANCH  63  86
ENDBRANCH  37  38
ENDBRANCH  29  32
ENDBRANCH  27  28
ENDBRANCH   1  27
TORSDOF 17
ENDMDL
MODEL 2
REMARK VINA RESULT:     -12.2      5.124     10.013
REMARK SMILES CC(C)CSc1cc2c(cc1Cl)C=C(C(=O)NCCCNC(=O)c1ccc(-c3c4nc(c(-c5cc(S(=O)(=O)[O-])ccc5F)c5ccc([nH]5)c(-c5cc(S(=O)(=O)[O-])ccc5F)c5nc(c(-c6cc(S(=O)(=O)[O-])ccc6F)c6ccc3[nH]6)C=C5)C=C4)cc1)[C@H](C(F)(F)F)O2
REMARK SMILES IDX 19 1 18 2 17 3 15 4 16 5 14 7 6 8 7 9 11 10 8 11 10 12 12 13
REMARK SMILES IDX 9 14 92 15 13 16 87 17 5 18 4 19 2 20 1 21 3 22 88 23 89 24
REMARK SMILES IDX 90 25 91 26 20 27 21 28 22 29 23 31 24 32 25 33 86 34 26 35
REMARK SMILES IDX 85 36 27 37 28 38 29 39 79 40 30 41 84 42 78 43 80 44 31 45
REMARK SMILES IDX 83 46 77 47 76 48 32 50 64 51 44 52 63 53 45 54 48 55 62 56
REMARK SMILES IDX 81 57 46 58 47 59 61 61 82 62 49 63 33 64 34 65 42 66 35 67
REMARK SMILES IDX 41 68 43 69 40 70 36 71 37 72 38 73 39 74 65 75 66 76 74 77
REMARK SMILES IDX 67 78 73 79 75 80 72 81 68 82 69 83 70 84 71 85 50 86 51 87
REMARK SMILES IDX 59 88 52 89 58 90 60 91 57 92 53 93 54 94 55 95 56 96
REMARK H PARENT 17 6 21 30 80 49 48 60
REMARK Flexibility Score: inf
ROOT
ATOM      1  C   UNL A   1      36.272  22.037  24.416  1.00  0.00     0.042 C 
ENDROOT
BRANCH   1   2
ATOM      2  C   UNL A   1      35.163  21.025  24.674  1.00  0.00     0.118 C 
BRANCH   2   3
ATOM      3  N   UNL A   1      34.617  21.143  26.019  1.00  0.00    -0.352 N 
ATOM      4  C   UNL A   1      33.712  21.908  26.669  1.00  0.00     0.251 C 
ATOM      5  O   UNL A   1      33.493  21.572  27.838  1.00  0.00    -0.270 OA
ATOM      6  H   UNL A   1      35.022  20.481  26.624  1.00  0.00     0.163 HD
BRANCH   4   7
ATOM      7  C   UNL A   1      32.987  23.078  26.097  1.00  0.00     0.067 C 
ATOM      8  C   UNL A   1      31.707  27.721  24.582  1.00  0.00     0.030 A 
ATOM      9  C   UNL A   1      31.018  26.509  24.737  1.00  0.00     0.063 A 
ATOM     10  C   UNL A   1      33.081  27.752  24.877  1.00  0.00     0.055 A 
ATOM     11  C   UNL A   1      31.670  25.382  25.230  1.00  0.00     0.129 A 
ATOM     12  C   UNL A   1      33.718  26.626  25.421  1.00  0.00     0.033 A 
ATOM     13  Cl  UNL A   1      34.084  29.128  24.575  1.00  0.00    -0.083 Cl
ATOM     14  C   UNL A   1      33.008  25.441  25.614  1.00  0.00     0.019 A 
ATOM     15  O   UNL A   1      30.928  24.241  25.351  1.00  0.00    -0.475 OA
ATOM     16  C   UNL A   1      33.618  24.264  26.218  1.00  0.00     0.025 C 
ATOM     17  C   UNL A   1      31.700  23.005  25.320  1.00  0.00     0.314 C 
BRANCH   8  18
ATOM     18  S   UNL A   1      30.698  29.085  24.014  1.00  0.00    -0.124 SA
BRANCH  18  19
ATOM     19  C   UNL A   1      29.427  28.283  22.968  1.00  0.00     0.078 C 
BRANCH  19  20
ATOM     20  C   UNL A   1      28.092  29.016  22.729  1.00  0.00    -0.007 C 
ATOM     21  C   UNL A   1      26.884  28.409  23.441  1.00  0.00     0.008 C 
ATOM     22  C   UNL A   1      28.254  30.465  23.207  1.00  0.00     0.008 C 
ENDBRANCH  19  20
ENDBRANCH  18  19
ENDBRANCH   8  18
BRANCH  17  23
ATOM     23  C   UNL A   1      31.903  22.529  23.874  1.00  0.00     0.429 C 
ATOM     24  F   UNL A   1      33.047  22.995  23.326  1.00  0.00    -0.167 F 
ATOM     25  F   UNL A   1      31.945  21.180  23.787  1.00  0.00    -0.167 F 
ATOM     26  F   UNL A   1      30.875  22.942  23.094  1.00  0.00    -0.167 F 
ENDBRANCH  17  23
ENDBRANCH   4   7
ENDBRANCH   2   3
ENDBRANCH   1   2
BRANCH   1  27
ATOM     27  C   UNL A   1      37.066  22.367  25.675  1.00  0.00     0.118 C 
BRANCH  27  28
ATOM     28  N   UNL A   1      38.122  21.391  25.924  1.00  0.00    -0.352 N 
ATOM     29  C   UNL A   1      39.425  21.572  26.330  1.00  0.00     0.251 C 
ATOM     30  H   UNL A   1      37.860  20.454  25.779  1.00  0.00     0.163 HD
ATOM     31  O   UNL A   1      40.216  20.642  26.224  1.00  0.00    -0.269 OA
BRANCH  29  32
ATOM     32  C   UNL A   1      39.872  22.881  26.860  1.00  0.00     0.039 A 
ATOM     33  C   UNL A   1      39.331  24.069  26.373  1.00  0.00     0.014 A 
ATOM     34  C   UNL A   1      40.837  22.924  27.871  1.00  0.00     0.014 A 
ATOM     35  C   UNL A   1      39.893  25.287  26.736  1.00  0.00     0.010 A 
ATOM     36  C   UNL A   1      41.314  24.159  28.328  1.00  0.00     0.010 A 
ATOM     37  C   UNL A   1      40.883  25.353  27.728  1.00  0.00    -0.014 A 
BRANCH  37  38
ATOM     38  C   UNL A   1      41.424  26.681  28.136  1.00  0.00     0.031 A 
ATOM     39  C   UNL A   1      42.838  27.078  27.802  1.00  0.00     0.074 A 
ATOM     40  C   UNL A   1      40.610  27.553  28.770  1.00  0.00     0.049 A 
ATOM     41  N   UNL A   1      43.461  28.196  28.073  1.00  0.00    -0.248 NA
ATOM     42  C   UNL A   1      43.664  26.099  27.075  1.00  0.00     0.031 C 
ATOM     43  C   UNL A   1      39.219  27.280  29.137  1.00  0.00     0.029 A 
ATOM     44  N   UNL A   1      40.814  28.843  29.192  1.00  0.00    -0.354 N 
ATOM     45  C   UNL A   1      44.751  28.050  27.573  1.00  0.00     0.074 A 
ATOM     46  C   UNL A   1      44.835  26.721  27.011  1.00  0.00     0.031 C 
ATOM     47  C   UNL A   1      38.676  28.385  29.665  1.00  0.00     0.029 A 
ATOM     48  C   UNL A   1      39.701  29.419  29.764  1.00  0.00     0.049 A 
ATOM     49  H   UNL A   1      41.673  29.313  29.095  1.00  0.00     0.167 HD
ATOM     50  C   UNL A   1      45.763  28.950  27.571  1.00  0.00     0.034 A 
ATOM     51  C   UNL A   1      39.524  30.633  30.327  1.00  0.00     0.034 A 
ATOM     52  C   UNL A   1      45.649  30.285  28.103  1.00  0.00     0.049 A 
ATOM     53  C   UNL A   1      40.682  31.596  30.343  1.00  0.00     0.074 A 
ATOM     54  C   UNL A   1      46.610  31.281  28.111  1.00  0.00     0.029 A 
ATOM     55  N   UNL A   1      44.519  30.818  28.706  1.00  0.00    -0.354 N 
ATOM     56  N   UNL A   1      41.878  31.455  29.821  1.00  0.00    -0.248 NA
ATOM     57  C   UNL A   1      40.474  32.882  31.020  1.00  0.00     0.031 C 
ATOM     58  C   UNL A   1      46.091  32.383  28.786  1.00  0.00     0.029 A 
ATOM     59  C   UNL A   1      44.773  32.116  29.119  1.00  0.00     0.049 A 
ATOM     60  H   UNL A   1      43.664  30.344  28.822  1.00  0.00     0.167 HD
ATOM     61  C   UNL A   1      42.553  32.643  30.083  1.00  0.00     0.074 A 
ATOM     62  C   UNL A   1      41.621  33.505  30.780  1.00  0.00     0.031 C 
ATOM     63  C   UNL A   1      43.831  32.984  29.785  1.00  0.00     0.034 A 
BRANCH  50  64
ATOM     64  C   UNL A   1      47.092  28.569  26.965  1.00  0.00     0.023 A 
ATOM     65  C   UNL A   1      47.201  28.409  25.569  1.00  0.00     0.031 A 
ATOM     66  C   UNL A   1      48.180  28.181  27.765  1.00  0.00     0.131 A 
ATOM     67  C   UNL A   1      48.345  27.813  25.022  1.00  0.00     0.055 A 
ATOM     68  C   UNL A   1      49.339  27.633  27.210  1.00  0.00     0.041 A 
ATOM     69  F   UNL A   1      48.126  28.312  29.100  1.00  0.00    -0.206 F 
ATOM     70  C   UNL A   1      49.416  27.429  25.835  1.00  0.00     0.022 A 
BRANCH  67  71
ATOM     71  S   UNL A   1      48.445  27.426  23.253  1.00  0.00     0.124 S 
ATOM     72  O   UNL A   1      47.291  28.150  22.721  1.00  0.00    -0.237 OA
ATOM     73  O   UNL A   1      49.748  27.979  22.894  1.00  0.00    -0.237 OA
ATOM     74  O   UNL A   1      48.339  25.973  23.204  1.00  0.00    -0.744 OA
ENDBRANCH  67  71
ENDBRANCH  50  64
BRANCH  51  75
ATOM     75  C   UNL A   1      38.187  31.001  30.887  1.00  0.00     0.023 A 
ATOM     76  C   UNL A   1      37.215  31.635  30.091  1.00  0.00     0.031 A 
ATOM     77  C   UNL A   1      37.892  30.798  32.246  1.00  0.00     0.131 A 
ATOM     78  C   UNL A   1      36.031  32.106  30.673  1.00  0.00     0.055 A 
ATOM     79  C   UNL A   1      36.674  31.192  32.804  1.00  0.00     0.041 A 
ATOM     80  F   UNL A   1      38.789  30.211  33.053  1.00  0.00    -0.206 F 
ATOM     81  C   UNL A   1      35.743  31.866  32.020  1.00  0.00     0.022 A 
BRANCH  78  82
ATOM     82  S   UNL A   1      34.895  33.168  29.738  1.00  0.00     0.124 S 
ATOM     83  O   UNL A   1      35.811  34.111  29.106  1.00  0.00    -0.237 OA
ATOM     84  O   UNL A   1      34.259  32.206  28.839  1.00  0.00    -0.237 OA
ATOM     85  O   UNL A   1      34.020  33.725  30.765  1.00  0.00    -0.744 OA
ENDBRANCH  78  82
ENDBRANCH  51  75
BRANCH  63  86
ATOM     86  C   UNL A   1      44.330  34.354  30.177  1.00  0.00     0.023 A 
ATOM     87  C   UNL A   1      44.139  35.446  29.306  1.00  0.00     0.031 A 
ATOM     88  C   UNL A   1      45.127  34.548  31.317  1.00  0.00     0.131 A 
ATOM     89  C   UNL A   1      44.783  36.663  29.560  1.00  0.00     0.055 A 
ATOM     90  C   UNL A   1      45.716  35.781  31.600  1.00  0.00     0.041 A 
ATOM     91  F   UNL A   1      45.352  33.537  32.173  1.00  0.00    -0.206 F 
ATOM     92  C   UNL A   1      45.560  36.840  30.709  1.00  0.00     0.022 A 
BRANCH  89  93
ATOM     93  S   UNL A   1      44.722  38.022  28.361  1.00  0.00     0.124 S 
ATOM     94  O   UNL A   1      44.531  37.307  27.102  1.00  0.00    -0.237 OA
ATOM     95  O   UNL A   1      43.566  38.787  28.824  1.00  0.00    -0.237 OA
ATOM     96  O   UNL A   1      46.013  38.685  28.511  1.00  0.00    -0.744 OA
ENDBRANCH  89  93
ENDBRANCH  63  86
ENDBRANCH  37  38
ENDBRANCH  29  32
ENDBRANCH  27  28
ENDBRANCH   1  27
TORSDOF 17
ENDMDL
MODEL 3
REMARK VINA RESULT:     -12.1      2.701      8.156
REMARK SMILES CC(C)CSc1cc2c(cc1Cl)C=C(C(=O)NCCCNC(=O)c1ccc(-c3c4nc(c(-c5cc(S(=O)(=O)[O-])ccc5F)c5ccc([nH]5)c(-c5cc(S(=O)(=O)[O-])ccc5F)c5nc(c(-c6cc(S(=O)(=O)[O-])ccc6F)c6ccc3[nH]6)C=C5)C=C4)cc1)[C@H](C(F)(F)F)O2
REMARK SMILES IDX 19 1 18 2 17 3 15 4 16 5 14 7 6 8 7 9 11 10 8 11 10 12 12 13
REMARK SMILES IDX 9 14 92 15 13 16 87 17 5 18 4 19 2 20 1 21 3 22 88 23 89 24
REMARK SMILES IDX 90 25 91 26 20 27 21 28 22 29 23 31 24 32 25 33 86 34 26 35
REMARK SMILES IDX 85 36 27 37 28 38 29 39 79 40 30 41 84 42 78 43 80 44 31 45
REMARK SMILES IDX 83 46 77 47 76 48 32 50 64 51 44 52 63 53 45 54 48 55 62 56
REMARK SMILES IDX 81 57 46 58 47 59 61 61 82 62 49 63 33 64 34 65 42 66 35 67
REMARK SMILES IDX 41 68 43 69 40 70 36 71 37 72 38 73 39 74 65 75 66 76 74 77
REMARK SMILES IDX 67 78 73 79 75 80 72 81 68 82 69 83 70 84 71 85 50 86 51 87
REMARK SMILES IDX 59 88 52 89 58 90 60 91 57 92 53 93 54 94 55 95 56 96
REMARK H PARENT 17 6 21 30 80 49 48 60
REMARK Flexibility Score: inf
ROOT
ATOM      1  C   UNL A   1      31.649  32.260  26.647  1.00  0.00     0.042 C 
ENDROOT
BRANCH   1   2
ATOM      2  C   UNL A   1      31.714  30.753  26.433  1.00  0.00     0.118 C 
BRANCH   2   3
ATOM      3  N   UNL A   1      31.382  30.380  25.065  1.00  0.00    -0.352 N 
ATOM      4  C   UNL A   1      31.397  29.267  24.299  1.00  0.00     0.251 C 
ATOM      5  O   UNL A   1      30.914  29.407  23.169  1.00  0.00    -0.270 OA
ATOM      6  H   UNL A   1      31.056  31.157  24.556  1.00  0.00     0.163 HD
BRANCH   4   7
ATOM      7  C   UNL A   1      31.930  27.936  24.705  1.00  0.00     0.067 C 
ATOM      8  C   UNL A   1      32.436  23.298  26.635  1.00  0.00     0.030 A 
ATOM      9  C   UNL A   1      33.323  24.251  26.112  1.00  0.00     0.063 A 
ATOM     10  C   UNL A   1      31.064  23.602  26.658  1.00  0.00     0.055 A 
ATOM     11  C   UNL A   1      32.858  25.491  25.684  1.00  0.00     0.129 A 
ATOM     12  C   UNL A   1      30.611  24.874  26.273  1.00  0.00     0.033 A 
ATOM     13  Cl  UNL A   1      29.849  22.463  27.120  1.00  0.00    -0.083 Cl
ATOM     14  C   UNL A   1      31.511  25.827  25.799  1.00  0.00     0.019 A 
ATOM     15  O   UNL A   1      33.786  26.363  25.188  1.00  0.00    -0.475 OA
ATOM     16  C   UNL A   1      31.089  27.173  25.432  1.00  0.00     0.025 C 
ATOM     17  C   UNL A   1      33.253  27.363  24.272  1.00  0.00     0.314 C 
BRANCH   8  18
ATOM     18  S   UNL A   1      33.214  21.793  27.210  1.00  0.00    -0.124 SA
BRANCH  18  19
ATOM     19  C   UNL A   1      34.937  21.933  26.608  1.00  0.00     0.078 C 
BRANCH  19  20
ATOM     20  C   UNL A   1      35.364  21.107  25.378  1.00  0.00    -0.007 C 
ATOM     21  C   UNL A   1      34.307  20.139  24.848  1.00  0.00     0.008 C 
ATOM     22  C   UNL A   1      35.727  22.085  24.253  1.00  0.00     0.008 C 
ENDBRANCH  19  20
ENDBRANCH  18  19
ENDBRANCH   8  18
BRANCH  17  23
ATOM     23  C   UNL A   1      33.227  26.823  22.834  1.00  0.00     0.429 C 
ATOM     24  F   UNL A   1      33.510  27.772  21.914  1.00  0.00    -0.167 F 
ATOM     25  F   UNL A   1      34.118  25.822  22.653  1.00  0.00    -0.167 F 
ATOM     26  F   UNL A   1      32.003  26.319  22.542  1.00  0.00    -0.167 F 
ENDBRANCH  17  23
ENDBRANCH   4   7
ENDBRANCH   2   3
ENDBRANCH   1   2
BRANCH   1  27
ATOM     27  C   UNL A   1      32.856  32.794  27.411  1.00  0.00     0.118 C 
BRANCH  27  28
ATOM     28  N   UNL A   1      32.685  34.192  27.790  1.00  0.00    -0.352 N 
ATOM     29  C   UNL A   1      33.221  34.903  28.840  1.00  0.00     0.251 C 
ATOM     30  H   UNL A   1      32.093  34.710  27.199  1.00  0.00     0.163 HD
ATOM     31  O   UNL A   1      32.742  35.994  29.127  1.00  0.00    -0.269 OA
BRANCH  29  32
ATOM     32  C   UNL A   1      34.342  34.343  29.632  1.00  0.00     0.039 A 
ATOM     33  C   UNL A   1      35.662  34.529  29.227  1.00  0.00     0.014 A 
ATOM     34  C   UNL A   1      34.072  33.634  30.806  1.00  0.00     0.014 A 
ATOM     35  C   UNL A   1      36.686  33.841  29.865  1.00  0.00     0.010 A 
ATOM     36  C   UNL A   1      35.122  33.044  31.522  1.00  0.00     0.010 A 
ATOM     37  C   UNL A   1      36.436  33.098  31.030  1.00  0.00    -0.014 A 
BRANCH  37  38
ATOM     38  C   UNL A   1      37.567  32.419  31.722  1.00  0.00     0.031 A 
ATOM     39  C   UNL A   1      38.340  31.317  31.048  1.00  0.00     0.074 A 
ATOM     40  C   UNL A   1      37.927  32.840  32.954  1.00  0.00     0.049 A 
ATOM     41  N   UNL A   1      39.355  30.630  31.504  1.00  0.00    -0.248 NA
ATOM     42  C   UNL A   1      37.924  30.930  29.688  1.00  0.00     0.031 C 
ATOM     43  C   UNL A   1      37.256  33.905  33.703  1.00  0.00     0.029 A 
ATOM     44  N   UNL A   1      38.951  32.453  33.782  1.00  0.00    -0.354 N 
ATOM     45  C   UNL A   1      39.685  29.718  30.505  1.00  0.00     0.074 A 
ATOM     46  C   UNL A   1      38.740  29.916  29.429  1.00  0.00     0.031 C 
ATOM     47  C   UNL A   1      37.923  34.132  34.842  1.00  0.00     0.029 A 
ATOM     48  C   UNL A   1      39.013  33.169  34.957  1.00  0.00     0.049 A 
ATOM     49  H   UNL A   1      39.583  31.731  33.558  1.00  0.00     0.167 HD
ATOM     50  C   UNL A   1      40.693  28.815  30.486  1.00  0.00     0.034 A 
ATOM     51  C   UNL A   1      39.835  33.055  36.021  1.00  0.00     0.034 A 
ATOM     52  C   UNL A   1      41.649  28.659  31.553  1.00  0.00     0.049 A 
ATOM     53  C   UNL A   1      40.922  32.012  35.983  1.00  0.00     0.074 A 
ATOM     54  C   UNL A   1      42.729  27.794  31.606  1.00  0.00     0.029 A 
ATOM     55  N   UNL A   1      41.656  29.376  32.740  1.00  0.00    -0.354 N 
ATOM     56  N   UNL A   1      41.246  31.195  35.009  1.00  0.00    -0.248 NA
ATOM     57  C   UNL A   1      41.757  31.872  37.183  1.00  0.00     0.031 C 
ATOM     58  C   UNL A   1      43.339  27.932  32.851  1.00  0.00     0.029 A 
ATOM     59  C   UNL A   1      42.701  28.948  33.544  1.00  0.00     0.049 A 
ATOM     60  H   UNL A   1      41.014  30.084  32.976  1.00  0.00     0.167 HD
ATOM     61  C   UNL A   1      42.338  30.465  35.468  1.00  0.00     0.074 A 
ATOM     62  C   UNL A   1      42.640  30.961  36.795  1.00  0.00     0.031 C 
ATOM     63  C   UNL A   1      43.019  29.468  34.852  1.00  0.00     0.034 A 
BRANCH  50  64
ATOM     64  C   UNL A   1      40.864  27.921  29.281  1.00  0.00     0.023 A 
ATOM     65  C   UNL A   1      41.864  28.212  28.333  1.00  0.00     0.031 A 
ATOM     66  C   UNL A   1      39.931  26.915  28.975  1.00  0.00     0.131 A 
ATOM     67  C   UNL A   1      41.867  27.553  27.097  1.00  0.00     0.055 A 
ATOM     68  C   UNL A   1      39.969  26.226  27.761  1.00  0.00     0.041 A 
ATOM     69  F   UNL A   1      38.958  26.600  29.844  1.00  0.00    -0.206 F 
ATOM     70  C   UNL A   1      40.929  26.558  26.808  1.00  0.00     0.022 A 
BRANCH  67  71
ATOM     71  S   UNL A   1      43.026  28.028  25.785  1.00  0.00     0.124 S 
ATOM     72  O   UNL A   1      42.133  28.192  24.639  1.00  0.00    -0.237 OA
ATOM     73  O   UNL A   1      43.594  29.265  26.313  1.00  0.00    -0.237 OA
ATOM     74  O   UNL A   1      43.942  26.897  25.698  1.00  0.00    -0.744 OA
ENDBRANCH  67  71
ENDBRANCH  50  64
BRANCH  51  75
ATOM     75  C   UNL A   1      39.670  33.977  37.186  1.00  0.00     0.023 A 
ATOM     76  C   UNL A   1      39.132  33.520  38.405  1.00  0.00     0.031 A 
ATOM     77  C   UNL A   1      39.970  35.345  37.075  1.00  0.00     0.131 A 
ATOM     78  C   UNL A   1      38.846  34.430  39.430  1.00  0.00     0.055 A 
ATOM     79  C   UNL A   1      39.764  36.235  38.132  1.00  0.00     0.041 A 
ATOM     80  F   UNL A   1      40.471  35.836  35.932  1.00  0.00    -0.206 F 
ATOM     81  C   UNL A   1      39.182  35.781  39.311  1.00  0.00     0.022 A 
BRANCH  78  82
ATOM     82  S   UNL A   1      37.900  33.915  40.891  1.00  0.00     0.124 S 
ATOM     83  O   UNL A   1      36.822  33.135  40.295  1.00  0.00    -0.237 OA
ATOM     84  O   UNL A   1      38.897  33.149  41.637  1.00  0.00    -0.237 OA
ATOM     85  O   UNL A   1      37.504  35.178  41.507  1.00  0.00    -0.744 OA
ENDBRANCH  78  82
ENDBRANCH  51  75
BRANCH  63  86
ATOM     86  C   UNL A   1      44.187  28.832  35.570  1.00  0.00     0.023 A 
ATOM     87  C   UNL A   1      43.975  27.715  36.402  1.00  0.00     0.031 A 
ATOM     88  C   UNL A   1      45.462  29.423  35.564  1.00  0.00     0.131 A 
ATOM     89  C   UNL A   1      45.005  27.258  37.233  1.00  0.00     0.055 A 
ATOM     90  C   UNL A   1      46.503  28.925  36.348  1.00  0.00     0.041 A 
ATOM     91  F   UNL A   1      45.713  30.497  34.800  1.00  0.00    -0.206 F 
ATOM     92  C   UNL A   1      46.271  27.849  37.201  1.00  0.00     0.022 A 
BRANCH  89  93
ATOM     93  S   UNL A   1      44.709  25.953  38.458  1.00  0.00     0.124 S 
ATOM     94  O   UNL A   1      46.063  25.469  38.717  1.00  0.00    -0.237 OA
ATOM     95  O   UNL A   1      44.093  26.697  39.555  1.00  0.00    -0.237 OA
ATOM     96  O   UNL A   1      43.833  25.012  37.768  1.00  0.00    -0.744 OA
ENDBRANCH  89  93
ENDBRANCH  63  86
ENDBRANCH  37  38
ENDBRANCH  29  32
ENDBRANCH  27  28
ENDBRANCH   1  27
TORSDOF 17
ENDMDL
