MODEL 1
REMARK VINA RESULT:     -11.3      0.000      0.000
REMARK SMILES Cc1ccc(S(=O)(=O)Nc2ccc(C(=O)CCC(=O)NCCCNC(=O)c3ccc(-c4c5nc(c(-c6cc(S(=O)(=O)[O-])ccc6F)c6ccc([nH]6)c(-c6cc(S(=O)(=O)[O-])ccc6F)c6nc(c(-c7cc(S(=O)(=O)[O-])ccc7F)c7ccc4[nH]7)C=C6)C=C5)cc3)cc2)c(C)c1
REMARK SMILES IDX 18 1 19 2 20 3 17 5 16 6 14 7 15 8 13 9 10 10 11 11 91 12
REMARK SMILES IDX 12 13 90 14 9 15 6 17 7 18 8 19 5 20 1 21 2 22 3 23 94 24
REMARK SMILES IDX 4 25 92 26 93 27 21 28 22 29 23 30 24 31 25 32 26 34 27 35
REMARK SMILES IDX 28 36 89 37 29 38 88 39 30 40 31 41 32 42 82 43 33 44 87 45
REMARK SMILES IDX 81 46 83 47 34 48 86 49 80 50 79 51 35 53 67 54 47 55 66 56
REMARK SMILES IDX 48 57 51 58 65 59 84 60 49 61 50 62 64 64 85 65 52 66 36 67
REMARK SMILES IDX 37 68 45 69 38 70 44 71 46 72 43 73 39 74 40 75 41 76 42 77
REMARK SMILES IDX 68 78 69 79 77 80 70 81 76 82 78 83 75 84 71 85 72 86 73 87
REMARK SMILES IDX 74 88 53 89 54 90 62 91 55 92 61 93 63 94 60 95 56 96 57 97
REMARK SMILES IDX 58 98 59 99
REMARK H PARENT 20 4 9 16 24 33 83 52 51 63
REMARK Flexibility Score: inf
ROOT
ATOM      1  C   UNL A   1      32.878  36.831  31.968  1.00  0.00     0.220 C 
ATOM      2  O   UNL A   1      31.954  36.793  32.781  1.00  0.00    -0.275 OA
ATOM      3  N   UNL A   1      32.560  36.913  30.633  1.00  0.00    -0.356 N 
ATOM      4  H   UNL A   1      31.655  37.238  30.419  1.00  0.00     0.163 HD
ENDROOT
BRANCH   1   5
ATOM      5  C   UNL A   1      34.348  36.781  32.431  1.00  0.00     0.108 C 
BRANCH   5   6
ATOM      6  C   UNL A   1      34.728  35.594  33.368  1.00  0.00     0.091 C 
BRANCH   6   7
ATOM      7  C   UNL A   1      34.802  34.178  32.713  1.00  0.00     0.163 C 
ATOM      8  O   UNL A   1      33.802  33.502  32.499  1.00  0.00    -0.294 OA
BRANCH   7   9
ATOM      9  C   UNL A   1      36.163  33.512  32.573  1.00  0.00     0.018 A 
ATOM     10  C   UNL A   1      39.583  34.419  31.723  1.00  0.00     0.049 A 
ATOM     11  C   UNL A   1      38.971  34.600  33.456  1.00  0.00     0.027 A 
ATOM     12  C   UNL A   1      38.473  33.782  30.465  1.00  0.00     0.027 A 
ATOM     13  C   UNL A   1      37.290  34.084  33.880  1.00  0.00     0.014 A 
ATOM     14  C   UNL A   1      36.775  33.315  30.903  1.00  0.00     0.014 A 
BRANCH  10  15
ATOM     15  N   UNL A   1      41.007  34.208  31.586  1.00  0.00    -0.280 N 
ATOM     16  H   UNL A   1      41.474  33.700  32.288  1.00  0.00     0.180 HD
BRANCH  15  17
ATOM     17  S   UNL A   1      41.913  34.792  30.281  1.00  0.00     0.262 S 
ATOM     18  O   UNL A   1      42.980  35.615  30.807  1.00  0.00    -0.201 OA
ATOM     19  O   UNL A   1      40.958  35.310  29.328  1.00  0.00    -0.201 OA
BRANCH  17  20
ATOM     20  C   UNL A   1      42.640  33.349  29.553  1.00  0.00     0.090 A 
ATOM     21  C   UNL A   1      45.436  30.179  28.998  1.00  0.00     0.044 C 
ATOM     22  C   UNL A   1      44.395  31.250  29.093  1.00  0.00    -0.051 A 
ATOM     23  C   UNL A   1      43.312  31.073  29.951  1.00  0.00     0.005 A 
ATOM     24  C   UNL A   1      44.471  32.415  28.317  1.00  0.00     0.008 A 
ATOM     25  C   UNL A   1      42.416  32.113  30.157  1.00  0.00     0.023 A 
ATOM     26  C   UNL A   1      43.588  33.484  28.532  1.00  0.00    -0.030 A 
ATOM     27  C   UNL A   1      43.588  34.654  27.587  1.00  0.00     0.046 C 
ENDBRANCH  17  20
ENDBRANCH  15  17
ENDBRANCH  10  15
ENDBRANCH   7   9
ENDBRANCH   6   7
ENDBRANCH   5   6
ENDBRANCH   1   5
BRANCH   3  28
ATOM     28  C   UNL A   1      33.416  36.570  29.488  1.00  0.00     0.117 C 
BRANCH  28  29
ATOM     29  C   UNL A   1      33.446  34.920  29.391  1.00  0.00     0.042 C 
BRANCH  29  30
ATOM     30  C   UNL A   1      34.606  33.330  28.449  1.00  0.00     0.118 C 
BRANCH  30  31
ATOM     31  N   UNL A   1      34.048  31.932  27.736  1.00  0.00    -0.352 N 
ATOM     32  C   UNL A   1      34.447  30.684  27.438  1.00  0.00     0.251 C 
ATOM     33  H   UNL A   1      33.120  32.063  27.434  1.00  0.00     0.163 HD
ATOM     34  O   UNL A   1      33.698  30.021  26.720  1.00  0.00    -0.269 OA
BRANCH  32  35
ATOM     35  C   UNL A   1      35.658  30.109  27.963  1.00  0.00     0.039 A 
ATOM     36  C   UNL A   1      35.575  29.549  29.242  1.00  0.00     0.014 A 
ATOM     37  C   UNL A   1      36.864  30.260  27.284  1.00  0.00     0.014 A 
ATOM     38  C   UNL A   1      36.729  29.118  29.847  1.00  0.00     0.010 A 
ATOM     39  C   UNL A   1      38.005  29.749  27.851  1.00  0.00     0.010 A 
ATOM     40  C   UNL A   1      37.931  29.203  29.136  1.00  0.00    -0.014 A 
BRANCH  40  41
ATOM     41  C   UNL A   1      39.162  28.724  29.746  1.00  0.00     0.031 A 
ATOM     42  C   UNL A   1      39.648  29.401  30.980  1.00  0.00     0.074 A 
ATOM     43  C   UNL A   1      39.800  27.740  29.097  1.00  0.00     0.049 A 
ATOM     44  N   UNL A   1      40.747  29.194  31.646  1.00  0.00    -0.248 NA
ATOM     45  C   UNL A   1      38.813  30.495  31.510  1.00  0.00     0.031 C 
ATOM     46  C   UNL A   1      39.337  27.117  27.849  1.00  0.00     0.029 A 
ATOM     47  N   UNL A   1      40.958  27.090  29.383  1.00  0.00    -0.354 N 
ATOM     48  C   UNL A   1      40.745  30.141  32.663  1.00  0.00     0.074 A 
ATOM     49  C   UNL A   1      39.579  30.972  32.478  1.00  0.00     0.031 C 
ATOM     50  C   UNL A   1      40.187  26.140  27.504  1.00  0.00     0.029 A 
ATOM     51  C   UNL A   1      41.267  26.107  28.477  1.00  0.00     0.049 A 
ATOM     52  H   UNL A   1      41.519  27.304  30.164  1.00  0.00     0.167 HD
ATOM     53  C   UNL A   1      41.642  30.262  33.669  1.00  0.00     0.034 A 
ATOM     54  C   UNL A   1      42.319  25.275  28.465  1.00  0.00     0.034 A 
ATOM     55  C   UNL A   1      42.775  29.376  33.774  1.00  0.00     0.049 A 
ATOM     56  C   UNL A   1      43.279  25.406  29.615  1.00  0.00     0.074 A 
ATOM     57  C   UNL A   1      43.768  29.337  34.731  1.00  0.00     0.029 A 
ATOM     58  N   UNL A   1      43.054  28.354  32.865  1.00  0.00    -0.354 N 
ATOM     59  N   UNL A   1      43.264  26.277  30.602  1.00  0.00    -0.248 NA
ATOM     60  C   UNL A   1      44.369  24.436  29.674  1.00  0.00     0.031 C 
ATOM     61  C   UNL A   1      44.673  28.331  34.370  1.00  0.00     0.029 A 
ATOM     62  C   UNL A   1      44.206  27.686  33.232  1.00  0.00     0.049 A 
ATOM     63  H   UNL A   1      42.507  28.139  32.074  1.00  0.00     0.167 HD
ATOM     64  C   UNL A   1      44.329  25.940  31.424  1.00  0.00     0.074 A 
ATOM     65  C   UNL A   1      44.946  24.771  30.819  1.00  0.00     0.031 C 
ATOM     66  C   UNL A   1      44.769  26.529  32.569  1.00  0.00     0.034 A 
BRANCH  53  67
ATOM     67  C   UNL A   1      41.430  31.382  34.659  1.00  0.00     0.023 A 
ATOM     68  C   UNL A   1      40.383  31.352  35.602  1.00  0.00     0.031 A 
ATOM     69  C   UNL A   1      42.232  32.535  34.617  1.00  0.00     0.131 A 
ATOM     70  C   UNL A   1      40.108  32.480  36.390  1.00  0.00     0.055 A 
ATOM     71  C   UNL A   1      42.009  33.622  35.467  1.00  0.00     0.041 A 
ATOM     72  F   UNL A   1      43.226  32.645  33.722  1.00  0.00    -0.206 F 
ATOM     73  C   UNL A   1      40.931  33.607  36.348  1.00  0.00     0.022 A 
BRANCH  70  74
ATOM     74  S   UNL A   1      38.566  32.517  37.346  1.00  0.00     0.124 S 
ATOM     75  O   UNL A   1      37.789  31.468  36.692  1.00  0.00    -0.237 OA
ATOM     76  O   UNL A   1      39.025  32.223  38.699  1.00  0.00    -0.237 OA
ATOM     77  O   UNL A   1      38.066  33.875  37.139  1.00  0.00    -0.744 OA
ENDBRANCH  70  74
ENDBRANCH  53  67
BRANCH  54  78
ATOM     78  C   UNL A   1      42.460  24.255  27.393  1.00  0.00     0.023 A 
ATOM     79  C   UNL A   1      41.697  23.079  27.416  1.00  0.00     0.031 A 
ATOM     80  C   UNL A   1      43.339  24.448  26.311  1.00  0.00     0.131 A 
ATOM     81  C   UNL A   1      41.859  22.118  26.406  1.00  0.00     0.055 A 
ATOM     82  C   UNL A   1      43.457  23.514  25.279  1.00  0.00     0.041 A 
ATOM     83  F   UNL A   1      44.075  25.567  26.223  1.00  0.00    -0.206 F 
ATOM     84  C   UNL A   1      42.724  22.333  25.330  1.00  0.00     0.022 A 
BRANCH  81  85
ATOM     85  S   UNL A   1      40.978  20.542  26.565  1.00  0.00     0.124 S 
ATOM     86  O   UNL A   1      40.821  20.433  28.010  1.00  0.00    -0.237 OA
ATOM     87  O   UNL A   1      39.759  20.800  25.804  1.00  0.00    -0.237 OA
ATOM     88  O   UNL A   1      41.896  19.578  25.962  1.00  0.00    -0.744 OA
ENDBRANCH  81  85
ENDBRANCH  54  78
BRANCH  66  89
ATOM     89  C   UNL A   1      45.946  25.868  33.231  1.00  0.00     0.023 A 
ATOM     90  C   UNL A   1      47.257  26.104  32.791  1.00  0.00     0.031 A 
ATOM     91  C   UNL A   1      45.744  24.979  34.300  1.00  0.00     0.131 A 
ATOM     92  C   UNL A   1      48.315  25.392  33.366  1.00  0.00     0.055 A 
ATOM     93  C   UNL A   1      46.810  24.336  34.922  1.00  0.00     0.041 A 
ATOM     94  F   UNL A   1      44.506  24.724  34.753  1.00  0.00    -0.206 F 
ATOM     95  C   UNL A   1      48.104  24.526  34.443  1.00  0.00     0.022 A 
BRANCH  92  96
ATOM     96  S   UNL A   1      49.951  25.519  32.598  1.00  0.00     0.124 S 
ATOM     97  O   UNL A   1      50.381  24.123  32.576  1.00  0.00    -0.237 OA
ATOM     98  O   UNL A   1      49.642  26.110  31.301  1.00  0.00    -0.237 OA
ATOM     99  O   UNL A   1      50.692  26.382  33.515  1.00  0.00    -0.744 OA
ENDBRANCH  92  96
ENDBRANCH  66  89
ENDBRANCH  40  41
ENDBRANCH  32  35
ENDBRANCH  30  31
ENDBRANCH  29  30
ENDBRANCH  28  29
ENDBRANCH   3  28
TORSDOF 19
ENDMDL
MODEL 2
REMARK VINA RESULT:     -11.2      4.695      8.465
REMARK SMILES Cc1ccc(S(=O)(=O)Nc2ccc(C(=O)CCC(=O)NCCCNC(=O)c3ccc(-c4c5nc(c(-c6cc(S(=O)(=O)[O-])ccc6F)c6ccc([nH]6)c(-c6cc(S(=O)(=O)[O-])ccc6F)c6nc(c(-c7cc(S(=O)(=O)[O-])ccc7F)c7ccc4[nH]7)C=C6)C=C5)cc3)cc2)c(C)c1
REMARK SMILES IDX 18 1 19 2 20 3 17 5 16 6 14 7 15 8 13 9 10 10 11 11 91 12
REMARK SMILES IDX 12 13 90 14 9 15 6 17 7 18 8 19 5 20 1 21 2 22 3 23 94 24
REMARK SMILES IDX 4 25 92 26 93 27 21 28 22 29 23 30 24 31 25 32 26 34 27 35
REMARK SMILES IDX 28 36 89 37 29 38 88 39 30 40 31 41 32 42 82 43 33 44 87 45
REMARK SMILES IDX 81 46 83 47 34 48 86 49 80 50 79 51 35 53 67 54 47 55 66 56
REMARK SMILES IDX 48 57 51 58 65 59 84 60 49 61 50 62 64 64 85 65 52 66 36 67
REMARK SMILES IDX 37 68 45 69 38 70 44 71 46 72 43 73 39 74 40 75 41 76 42 77
REMARK SMILES IDX 68 78 69 79 77 80 70 81 76 82 78 83 75 84 71 85 72 86 73 87
REMARK SMILES IDX 74 88 53 89 54 90 62 91 55 92 61 93 63 94 60 95 56 96 57 97
REMARK SMILES IDX 58 98 59 99
REMARK H PARENT 20 4 9 16 24 33 83 52 51 63
REMARK Flexibility Score: inf
ROOT
ATOM      1  C   UNL A   1      32.941  29.306  26.158  1.00  0.00     0.220 C 
ATOM      2  O   UNL A   1      34.150  29.099  26.043  1.00  0.00    -0.275 OA
ATOM      3  N   UNL A   1      32.332  30.109  25.223  1.00  0.00    -0.356 N 
ATOM      4  H   UNL A   1      32.808  30.221  24.367  1.00  0.00     0.163 HD
ENDROOT
BRANCH   1   5
ATOM      5  C   UNL A   1      32.135  28.689  27.319  1.00  0.00     0.108 C 
BRANCH   5   6
ATOM      6  C   UNL A   1      31.191  27.508  26.942  1.00  0.00     0.091 C 
BRANCH   6   7
ATOM      7  C   UNL A   1      31.172  27.073  25.442  1.00  0.00     0.163 C 
ATOM      8  O   UNL A   1      30.442  27.608  24.614  1.00  0.00    -0.294 OA
BRANCH   7   9
ATOM      9  C   UNL A   1      31.885  25.788  25.049  1.00  0.00     0.018 A 
ATOM     10  C   UNL A   1      32.764  22.579  26.523  1.00  0.00     0.049 A 
ATOM     11  C   UNL A   1      31.106  22.830  25.748  1.00  0.00     0.027 A 
ATOM     12  C   UNL A   1      33.940  23.936  26.532  1.00  0.00     0.027 A 
ATOM     13  C   UNL A   1      30.705  24.407  24.959  1.00  0.00     0.014 A 
ATOM     14  C   UNL A   1      33.497  25.526  25.778  1.00  0.00     0.014 A 
BRANCH  10  15
ATOM     15  N   UNL A   1      33.252  21.219  26.522  1.00  0.00    -0.280 N 
ATOM     16  H   UNL A   1      32.906  20.597  27.203  1.00  0.00     0.180 HD
BRANCH  15  17
ATOM     17  S   UNL A   1      34.390  20.638  25.411  1.00  0.00     0.262 S 
ATOM     18  O   UNL A   1      34.058  19.264  25.104  1.00  0.00    -0.201 OA
ATOM     19  O   UNL A   1      35.685  21.004  25.935  1.00  0.00    -0.201 OA
BRANCH  17  20
ATOM     20  C   UNL A   1      34.130  21.605  23.950  1.00  0.00     0.090 A 
ATOM     21  C   UNL A   1      32.843  24.891  21.557  1.00  0.00     0.044 C 
ATOM     22  C   UNL A   1      33.333  23.683  22.292  1.00  0.00    -0.051 A 
ATOM     23  C   UNL A   1      34.599  23.706  22.874  1.00  0.00     0.005 A 
ATOM     24  C   UNL A   1      32.558  22.519  22.386  1.00  0.00     0.008 A 
ATOM     25  C   UNL A   1      35.009  22.651  23.678  1.00  0.00     0.023 A 
ATOM     26  C   UNL A   1      32.948  21.457  23.215  1.00  0.00    -0.030 A 
ATOM     27  C   UNL A   1      32.184  20.161  23.178  1.00  0.00     0.046 C 
ENDBRANCH  17  20
ENDBRANCH  15  17
ENDBRANCH  10  15
ENDBRANCH   7   9
ENDBRANCH   6   7
ENDBRANCH   5   6
ENDBRANCH   1   5
BRANCH   3  28
ATOM     28  C   UNL A   1      31.052  30.820  25.353  1.00  0.00     0.117 C 
BRANCH  28  29
ATOM     29  C   UNL A   1      31.302  32.063  26.414  1.00  0.00     0.042 C 
BRANCH  29  30
ATOM     30  C   UNL A   1      32.924  32.980  27.550  1.00  0.00     0.118 C 
BRANCH  30  31
ATOM     31  N   UNL A   1      32.886  34.382  28.448  1.00  0.00    -0.352 N 
ATOM     32  C   UNL A   1      33.424  34.926  29.554  1.00  0.00     0.251 C 
ATOM     33  H   UNL A   1      32.267  35.025  28.032  1.00  0.00     0.163 HD
ATOM     34  O   UNL A   1      32.942  35.992  29.936  1.00  0.00    -0.269 OA
BRANCH  32  35
ATOM     35  C   UNL A   1      34.543  34.337  30.244  1.00  0.00     0.039 A 
ATOM     36  C   UNL A   1      35.812  34.666  29.759  1.00  0.00     0.014 A 
ATOM     37  C   UNL A   1      34.338  33.374  31.229  1.00  0.00     0.014 A 
ATOM     38  C   UNL A   1      36.904  34.022  30.286  1.00  0.00     0.010 A 
ATOM     39  C   UNL A   1      35.434  32.796  31.818  1.00  0.00     0.010 A 
ATOM     40  C   UNL A   1      36.706  33.108  31.326  1.00  0.00    -0.014 A 
BRANCH  40  41
ATOM     41  C   UNL A   1      37.852  32.436  31.920  1.00  0.00     0.031 A 
ATOM     42  C   UNL A   1      38.317  32.886  33.261  1.00  0.00     0.074 A 
ATOM     43  C   UNL A   1      38.441  31.496  31.167  1.00  0.00     0.049 A 
ATOM     44  N   UNL A   1      39.351  32.487  33.942  1.00  0.00    -0.248 NA
ATOM     45  C   UNL A   1      37.548  33.970  33.901  1.00  0.00     0.031 C 
ATOM     46  C   UNL A   1      38.003  31.097  29.822  1.00  0.00     0.029 A 
ATOM     47  N   UNL A   1      39.519  30.706  31.414  1.00  0.00    -0.354 N 
ATOM     48  C   UNL A   1      39.368  33.279  35.083  1.00  0.00     0.074 A 
ATOM     49  C   UNL A   1      38.291  34.234  34.963  1.00  0.00     0.031 C 
ATOM     50  C   UNL A   1      38.786  30.103  29.383  1.00  0.00     0.029 A 
ATOM     51  C   UNL A   1      39.797  29.834  30.392  1.00  0.00     0.049 A 
ATOM     52  H   UNL A   1      40.047  30.756  32.243  1.00  0.00     0.167 HD
ATOM     53  C   UNL A   1      40.208  33.175  36.139  1.00  0.00     0.034 A 
ATOM     54  C   UNL A   1      40.772  28.916  30.312  1.00  0.00     0.034 A 
ATOM     55  C   UNL A   1      41.253  32.180  36.170  1.00  0.00     0.049 A 
ATOM     56  C   UNL A   1      41.668  28.796  31.514  1.00  0.00     0.074 A 
ATOM     57  C   UNL A   1      42.177  31.916  37.159  1.00  0.00     0.029 A 
ATOM     58  N   UNL A   1      41.498  31.273  35.138  1.00  0.00    -0.354 N 
ATOM     59  N   UNL A   1      41.667  29.520  32.614  1.00  0.00    -0.248 NA
ATOM     60  C   UNL A   1      42.665  27.729  31.486  1.00  0.00     0.031 C 
ATOM     61  C   UNL A   1      43.013  30.890  36.702  1.00  0.00     0.029 A 
ATOM     62  C   UNL A   1      42.564  30.455  35.461  1.00  0.00     0.049 A 
ATOM     63  H   UNL A   1      40.984  31.222  34.299  1.00  0.00     0.167 HD
ATOM     64  C   UNL A   1      42.647  28.973  33.430  1.00  0.00     0.074 A 
ATOM     65  C   UNL A   1      43.197  27.846  32.694  1.00  0.00     0.031 C 
ATOM     66  C   UNL A   1      43.065  29.353  34.668  1.00  0.00     0.034 A 
BRANCH  53  67
ATOM     67  C   UNL A   1      40.034  34.162  37.269  1.00  0.00     0.023 A 
ATOM     68  C   UNL A   1      39.482  33.781  38.508  1.00  0.00     0.031 A 
ATOM     69  C   UNL A   1      40.346  35.519  37.087  1.00  0.00     0.131 A 
ATOM     70  C   UNL A   1      39.174  34.752  39.473  1.00  0.00     0.055 A 
ATOM     71  C   UNL A   1      40.120  36.470  38.087  1.00  0.00     0.041 A 
ATOM     72  F   UNL A   1      40.844  35.957  35.920  1.00  0.00    -0.206 F 
ATOM     73  C   UNL A   1      39.514  36.092  39.282  1.00  0.00     0.022 A 
BRANCH  70  74
ATOM     74  S   UNL A   1      38.174  34.265  40.908  1.00  0.00     0.124 S 
ATOM     75  O   UNL A   1      39.142  33.508  41.697  1.00  0.00    -0.237 OA
ATOM     76  O   UNL A   1      37.766  35.551  41.460  1.00  0.00    -0.237 OA
ATOM     77  O   UNL A   1      37.098  33.468  40.321  1.00  0.00    -0.744 OA
ENDBRANCH  70  74
ENDBRANCH  53  67
BRANCH  54  78
ATOM     78  C   UNL A   1      40.891  28.046  29.112  1.00  0.00     0.023 A 
ATOM     79  C   UNL A   1      41.891  28.273  28.156  1.00  0.00     0.031 A 
ATOM     80  C   UNL A   1      40.027  26.953  28.912  1.00  0.00     0.131 A 
ATOM     81  C   UNL A   1      41.976  27.453  27.021  1.00  0.00     0.055 A 
ATOM     82  C   UNL A   1      40.149  26.107  27.808  1.00  0.00     0.041 A 
ATOM     83  F   UNL A   1      39.067  26.672  29.808  1.00  0.00    -0.206 F 
ATOM     84  C   UNL A   1      41.120  26.364  26.846  1.00  0.00     0.022 A 
BRANCH  81  85
ATOM     85  S   UNL A   1      43.174  27.886  25.732  1.00  0.00     0.124 S 
ATOM     86  O   UNL A   1      43.939  26.651  25.610  1.00  0.00    -0.237 OA
ATOM     87  O   UNL A   1      42.302  28.215  24.608  1.00  0.00    -0.237 OA
ATOM     88  O   UNL A   1      43.900  29.016  26.308  1.00  0.00    -0.744 OA
ENDBRANCH  81  85
ENDBRANCH  54  78
BRANCH  66  89
ATOM     89  C   UNL A   1      44.137  28.500  35.285  1.00  0.00     0.023 A 
ATOM     90  C   UNL A   1      43.818  27.373  36.057  1.00  0.00     0.031 A 
ATOM     91  C   UNL A   1      45.491  28.836  35.110  1.00  0.00     0.131 A 
ATOM     92  C   UNL A   1      44.841  26.666  36.698  1.00  0.00     0.055 A 
ATOM     93  C   UNL A   1      46.507  28.079  35.685  1.00  0.00     0.041 A 
ATOM     94  F   UNL A   1      45.841  29.907  34.379  1.00  0.00    -0.206 F 
ATOM     95  C   UNL A   1      46.184  26.997  36.500  1.00  0.00     0.022 A 
BRANCH  92  96
ATOM     96  S   UNL A   1      44.378  25.389  37.897  1.00  0.00     0.124 S 
ATOM     97  O   UNL A   1      43.104  24.919  37.359  1.00  0.00    -0.237 OA
ATOM     98  O   UNL A   1      45.493  24.452  37.801  1.00  0.00    -0.237 OA
ATOM     99  O   UNL A   1      44.287  26.121  39.158  1.00  0.00    -0.744 OA
ENDBRANCH  92  96
ENDBRANCH  66  89
ENDBRANCH  40  41
ENDBRANCH  32  35
ENDBRANCH  30  31
ENDBRANCH  29  30
ENDBRANCH  28  29
ENDBRANCH   3  28
TORSDOF 19
ENDMDL
MODEL 3
REMARK VINA RESULT:     -10.9      1.607      2.058
REMARK SMILES Cc1ccc(S(=O)(=O)Nc2ccc(C(=O)CCC(=O)NCCCNC(=O)c3ccc(-c4c5nc(c(-c6cc(S(=O)(=O)[O-])ccc6F)c6ccc([nH]6)c(-c6cc(S(=O)(=O)[O-])ccc6F)c6nc(c(-c7cc(S(=O)(=O)[O-])ccc7F)c7ccc4[nH]7)C=C6)C=C5)cc3)cc2)c(C)c1
REMARK SMILES IDX 18 1 19 2 20 3 17 5 16 6 14 7 15 8 13 9 10 10 11 11 91 12
REMARK SMILES IDX 12 13 90 14 9 15 6 17 7 18 8 19 5 20 1 21 2 22 3 23 94 24
REMARK SMILES IDX 4 25 92 26 93 27 21 28 22 29 23 30 24 31 25 32 26 34 27 35
REMARK SMILES IDX 28 36 89 37 29 38 88 39 30 40 31 41 32 42 82 43 33 44 87 45
REMARK SMILES IDX 81 46 83 47 34 48 86 49 80 50 79 51 35 53 67 54 47 55 66 56
REMARK SMILES IDX 48 57 51 58 65 59 84 60 49 61 50 62 64 64 85 65 52 66 36 67
REMARK SMILES IDX 37 68 45 69 38 70 44 71 46 72 43 73 39 74 40 75 41 76 42 77
REMARK SMILES IDX 68 78 69 79 77 80 70 81 76 82 78 83 75 84 71 85 72 86 73 87
REMARK SMILES IDX 74 88 53 89 54 90 62 91 55 92 61 93 63 94 60 95 56 96 57 97
REMARK SMILES IDX 58 98 59 99
REMARK H PARENT 20 4 9 16 24 33 83 52 51 63
REMARK Flexibility Score: inf
ROOT
ATOM      1  C   UNL A   1      32.684  36.650  32.013  1.00  0.00     0.220 C 
ATOM      2  O   UNL A   1      31.645  36.508  32.659  1.00  0.00    -0.275 OA
ATOM      3  N   UNL A   1      32.579  36.825  30.653  1.00  0.00    -0.356 N 
ATOM      4  H   UNL A   1      31.704  37.128  30.318  1.00  0.00     0.163 HD
ENDROOT
BRANCH   1   5
ATOM      5  C   UNL A   1      34.061  36.625  32.706  1.00  0.00     0.108 C 
BRANCH   5   6
ATOM      6  C   UNL A   1      34.305  35.446  33.695  1.00  0.00     0.091 C 
BRANCH   6   7
ATOM      7  C   UNL A   1      34.416  34.018  33.074  1.00  0.00     0.163 C 
ATOM      8  O   UNL A   1      33.448  33.271  32.972  1.00  0.00    -0.294 OA
BRANCH   7   9
ATOM      9  C   UNL A   1      35.800  33.439  32.823  1.00  0.00     0.018 A 
ATOM     10  C   UNL A   1      39.126  34.589  31.895  1.00  0.00     0.049 A 
ATOM     11  C   UNL A   1      38.588  34.608  33.663  1.00  0.00     0.027 A 
ATOM     12  C   UNL A   1      37.990  33.987  30.642  1.00  0.00     0.027 A 
ATOM     13  C   UNL A   1      36.958  33.972  34.119  1.00  0.00     0.014 A 
ATOM     14  C   UNL A   1      36.341  33.399  31.118  1.00  0.00     0.014 A 
BRANCH  10  15
ATOM     15  N   UNL A   1      40.550  34.466  31.680  1.00  0.00    -0.280 N 
ATOM     16  H   UNL A   1      41.147  34.515  32.462  1.00  0.00     0.180 HD
BRANCH  15  17
ATOM     17  S   UNL A   1      41.245  34.245  30.152  1.00  0.00     0.262 S 
ATOM     18  O   UNL A   1      40.525  35.071  29.207  1.00  0.00    -0.201 OA
ATOM     19  O   UNL A   1      41.367  32.817  29.970  1.00  0.00    -0.201 OA
BRANCH  17  20
ATOM     20  C   UNL A   1      42.888  34.890  30.305  1.00  0.00     0.090 A 
ATOM     21  C   UNL A   1      45.993  37.806  30.478  1.00  0.00     0.044 C 
ATOM     22  C   UNL A   1      44.991  36.696  30.429  1.00  0.00    -0.051 A 
ATOM     23  C   UNL A   1      44.322  36.329  31.595  1.00  0.00     0.005 A 
ATOM     24  C   UNL A   1      44.730  35.998  29.242  1.00  0.00     0.008 A 
ATOM     25  C   UNL A   1      43.291  35.402  31.537  1.00  0.00     0.023 A 
ATOM     26  C   UNL A   1      43.674  35.078  29.162  1.00  0.00    -0.030 A 
ATOM     27  C   UNL A   1      43.513  34.231  27.930  1.00  0.00     0.046 C 
ENDBRANCH  17  20
ENDBRANCH  15  17
ENDBRANCH  10  15
ENDBRANCH   7   9
ENDBRANCH   6   7
ENDBRANCH   5   6
ENDBRANCH   1   5
BRANCH   3  28
ATOM     28  C   UNL A   1      33.625  36.611  29.642  1.00  0.00     0.117 C 
BRANCH  28  29
ATOM     29  C   UNL A   1      33.400  35.090  29.036  1.00  0.00     0.042 C 
BRANCH  29  30
ATOM     30  C   UNL A   1      34.573  33.388  28.337  1.00  0.00     0.118 C 
BRANCH  30  31
ATOM     31  N   UNL A   1      34.024  31.972  27.652  1.00  0.00    -0.352 N 
ATOM     32  C   UNL A   1      34.433  30.722  27.377  1.00  0.00     0.251 C 
ATOM     33  H   UNL A   1      33.095  32.089  27.350  1.00  0.00     0.163 HD
ATOM     34  O   UNL A   1      33.689  30.039  26.673  1.00  0.00    -0.269 OA
BRANCH  32  35
ATOM     35  C   UNL A   1      35.650  30.166  27.911  1.00  0.00     0.039 A 
ATOM     36  C   UNL A   1      35.539  29.482  29.125  1.00  0.00     0.014 A 
ATOM     37  C   UNL A   1      36.876  30.449  27.314  1.00  0.00     0.014 A 
ATOM     38  C   UNL A   1      36.686  29.059  29.749  1.00  0.00     0.010 A 
ATOM     39  C   UNL A   1      38.017  29.949  27.892  1.00  0.00     0.010 A 
ATOM     40  C   UNL A   1      37.914  29.279  29.114  1.00  0.00    -0.014 A 
BRANCH  40  41
ATOM     41  C   UNL A   1      39.141  28.812  29.743  1.00  0.00     0.031 A 
ATOM     42  C   UNL A   1      39.609  29.502  30.976  1.00  0.00     0.074 A 
ATOM     43  C   UNL A   1      39.791  27.826  29.109  1.00  0.00     0.049 A 
ATOM     44  N   UNL A   1      40.700  29.307  31.656  1.00  0.00    -0.248 NA
ATOM     45  C   UNL A   1      38.761  30.596  31.487  1.00  0.00     0.031 C 
ATOM     46  C   UNL A   1      39.346  27.189  27.861  1.00  0.00     0.029 A 
ATOM     47  N   UNL A   1      40.950  27.185  29.414  1.00  0.00    -0.354 N 
ATOM     48  C   UNL A   1      40.682  30.262  32.665  1.00  0.00     0.074 A 
ATOM     49  C   UNL A   1      39.513  31.085  32.459  1.00  0.00     0.031 C 
ATOM     50  C   UNL A   1      40.205  26.215  27.535  1.00  0.00     0.029 A 
ATOM     51  C   UNL A   1      41.274  26.196  28.520  1.00  0.00     0.049 A 
ATOM     52  H   UNL A   1      41.500  27.408  30.199  1.00  0.00     0.167 HD
ATOM     53  C   UNL A   1      41.566  30.397  33.680  1.00  0.00     0.034 A 
ATOM     54  C   UNL A   1      42.331  25.370  28.527  1.00  0.00     0.034 A 
ATOM     55  C   UNL A   1      42.703  29.518  33.806  1.00  0.00     0.049 A 
ATOM     56  C   UNL A   1      43.277  25.516  29.686  1.00  0.00     0.074 A 
ATOM     57  C   UNL A   1      43.685  29.493  34.774  1.00  0.00     0.029 A 
ATOM     58  N   UNL A   1      42.998  28.490  32.908  1.00  0.00    -0.354 N 
ATOM     59  N   UNL A   1      43.246  26.396  30.667  1.00  0.00    -0.248 NA
ATOM     60  C   UNL A   1      44.372  24.553  29.766  1.00  0.00     0.031 C 
ATOM     61  C   UNL A   1      44.600  28.489  34.432  1.00  0.00     0.029 A 
ATOM     62  C   UNL A   1      44.150  27.832  33.294  1.00  0.00     0.049 A 
ATOM     63  H   UNL A   1      42.462  28.265  32.113  1.00  0.00     0.167 HD
ATOM     64  C   UNL A   1      44.304  26.071  31.503  1.00  0.00     0.074 A 
ATOM     65  C   UNL A   1      44.934  24.900  30.915  1.00  0.00     0.031 C 
ATOM     66  C   UNL A   1      44.727  26.672  32.648  1.00  0.00     0.034 A 
BRANCH  53  67
ATOM     67  C   UNL A   1      41.337  31.524  34.659  1.00  0.00     0.023 A 
ATOM     68  C   UNL A   1      40.334  31.457  35.646  1.00  0.00     0.031 A 
ATOM     69  C   UNL A   1      42.073  32.717  34.560  1.00  0.00     0.131 A 
ATOM     70  C   UNL A   1      40.033  32.586  36.425  1.00  0.00     0.055 A 
ATOM     71  C   UNL A   1      41.828  33.807  35.400  1.00  0.00     0.041 A 
ATOM     72  F   UNL A   1      43.021  32.861  33.621  1.00  0.00    -0.206 F 
ATOM     73  C   UNL A   1      40.791  33.753  36.327  1.00  0.00     0.022 A 
BRANCH  70  74
ATOM     74  S   UNL A   1      38.533  32.560  37.446  1.00  0.00     0.124 S 
ATOM     75  O   UNL A   1      38.046  33.928  37.289  1.00  0.00    -0.237 OA
ATOM     76  O   UNL A   1      37.734  31.520  36.810  1.00  0.00    -0.237 OA
ATOM     77  O   UNL A   1      39.033  32.233  38.781  1.00  0.00    -0.744 OA
ENDBRANCH  70  74
ENDBRANCH  53  67
BRANCH  54  78
ATOM     78  C   UNL A   1      42.490  24.341  27.465  1.00  0.00     0.023 A 
ATOM     79  C   UNL A   1      41.737  23.159  27.492  1.00  0.00     0.031 A 
ATOM     80  C   UNL A   1      43.376  24.532  26.389  1.00  0.00     0.131 A 
ATOM     81  C   UNL A   1      41.915  22.191  26.492  1.00  0.00     0.055 A 
ATOM     82  C   UNL A   1      43.511  23.590  25.367  1.00  0.00     0.041 A 
ATOM     83  F   UNL A   1      44.104  25.657  26.298  1.00  0.00    -0.206 F 
ATOM     84  C   UNL A   1      42.788  22.403  25.422  1.00  0.00     0.022 A 
BRANCH  81  85
ATOM     85  S   UNL A   1      41.046  20.609  26.658  1.00  0.00     0.124 S 
ATOM     86  O   UNL A   1      40.872  20.515  28.102  1.00  0.00    -0.237 OA
ATOM     87  O   UNL A   1      39.835  20.847  25.879  1.00  0.00    -0.237 OA
ATOM     88  O   UNL A   1      41.980  19.647  26.077  1.00  0.00    -0.744 OA
ENDBRANCH  81  85
ENDBRANCH  54  78
BRANCH  66  89
ATOM     89  C   UNL A   1      45.900  26.024  33.329  1.00  0.00     0.023 A 
ATOM     90  C   UNL A   1      45.720  25.030  34.302  1.00  0.00     0.031 A 
ATOM     91  C   UNL A   1      47.208  26.426  33.011  1.00  0.00     0.131 A 
ATOM     92  C   UNL A   1      46.831  24.525  34.986  1.00  0.00     0.055 A 
ATOM     93  C   UNL A   1      48.315  25.860  33.638  1.00  0.00     0.041 A 
ATOM     94  F   UNL A   1      47.426  27.375  32.087  1.00  0.00    -0.206 F 
ATOM     95  C   UNL A   1      48.129  24.917  34.645  1.00  0.00     0.022 A 
BRANCH  92  96
ATOM     96  S   UNL A   1      46.543  23.446  36.412  1.00  0.00     0.124 S 
ATOM     97  O   UNL A   1      47.799  22.705  36.487  1.00  0.00    -0.237 OA
ATOM     98  O   UNL A   1      46.305  24.406  37.486  1.00  0.00    -0.237 OA
ATOM     99  O   UNL A   1      45.380  22.657  36.014  1.00  0.00    -0.744 OA
ENDBRANCH  92  96
ENDBRANCH  66  89
ENDBRANCH  40  41
ENDBRANCH  32  35
ENDBRANCH  30  31
ENDBRANCH  29  30
ENDBRANCH  28  29
ENDBRANCH   3  28
TORSDOF 19
ENDMDL
