MODEL 1
REMARK VINA RESULT:     -12.0      0.000      0.000
REMARK SMILES CCOc1ccc(-n2ncc(C(=O)NCCCNC(=O)c3ccc(-c4c5nc(c(-c6cc(S(=O)(=O)[O-])ccc6F)c6ccc([nH]6)c(-c6cc(S(=O)(=O)[O-])ccc6F)c6nc(c(-c7cc(S(=O)(=O)[O-])ccc7F)c7ccc4[nH]7)C=C6)C=C5)cc3)c2C)nn1
REMARK SMILES IDX 16 1 15 2 14 3 12 4 13 5 11 7 8 8 9 9 84 10 10 11 85 12 7 13
REMARK SMILES IDX 4 14 5 15 87 16 6 17 86 18 3 19 2 20 1 21 17 22 18 23 19 24
REMARK SMILES IDX 20 26 21 27 22 28 83 29 23 30 82 31 24 32 25 33 26 34 76 35
REMARK SMILES IDX 27 36 81 37 75 38 77 39 28 40 80 41 74 42 73 43 29 45 61 46
REMARK SMILES IDX 41 47 60 48 42 49 45 50 59 51 78 52 43 53 44 54 58 56 79 57
REMARK SMILES IDX 46 58 30 59 31 60 39 61 32 62 38 63 40 64 37 65 33 66 34 67
REMARK SMILES IDX 35 68 36 69 62 70 63 71 71 72 64 73 70 74 72 75 69 76 65 77
REMARK SMILES IDX 66 78 67 79 68 80 47 81 48 82 56 83 49 84 55 85 57 86 54 87
REMARK SMILES IDX 50 88 51 89 52 90 53 91
REMARK H PARENT 14 6 18 25 77 44 45 55
REMARK Flexibility Score: inf
ROOT
ATOM      1  C   UNL A   1      37.612  20.020  24.835  1.00  0.00     0.042 C 
ENDROOT
BRANCH   1   2
ATOM      2  C   UNL A   1      36.391  20.914  25.074  1.00  0.00     0.118 C 
BRANCH   2   3
ATOM      3  N   UNL A   1      35.195  20.136  25.347  1.00  0.00    -0.352 N 
ATOM      4  C   UNL A   1      33.863  20.450  25.376  1.00  0.00     0.254 C 
ATOM      5  O   UNL A   1      33.084  19.518  25.610  1.00  0.00    -0.269 OA
ATOM      6  H   UNL A   1      35.380  19.190  25.554  1.00  0.00     0.163 HD
BRANCH   4   7
ATOM      7  C   UNL A   1      33.373  21.793  25.091  1.00  0.00     0.081 A 
ATOM      8  N   UNL A   1      32.771  23.929  25.364  1.00  0.00    -0.217 N 
ATOM      9  N   UNL A   1      32.281  23.566  24.148  1.00  0.00    -0.174 NA
ATOM     10  C   UNL A   1      33.448  22.882  25.968  1.00  0.00     0.056 A 
ATOM     11  C   UNL A   1      32.745  22.336  23.958  1.00  0.00     0.149 A 
ATOM     12  C   UNL A   1      34.027  22.929  27.343  1.00  0.00     0.068 C 
BRANCH   8  13
ATOM     13  C   UNL A   1      32.522  25.251  25.828  1.00  0.00     0.176 A 
ATOM     14  C   UNL A   1      32.152  27.752  26.781  1.00  0.00     0.233 A 
ATOM     15  C   UNL A   1      33.227  27.531  25.947  1.00  0.00     0.074 A 
ATOM     16  N   UNL A   1      31.286  26.779  27.131  1.00  0.00    -0.110 NA
ATOM     17  C   UNL A   1      33.418  26.250  25.459  1.00  0.00     0.057 A 
ATOM     18  N   UNL A   1      31.462  25.514  26.629  1.00  0.00    -0.127 NA
BRANCH  14  19
ATOM     19  O   UNL A   1      32.000  28.987  27.357  1.00  0.00    -0.477 OA
BRANCH  19  20
ATOM     20  C   UNL A   1      32.615  29.994  26.550  1.00  0.00     0.228 C 
ATOM     21  C   UNL A   1      33.429  30.950  27.412  1.00  0.00     0.049 C 
ENDBRANCH  19  20
ENDBRANCH  14  19
ENDBRANCH   8  13
ENDBRANCH   4   7
ENDBRANCH   2   3
ENDBRANCH   1   2
BRANCH   1  22
ATOM     22  C   UNL A   1      38.825  20.524  25.606  1.00  0.00     0.118 C 
BRANCH  22  23
ATOM     23  N   UNL A   1      39.833  19.471  25.790  1.00  0.00    -0.352 N 
ATOM     24  C   UNL A   1      41.193  19.602  25.996  1.00  0.00     0.251 C 
ATOM     25  H   UNL A   1      39.493  18.547  25.761  1.00  0.00     0.163 HD
ATOM     26  O   UNL A   1      41.948  18.661  25.780  1.00  0.00    -0.269 OA
BRANCH  24  27
ATOM     27  C   UNL A   1      41.705  20.887  26.501  1.00  0.00     0.039 A 
ATOM     28  C   UNL A   1      42.251  21.862  25.661  1.00  0.00     0.014 A 
ATOM     29  C   UNL A   1      41.587  21.106  27.869  1.00  0.00     0.014 A 
ATOM     30  C   UNL A   1      42.606  23.095  26.209  1.00  0.00     0.010 A 
ATOM     31  C   UNL A   1      41.754  22.366  28.366  1.00  0.00     0.010 A 
ATOM     32  C   UNL A   1      42.340  23.339  27.564  1.00  0.00    -0.014 A 
BRANCH  32  33
ATOM     33  C   UNL A   1      42.500  24.650  28.182  1.00  0.00     0.031 A 
ATOM     34  C   UNL A   1      41.302  25.515  28.017  1.00  0.00     0.074 A 
ATOM     35  C   UNL A   1      43.476  24.881  29.092  1.00  0.00     0.049 A 
ATOM     36  N   UNL A   1      41.172  26.552  27.257  1.00  0.00    -0.248 NA
ATOM     37  C   UNL A   1      40.021  25.045  28.582  1.00  0.00     0.031 C 
ATOM     38  C   UNL A   1      44.502  23.943  29.570  1.00  0.00     0.029 A 
ATOM     39  N   UNL A   1      43.685  25.959  29.891  1.00  0.00    -0.354 N 
ATOM     40  C   UNL A   1      39.891  27.035  27.513  1.00  0.00     0.074 A 
ATOM     41  C   UNL A   1      39.166  25.922  28.052  1.00  0.00     0.031 C 
ATOM     42  C   UNL A   1      45.043  24.403  30.722  1.00  0.00     0.029 A 
ATOM     43  C   UNL A   1      44.522  25.732  30.988  1.00  0.00     0.049 A 
ATOM     44  H   UNL A   1      43.276  26.836  29.711  1.00  0.00     0.167 HD
ATOM     45  C   UNL A   1      39.652  28.375  27.593  1.00  0.00     0.034 A 
ATOM     46  C   UNL A   1      44.739  26.563  32.050  1.00  0.00     0.034 A 
ATOM     47  C   UNL A   1      40.780  29.119  27.061  1.00  0.00     0.049 A 
ATOM     48  C   UNL A   1      44.310  27.917  31.609  1.00  0.00     0.074 A 
ATOM     49  C   UNL A   1      41.459  29.121  25.857  1.00  0.00     0.029 A 
ATOM     50  N   UNL A   1      41.636  29.717  27.965  1.00  0.00    -0.354 N 
ATOM     51  N   UNL A   1      44.906  28.572  30.648  1.00  0.00    -0.248 NA
ATOM     52  C   UNL A   1      42.924  28.296  31.845  1.00  0.00     0.031 C 
ATOM     53  C   UNL A   1      42.837  29.229  26.215  1.00  0.00     0.029 A 
ATOM     54  C   UNL A   1      42.923  29.407  27.598  1.00  0.00     0.049 A 
ATOM     55  H   UNL A   1      41.371  30.267  28.736  1.00  0.00     0.167 HD
ATOM     56  C   UNL A   1      43.877  29.098  29.880  1.00  0.00     0.074 A 
ATOM     57  C   UNL A   1      42.681  28.968  30.715  1.00  0.00     0.031 C 
ATOM     58  C   UNL A   1      44.026  29.293  28.534  1.00  0.00     0.034 A 
BRANCH  45  59
ATOM     59  C   UNL A   1      38.645  29.032  28.526  1.00  0.00     0.023 A 
ATOM     60  C   UNL A   1      38.909  28.918  29.904  1.00  0.00     0.031 A 
ATOM     61  C   UNL A   1      37.346  29.483  28.195  1.00  0.00     0.131 A 
ATOM     62  C   UNL A   1      37.888  29.076  30.855  1.00  0.00     0.055 A 
ATOM     63  C   UNL A   1      36.350  29.706  29.153  1.00  0.00     0.041 A 
ATOM     64  F   UNL A   1      36.926  29.667  26.941  1.00  0.00    -0.206 F 
ATOM     65  C   UNL A   1      36.604  29.461  30.488  1.00  0.00     0.022 A 
BRANCH  62  66
ATOM     66  S   UNL A   1      38.230  28.567  32.556  1.00  0.00     0.124 S 
ATOM     67  O   UNL A   1      38.507  27.146  32.379  1.00  0.00    -0.237 OA
ATOM     68  O   UNL A   1      39.372  29.410  32.896  1.00  0.00    -0.237 OA
ATOM     69  O   UNL A   1      36.990  28.882  33.259  1.00  0.00    -0.744 OA
ENDBRANCH  62  66
ENDBRANCH  45  59
BRANCH  46  70
ATOM     70  C   UNL A   1      44.949  26.195  33.489  1.00  0.00     0.023 A 
ATOM     71  C   UNL A   1      43.940  26.279  34.480  1.00  0.00     0.031 A 
ATOM     72  C   UNL A   1      46.125  25.504  33.857  1.00  0.00     0.131 A 
ATOM     73  C   UNL A   1      44.134  25.690  35.759  1.00  0.00     0.055 A 
ATOM     74  C   UNL A   1      46.309  24.922  35.115  1.00  0.00     0.041 A 
ATOM     75  F   UNL A   1      47.112  25.292  32.971  1.00  0.00    -0.206 F 
ATOM     76  C   UNL A   1      45.310  25.004  36.069  1.00  0.00     0.022 A 
BRANCH  73  77
ATOM     77  S   UNL A   1      42.825  25.735  37.035  1.00  0.00     0.124 S 
ATOM     78  O   UNL A   1      41.836  24.806  36.501  1.00  0.00    -0.237 OA
ATOM     79  O   UNL A   1      43.536  25.309  38.235  1.00  0.00    -0.237 OA
ATOM     80  O   UNL A   1      42.402  27.137  37.046  1.00  0.00    -0.744 OA
ENDBRANCH  73  77
ENDBRANCH  46  70
BRANCH  58  81
ATOM     81  C   UNL A   1      45.419  29.206  27.936  1.00  0.00     0.023 A 
ATOM     82  C   UNL A   1      46.007  28.045  27.377  1.00  0.00     0.031 A 
ATOM     83  C   UNL A   1      46.130  30.414  27.819  1.00  0.00     0.131 A 
ATOM     84  C   UNL A   1      47.264  28.128  26.740  1.00  0.00     0.055 A 
ATOM     85  C   UNL A   1      47.359  30.496  27.168  1.00  0.00     0.041 A 
ATOM     86  F   UNL A   1      45.614  31.554  28.305  1.00  0.00    -0.206 F 
ATOM     87  C   UNL A   1      47.934  29.352  26.632  1.00  0.00     0.022 A 
BRANCH  84  88
ATOM     88  S   UNL A   1      48.073  26.643  26.056  1.00  0.00     0.124 S 
ATOM     89  O   UNL A   1      48.608  25.971  27.233  1.00  0.00    -0.237 OA
ATOM     90  O   UNL A   1      46.970  25.966  25.378  1.00  0.00    -0.237 OA
ATOM     91  O   UNL A   1      49.089  27.194  25.155  1.00  0.00    -0.744 OA
ENDBRANCH  84  88
ENDBRANCH  58  81
ENDBRANCH  32  33
ENDBRANCH  24  27
ENDBRANCH  22  23
ENDBRANCH   1  22
TORSDOF 16
ENDMDL
MODEL 2
REMARK VINA RESULT:     -11.6      3.160      8.627
REMARK SMILES CCOc1ccc(-n2ncc(C(=O)NCCCNC(=O)c3ccc(-c4c5nc(c(-c6cc(S(=O)(=O)[O-])ccc6F)c6ccc([nH]6)c(-c6cc(S(=O)(=O)[O-])ccc6F)c6nc(c(-c7cc(S(=O)(=O)[O-])ccc7F)c7ccc4[nH]7)C=C6)C=C5)cc3)c2C)nn1
REMARK SMILES IDX 16 1 15 2 14 3 12 4 13 5 11 7 8 8 9 9 84 10 10 11 85 12 7 13
REMARK SMILES IDX 4 14 5 15 87 16 6 17 86 18 3 19 2 20 1 21 17 22 18 23 19 24
REMARK SMILES IDX 20 26 21 27 22 28 83 29 23 30 82 31 24 32 25 33 26 34 76 35
REMARK SMILES IDX 27 36 81 37 75 38 77 39 28 40 80 41 74 42 73 43 29 45 61 46
REMARK SMILES IDX 41 47 60 48 42 49 45 50 59 51 78 52 43 53 44 54 58 56 79 57
REMARK SMILES IDX 46 58 30 59 31 60 39 61 32 62 38 63 40 64 37 65 33 66 34 67
REMARK SMILES IDX 35 68 36 69 62 70 63 71 71 72 64 73 70 74 72 75 69 76 65 77
REMARK SMILES IDX 66 78 67 79 68 80 47 81 48 82 56 83 49 84 55 85 57 86 54 87
REMARK SMILES IDX 50 88 51 89 52 90 53 91
REMARK H PARENT 14 6 18 25 77 44 45 55
REMARK Flexibility Score: inf
ROOT
ATOM      1  C   UNL A   1      33.703  28.565  27.037  1.00  0.00     0.042 C 
ENDROOT
BRANCH   1   2
ATOM      2  C   UNL A   1      33.570  27.521  25.923  1.00  0.00     0.118 C 
BRANCH   2   3
ATOM      3  N   UNL A   1      32.619  26.478  26.269  1.00  0.00    -0.352 N 
ATOM      4  C   UNL A   1      32.610  25.123  26.076  1.00  0.00     0.254 C 
ATOM      5  O   UNL A   1      31.642  24.509  26.542  1.00  0.00    -0.269 OA
ATOM      6  H   UNL A   1      31.820  26.814  26.736  1.00  0.00     0.163 HD
BRANCH   4   7
ATOM      7  C   UNL A   1      33.703  24.422  25.412  1.00  0.00     0.081 A 
ATOM      8  N   UNL A   1      35.500  23.134  25.081  1.00  0.00    -0.217 N 
ATOM      9  N   UNL A   1      35.329  23.825  23.921  1.00  0.00    -0.174 NA
ATOM     10  C   UNL A   1      34.527  23.462  26.012  1.00  0.00     0.056 A 
ATOM     11  C   UNL A   1      34.196  24.496  24.100  1.00  0.00     0.149 A 
ATOM     12  C   UNL A   1      34.485  22.945  27.411  1.00  0.00     0.068 C 
BRANCH   8  13
ATOM     13  C   UNL A   1      36.597  22.234  25.179  1.00  0.00     0.176 A 
ATOM     14  C   UNL A   1      38.624  20.470  25.461  1.00  0.00     0.233 A 
ATOM     15  C   UNL A   1      37.411  19.994  25.009  1.00  0.00     0.074 A 
ATOM     16  N   UNL A   1      38.834  21.767  25.759  1.00  0.00    -0.110 NA
ATOM     17  C   UNL A   1      36.372  20.896  24.864  1.00  0.00     0.057 A 
ATOM     18  N   UNL A   1      37.811  22.667  25.595  1.00  0.00    -0.127 NA
BRANCH  14  19
ATOM     19  O   UNL A   1      39.637  19.579  25.707  1.00  0.00    -0.477 OA
BRANCH  19  20
ATOM     20  C   UNL A   1      40.794  20.259  26.199  1.00  0.00     0.228 C 
ATOM     21  C   UNL A   1      41.155  19.765  27.593  1.00  0.00     0.049 C 
ENDBRANCH  19  20
ENDBRANCH  14  19
ENDBRANCH   8  13
ENDBRANCH   4   7
ENDBRANCH   2   3
ENDBRANCH   1   2
BRANCH   1  22
ATOM     22  C   UNL A   1      35.157  28.964  27.250  1.00  0.00     0.118 C 
BRANCH  22  23
ATOM     23  N   UNL A   1      35.334  29.754  28.476  1.00  0.00    -0.352 N 
ATOM     24  C   UNL A   1      36.352  29.688  29.408  1.00  0.00     0.251 C 
ATOM     25  H   UNL A   1      34.632  30.421  28.657  1.00  0.00     0.163 HD
ATOM     26  O   UNL A   1      36.192  30.142  30.535  1.00  0.00    -0.269 OA
BRANCH  24  27
ATOM     27  C   UNL A   1      37.632  29.083  29.007  1.00  0.00     0.039 A 
ATOM     28  C   UNL A   1      38.316  29.464  27.849  1.00  0.00     0.014 A 
ATOM     29  C   UNL A   1      38.158  28.122  29.865  1.00  0.00     0.014 A 
ATOM     30  C   UNL A   1      39.577  28.920  27.605  1.00  0.00     0.010 A 
ATOM     31  C   UNL A   1      39.461  27.739  29.727  1.00  0.00     0.010 A 
ATOM     32  C   UNL A   1      40.145  28.066  28.562  1.00  0.00    -0.014 A 
BRANCH  32  33
ATOM     33  C   UNL A   1      41.523  27.597  28.490  1.00  0.00     0.031 A 
ATOM     34  C   UNL A   1      41.662  26.330  27.722  1.00  0.00     0.074 A 
ATOM     35  C   UNL A   1      42.560  28.420  28.777  1.00  0.00     0.049 A 
ATOM     36  N   UNL A   1      41.914  25.150  28.183  1.00  0.00    -0.248 NA
ATOM     37  C   UNL A   1      41.243  26.325  26.307  1.00  0.00     0.031 C 
ATOM     38  C   UNL A   1      42.502  29.822  29.214  1.00  0.00     0.029 A 
ATOM     39  N   UNL A   1      43.894  28.231  28.610  1.00  0.00    -0.354 N 
ATOM     40  C   UNL A   1      42.001  24.331  27.060  1.00  0.00     0.074 A 
ATOM     41  C   UNL A   1      41.281  25.020  26.029  1.00  0.00     0.031 C 
ATOM     42  C   UNL A   1      43.708  30.408  29.038  1.00  0.00     0.029 A 
ATOM     43  C   UNL A   1      44.665  29.398  28.622  1.00  0.00     0.049 A 
ATOM     44  H   UNL A   1      44.290  27.338  28.490  1.00  0.00     0.167 HD
ATOM     45  C   UNL A   1      42.946  23.350  26.980  1.00  0.00     0.034 A 
ATOM     46  C   UNL A   1      45.981  29.524  28.281  1.00  0.00     0.034 A 
ATOM     47  C   UNL A   1      43.534  23.114  28.286  1.00  0.00     0.049 A 
ATOM     48  C   UNL A   1      46.559  28.156  28.353  1.00  0.00     0.074 A 
ATOM     49  C   UNL A   1      43.030  22.788  29.532  1.00  0.00     0.029 A 
ATOM     50  N   UNL A   1      44.794  23.626  28.524  1.00  0.00    -0.354 N 
ATOM     51  N   UNL A   1      46.650  27.482  29.468  1.00  0.00    -0.248 NA
ATOM     52  C   UNL A   1      46.525  27.345  27.144  1.00  0.00     0.031 C 
ATOM     53  C   UNL A   1      43.775  23.591  30.448  1.00  0.00     0.029 A 
ATOM     54  C   UNL A   1      44.768  24.269  29.737  1.00  0.00     0.049 A 
ATOM     55  H   UNL A   1      45.574  23.545  27.929  1.00  0.00     0.167 HD
ATOM     56  C   UNL A   1      46.233  26.198  29.147  1.00  0.00     0.074 A 
ATOM     57  C   UNL A   1      46.252  26.152  27.683  1.00  0.00     0.031 C 
ATOM     58  C   UNL A   1      45.610  25.403  30.070  1.00  0.00     0.034 A 
BRANCH  45  59
ATOM     59  C   UNL A   1      43.659  22.920  25.706  1.00  0.00     0.023 A 
ATOM     60  C   UNL A   1      43.746  21.533  25.481  1.00  0.00     0.031 A 
ATOM     61  C   UNL A   1      44.486  23.718  24.883  1.00  0.00     0.131 A 
ATOM     62  C   UNL A   1      44.717  20.995  24.621  1.00  0.00     0.055 A 
ATOM     63  C   UNL A   1      45.406  23.179  23.976  1.00  0.00     0.041 A 
ATOM     64  F   UNL A   1      44.522  25.052  24.944  1.00  0.00    -0.206 F 
ATOM     65  C   UNL A   1      45.557  21.810  23.872  1.00  0.00     0.022 A 
BRANCH  62  66
ATOM     66  S   UNL A   1      44.990  19.208  24.665  1.00  0.00     0.124 S 
ATOM     67  O   UNL A   1      44.599  18.827  23.312  1.00  0.00    -0.237 OA
ATOM     68  O   UNL A   1      46.414  19.131  24.971  1.00  0.00    -0.237 OA
ATOM     69  O   UNL A   1      44.096  18.756  25.727  1.00  0.00    -0.744 OA
ENDBRANCH  62  66
ENDBRANCH  45  59
BRANCH  46  70
ATOM     70  C   UNL A   1      46.652  30.664  27.572  1.00  0.00     0.023 A 
ATOM     71  C   UNL A   1      45.952  31.735  26.963  1.00  0.00     0.031 A 
ATOM     72  C   UNL A   1      48.048  30.831  27.708  1.00  0.00     0.131 A 
ATOM     73  C   UNL A   1      46.647  32.895  26.525  1.00  0.00     0.055 A 
ATOM     74  C   UNL A   1      48.727  31.977  27.280  1.00  0.00     0.041 A 
ATOM     75  F   UNL A   1      48.799  29.917  28.344  1.00  0.00    -0.206 F 
ATOM     76  C   UNL A   1      48.027  33.019  26.696  1.00  0.00     0.022 A 
BRANCH  73  77
ATOM     77  S   UNL A   1      45.760  34.314  25.789  1.00  0.00     0.124 S 
ATOM     78  O   UNL A   1      44.957  34.796  26.907  1.00  0.00    -0.237 OA
ATOM     79  O   UNL A   1      46.850  35.178  25.351  1.00  0.00    -0.237 OA
ATOM     80  O   UNL A   1      44.988  33.710  24.701  1.00  0.00    -0.744 OA
ENDBRANCH  73  77
ENDBRANCH  46  70
BRANCH  58  81
ATOM     81  C   UNL A   1      45.641  25.822  31.529  1.00  0.00     0.023 A 
ATOM     82  C   UNL A   1      46.734  25.655  32.414  1.00  0.00     0.031 A 
ATOM     83  C   UNL A   1      44.531  26.549  31.998  1.00  0.00     0.131 A 
ATOM     84  C   UNL A   1      46.678  26.202  33.715  1.00  0.00     0.055 A 
ATOM     85  C   UNL A   1      44.491  27.107  33.274  1.00  0.00     0.041 A 
ATOM     86  F   UNL A   1      43.474  26.764  31.199  1.00  0.00    -0.206 F 
ATOM     87  C   UNL A   1      45.562  26.930  34.139  1.00  0.00     0.022 A 
BRANCH  84  88
ATOM     88  S   UNL A   1      48.046  25.961  34.897  1.00  0.00     0.124 S 
ATOM     89  O   UNL A   1      48.262  24.519  34.882  1.00  0.00    -0.237 OA
ATOM     90  O   UNL A   1      49.113  26.774  34.317  1.00  0.00    -0.237 OA
ATOM     91  O   UNL A   1      47.505  26.482  36.154  1.00  0.00    -0.744 OA
ENDBRANCH  84  88
ENDBRANCH  58  81
ENDBRANCH  32  33
ENDBRANCH  24  27
ENDBRANCH  22  23
ENDBRANCH   1  22
TORSDOF 16
ENDMDL
MODEL 3
REMARK VINA RESULT:     -11.2      3.066      8.021
REMARK SMILES CCOc1ccc(-n2ncc(C(=O)NCCCNC(=O)c3ccc(-c4c5nc(c(-c6cc(S(=O)(=O)[O-])ccc6F)c6ccc([nH]6)c(-c6cc(S(=O)(=O)[O-])ccc6F)c6nc(c(-c7cc(S(=O)(=O)[O-])ccc7F)c7ccc4[nH]7)C=C6)C=C5)cc3)c2C)nn1
REMARK SMILES IDX 16 1 15 2 14 3 12 4 13 5 11 7 8 8 9 9 84 10 10 11 85 12 7 13
REMARK SMILES IDX 4 14 5 15 87 16 6 17 86 18 3 19 2 20 1 21 17 22 18 23 19 24
REMARK SMILES IDX 20 26 21 27 22 28 83 29 23 30 82 31 24 32 25 33 26 34 76 35
REMARK SMILES IDX 27 36 81 37 75 38 77 39 28 40 80 41 74 42 73 43 29 45 61 46
REMARK SMILES IDX 41 47 60 48 42 49 45 50 59 51 78 52 43 53 44 54 58 56 79 57
REMARK SMILES IDX 46 58 30 59 31 60 39 61 32 62 38 63 40 64 37 65 33 66 34 67
REMARK SMILES IDX 35 68 36 69 62 70 63 71 71 72 64 73 70 74 72 75 69 76 65 77
REMARK SMILES IDX 66 78 67 79 68 80 47 81 48 82 56 83 49 84 55 85 57 86 54 87
REMARK SMILES IDX 50 88 51 89 52 90 53 91
REMARK H PARENT 14 6 18 25 77 44 45 55
REMARK Flexibility Score: inf
ROOT
ATOM      1  C   UNL A   1      33.140  30.486  26.935  1.00  0.00     0.042 C 
ENDROOT
BRANCH   1   2
ATOM      2  C   UNL A   1      33.181  29.629  25.665  1.00  0.00     0.118 C 
BRANCH   2   3
ATOM      3  N   UNL A   1      31.961  29.755  24.887  1.00  0.00    -0.352 N 
ATOM      4  C   UNL A   1      31.373  28.962  23.940  1.00  0.00     0.254 C 
ATOM      5  O   UNL A   1      30.286  29.354  23.493  1.00  0.00    -0.269 OA
ATOM      6  H   UNL A   1      31.455  30.578  25.080  1.00  0.00     0.163 HD
BRANCH   4   7
ATOM      7  C   UNL A   1      31.953  27.695  23.513  1.00  0.00     0.081 A 
ATOM      8  N   UNL A   1      32.584  25.550  23.509  1.00  0.00    -0.217 N 
ATOM      9  N   UNL A   1      33.250  26.126  22.471  1.00  0.00    -0.174 NA
ATOM     10  C   UNL A   1      31.779  26.468  24.164  1.00  0.00     0.056 A 
ATOM     11  C   UNL A   1      32.776  27.367  22.423  1.00  0.00     0.149 A 
ATOM     12  C   UNL A   1      30.989  26.174  25.395  1.00  0.00     0.068 C 
BRANCH   8  13
ATOM     13  C   UNL A   1      32.806  24.169  23.773  1.00  0.00     0.176 A 
ATOM     14  C   UNL A   1      33.316  21.549  24.187  1.00  0.00     0.233 A 
ATOM     15  C   UNL A   1      34.262  22.465  24.599  1.00  0.00     0.074 A 
ATOM     16  N   UNL A   1      32.159  21.909  23.598  1.00  0.00    -0.110 NA
ATOM     17  C   UNL A   1      34.002  23.807  24.387  1.00  0.00     0.057 A 
ATOM     18  N   UNL A   1      31.890  23.241  23.407  1.00  0.00    -0.127 NA
BRANCH  14  19
ATOM     19  O   UNL A   1      33.597  20.211  24.296  1.00  0.00    -0.477 OA
BRANCH  19  20
ATOM     20  C   UNL A   1      32.426  19.432  24.043  1.00  0.00     0.228 C 
ATOM     21  C   UNL A   1      32.775  18.178  23.252  1.00  0.00     0.049 C 
ENDBRANCH  19  20
ENDBRANCH  14  19
ENDBRANCH   8  13
ENDBRANCH   4   7
ENDBRANCH   2   3
ENDBRANCH   1   2
BRANCH   1  22
ATOM     22  C   UNL A   1      34.520  30.599  27.570  1.00  0.00     0.118 C 
BRANCH  22  23
ATOM     23  N   UNL A   1      34.516  31.498  28.732  1.00  0.00    -0.352 N 
ATOM     24  C   UNL A   1      35.384  31.525  29.807  1.00  0.00     0.251 C 
ATOM     25  H   UNL A   1      33.797  32.170  28.747  1.00  0.00     0.163 HD
ATOM     26  O   UNL A   1      35.060  32.075  30.853  1.00  0.00    -0.269 OA
BRANCH  24  27
ATOM     27  C   UNL A   1      36.707  30.900  29.656  1.00  0.00     0.039 A 
ATOM     28  C   UNL A   1      37.865  31.640  29.396  1.00  0.00     0.014 A 
ATOM     29  C   UNL A   1      36.763  29.520  29.821  1.00  0.00     0.014 A 
ATOM     30  C   UNL A   1      39.094  30.979  29.381  1.00  0.00     0.010 A 
ATOM     31  C   UNL A   1      37.972  28.911  29.994  1.00  0.00     0.010 A 
ATOM     32  C   UNL A   1      39.134  29.613  29.695  1.00  0.00    -0.014 A 
BRANCH  32  33
ATOM     33  C   UNL A   1      40.379  28.879  29.888  1.00  0.00     0.031 A 
ATOM     34  C   UNL A   1      40.687  28.635  31.323  1.00  0.00     0.074 A 
ATOM     35  C   UNL A   1      40.960  28.204  28.868  1.00  0.00     0.049 A 
ATOM     36  N   UNL A   1      41.604  29.194  32.042  1.00  0.00    -0.248 NA
ATOM     37  C   UNL A   1      39.722  27.851  32.119  1.00  0.00     0.031 C 
ATOM     38  C   UNL A   1      40.506  28.115  27.474  1.00  0.00     0.029 A 
ATOM     39  N   UNL A   1      42.007  27.338  28.881  1.00  0.00    -0.354 N 
ATOM     40  C   UNL A   1      41.518  28.579  33.288  1.00  0.00     0.074 A 
ATOM     41  C   UNL A   1      40.191  28.039  33.355  1.00  0.00     0.031 C 
ATOM     42  C   UNL A   1      41.112  27.073  26.859  1.00  0.00     0.029 A 
ATOM     43  C   UNL A   1      42.108  26.513  27.757  1.00  0.00     0.049 A 
ATOM     44  H   UNL A   1      42.647  27.295  29.627  1.00  0.00     0.167 HD
ATOM     45  C   UNL A   1      42.643  28.263  33.992  1.00  0.00     0.034 A 
ATOM     46  C   UNL A   1      42.924  25.430  27.595  1.00  0.00     0.034 A 
ATOM     47  C   UNL A   1      43.795  28.941  33.426  1.00  0.00     0.049 A 
ATOM     48  C   UNL A   1      43.999  25.569  28.612  1.00  0.00     0.074 A 
ATOM     49  C   UNL A   1      44.107  30.261  33.155  1.00  0.00     0.029 A 
ATOM     50  N   UNL A   1      44.663  28.194  32.654  1.00  0.00    -0.354 N 
ATOM     51  N   UNL A   1      44.867  26.546  28.599  1.00  0.00    -0.248 NA
ATOM     52  C   UNL A   1      43.777  24.961  29.916  1.00  0.00     0.031 C 
ATOM     53  C   UNL A   1      44.755  30.229  31.883  1.00  0.00     0.029 A 
ATOM     54  C   UNL A   1      44.913  28.895  31.500  1.00  0.00     0.049 A 
ATOM     55  H   UNL A   1      45.036  27.314  32.889  1.00  0.00     0.167 HD
ATOM     56  C   UNL A   1      44.953  26.969  29.918  1.00  0.00     0.074 A 
ATOM     57  C   UNL A   1      44.324  25.899  30.697  1.00  0.00     0.031 C 
ATOM     58  C   UNL A   1      45.229  28.272  30.227  1.00  0.00     0.034 A 
BRANCH  45  59
ATOM     59  C   UNL A   1      42.808  27.037  34.878  1.00  0.00     0.023 A 
ATOM     60  C   UNL A   1      43.626  26.010  34.372  1.00  0.00     0.031 A 
ATOM     61  C   UNL A   1      42.019  26.685  35.998  1.00  0.00     0.131 A 
ATOM     62  C   UNL A   1      43.519  24.693  34.849  1.00  0.00     0.055 A 
ATOM     63  C   UNL A   1      41.967  25.385  36.515  1.00  0.00     0.041 A 
ATOM     64  F   UNL A   1      41.197  27.535  36.619  1.00  0.00    -0.206 F 
ATOM     65  C   UNL A   1      42.686  24.370  35.913  1.00  0.00     0.022 A 
BRANCH  62  66
ATOM     66  S   UNL A   1      44.341  23.384  33.910  1.00  0.00     0.124 S 
ATOM     67  O   UNL A   1      43.351  23.112  32.874  1.00  0.00    -0.237 OA
ATOM     68  O   UNL A   1      45.564  24.051  33.476  1.00  0.00    -0.237 OA
ATOM     69  O   UNL A   1      44.524  22.324  34.898  1.00  0.00    -0.744 OA
ENDBRANCH  62  66
ENDBRANCH  45  59
BRANCH  46  70
ATOM     70  C   UNL A   1      42.632  24.146  26.877  1.00  0.00     0.023 A 
ATOM     71  C   UNL A   1      43.575  23.460  26.072  1.00  0.00     0.031 A 
ATOM     72  C   UNL A   1      41.449  23.437  27.189  1.00  0.00     0.131 A 
ATOM     73  C   UNL A   1      43.313  22.137  25.622  1.00  0.00     0.055 A 
ATOM     74  C   UNL A   1      41.199  22.134  26.748  1.00  0.00     0.041 A 
ATOM     75  F   UNL A   1      40.525  23.958  28.012  1.00  0.00    -0.206 F 
ATOM     76  C   UNL A   1      42.135  21.474  25.970  1.00  0.00     0.022 A 
BRANCH  73  77
ATOM     77  S   UNL A   1      44.539  21.210  24.630  1.00  0.00     0.124 S 
ATOM     78  O   UNL A   1      45.766  21.398  25.395  1.00  0.00    -0.237 OA
ATOM     79  O   UNL A   1      43.982  19.863  24.616  1.00  0.00    -0.237 OA
ATOM     80  O   UNL A   1      44.518  21.890  23.333  1.00  0.00    -0.744 OA
ENDBRANCH  73  77
ENDBRANCH  46  70
BRANCH  58  81
ATOM     81  C   UNL A   1      45.733  29.190  29.127  1.00  0.00     0.023 A 
ATOM     82  C   UNL A   1      44.959  30.156  28.439  1.00  0.00     0.031 A 
ATOM     83  C   UNL A   1      47.113  29.156  28.863  1.00  0.00     0.131 A 
ATOM     84  C   UNL A   1      45.578  31.033  27.523  1.00  0.00     0.055 A 
ATOM     85  C   UNL A   1      47.724  30.040  27.975  1.00  0.00     0.041 A 
ATOM     86  F   UNL A   1      47.906  28.280  29.502  1.00  0.00    -0.206 F 
ATOM     87  C   UNL A   1      46.958  30.977  27.297  1.00  0.00     0.022 A 
BRANCH  84  88
ATOM     88  S   UNL A   1      44.603  32.255  26.582  1.00  0.00     0.124 S 
ATOM     89  O   UNL A   1      44.053  33.123  27.615  1.00  0.00    -0.237 OA
ATOM     90  O   UNL A   1      45.608  32.856  25.708  1.00  0.00    -0.237 OA
ATOM     91  O   UNL A   1      43.610  31.434  25.885  1.00  0.00    -0.744 OA
ENDBRANCH  84  88
ENDBRANCH  58  81
ENDBRANCH  32  33
ENDBRANCH  24  27
ENDBRANCH  22  23
ENDBRANCH   1  22
TORSDOF 16
ENDMDL
