MODEL 1
REMARK VINA RESULT:     -13.2      0.000      0.000
REMARK SMILES Cc1nn(-c2cccc(C(=O)NCCCNC(=O)c3ccc(-c4c5nc(c(-c6cc(S(=O)(=O)[O-])ccc6F)c6ccc([nH]6)c(-c6cc(S(=O)(=O)[O-])ccc6F)c6nc(c(-c7cc(S(=O)(=O)[O-])ccc7F)c7ccc4[nH]7)C=C6)C=C5)cc3)c2)c(C)c1Cl
REMARK SMILES IDX 15 1 14 2 13 3 12 4 10 5 11 6 9 8 5 9 6 10 82 11 7 12 8 13
REMARK SMILES IDX 4 14 1 15 2 16 3 17 85 18 83 19 86 20 84 21 16 22 17 23
REMARK SMILES IDX 18 25 19 26 20 27 81 28 21 29 80 30 22 31 23 32 24 33 74 34
REMARK SMILES IDX 25 35 79 36 73 37 75 38 26 39 78 40 72 41 71 42 27 44 59 45
REMARK SMILES IDX 39 46 58 47 40 48 43 49 57 50 76 51 41 52 42 53 56 55 77 56
REMARK SMILES IDX 44 57 28 58 29 59 37 60 30 61 36 62 38 63 35 64 31 65 32 66
REMARK SMILES IDX 33 67 34 68 60 69 61 70 69 71 62 72 68 73 70 74 67 75 63 76
REMARK SMILES IDX 64 77 65 78 66 79 45 80 46 81 54 82 47 83 53 84 55 85 52 86
REMARK SMILES IDX 48 87 49 88 50 89 51 90
REMARK H PARENT 12 7 16 24 75 43 43 54
REMARK Flexibility Score: inf
ROOT
ATOM      1  C   UNL A   1      35.400  29.490  27.426  1.00  0.00     0.118 C 
ENDROOT
BRANCH   1   2
ATOM      2  C   UNL A   1      34.043  28.883  27.136  1.00  0.00     0.042 C 
BRANCH   2   3
ATOM      3  C   UNL A   1      33.147  29.856  26.351  1.00  0.00     0.118 C 
BRANCH   3   4
ATOM      4  N   UNL A   1      33.330  29.761  24.911  1.00  0.00    -0.352 N 
ATOM      5  C   UNL A   1      32.899  28.867  23.960  1.00  0.00     0.251 C 
ATOM      6  O   UNL A   1      33.120  29.152  22.782  1.00  0.00    -0.269 OA
ATOM      7  H   UNL A   1      33.878  30.490  24.540  1.00  0.00     0.163 HD
BRANCH   5   8
ATOM      8  C   UNL A   1      32.178  27.590  24.258  1.00  0.00     0.041 A 
ATOM      9  C   UNL A   1      32.065  25.204  24.745  1.00  0.00     0.066 A 
ATOM     10  C   UNL A   1      30.675  25.223  24.715  1.00  0.00     0.028 A 
ATOM     11  C   UNL A   1      32.798  26.363  24.464  1.00  0.00     0.042 A 
ATOM     12  C   UNL A   1      30.030  26.444  24.512  1.00  0.00     0.003 A 
ATOM     13  C   UNL A   1      30.774  27.617  24.302  1.00  0.00     0.014 A 
BRANCH   9  14
ATOM     14  N   UNL A   1      32.785  24.025  25.048  1.00  0.00    -0.236 N 
ATOM     15  C   UNL A   1      33.869  21.822  27.599  1.00  0.00     0.070 C 
ATOM     16  C   UNL A   1      33.515  22.488  26.323  1.00  0.00     0.079 A 
ATOM     17  N   UNL A   1      33.261  23.806  26.297  1.00  0.00    -0.171 NA
ATOM     18  C   UNL A   1      33.404  21.914  25.039  1.00  0.00     0.085 A 
ATOM     19  C   UNL A   1      32.980  22.932  24.218  1.00  0.00     0.060 A 
ATOM     20  Cl  UNL A   1      33.738  20.309  24.604  1.00  0.00    -0.080 Cl
ATOM     21  C   UNL A   1      32.785  22.958  22.744  1.00  0.00     0.068 C 
ENDBRANCH   9  14
ENDBRANCH   5   8
ENDBRANCH   3   4
ENDBRANCH   2   3
ENDBRANCH   1   2
BRANCH   1  22
ATOM     22  N   UNL A   1      35.568  29.824  28.852  1.00  0.00    -0.352 N 
ATOM     23  C   UNL A   1      36.569  29.427  29.725  1.00  0.00     0.251 C 
ATOM     24  H   UNL A   1      34.874  30.408  29.238  1.00  0.00     0.163 HD
ATOM     25  O   UNL A   1      36.396  29.487  30.943  1.00  0.00    -0.269 OA
BRANCH  23  26
ATOM     26  C   UNL A   1      37.836  28.946  29.154  1.00  0.00     0.039 A 
ATOM     27  C   UNL A   1      38.449  29.499  28.026  1.00  0.00     0.014 A 
ATOM     28  C   UNL A   1      38.463  27.945  29.877  1.00  0.00     0.014 A 
ATOM     29  C   UNL A   1      39.732  29.058  27.693  1.00  0.00     0.010 A 
ATOM     30  C   UNL A   1      39.807  27.795  29.758  1.00  0.00     0.010 A 
ATOM     31  C   UNL A   1      40.404  28.206  28.583  1.00  0.00    -0.014 A 
BRANCH  31  32
ATOM     32  C   UNL A   1      41.778  27.757  28.416  1.00  0.00     0.031 A 
ATOM     33  C   UNL A   1      41.884  26.488  27.659  1.00  0.00     0.074 A 
ATOM     34  C   UNL A   1      42.830  28.575  28.664  1.00  0.00     0.049 A 
ATOM     35  N   UNL A   1      42.143  25.316  28.130  1.00  0.00    -0.248 NA
ATOM     36  C   UNL A   1      41.427  26.469  26.257  1.00  0.00     0.031 C 
ATOM     37  C   UNL A   1      42.817  29.982  29.104  1.00  0.00     0.029 A 
ATOM     38  N   UNL A   1      44.158  28.354  28.478  1.00  0.00    -0.354 N 
ATOM     39  C   UNL A   1      42.170  24.467  27.032  1.00  0.00     0.074 A 
ATOM     40  C   UNL A   1      41.468  25.162  25.990  1.00  0.00     0.031 C 
ATOM     41  C   UNL A   1      44.043  30.534  28.942  1.00  0.00     0.029 A 
ATOM     42  C   UNL A   1      44.972  29.486  28.562  1.00  0.00     0.049 A 
ATOM     43  H   UNL A   1      44.521  27.457  28.296  1.00  0.00     0.167 HD
ATOM     44  C   UNL A   1      43.017  23.399  27.001  1.00  0.00     0.034 A 
ATOM     45  C   UNL A   1      46.319  29.557  28.352  1.00  0.00     0.034 A 
ATOM     46  C   UNL A   1      43.585  23.179  28.316  1.00  0.00     0.049 A 
ATOM     47  C   UNL A   1      46.826  28.171  28.505  1.00  0.00     0.074 A 
ATOM     48  C   UNL A   1      43.075  22.839  29.553  1.00  0.00     0.029 A 
ATOM     49  N   UNL A   1      44.822  23.738  28.558  1.00  0.00    -0.354 N 
ATOM     50  N   UNL A   1      46.772  27.518  29.634  1.00  0.00    -0.248 NA
ATOM     51  C   UNL A   1      46.902  27.335  27.317  1.00  0.00     0.031 C 
ATOM     52  C   UNL A   1      43.812  23.630  30.486  1.00  0.00     0.029 A 
ATOM     53  C   UNL A   1      44.802  24.336  29.795  1.00  0.00     0.049 A 
ATOM     54  H   UNL A   1      45.592  23.713  27.945  1.00  0.00     0.167 HD
ATOM     55  C   UNL A   1      46.357  26.239  29.294  1.00  0.00     0.074 A 
ATOM     56  C   UNL A   1      46.563  26.154  27.848  1.00  0.00     0.031 C 
ATOM     57  C   UNL A   1      45.614  25.487  30.164  1.00  0.00     0.034 A 
BRANCH  44  58
ATOM     58  C   UNL A   1      43.654  22.810  25.757  1.00  0.00     0.023 A 
ATOM     59  C   UNL A   1      43.723  21.404  25.687  1.00  0.00     0.031 A 
ATOM     60  C   UNL A   1      44.418  23.505  24.792  1.00  0.00     0.131 A 
ATOM     61  C   UNL A   1      44.591  20.762  24.786  1.00  0.00     0.055 A 
ATOM     62  C   UNL A   1      45.235  22.860  23.858  1.00  0.00     0.041 A 
ATOM     63  F   UNL A   1      44.492  24.838  24.741  1.00  0.00    -0.206 F 
ATOM     64  C   UNL A   1      45.352  21.482  23.872  1.00  0.00     0.022 A 
BRANCH  61  65
ATOM     65  S   UNL A   1      44.835  18.976  24.952  1.00  0.00     0.124 S 
ATOM     66  O   UNL A   1      43.628  18.576  25.664  1.00  0.00    -0.237 OA
ATOM     67  O   UNL A   1      44.931  18.557  23.557  1.00  0.00    -0.237 OA
ATOM     68  O   UNL A   1      46.075  18.875  25.719  1.00  0.00    -0.744 OA
ENDBRANCH  61  65
ENDBRANCH  44  58
BRANCH  45  69
ATOM     69  C   UNL A   1      47.087  30.641  27.665  1.00  0.00     0.023 A 
ATOM     70  C   UNL A   1      46.496  31.763  27.036  1.00  0.00     0.031 A 
ATOM     71  C   UNL A   1      48.485  30.696  27.862  1.00  0.00     0.131 A 
ATOM     72  C   UNL A   1      47.297  32.867  26.637  1.00  0.00     0.055 A 
ATOM     73  C   UNL A   1      49.267  31.788  27.475  1.00  0.00     0.041 A 
ATOM     74  F   UNL A   1      49.126  29.716  28.520  1.00  0.00    -0.206 F 
ATOM     75  C   UNL A   1      48.674  32.882  26.867  1.00  0.00     0.022 A 
BRANCH  72  76
ATOM     76  S   UNL A   1      46.555  34.344  25.854  1.00  0.00     0.124 S 
ATOM     77  O   UNL A   1      45.439  33.778  25.106  1.00  0.00    -0.237 OA
ATOM     78  O   UNL A   1      46.213  35.171  27.006  1.00  0.00    -0.237 OA
ATOM     79  O   UNL A   1      47.638  34.875  25.024  1.00  0.00    -0.744 OA
ENDBRANCH  72  76
ENDBRANCH  45  69
BRANCH  57  80
ATOM     80  C   UNL A   1      45.504  25.979  31.601  1.00  0.00     0.023 A 
ATOM     81  C   UNL A   1      44.365  26.595  32.178  1.00  0.00     0.031 A 
ATOM     82  C   UNL A   1      46.592  25.711  32.448  1.00  0.00     0.131 A 
ATOM     83  C   UNL A   1      44.359  26.928  33.549  1.00  0.00     0.055 A 
ATOM     84  C   UNL A   1      46.572  26.018  33.808  1.00  0.00     0.041 A 
ATOM     85  F   UNL A   1      47.693  25.109  31.968  1.00  0.00    -0.206 F 
ATOM     86  C   UNL A   1      45.457  26.634  34.363  1.00  0.00     0.022 A 
BRANCH  83  87
ATOM     87  S   UNL A   1      42.933  27.782  34.306  1.00  0.00     0.124 S 
ATOM     88  O   UNL A   1      43.544  28.876  35.050  1.00  0.00    -0.237 OA
ATOM     89  O   UNL A   1      42.138  28.166  33.143  1.00  0.00    -0.237 OA
ATOM     90  O   UNL A   1      42.321  26.746  35.142  1.00  0.00    -0.744 OA
ENDBRANCH  83  87
ENDBRANCH  57  80
ENDBRANCH  31  32
ENDBRANCH  23  26
ENDBRANCH   1  22
TORSDOF 14
ENDMDL
MODEL 2
REMARK VINA RESULT:     -13.0      3.901      6.423
REMARK SMILES Cc1nn(-c2cccc(C(=O)NCCCNC(=O)c3ccc(-c4c5nc(c(-c6cc(S(=O)(=O)[O-])ccc6F)c6ccc([nH]6)c(-c6cc(S(=O)(=O)[O-])ccc6F)c6nc(c(-c7cc(S(=O)(=O)[O-])ccc7F)c7ccc4[nH]7)C=C6)C=C5)cc3)c2)c(C)c1Cl
REMARK SMILES IDX 15 1 14 2 13 3 12 4 10 5 11 6 9 8 5 9 6 10 82 11 7 12 8 13
REMARK SMILES IDX 4 14 1 15 2 16 3 17 85 18 83 19 86 20 84 21 16 22 17 23
REMARK SMILES IDX 18 25 19 26 20 27 81 28 21 29 80 30 22 31 23 32 24 33 74 34
REMARK SMILES IDX 25 35 79 36 73 37 75 38 26 39 78 40 72 41 71 42 27 44 59 45
REMARK SMILES IDX 39 46 58 47 40 48 43 49 57 50 76 51 41 52 42 53 56 55 77 56
REMARK SMILES IDX 44 57 28 58 29 59 37 60 30 61 36 62 38 63 35 64 31 65 32 66
REMARK SMILES IDX 33 67 34 68 60 69 61 70 69 71 62 72 68 73 70 74 67 75 63 76
REMARK SMILES IDX 64 77 65 78 66 79 45 80 46 81 54 82 47 83 53 84 55 85 52 86
REMARK SMILES IDX 48 87 49 88 50 89 51 90
REMARK H PARENT 12 7 16 24 75 43 43 54
REMARK Flexibility Score: inf
ROOT
ATOM      1  C   UNL A   1      37.326  30.186  31.141  1.00  0.00     0.118 C 
ENDROOT
BRANCH   1   2
ATOM      2  C   UNL A   1      36.934  29.693  32.519  1.00  0.00     0.042 C 
BRANCH   2   3
ATOM      3  C   UNL A   1      38.170  29.403  33.386  1.00  0.00     0.118 C 
BRANCH   3   4
ATOM      4  N   UNL A   1      38.094  30.010  34.706  1.00  0.00    -0.352 N 
ATOM      5  C   UNL A   1      37.919  31.300  35.145  1.00  0.00     0.251 C 
ATOM      6  O   UNL A   1      37.762  31.464  36.356  1.00  0.00    -0.269 OA
ATOM      7  H   UNL A   1      38.188  29.359  35.439  1.00  0.00     0.163 HD
BRANCH   5   8
ATOM      8  C   UNL A   1      37.896  32.505  34.257  1.00  0.00     0.041 A 
ATOM      9  C   UNL A   1      36.787  34.243  32.958  1.00  0.00     0.066 A 
ATOM     10  C   UNL A   1      38.005  34.728  32.493  1.00  0.00     0.028 A 
ATOM     11  C   UNL A   1      36.740  33.113  33.783  1.00  0.00     0.042 A 
ATOM     12  C   UNL A   1      39.179  34.133  32.957  1.00  0.00     0.003 A 
ATOM     13  C   UNL A   1      39.125  33.044  33.842  1.00  0.00     0.014 A 
BRANCH   9  14
ATOM     14  N   UNL A   1      35.562  34.861  32.614  1.00  0.00    -0.236 N 
ATOM     15  C   UNL A   1      33.653  37.841  32.694  1.00  0.00     0.070 C 
ATOM     16  C   UNL A   1      34.210  36.492  32.437  1.00  0.00     0.079 A 
ATOM     17  N   UNL A   1      35.149  35.983  33.250  1.00  0.00    -0.171 NA
ATOM     18  C   UNL A   1      33.878  35.592  31.401  1.00  0.00     0.085 A 
ATOM     19  C   UNL A   1      34.726  34.522  31.561  1.00  0.00     0.060 A 
ATOM     20  Cl  UNL A   1      32.675  35.789  30.222  1.00  0.00    -0.080 Cl
ATOM     21  C   UNL A   1      34.780  33.225  30.836  1.00  0.00     0.068 C 
ENDBRANCH   9  14
ENDBRANCH   5   8
ENDBRANCH   3   4
ENDBRANCH   2   3
ENDBRANCH   1   2
BRANCH   1  22
ATOM     22  N   UNL A   1      36.357  29.781  30.107  1.00  0.00    -0.352 N 
ATOM     23  C   UNL A   1      36.596  29.393  28.798  1.00  0.00     0.251 C 
ATOM     24  H   UNL A   1      35.412  29.785  30.384  1.00  0.00     0.163 HD
ATOM     25  O   UNL A   1      35.691  29.423  27.963  1.00  0.00    -0.269 OA
BRANCH  23  26
ATOM     26  C   UNL A   1      37.949  28.939  28.445  1.00  0.00     0.039 A 
ATOM     27  C   UNL A   1      38.733  29.514  27.440  1.00  0.00     0.014 A 
ATOM     28  C   UNL A   1      38.464  27.942  29.256  1.00  0.00     0.014 A 
ATOM     29  C   UNL A   1      40.061  29.098  27.324  1.00  0.00     0.010 A 
ATOM     30  C   UNL A   1      39.811  27.814  29.363  1.00  0.00     0.010 A 
ATOM     31  C   UNL A   1      40.589  28.247  28.308  1.00  0.00    -0.014 A 
BRANCH  31  32
ATOM     32  C   UNL A   1      41.980  27.823  28.371  1.00  0.00     0.031 A 
ATOM     33  C   UNL A   1      42.248  26.601  27.579  1.00  0.00     0.074 A 
ATOM     34  C   UNL A   1      42.952  28.637  28.852  1.00  0.00     0.049 A 
ATOM     35  N   UNL A   1      42.441  25.407  28.026  1.00  0.00    -0.248 NA
ATOM     36  C   UNL A   1      42.055  26.657  26.119  1.00  0.00     0.031 C 
ATOM     37  C   UNL A   1      42.830  30.015  29.358  1.00  0.00     0.029 A 
ATOM     38  N   UNL A   1      44.296  28.440  28.900  1.00  0.00    -0.354 N 
ATOM     39  C   UNL A   1      42.685  24.621  26.906  1.00  0.00     0.074 A 
ATOM     40  C   UNL A   1      42.170  25.367  25.793  1.00  0.00     0.031 C 
ATOM     41  C   UNL A   1      44.053  30.589  29.453  1.00  0.00     0.029 A 
ATOM     42  C   UNL A   1      45.058  29.574  29.193  1.00  0.00     0.049 A 
ATOM     43  H   UNL A   1      44.704  27.559  28.740  1.00  0.00     0.167 HD
ATOM     44  C   UNL A   1      43.546  23.566  26.973  1.00  0.00     0.034 A 
ATOM     45  C   UNL A   1      46.419  29.670  29.237  1.00  0.00     0.034 A 
ATOM     46  C   UNL A   1      43.869  23.277  28.356  1.00  0.00     0.049 A 
ATOM     47  C   UNL A   1      46.917  28.283  29.406  1.00  0.00     0.074 A 
ATOM     48  C   UNL A   1      43.149  22.862  29.458  1.00  0.00     0.029 A 
ATOM     49  N   UNL A   1      45.029  23.834  28.850  1.00  0.00    -0.354 N 
ATOM     50  N   UNL A   1      46.672  27.566  30.468  1.00  0.00    -0.248 NA
ATOM     51  C   UNL A   1      47.226  27.517  28.207  1.00  0.00     0.031 C 
ATOM     52  C   UNL A   1      43.687  23.606  30.552  1.00  0.00     0.029 A 
ATOM     53  C   UNL A   1      44.771  24.361  30.094  1.00  0.00     0.049 A 
ATOM     54  H   UNL A   1      45.898  23.852  28.389  1.00  0.00     0.167 HD
ATOM     55  C   UNL A   1      46.353  26.305  29.990  1.00  0.00     0.074 A 
ATOM     56  C   UNL A   1      46.820  26.305  28.603  1.00  0.00     0.031 C 
ATOM     57  C   UNL A   1      45.479  25.497  30.666  1.00  0.00     0.034 A 
BRANCH  44  58
ATOM     58  C   UNL A   1      44.410  23.056  25.837  1.00  0.00     0.023 A 
ATOM     59  C   UNL A   1      44.355  21.672  25.572  1.00  0.00     0.031 A 
ATOM     60  C   UNL A   1      45.455  23.756  25.193  1.00  0.00     0.131 A 
ATOM     61  C   UNL A   1      45.351  21.037  24.811  1.00  0.00     0.055 A 
ATOM     62  C   UNL A   1      46.410  23.129  24.387  1.00  0.00     0.041 A 
ATOM     63  F   UNL A   1      45.671  25.063  25.364  1.00  0.00    -0.206 F 
ATOM     64  C   UNL A   1      46.384  21.757  24.219  1.00  0.00     0.022 A 
BRANCH  61  65
ATOM     65  S   UNL A   1      45.369  19.227  24.756  1.00  0.00     0.124 S 
ATOM     66  O   UNL A   1      46.670  18.926  25.342  1.00  0.00    -0.237 OA
ATOM     67  O   UNL A   1      44.202  18.892  25.565  1.00  0.00    -0.237 OA
ATOM     68  O   UNL A   1      45.245  18.932  23.330  1.00  0.00    -0.744 OA
ENDBRANCH  61  65
ENDBRANCH  44  58
BRANCH  45  69
ATOM     69  C   UNL A   1      47.276  30.799  28.763  1.00  0.00     0.023 A 
ATOM     70  C   UNL A   1      46.917  31.694  27.725  1.00  0.00     0.031 A 
ATOM     71  C   UNL A   1      48.395  31.164  29.546  1.00  0.00     0.131 A 
ATOM     72  C   UNL A   1      47.666  32.884  27.512  1.00  0.00     0.055 A 
ATOM     73  C   UNL A   1      49.121  32.339  29.337  1.00  0.00     0.041 A 
ATOM     74  F   UNL A   1      48.765  30.421  30.602  1.00  0.00    -0.206 F 
ATOM     75  C   UNL A   1      48.754  33.209  28.324  1.00  0.00     0.022 A 
BRANCH  72  76
ATOM     76  S   UNL A   1      47.203  34.073  26.202  1.00  0.00     0.124 S 
ATOM     77  O   UNL A   1      46.014  33.460  25.624  1.00  0.00    -0.237 OA
ATOM     78  O   UNL A   1      46.998  35.305  26.955  1.00  0.00    -0.237 OA
ATOM     79  O   UNL A   1      48.372  34.086  25.320  1.00  0.00    -0.744 OA
ENDBRANCH  72  76
ENDBRANCH  45  69
BRANCH  57  80
ATOM     80  C   UNL A   1      45.099  25.904  32.083  1.00  0.00     0.023 A 
ATOM     81  C   UNL A   1      43.927  26.612  32.453  1.00  0.00     0.031 A 
ATOM     82  C   UNL A   1      45.937  25.457  33.118  1.00  0.00     0.131 A 
ATOM     83  C   UNL A   1      43.647  26.855  33.815  1.00  0.00     0.055 A 
ATOM     84  C   UNL A   1      45.643  25.677  34.464  1.00  0.00     0.041 A 
ATOM     85  F   UNL A   1      47.051  24.762  32.837  1.00  0.00    -0.206 F 
ATOM     86  C   UNL A   1      44.499  26.382  34.817  1.00  0.00     0.022 A 
BRANCH  83  87
ATOM     87  S   UNL A   1      42.180  27.819  34.318  1.00  0.00     0.124 S 
ATOM     88  O   UNL A   1      42.674  28.650  35.409  1.00  0.00    -0.237 OA
ATOM     89  O   UNL A   1      41.824  28.523  33.089  1.00  0.00    -0.237 OA
ATOM     90  O   UNL A   1      41.220  26.790  34.726  1.00  0.00    -0.744 OA
ENDBRANCH  83  87
ENDBRANCH  57  80
ENDBRANCH  31  32
ENDBRANCH  23  26
ENDBRANCH   1  22
TORSDOF 14
ENDMDL
MODEL 3
REMARK VINA RESULT:     -13.0      3.326      8.584
REMARK SMILES Cc1nn(-c2cccc(C(=O)NCCCNC(=O)c3ccc(-c4c5nc(c(-c6cc(S(=O)(=O)[O-])ccc6F)c6ccc([nH]6)c(-c6cc(S(=O)(=O)[O-])ccc6F)c6nc(c(-c7cc(S(=O)(=O)[O-])ccc7F)c7ccc4[nH]7)C=C6)C=C5)cc3)c2)c(C)c1Cl
REMARK SMILES IDX 15 1 14 2 13 3 12 4 10 5 11 6 9 8 5 9 6 10 82 11 7 12 8 13
REMARK SMILES IDX 4 14 1 15 2 16 3 17 85 18 83 19 86 20 84 21 16 22 17 23
REMARK SMILES IDX 18 25 19 26 20 27 81 28 21 29 80 30 22 31 23 32 24 33 74 34
REMARK SMILES IDX 25 35 79 36 73 37 75 38 26 39 78 40 72 41 71 42 27 44 59 45
REMARK SMILES IDX 39 46 58 47 40 48 43 49 57 50 76 51 41 52 42 53 56 55 77 56
REMARK SMILES IDX 44 57 28 58 29 59 37 60 30 61 36 62 38 63 35 64 31 65 32 66
REMARK SMILES IDX 33 67 34 68 60 69 61 70 69 71 62 72 68 73 70 74 67 75 63 76
REMARK SMILES IDX 64 77 65 78 66 79 45 80 46 81 54 82 47 83 53 84 55 85 52 86
REMARK SMILES IDX 48 87 49 88 50 89 51 90
REMARK H PARENT 12 7 16 24 75 43 43 54
REMARK Flexibility Score: inf
ROOT
ATOM      1  C   UNL A   1      38.840  20.524  25.607  1.00  0.00     0.118 C 
ENDROOT
BRANCH   1   2
ATOM      2  C   UNL A   1      37.582  20.047  24.909  1.00  0.00     0.042 C 
BRANCH   2   3
ATOM      3  C   UNL A   1      36.510  21.148  24.866  1.00  0.00     0.118 C 
BRANCH   3   4
ATOM      4  N   UNL A   1      35.547  21.047  25.953  1.00  0.00    -0.352 N 
ATOM      5  C   UNL A   1      34.234  21.428  26.092  1.00  0.00     0.251 C 
ATOM      6  O   UNL A   1      33.652  21.069  27.117  1.00  0.00    -0.269 OA
ATOM      7  H   UNL A   1      35.915  20.616  26.758  1.00  0.00     0.163 HD
BRANCH   5   8
ATOM      8  C   UNL A   1      33.471  22.232  25.087  1.00  0.00     0.041 A 
ATOM      9  C   UNL A   1      32.612  24.310  24.145  1.00  0.00     0.066 A 
ATOM     10  C   UNL A   1      31.906  23.620  23.165  1.00  0.00     0.028 A 
ATOM     11  C   UNL A   1      33.336  23.615  25.121  1.00  0.00     0.042 A 
ATOM     12  C   UNL A   1      32.028  22.231  23.110  1.00  0.00     0.003 A 
ATOM     13  C   UNL A   1      32.815  21.547  24.051  1.00  0.00     0.014 A 
BRANCH   9  14
ATOM     14  N   UNL A   1      32.620  25.723  24.198  1.00  0.00    -0.236 N 
ATOM     15  C   UNL A   1      33.913  28.706  22.797  1.00  0.00     0.070 C 
ATOM     16  C   UNL A   1      33.150  27.673  23.537  1.00  0.00     0.079 A 
ATOM     17  N   UNL A   1      33.643  26.431  23.664  1.00  0.00    -0.171 NA
ATOM     18  C   UNL A   1      31.900  27.802  24.179  1.00  0.00     0.085 A 
ATOM     19  C   UNL A   1      31.596  26.545  24.645  1.00  0.00     0.060 A 
ATOM     20  Cl  UNL A   1      30.980  29.217  24.351  1.00  0.00    -0.080 Cl
ATOM     21  C   UNL A   1      30.462  26.083  25.488  1.00  0.00     0.068 C 
ENDBRANCH   9  14
ENDBRANCH   5   8
ENDBRANCH   3   4
ENDBRANCH   2   3
ENDBRANCH   1   2
BRANCH   1  22
ATOM     22  N   UNL A   1      39.826  19.442  25.779  1.00  0.00    -0.352 N 
ATOM     23  C   UNL A   1      41.195  19.538  25.972  1.00  0.00     0.251 C 
ATOM     24  H   UNL A   1      39.463  18.526  25.753  1.00  0.00     0.163 HD
ATOM     25  O   UNL A   1      41.927  18.572  25.751  1.00  0.00    -0.269 OA
BRANCH  23  26
ATOM     26  C   UNL A   1      41.739  20.816  26.457  1.00  0.00     0.039 A 
ATOM     27  C   UNL A   1      42.196  21.841  25.624  1.00  0.00     0.014 A 
ATOM     28  C   UNL A   1      41.680  20.996  27.828  1.00  0.00     0.014 A 
ATOM     29  C   UNL A   1      42.527  23.065  26.210  1.00  0.00     0.010 A 
ATOM     30  C   UNL A   1      41.659  22.260  28.323  1.00  0.00     0.010 A 
ATOM     31  C   UNL A   1      42.241  23.260  27.570  1.00  0.00    -0.014 A 
BRANCH  31  32
ATOM     32  C   UNL A   1      42.434  24.515  28.280  1.00  0.00     0.031 A 
ATOM     33  C   UNL A   1      41.275  25.430  28.163  1.00  0.00     0.074 A 
ATOM     34  C   UNL A   1      43.431  24.677  29.185  1.00  0.00     0.049 A 
ATOM     35  N   UNL A   1      41.189  26.493  27.438  1.00  0.00    -0.248 NA
ATOM     36  C   UNL A   1      39.984  25.000  28.730  1.00  0.00     0.031 C 
ATOM     37  C   UNL A   1      44.443  23.699  29.622  1.00  0.00     0.029 A 
ATOM     38  N   UNL A   1      43.699  25.735  29.994  1.00  0.00    -0.354 N 
ATOM     39  C   UNL A   1      39.930  27.021  27.694  1.00  0.00     0.074 A 
ATOM     40  C   UNL A   1      39.166  25.942  28.254  1.00  0.00     0.031 C 
ATOM     41  C   UNL A   1      45.058  24.134  30.748  1.00  0.00     0.029 A 
ATOM     42  C   UNL A   1      44.624  25.492  31.013  1.00  0.00     0.049 A 
ATOM     43  H   UNL A   1      43.270  26.613  29.871  1.00  0.00     0.167 HD
ATOM     44  C   UNL A   1      39.728  28.369  27.686  1.00  0.00     0.034 A 
ATOM     45  C   UNL A   1      45.019  26.352  31.997  1.00  0.00     0.034 A 
ATOM     46  C   UNL A   1      40.880  29.040  27.118  1.00  0.00     0.049 A 
ATOM     47  C   UNL A   1      44.678  27.711  31.508  1.00  0.00     0.074 A 
ATOM     48  C   UNL A   1      41.492  29.045  25.881  1.00  0.00     0.029 A 
ATOM     49  N   UNL A   1      41.821  29.514  28.007  1.00  0.00    -0.354 N 
ATOM     50  N   UNL A   1      45.234  28.246  30.455  1.00  0.00    -0.248 NA
ATOM     51  C   UNL A   1      43.373  28.255  31.855  1.00  0.00     0.031 C 
ATOM     52  C   UNL A   1      42.892  29.071  26.162  1.00  0.00     0.029 A 
ATOM     53  C   UNL A   1      43.073  29.184  27.543  1.00  0.00     0.049 A 
ATOM     54  H   UNL A   1      41.629  30.008  28.836  1.00  0.00     0.167 HD
ATOM     55  C   UNL A   1      44.194  28.846  29.761  1.00  0.00     0.074 A 
ATOM     56  C   UNL A   1      43.096  28.917  30.726  1.00  0.00     0.031 C 
ATOM     57  C   UNL A   1      44.229  28.953  28.397  1.00  0.00     0.034 A 
BRANCH  44  58
ATOM     58  C   UNL A   1      38.717  29.118  28.533  1.00  0.00     0.023 A 
ATOM     59  C   UNL A   1      38.976  29.183  29.917  1.00  0.00     0.031 A 
ATOM     60  C   UNL A   1      37.423  29.524  28.137  1.00  0.00     0.131 A 
ATOM     61  C   UNL A   1      37.963  29.520  30.832  1.00  0.00     0.055 A 
ATOM     62  C   UNL A   1      36.436  29.917  29.046  1.00  0.00     0.041 A 
ATOM     63  F   UNL A   1      37.003  29.490  26.870  1.00  0.00    -0.206 F 
ATOM     64  C   UNL A   1      36.691  29.884  30.405  1.00  0.00     0.022 A 
BRANCH  61  65
ATOM     65  S   UNL A   1      38.292  29.304  32.599  1.00  0.00     0.124 S 
ATOM     66  O   UNL A   1      37.175  28.460  33.007  1.00  0.00    -0.237 OA
ATOM     67  O   UNL A   1      39.607  28.673  32.583  1.00  0.00    -0.237 OA
ATOM     68  O   UNL A   1      38.263  30.670  33.117  1.00  0.00    -0.744 OA
ENDBRANCH  61  65
ENDBRANCH  44  58
BRANCH  45  69
ATOM     69  C   UNL A   1      45.296  26.041  33.433  1.00  0.00     0.023 A 
ATOM     70  C   UNL A   1      44.353  26.192  34.479  1.00  0.00     0.031 A 
ATOM     71  C   UNL A   1      46.471  25.321  33.746  1.00  0.00     0.131 A 
ATOM     72  C   UNL A   1      44.610  25.636  35.762  1.00  0.00     0.055 A 
ATOM     73  C   UNL A   1      46.713  24.769  35.007  1.00  0.00     0.041 A 
ATOM     74  F   UNL A   1      47.387  25.058  32.800  1.00  0.00    -0.206 F 
ATOM     75  C   UNL A   1      45.779  24.918  36.018  1.00  0.00     0.022 A 
BRANCH  72  76
ATOM     76  S   UNL A   1      43.395  25.785  37.120  1.00  0.00     0.124 S 
ATOM     77  O   UNL A   1      44.151  25.314  38.274  1.00  0.00    -0.237 OA
ATOM     78  O   UNL A   1      43.068  27.206  37.094  1.00  0.00    -0.237 OA
ATOM     79  O   UNL A   1      42.303  24.901  36.706  1.00  0.00    -0.744 OA
ENDBRANCH  72  76
ENDBRANCH  45  69
BRANCH  57  80
ATOM     80  C   UNL A   1      45.552  28.655  27.703  1.00  0.00     0.023 A 
ATOM     81  C   UNL A   1      45.918  27.415  27.121  1.00  0.00     0.031 A 
ATOM     82  C   UNL A   1      46.442  29.730  27.547  1.00  0.00     0.131 A 
ATOM     83  C   UNL A   1      47.142  27.293  26.429  1.00  0.00     0.055 A 
ATOM     84  C   UNL A   1      47.638  29.611  26.840  1.00  0.00     0.041 A 
ATOM     85  F   UNL A   1      46.144  30.938  28.055  1.00  0.00    -0.206 F 
ATOM     86  C   UNL A   1      47.996  28.390  26.284  1.00  0.00     0.022 A 
BRANCH  83  87
ATOM     87  S   UNL A   1      47.671  25.693  25.725  1.00  0.00     0.124 S 
ATOM     88  O   UNL A   1      48.949  26.002  25.095  1.00  0.00    -0.237 OA
ATOM     89  O   UNL A   1      47.731  24.831  26.902  1.00  0.00    -0.237 OA
ATOM     90  O   UNL A   1      46.596  25.361  24.787  1.00  0.00    -0.744 OA
ENDBRANCH  83  87
ENDBRANCH  57  80
ENDBRANCH  31  32
ENDBRANCH  23  26
ENDBRANCH   1  22
TORSDOF 14
ENDMDL
