MODEL 1
REMARK VINA RESULT:     -10.9      0.000      0.000
REMARK SMILES CCC[N@@H+](C1CC1)[C@@H]1CC[C@]([NH2+]C2CC2)(C(=O)NCCCNC(=O)c2ccc(-c3c4nc(c(-c5cc(S(=O)(=O)[O-])ccc5F)c5ccc([nH]5)c(-c5cc(S(=O)(=O)[O-])ccc5F)c5nc(c(-c6cc(S(=O)(=O)[O-])ccc6F)c6ccc3[nH]6)C=C5)C=C4)cc2)C1
REMARK SMILES IDX 20 1 19 2 18 3 16 4 17 5 11 7 8 8 9 9 88 10 10 11 4 12 3 14
REMARK SMILES IDX 2 15 1 16 5 17 6 18 7 19 12 20 13 23 14 24 15 25 21 26 22 27
REMARK SMILES IDX 23 28 24 30 25 31 26 32 87 33 27 34 86 35 28 36 29 37 30 38
REMARK SMILES IDX 80 39 31 40 85 41 79 42 81 43 32 44 84 45 78 46 77 47 33 49
REMARK SMILES IDX 65 50 45 51 64 52 46 53 49 54 63 55 82 56 47 57 48 58 62 60
REMARK SMILES IDX 83 61 50 62 34 63 35 64 43 65 36 66 42 67 44 68 41 69 37 70
REMARK SMILES IDX 38 71 39 72 40 73 66 74 67 75 75 76 68 77 74 78 76 79 73 80
REMARK SMILES IDX 69 81 70 82 71 83 72 84 51 85 52 86 60 87 53 88 59 89 61 90
REMARK SMILES IDX 58 91 54 92 55 93 56 94 57 95
REMARK H PARENT 18 6 4 13 12 21 12 22 22 29 81 48 49 59
REMARK Flexibility Score: inf
ROOT
ATOM      1  C   UNL A   1      32.170  30.021  25.382  1.00  0.00     0.042 C 
ENDROOT
BRANCH   1   2
ATOM      2  C   UNL A   1      33.375  29.111  25.182  1.00  0.00     0.118 C 
BRANCH   2   3
ATOM      3  N   UNL A   1      33.740  29.034  23.779  1.00  0.00    -0.351 N 
ATOM      4  C   UNL A   1      33.680  28.017  22.876  1.00  0.00     0.281 C 
ATOM      5  O   UNL A   1      34.278  28.223  21.812  1.00  0.00    -0.268 OA
ATOM      6  H   UNL A   1      34.099  29.874  23.412  1.00  0.00     0.163 HD
BRANCH   4   7
ATOM      7  C   UNL A   1      32.868  26.694  23.122  1.00  0.00     0.181 C 
ATOM      8  C   UNL A   1      33.243  24.450  24.002  1.00  0.00     0.191 C 
ATOM      9  C   UNL A   1      33.364  24.362  22.471  1.00  0.00     0.072 C 
ATOM     10  C   UNL A   1      33.527  25.921  24.271  1.00  0.00     0.144 C 
ATOM     11  C   UNL A   1      32.865  25.716  21.932  1.00  0.00     0.085 C 
BRANCH   8  12
ATOM     12  N   UNL A   1      34.067  23.465  24.749  1.00  0.00    -0.330 N 
ATOM     13  H   UNL A   1      34.453  23.911  25.581  1.00  0.00     0.348 HD
BRANCH  12  14
ATOM     14  C   UNL A   1      33.253  22.317  25.229  1.00  0.00     0.262 C 
BRANCH  14  15
ATOM     15  C   UNL A   1      32.953  22.297  26.746  1.00  0.00     0.058 C 
ATOM     16  C   UNL A   1      34.164  22.485  27.658  1.00  0.00     0.010 C 
ENDBRANCH  14  15
ENDBRANCH  12  14
BRANCH  12  17
ATOM     17  C   UNL A   1      35.178  23.004  23.857  1.00  0.00     0.184 C 
ATOM     18  C   UNL A   1      36.591  23.392  24.211  1.00  0.00     0.071 C 
ATOM     19  C   UNL A   1      36.178  21.955  24.265  1.00  0.00     0.071 C 
ENDBRANCH  12  17
ENDBRANCH   8  12
BRANCH   7  20
ATOM     20  N   UNL A   1      31.484  27.116  23.489  1.00  0.00    -0.331 N 
ATOM     21  H   UNL A   1      31.571  27.854  24.187  1.00  0.00     0.347 HD
ATOM     22  H   UNL A   1      31.037  26.251  23.793  1.00  0.00     0.347 HD
BRANCH  20  23
ATOM     23  C   UNL A   1      30.599  27.618  22.443  1.00  0.00     0.183 C 
ATOM     24  C   UNL A   1      29.258  28.166  22.854  1.00  0.00     0.071 C 
ATOM     25  C   UNL A   1      30.322  29.092  22.350  1.00  0.00     0.071 C 
ENDBRANCH  20  23
ENDBRANCH   7  20
ENDBRANCH   4   7
ENDBRANCH   2   3
ENDBRANCH   1   2
BRANCH   1  26
ATOM     26  C   UNL A   1      32.054  30.545  26.807  1.00  0.00     0.118 C 
BRANCH  26  27
ATOM     27  N   UNL A   1      31.989  31.999  26.854  1.00  0.00    -0.352 N 
ATOM     28  C   UNL A   1      32.833  32.890  27.476  1.00  0.00     0.251 C 
ATOM     29  H   UNL A   1      31.231  32.403  26.372  1.00  0.00     0.163 HD
ATOM     30  O   UNL A   1      32.499  34.061  27.597  1.00  0.00    -0.269 OA
BRANCH  28  31
ATOM     31  C   UNL A   1      34.126  32.415  28.016  1.00  0.00     0.039 A 
ATOM     32  C   UNL A   1      35.204  33.301  28.084  1.00  0.00     0.014 A 
ATOM     33  C   UNL A   1      34.265  31.102  28.472  1.00  0.00     0.014 A 
ATOM     34  C   UNL A   1      36.397  32.893  28.687  1.00  0.00     0.010 A 
ATOM     35  C   UNL A   1      35.420  30.727  29.150  1.00  0.00     0.010 A 
ATOM     36  C   UNL A   1      36.498  31.618  29.268  1.00  0.00    -0.014 A 
BRANCH  36  37
ATOM     37  C   UNL A   1      37.716  31.179  29.998  1.00  0.00     0.031 A 
ATOM     38  C   UNL A   1      38.624  30.151  29.380  1.00  0.00     0.074 A 
ATOM     39  C   UNL A   1      37.954  31.632  31.245  1.00  0.00     0.049 A 
ATOM     40  N   UNL A   1      39.641  29.520  29.907  1.00  0.00    -0.248 NA
ATOM     41  C   UNL A   1      38.324  29.758  27.995  1.00  0.00     0.031 C 
ATOM     42  C   UNL A   1      37.136  32.616  31.958  1.00  0.00     0.029 A 
ATOM     43  N   UNL A   1      38.942  31.313  32.144  1.00  0.00    -0.354 N 
ATOM     44  C   UNL A   1      40.090  28.641  28.926  1.00  0.00     0.074 A 
ATOM     45  C   UNL A   1      39.195  28.781  27.797  1.00  0.00     0.031 C 
ATOM     46  C   UNL A   1      37.664  32.830  33.174  1.00  0.00     0.029 A 
ATOM     47  C   UNL A   1      38.819  31.956  33.355  1.00  0.00     0.049 A 
ATOM     48  H   UNL A   1      39.671  30.683  31.941  1.00  0.00     0.167 HD
ATOM     49  C   UNL A   1      41.161  27.810  28.958  1.00  0.00     0.034 A 
ATOM     50  C   UNL A   1      39.536  31.835  34.491  1.00  0.00     0.034 A 
ATOM     51  C   UNL A   1      42.047  27.694  30.091  1.00  0.00     0.049 A 
ATOM     52  C   UNL A   1      40.690  30.864  34.525  1.00  0.00     0.074 A 
ATOM     53  C   UNL A   1      43.188  26.922  30.214  1.00  0.00     0.029 A 
ATOM     54  N   UNL A   1      41.885  28.359  31.300  1.00  0.00    -0.354 N 
ATOM     55  N   UNL A   1      41.122  30.063  33.577  1.00  0.00    -0.248 NA
ATOM     56  C   UNL A   1      41.456  30.780  35.776  1.00  0.00     0.031 C 
ATOM     57  C   UNL A   1      43.670  27.056  31.519  1.00  0.00     0.029 A 
ATOM     58  C   UNL A   1      42.886  27.986  32.184  1.00  0.00     0.049 A 
ATOM     59  H   UNL A   1      41.167  29.001  31.500  1.00  0.00     0.167 HD
ATOM     60  C   UNL A   1      42.236  29.414  34.106  1.00  0.00     0.074 A 
ATOM     61  C   UNL A   1      42.408  29.915  35.453  1.00  0.00     0.031 C 
ATOM     62  C   UNL A   1      43.048  28.497  33.524  1.00  0.00     0.034 A 
BRANCH  49  63
ATOM     63  C   UNL A   1      41.410  26.943  27.748  1.00  0.00     0.023 A 
ATOM     64  C   UNL A   1      41.018  25.594  27.711  1.00  0.00     0.031 A 
ATOM     65  C   UNL A   1      42.065  27.467  26.619  1.00  0.00     0.131 A 
ATOM     66  C   UNL A   1      41.355  24.797  26.607  1.00  0.00     0.055 A 
ATOM     67  C   UNL A   1      42.318  26.692  25.487  1.00  0.00     0.041 A 
ATOM     68  F   UNL A   1      42.484  28.743  26.602  1.00  0.00    -0.206 F 
ATOM     69  C   UNL A   1      41.978  25.342  25.483  1.00  0.00     0.022 A 
BRANCH  66  70
ATOM     70  S   UNL A   1      41.106  23.004  26.729  1.00  0.00     0.124 S 
ATOM     71  O   UNL A   1      41.573  22.733  28.086  1.00  0.00    -0.237 OA
ATOM     72  O   UNL A   1      39.672  22.869  26.508  1.00  0.00    -0.237 OA
ATOM     73  O   UNL A   1      41.955  22.468  25.668  1.00  0.00    -0.744 OA
ENDBRANCH  66  70
ENDBRANCH  49  63
BRANCH  50  74
ATOM     74  C   UNL A   1      39.174  32.631  35.701  1.00  0.00     0.023 A 
ATOM     75  C   UNL A   1      39.627  33.951  35.859  1.00  0.00     0.031 A 
ATOM     76  C   UNL A   1      38.409  32.070  36.739  1.00  0.00     0.131 A 
ATOM     77  C   UNL A   1      39.354  34.647  37.047  1.00  0.00     0.055 A 
ATOM     78  C   UNL A   1      38.088  32.789  37.893  1.00  0.00     0.041 A 
ATOM     79  F   UNL A   1      37.949  30.813  36.642  1.00  0.00    -0.206 F 
ATOM     80  C   UNL A   1      38.574  34.082  38.057  1.00  0.00     0.022 A 
BRANCH  77  81
ATOM     81  S   UNL A   1      40.121  36.272  37.295  1.00  0.00     0.124 S 
ATOM     82  O   UNL A   1      39.280  36.839  38.343  1.00  0.00    -0.237 OA
ATOM     83  O   UNL A   1      41.479  35.910  37.686  1.00  0.00    -0.237 OA
ATOM     84  O   UNL A   1      39.999  36.909  35.985  1.00  0.00    -0.744 OA
ENDBRANCH  77  81
ENDBRANCH  50  74
BRANCH  62  85
ATOM     85  C   UNL A   1      44.244  28.023  34.314  1.00  0.00     0.023 A 
ATOM     86  C   UNL A   1      45.476  28.697  34.284  1.00  0.00     0.031 A 
ATOM     87  C   UNL A   1      44.127  26.891  35.142  1.00  0.00     0.131 A 
ATOM     88  C   UNL A   1      46.553  28.214  35.046  1.00  0.00     0.055 A 
ATOM     89  C   UNL A   1      45.182  26.451  35.941  1.00  0.00     0.041 A 
ATOM     90  F   UNL A   1      42.973  26.207  35.203  1.00  0.00    -0.206 F 
ATOM     91  C   UNL A   1      46.406  27.109  35.890  1.00  0.00     0.022 A 
BRANCH  88  92
ATOM     92  S   UNL A   1      48.172  29.015  34.878  1.00  0.00     0.124 S 
ATOM     93  O   UNL A   1      48.073  30.103  35.845  1.00  0.00    -0.237 OA
ATOM     94  O   UNL A   1      49.093  27.937  35.222  1.00  0.00    -0.237 OA
ATOM     95  O   UNL A   1      48.204  29.432  33.477  1.00  0.00    -0.744 OA
ENDBRANCH  88  92
ENDBRANCH  62  85
ENDBRANCH  36  37
ENDBRANCH  28  31
ENDBRANCH  26  27
ENDBRANCH   1  26
TORSDOF 19
ENDMDL
MODEL 2
REMARK VINA RESULT:     -10.9      1.984      2.285
REMARK SMILES CCC[N@@H+](C1CC1)[C@@H]1CC[C@]([NH2+]C2CC2)(C(=O)NCCCNC(=O)c2ccc(-c3c4nc(c(-c5cc(S(=O)(=O)[O-])ccc5F)c5ccc([nH]5)c(-c5cc(S(=O)(=O)[O-])ccc5F)c5nc(c(-c6cc(S(=O)(=O)[O-])ccc6F)c6ccc3[nH]6)C=C5)C=C4)cc2)C1
REMARK SMILES IDX 20 1 19 2 18 3 16 4 17 5 11 7 8 8 9 9 88 10 10 11 4 12 3 14
REMARK SMILES IDX 2 15 1 16 5 17 6 18 7 19 12 20 13 23 14 24 15 25 21 26 22 27
REMARK SMILES IDX 23 28 24 30 25 31 26 32 87 33 27 34 86 35 28 36 29 37 30 38
REMARK SMILES IDX 80 39 31 40 85 41 79 42 81 43 32 44 84 45 78 46 77 47 33 49
REMARK SMILES IDX 65 50 45 51 64 52 46 53 49 54 63 55 82 56 47 57 48 58 62 60
REMARK SMILES IDX 83 61 50 62 34 63 35 64 43 65 36 66 42 67 44 68 41 69 37 70
REMARK SMILES IDX 38 71 39 72 40 73 66 74 67 75 75 76 68 77 74 78 76 79 73 80
REMARK SMILES IDX 69 81 70 82 71 83 72 84 51 85 52 86 60 87 53 88 59 89 61 90
REMARK SMILES IDX 58 91 54 92 55 93 56 94 57 95
REMARK H PARENT 18 6 4 13 12 21 12 22 22 29 81 48 49 59
REMARK Flexibility Score: inf
ROOT
ATOM      1  C   UNL A   1      32.351  29.678  25.327  1.00  0.00     0.042 C 
ENDROOT
BRANCH   1   2
ATOM      2  C   UNL A   1      33.769  29.202  25.038  1.00  0.00     0.118 C 
BRANCH   2   3
ATOM      3  N   UNL A   1      33.991  29.070  23.610  1.00  0.00    -0.351 N 
ATOM      4  C   UNL A   1      33.785  28.037  22.747  1.00  0.00     0.281 C 
ATOM      5  O   UNL A   1      34.288  28.181  21.625  1.00  0.00    -0.268 OA
ATOM      6  H   UNL A   1      34.361  29.878  23.185  1.00  0.00     0.163 HD
BRANCH   4   7
ATOM      7  C   UNL A   1      32.926  26.772  23.109  1.00  0.00     0.181 C 
ATOM      8  C   UNL A   1      33.265  24.495  23.916  1.00  0.00     0.191 C 
ATOM      9  C   UNL A   1      33.149  24.420  22.384  1.00  0.00     0.072 C 
ATOM     10  C   UNL A   1      33.692  25.938  24.143  1.00  0.00     0.144 C 
ATOM     11  C   UNL A   1      32.674  25.813  21.930  1.00  0.00     0.085 C 
BRANCH   8  12
ATOM     12  N   UNL A   1      34.119  23.444  24.528  1.00  0.00    -0.330 N 
ATOM     13  H   UNL A   1      34.125  23.563  25.541  1.00  0.00     0.348 HD
BRANCH  12  14
ATOM     14  C   UNL A   1      33.586  22.081  24.269  1.00  0.00     0.262 C 
BRANCH  14  15
ATOM     15  C   UNL A   1      33.270  21.236  25.525  1.00  0.00     0.058 C 
ATOM     16  C   UNL A   1      33.809  21.792  26.842  1.00  0.00     0.010 C 
ENDBRANCH  14  15
ENDBRANCH  12  14
BRANCH  12  17
ATOM     17  C   UNL A   1      35.510  23.591  23.990  1.00  0.00     0.184 C 
ATOM     18  C   UNL A   1      36.646  23.738  24.970  1.00  0.00     0.071 C 
ATOM     19  C   UNL A   1      36.556  22.515  24.112  1.00  0.00     0.071 C 
ENDBRANCH  12  17
ENDBRANCH   8  12
BRANCH   7  20
ATOM     20  N   UNL A   1      31.646  27.285  23.681  1.00  0.00    -0.331 N 
ATOM     21  H   UNL A   1      31.667  28.301  23.595  1.00  0.00     0.347 HD
ATOM     22  H   UNL A   1      31.632  26.908  24.628  1.00  0.00     0.347 HD
BRANCH  20  23
ATOM     23  C   UNL A   1      30.384  26.833  23.105  1.00  0.00     0.183 C 
ATOM     24  C   UNL A   1      29.268  26.466  24.047  1.00  0.00     0.071 C 
ATOM     25  C   UNL A   1      29.165  27.704  23.211  1.00  0.00     0.071 C 
ENDBRANCH  20  23
ENDBRANCH   7  20
ENDBRANCH   4   7
ENDBRANCH   2   3
ENDBRANCH   1   2
BRANCH   1  26
ATOM     26  C   UNL A   1      32.182  30.210  26.744  1.00  0.00     0.118 C 
BRANCH  26  27
ATOM     27  N   UNL A   1      32.098  31.664  26.778  1.00  0.00    -0.352 N 
ATOM     28  C   UNL A   1      32.928  32.572  27.396  1.00  0.00     0.251 C 
ATOM     29  H   UNL A   1      31.338  32.054  26.289  1.00  0.00     0.163 HD
ATOM     30  O   UNL A   1      32.578  33.739  27.506  1.00  0.00    -0.269 OA
BRANCH  28  31
ATOM     31  C   UNL A   1      34.225  32.118  27.946  1.00  0.00     0.039 A 
ATOM     32  C   UNL A   1      35.282  33.026  28.036  1.00  0.00     0.014 A 
ATOM     33  C   UNL A   1      34.387  30.803  28.389  1.00  0.00     0.014 A 
ATOM     34  C   UNL A   1      36.477  32.636  28.648  1.00  0.00     0.010 A 
ATOM     35  C   UNL A   1      35.542  30.445  29.076  1.00  0.00     0.010 A 
ATOM     36  C   UNL A   1      36.599  31.358  29.216  1.00  0.00    -0.014 A 
BRANCH  36  37
ATOM     37  C   UNL A   1      37.818  30.937  29.955  1.00  0.00     0.031 A 
ATOM     38  C   UNL A   1      38.778  29.971  29.316  1.00  0.00     0.074 A 
ATOM     39  C   UNL A   1      38.011  31.348  31.225  1.00  0.00     0.049 A 
ATOM     40  N   UNL A   1      39.809  29.359  29.841  1.00  0.00    -0.248 NA
ATOM     41  C   UNL A   1      38.523  29.624  27.910  1.00  0.00     0.031 C 
ATOM     42  C   UNL A   1      37.140  32.268  31.958  1.00  0.00     0.029 A 
ATOM     43  N   UNL A   1      38.992  31.030  32.132  1.00  0.00    -0.354 N 
ATOM     44  C   UNL A   1      40.312  28.539  28.835  1.00  0.00     0.074 A 
ATOM     45  C   UNL A   1      39.436  28.690  27.693  1.00  0.00     0.031 C 
ATOM     46  C   UNL A   1      37.633  32.452  33.193  1.00  0.00     0.029 A 
ATOM     47  C   UNL A   1      38.818  31.617  33.365  1.00  0.00     0.049 A 
ATOM     48  H   UNL A   1      39.750  30.438  31.920  1.00  0.00     0.167 HD
ATOM     49  C   UNL A   1      41.414  27.750  28.859  1.00  0.00     0.034 A 
ATOM     50  C   UNL A   1      39.515  31.478  34.511  1.00  0.00     0.034 A 
ATOM     51  C   UNL A   1      42.280  27.621  30.006  1.00  0.00     0.049 A 
ATOM     52  C   UNL A   1      40.706  30.551  34.531  1.00  0.00     0.074 A 
ATOM     53  C   UNL A   1      43.449  26.890  30.123  1.00  0.00     0.029 A 
ATOM     54  N   UNL A   1      42.067  28.230  31.236  1.00  0.00    -0.354 N 
ATOM     55  N   UNL A   1      41.189  29.808  33.563  1.00  0.00    -0.248 NA
ATOM     56  C   UNL A   1      41.448  30.446  35.795  1.00  0.00     0.031 C 
ATOM     57  C   UNL A   1      43.897  26.989  31.444  1.00  0.00     0.029 A 
ATOM     58  C   UNL A   1      43.063  27.860  32.127  1.00  0.00     0.049 A 
ATOM     59  H   UNL A   1      41.320  28.834  31.446  1.00  0.00     0.167 HD
ATOM     60  C   UNL A   1      42.316  29.181  34.090  1.00  0.00     0.074 A 
ATOM     61  C   UNL A   1      42.440  29.632  35.460  1.00  0.00     0.031 C 
ATOM     62  C   UNL A   1      43.177  28.321  33.490  1.00  0.00     0.034 A 
BRANCH  49  63
ATOM     63  C   UNL A   1      41.723  26.944  27.620  1.00  0.00     0.023 A 
ATOM     64  C   UNL A   1      41.410  25.576  27.530  1.00  0.00     0.031 A 
ATOM     65  C   UNL A   1      42.357  27.545  26.518  1.00  0.00     0.131 A 
ATOM     66  C   UNL A   1      41.801  24.841  26.402  1.00  0.00     0.055 A 
ATOM     67  C   UNL A   1      42.664  26.827  25.361  1.00  0.00     0.041 A 
ATOM     68  F   UNL A   1      42.702  28.842  26.552  1.00  0.00    -0.206 F 
ATOM     69  C   UNL A   1      42.401  25.462  25.305  1.00  0.00     0.022 A 
BRANCH  66  70
ATOM     70  S   UNL A   1      41.655  23.034  26.456  1.00  0.00     0.124 S 
ATOM     71  O   UNL A   1      42.380  22.642  25.250  1.00  0.00    -0.237 OA
ATOM     72  O   UNL A   1      42.296  22.703  27.723  1.00  0.00    -0.237 OA
ATOM     73  O   UNL A   1      40.212  22.806  26.408  1.00  0.00    -0.744 OA
ENDBRANCH  66  70
ENDBRANCH  49  63
BRANCH  50  74
ATOM     74  C   UNL A   1      39.097  32.209  35.744  1.00  0.00     0.023 A 
ATOM     75  C   UNL A   1      38.421  31.547  36.782  1.00  0.00     0.031 A 
ATOM     76  C   UNL A   1      39.327  33.590  35.884  1.00  0.00     0.131 A 
ATOM     77  C   UNL A   1      37.955  32.274  37.888  1.00  0.00     0.055 A 
ATOM     78  C   UNL A   1      38.915  34.296  37.016  1.00  0.00     0.041 A 
ATOM     79  F   UNL A   1      39.969  34.273  34.924  1.00  0.00    -0.206 F 
ATOM     80  C   UNL A   1      38.212  33.640  38.021  1.00  0.00     0.022 A 
BRANCH  77  81
ATOM     81  S   UNL A   1      36.917  31.424  39.109  1.00  0.00     0.124 S 
ATOM     82  O   UNL A   1      36.799  30.095  38.522  1.00  0.00    -0.237 OA
ATOM     83  O   UNL A   1      37.729  31.523  40.318  1.00  0.00    -0.237 OA
ATOM     84  O   UNL A   1      35.688  32.214  39.120  1.00  0.00    -0.744 OA
ENDBRANCH  77  81
ENDBRANCH  50  74
BRANCH  62  85
ATOM     85  C   UNL A   1      44.374  27.862  34.287  1.00  0.00     0.023 A 
ATOM     86  C   UNL A   1      44.374  26.659  35.013  1.00  0.00     0.031 A 
ATOM     87  C   UNL A   1      45.550  28.634  34.282  1.00  0.00     0.131 A 
ATOM     88  C   UNL A   1      45.520  26.278  35.730  1.00  0.00     0.055 A 
ATOM     89  C   UNL A   1      46.705  28.221  34.948  1.00  0.00     0.041 A 
ATOM     90  F   UNL A   1      45.603  29.794  33.608  1.00  0.00    -0.206 F 
ATOM     91  C   UNL A   1      46.690  27.041  35.684  1.00  0.00     0.022 A 
BRANCH  88  92
ATOM     92  S   UNL A   1      45.445  24.798  36.776  1.00  0.00     0.124 S 
ATOM     93  O   UNL A   1      44.504  23.957  36.043  1.00  0.00    -0.237 OA
ATOM     94  O   UNL A   1      46.833  24.347  36.782  1.00  0.00    -0.237 OA
ATOM     95  O   UNL A   1      44.955  25.307  38.056  1.00  0.00    -0.744 OA
ENDBRANCH  88  92
ENDBRANCH  62  85
ENDBRANCH  36  37
ENDBRANCH  28  31
ENDBRANCH  26  27
ENDBRANCH   1  26
TORSDOF 19
ENDMDL
MODEL 3
REMARK VINA RESULT:     -10.8      2.297      3.094
REMARK SMILES CCC[N@@H+](C1CC1)[C@@H]1CC[C@]([NH2+]C2CC2)(C(=O)NCCCNC(=O)c2ccc(-c3c4nc(c(-c5cc(S(=O)(=O)[O-])ccc5F)c5ccc([nH]5)c(-c5cc(S(=O)(=O)[O-])ccc5F)c5nc(c(-c6cc(S(=O)(=O)[O-])ccc6F)c6ccc3[nH]6)C=C5)C=C4)cc2)C1
REMARK SMILES IDX 20 1 19 2 18 3 16 4 17 5 11 7 8 8 9 9 88 10 10 11 4 12 3 14
REMARK SMILES IDX 2 15 1 16 5 17 6 18 7 19 12 20 13 23 14 24 15 25 21 26 22 27
REMARK SMILES IDX 23 28 24 30 25 31 26 32 87 33 27 34 86 35 28 36 29 37 30 38
REMARK SMILES IDX 80 39 31 40 85 41 79 42 81 43 32 44 84 45 78 46 77 47 33 49
REMARK SMILES IDX 65 50 45 51 64 52 46 53 49 54 63 55 82 56 47 57 48 58 62 60
REMARK SMILES IDX 83 61 50 62 34 63 35 64 43 65 36 66 42 67 44 68 41 69 37 70
REMARK SMILES IDX 38 71 39 72 40 73 66 74 67 75 75 76 68 77 74 78 76 79 73 80
REMARK SMILES IDX 69 81 70 82 71 83 72 84 51 85 52 86 60 87 53 88 59 89 61 90
REMARK SMILES IDX 58 91 54 92 55 93 56 94 57 95
REMARK H PARENT 18 6 4 13 12 21 12 22 22 29 81 48 49 59
REMARK Flexibility Score: inf
ROOT
ATOM      1  C   UNL A   1      31.455  32.218  26.514  1.00  0.00     0.042 C 
ENDROOT
BRANCH   1   2
ATOM      2  C   UNL A   1      31.280  30.705  26.467  1.00  0.00     0.118 C 
BRANCH   2   3
ATOM      3  N   UNL A   1      31.286  30.224  25.098  1.00  0.00    -0.351 N 
ATOM      4  C   UNL A   1      32.075  29.322  24.452  1.00  0.00     0.281 C 
ATOM      5  O   UNL A   1      31.952  29.303  23.220  1.00  0.00    -0.268 OA
ATOM      6  H   UNL A   1      30.590  30.625  24.529  1.00  0.00     0.163 HD
BRANCH   4   7
ATOM      7  C   UNL A   1      33.035  28.327  25.200  1.00  0.00     0.181 C 
ATOM      8  C   UNL A   1      33.841  26.036  24.970  1.00  0.00     0.191 C 
ATOM      9  C   UNL A   1      32.665  26.005  25.960  1.00  0.00     0.072 C 
ATOM     10  C   UNL A   1      33.577  27.313  24.184  1.00  0.00     0.144 C 
ATOM     11  C   UNL A   1      32.353  27.478  26.288  1.00  0.00     0.085 C 
BRANCH   8  12
ATOM     12  N   UNL A   1      34.021  24.792  24.177  1.00  0.00    -0.330 N 
ATOM     13  H   UNL A   1      33.917  25.007  23.185  1.00  0.00     0.348 HD
BRANCH  12  14
ATOM     14  C   UNL A   1      35.386  24.226  24.342  1.00  0.00     0.262 C 
BRANCH  14  15
ATOM     15  C   UNL A   1      35.889  24.108  25.800  1.00  0.00     0.058 C 
ATOM     16  C   UNL A   1      37.342  23.665  25.959  1.00  0.00     0.010 C 
ENDBRANCH  14  15
ENDBRANCH  12  14
BRANCH  12  17
ATOM     17  C   UNL A   1      32.973  23.808  24.598  1.00  0.00     0.184 C 
ATOM     18  C   UNL A   1      32.028  23.273  23.550  1.00  0.00     0.071 C 
ATOM     19  C   UNL A   1      33.008  22.353  24.209  1.00  0.00     0.071 C 
ENDBRANCH  12  17
ENDBRANCH   8  12
BRANCH   7  20
ATOM     20  N   UNL A   1      34.140  29.158  25.764  1.00  0.00    -0.331 N 
ATOM     21  H   UNL A   1      33.909  30.132  25.572  1.00  0.00     0.347 HD
ATOM     22  H   UNL A   1      34.978  28.790  25.313  1.00  0.00     0.347 HD
BRANCH  20  23
ATOM     23  C   UNL A   1      34.437  29.061  27.189  1.00  0.00     0.183 C 
ATOM     24  C   UNL A   1      35.883  29.011  27.608  1.00  0.00     0.071 C 
ATOM     25  C   UNL A   1      35.062  30.229  27.898  1.00  0.00     0.071 C 
ENDBRANCH  20  23
ENDBRANCH   7  20
ENDBRANCH   4   7
ENDBRANCH   2   3
ENDBRANCH   1   2
BRANCH   1  26
ATOM     26  C   UNL A   1      32.737  32.644  27.216  1.00  0.00     0.118 C 
BRANCH  26  27
ATOM     27  N   UNL A   1      32.643  33.991  27.761  1.00  0.00    -0.352 N 
ATOM     28  C   UNL A   1      33.355  34.568  28.788  1.00  0.00     0.251 C 
ATOM     29  H   UNL A   1      31.973  34.572  27.334  1.00  0.00     0.163 HD
ATOM     30  O   UNL A   1      32.987  35.637  29.257  1.00  0.00    -0.269 OA
BRANCH  28  31
ATOM     31  C   UNL A   1      34.543  33.874  29.332  1.00  0.00     0.039 A 
ATOM     32  C   UNL A   1      35.812  34.236  28.875  1.00  0.00     0.014 A 
ATOM     33  C   UNL A   1      34.402  32.882  30.306  1.00  0.00     0.014 A 
ATOM     34  C   UNL A   1      36.945  33.660  29.457  1.00  0.00     0.010 A 
ATOM     35  C   UNL A   1      35.530  32.377  30.943  1.00  0.00     0.010 A 
ATOM     36  C   UNL A   1      36.814  32.762  30.528  1.00  0.00    -0.014 A 
BRANCH  36  37
ATOM     37  C   UNL A   1      37.996  32.199  31.233  1.00  0.00     0.031 A 
ATOM     38  C   UNL A   1      38.783  31.087  30.594  1.00  0.00     0.074 A 
ATOM     39  C   UNL A   1      38.302  32.619  32.477  1.00  0.00     0.049 A 
ATOM     40  N   UNL A   1      39.741  30.354  31.100  1.00  0.00    -0.248 NA
ATOM     41  C   UNL A   1      38.419  30.733  29.214  1.00  0.00     0.031 C 
ATOM     42  C   UNL A   1      37.600  33.676  33.209  1.00  0.00     0.029 A 
ATOM     43  N   UNL A   1      39.268  32.197  33.356  1.00  0.00    -0.354 N 
ATOM     44  C   UNL A   1      40.080  29.439  30.107  1.00  0.00     0.074 A 
ATOM     45  C   UNL A   1      39.182  29.674  28.996  1.00  0.00     0.031 C 
ATOM     46  C   UNL A   1      38.170  33.829  34.415  1.00  0.00     0.029 A 
ATOM     47  C   UNL A   1      39.234  32.842  34.571  1.00  0.00     0.049 A 
ATOM     48  H   UNL A   1      39.927  31.497  33.137  1.00  0.00     0.167 HD
ATOM     49  C   UNL A   1      41.062  28.504  30.117  1.00  0.00     0.034 A 
ATOM     50  C   UNL A   1      39.956  32.644  35.693  1.00  0.00     0.034 A 
ATOM     51  C   UNL A   1      41.953  28.293  31.232  1.00  0.00     0.049 A 
ATOM     52  C   UNL A   1      41.007  31.560  35.701  1.00  0.00     0.074 A 
ATOM     53  C   UNL A   1      43.012  27.409  31.330  1.00  0.00     0.029 A 
ATOM     54  N   UNL A   1      41.882  28.965  32.445  1.00  0.00    -0.354 N 
ATOM     55  N   UNL A   1      41.338  30.726  34.743  1.00  0.00    -0.248 NA
ATOM     56  C   UNL A   1      41.784  31.393  36.937  1.00  0.00     0.031 C 
ATOM     57  C   UNL A   1      43.530  27.487  32.626  1.00  0.00     0.029 A 
ATOM     58  C   UNL A   1      42.856  28.488  33.309  1.00  0.00     0.049 A 
ATOM     59  H   UNL A   1      41.236  29.675  32.662  1.00  0.00     0.167 HD
ATOM     60  C   UNL A   1      42.390  29.965  35.248  1.00  0.00     0.074 A 
ATOM     61  C   UNL A   1      42.637  30.438  36.593  1.00  0.00     0.031 C 
ATOM     62  C   UNL A   1      43.095  28.973  34.647  1.00  0.00     0.034 A 
BRANCH  49  63
ATOM     63  C   UNL A   1      41.199  27.623  28.898  1.00  0.00     0.023 A 
ATOM     64  C   UNL A   1      42.227  27.813  27.960  1.00  0.00     0.031 A 
ATOM     65  C   UNL A   1      40.276  26.588  28.660  1.00  0.00     0.131 A 
ATOM     66  C   UNL A   1      42.262  27.038  26.792  1.00  0.00     0.055 A 
ATOM     67  C   UNL A   1      40.369  25.761  27.540  1.00  0.00     0.041 A 
ATOM     68  F   UNL A   1      39.258  26.371  29.508  1.00  0.00    -0.206 F 
ATOM     69  C   UNL A   1      41.357  25.994  26.589  1.00  0.00     0.022 A 
BRANCH  66  70
ATOM     70  S   UNL A   1      43.411  27.515  25.472  1.00  0.00     0.124 S 
ATOM     71  O   UNL A   1      44.199  26.295  25.311  1.00  0.00    -0.237 OA
ATOM     72  O   UNL A   1      42.511  27.844  24.374  1.00  0.00    -0.237 OA
ATOM     73  O   UNL A   1      44.139  28.645  26.044  1.00  0.00    -0.744 OA
ENDBRANCH  66  70
ENDBRANCH  49  63
BRANCH  50  74
ATOM     74  C   UNL A   1      39.700  33.466  36.912  1.00  0.00     0.023 A 
ATOM     75  C   UNL A   1      38.980  32.942  37.999  1.00  0.00     0.031 A 
ATOM     76  C   UNL A   1      40.132  34.802  36.993  1.00  0.00     0.131 A 
ATOM     77  C   UNL A   1      38.671  33.763  39.094  1.00  0.00     0.055 A 
ATOM     78  C   UNL A   1      39.875  35.596  38.113  1.00  0.00     0.041 A 
ATOM     79  F   UNL A   1      40.825  35.354  35.985  1.00  0.00    -0.206 F 
ATOM     80  C   UNL A   1      39.127  35.081  39.166  1.00  0.00     0.022 A 
BRANCH  77  81
ATOM     81  S   UNL A   1      37.574  33.111  40.384  1.00  0.00     0.124 S 
ATOM     82  O   UNL A   1      38.316  31.942  40.839  1.00  0.00    -0.237 OA
ATOM     83  O   UNL A   1      37.503  34.232  41.316  1.00  0.00    -0.237 OA
ATOM     84  O   UNL A   1      36.336  32.823  39.662  1.00  0.00    -0.744 OA
ENDBRANCH  77  81
ENDBRANCH  50  74
BRANCH  62  85
ATOM     85  C   UNL A   1      44.251  28.376  35.412  1.00  0.00     0.023 A 
ATOM     86  C   UNL A   1      45.538  28.938  35.383  1.00  0.00     0.031 A 
ATOM     87  C   UNL A   1      44.042  27.241  36.216  1.00  0.00     0.131 A 
ATOM     88  C   UNL A   1      46.575  28.345  36.122  1.00  0.00     0.055 A 
ATOM     89  C   UNL A   1      45.061  26.690  36.993  1.00  0.00     0.041 A 
ATOM     90  F   UNL A   1      42.831  26.660  36.277  1.00  0.00    -0.206 F 
ATOM     91  C   UNL A   1      46.338  27.238  36.942  1.00  0.00     0.022 A 
BRANCH  88  92
ATOM     92  S   UNL A   1      48.257  29.002  35.952  1.00  0.00     0.124 S 
ATOM     93  O   UNL A   1      48.179  30.238  36.724  1.00  0.00    -0.237 OA
ATOM     94  O   UNL A   1      49.070  27.938  36.532  1.00  0.00    -0.237 OA
ATOM     95  O   UNL A   1      48.411  29.181  34.509  1.00  0.00    -0.744 OA
ENDBRANCH  88  92
ENDBRANCH  62  85
ENDBRANCH  36  37
ENDBRANCH  28  31
ENDBRANCH  26  27
ENDBRANCH   1  26
TORSDOF 19
ENDMDL
