MODEL 1
REMARK VINA RESULT:     -13.2      0.000      0.000
REMARK SMILES O=C(C[NH+]1CCC(C(=O)NCCCNC(=O)c2ccc(-c3c4nc(c(-c5cc(S(=O)(=O)[O-])ccc5F)c5ccc([nH]5)c(-c5cc(S(=O)(=O)[O-])ccc5F)c5nc(c(-c6cc(S(=O)(=O)[O-])ccc6F)c6ccc3[nH]6)C=C5)C=C4)cc2)CC1)Nc1ccccc1Oc1ccccc1
REMARK SMILES IDX 11 1 10 2 8 3 9 4 7 6 4 7 5 8 81 9 6 11 80 12 3 13 2 14 1 15
REMARK SMILES IDX 82 16 83 18 84 19 88 20 85 21 87 22 86 23 89 24 90 25 91 26
REMARK SMILES IDX 95 27 92 28 94 29 93 30 12 31 13 32 14 33 15 34 16 36 17 37
REMARK SMILES IDX 18 38 79 39 19 40 78 41 20 42 21 43 22 44 72 45 23 46 77 47
REMARK SMILES IDX 71 48 73 49 24 50 76 51 70 52 69 53 25 55 57 56 37 57 56 58
REMARK SMILES IDX 38 59 41 60 55 61 74 62 39 63 40 64 54 66 75 67 42 68 26 69
REMARK SMILES IDX 27 70 35 71 28 72 34 73 36 74 33 75 29 76 30 77 31 78 32 79
REMARK SMILES IDX 58 80 59 81 67 82 60 83 66 84 68 85 65 86 61 87 62 88 63 89
REMARK SMILES IDX 64 90 43 91 44 92 52 93 45 94 51 95 53 96 50 97 46 98 47 99
REMARK SMILES IDX 48 100 49 101
REMARK H PARENT 10 5 4 10 82 17 14 35 73 54 41 65
REMARK Flexibility Score: inf
ROOT
ATOM      1  C   UNL A   1      31.107  30.230  25.318  1.00  0.00     0.117 C 
ENDROOT
BRANCH   1   2
ATOM      2  N   UNL A   1      30.455  30.037  24.028  1.00  0.00    -0.356 N 
ATOM      3  C   UNL A   1      30.469  28.973  23.178  1.00  0.00     0.223 C 
ATOM      4  O   UNL A   1      29.848  29.060  22.119  1.00  0.00    -0.275 OA
ATOM      5  H   UNL A   1      29.917  30.802  23.722  1.00  0.00     0.163 HD
BRANCH   3   6
ATOM      6  C   UNL A   1      31.195  27.695  23.548  1.00  0.00     0.089 C 
ATOM      7  N   UNL A   1      30.846  24.834  23.260  1.00  0.00    -0.327 N 
ATOM      8  C   UNL A   1      30.839  25.405  24.611  1.00  0.00     0.263 C 
ATOM      9  C   UNL A   1      31.869  25.501  22.443  1.00  0.00     0.263 C 
ATOM     10  H   UNL A   1      29.949  24.998  22.803  1.00  0.00     0.348 HD
ATOM     11  C   UNL A   1      30.391  26.858  24.550  1.00  0.00     0.075 C 
ATOM     12  C   UNL A   1      31.627  26.983  22.265  1.00  0.00     0.075 C 
BRANCH   7  13
ATOM     13  C   UNL A   1      31.022  23.360  23.331  1.00  0.00     0.363 C 
BRANCH  13  14
ATOM     14  C   UNL A   1      32.461  22.910  23.063  1.00  0.00     0.279 C 
ATOM     15  O   UNL A   1      32.830  22.462  21.981  1.00  0.00    -0.268 OA
ATOM     16  N   UNL A   1      33.214  22.926  24.233  1.00  0.00    -0.318 N 
ATOM     17  H   UNL A   1      32.787  23.257  25.056  1.00  0.00     0.170 HD
BRANCH  16  18
ATOM     18  C   UNL A   1      34.544  22.500  24.305  1.00  0.00     0.084 A 
ATOM     19  C   UNL A   1      35.480  23.393  23.753  1.00  0.00     0.030 A 
ATOM     20  C   UNL A   1      34.972  21.282  24.855  1.00  0.00     0.150 A 
ATOM     21  C   UNL A   1      36.846  23.134  23.831  1.00  0.00     0.002 A 
ATOM     22  C   UNL A   1      36.355  21.037  24.917  1.00  0.00     0.049 A 
ATOM     23  C   UNL A   1      37.285  21.957  24.424  1.00  0.00     0.004 A 
BRANCH  20  24
ATOM     24  O   UNL A   1      34.228  20.220  25.333  1.00  0.00    -0.455 OA
BRANCH  24  25
ATOM     25  C   UNL A   1      33.854  19.179  24.523  1.00  0.00     0.127 A 
ATOM     26  C   UNL A   1      32.661  19.339  23.813  1.00  0.00     0.047 A 
ATOM     27  C   UNL A   1      34.584  17.994  24.402  1.00  0.00     0.047 A 
ATOM     28  C   UNL A   1      32.255  18.370  22.896  1.00  0.00     0.004 A 
ATOM     29  C   UNL A   1      34.178  17.025  23.478  1.00  0.00     0.004 A 
ATOM     30  C   UNL A   1      33.024  17.222  22.716  1.00  0.00     0.000 A 
ENDBRANCH  24  25
ENDBRANCH  20  24
ENDBRANCH  16  18
ENDBRANCH  13  14
ENDBRANCH   7  13
ENDBRANCH   3   6
ENDBRANCH   1   2
BRANCH   1  31
ATOM     31  C   UNL A   1      31.071  31.680  25.767  1.00  0.00     0.042 C 
BRANCH  31  32
ATOM     32  C   UNL A   1      32.040  31.981  26.895  1.00  0.00     0.118 C 
BRANCH  32  33
ATOM     33  N   UNL A   1      32.107  33.400  27.207  1.00  0.00    -0.352 N 
ATOM     34  C   UNL A   1      32.992  34.073  28.010  1.00  0.00     0.251 C 
ATOM     35  H   UNL A   1      31.417  33.958  26.780  1.00  0.00     0.163 HD
ATOM     36  O   UNL A   1      32.755  35.241  28.319  1.00  0.00    -0.269 OA
BRANCH  34  37
ATOM     37  C   UNL A   1      34.197  33.386  28.519  1.00  0.00     0.039 A 
ATOM     38  C   UNL A   1      35.436  34.012  28.379  1.00  0.00     0.014 A 
ATOM     39  C   UNL A   1      34.110  32.136  29.138  1.00  0.00     0.014 A 
ATOM     40  C   UNL A   1      36.575  33.406  28.910  1.00  0.00     0.010 A 
ATOM     41  C   UNL A   1      35.224  31.590  29.763  1.00  0.00     0.010 A 
ATOM     42  C   UNL A   1      36.473  32.211  29.642  1.00  0.00    -0.014 A 
BRANCH  42  43
ATOM     43  C   UNL A   1      37.677  31.603  30.267  1.00  0.00     0.031 A 
ATOM     44  C   UNL A   1      38.058  31.954  31.681  1.00  0.00     0.074 A 
ATOM     45  C   UNL A   1      38.426  30.739  29.551  1.00  0.00     0.049 A 
ATOM     46  N   UNL A   1      39.055  31.507  32.402  1.00  0.00    -0.248 NA
ATOM     47  C   UNL A   1      37.228  32.957  32.369  1.00  0.00     0.031 C 
ATOM     48  C   UNL A   1      38.184  30.368  28.154  1.00  0.00     0.029 A 
ATOM     49  N   UNL A   1      39.529  30.003  29.900  1.00  0.00    -0.354 N 
ATOM     50  C   UNL A   1      38.964  32.163  33.625  1.00  0.00     0.074 A 
ATOM     51  C   UNL A   1      37.869  33.101  33.520  1.00  0.00     0.031 C 
ATOM     52  C   UNL A   1      39.076  29.435  27.784  1.00  0.00     0.029 A 
ATOM     53  C   UNL A   1      39.982  29.177  28.897  1.00  0.00     0.049 A 
ATOM     54  H   UNL A   1      39.956  30.060  30.785  1.00  0.00     0.167 HD
ATOM     55  C   UNL A   1      39.701  31.973  34.748  1.00  0.00     0.034 A 
ATOM     56  C   UNL A   1      41.012  28.307  28.880  1.00  0.00     0.034 A 
ATOM     57  C   UNL A   1      40.788  31.030  34.840  1.00  0.00     0.049 A 
ATOM     58  C   UNL A   1      41.830  28.138  30.136  1.00  0.00     0.074 A 
ATOM     59  C   UNL A   1      41.589  30.743  35.931  1.00  0.00     0.029 A 
ATOM     60  N   UNL A   1      41.227  30.218  33.802  1.00  0.00    -0.354 N 
ATOM     61  N   UNL A   1      41.693  28.730  31.301  1.00  0.00    -0.248 NA
ATOM     62  C   UNL A   1      42.928  27.166  30.081  1.00  0.00     0.031 C 
ATOM     63  C   UNL A   1      42.552  29.807  35.536  1.00  0.00     0.029 A 
ATOM     64  C   UNL A   1      42.300  29.446  34.223  1.00  0.00     0.049 A 
ATOM     65  H   UNL A   1      40.833  30.194  32.900  1.00  0.00     0.167 HD
ATOM     66  C   UNL A   1      42.665  28.169  32.126  1.00  0.00     0.074 A 
ATOM     67  C   UNL A   1      43.349  27.169  31.334  1.00  0.00     0.031 C 
ATOM     68  C   UNL A   1      42.975  28.457  33.417  1.00  0.00     0.034 A 
BRANCH  55  69
ATOM     69  C   UNL A   1      39.354  32.803  35.959  1.00  0.00     0.023 A 
ATOM     70  C   UNL A   1      39.870  34.100  36.133  1.00  0.00     0.031 A 
ATOM     71  C   UNL A   1      38.491  32.301  36.949  1.00  0.00     0.131 A 
ATOM     72  C   UNL A   1      39.563  34.829  37.292  1.00  0.00     0.055 A 
ATOM     73  C   UNL A   1      38.127  33.061  38.063  1.00  0.00     0.041 A 
ATOM     74  F   UNL A   1      37.986  31.061  36.851  1.00  0.00    -0.206 F 
ATOM     75  C   UNL A   1      38.672  34.330  38.244  1.00  0.00     0.022 A 
BRANCH  72  76
ATOM     76  S   UNL A   1      40.434  36.390  37.590  1.00  0.00     0.124 S 
ATOM     77  O   UNL A   1      40.610  36.894  36.231  1.00  0.00    -0.237 OA
ATOM     78  O   UNL A   1      39.492  37.124  38.427  1.00  0.00    -0.237 OA
ATOM     79  O   UNL A   1      41.667  35.973  38.256  1.00  0.00    -0.744 OA
ENDBRANCH  72  76
ENDBRANCH  55  69
BRANCH  56  80
ATOM     80  C   UNL A   1      41.343  27.526  27.649  1.00  0.00     0.023 A 
ATOM     81  C   UNL A   1      41.134  26.139  27.595  1.00  0.00     0.031 A 
ATOM     82  C   UNL A   1      41.963  28.139  26.545  1.00  0.00     0.131 A 
ATOM     83  C   UNL A   1      41.621  25.398  26.507  1.00  0.00     0.055 A 
ATOM     84  C   UNL A   1      42.375  27.407  25.429  1.00  0.00     0.041 A 
ATOM     85  F   UNL A   1      42.185  29.463  26.537  1.00  0.00    -0.206 F 
ATOM     86  C   UNL A   1      42.226  26.025  25.417  1.00  0.00     0.022 A 
BRANCH  83  87
ATOM     87  S   UNL A   1      41.585  23.586  26.608  1.00  0.00     0.124 S 
ATOM     88  O   UNL A   1      40.159  23.311  26.471  1.00  0.00    -0.237 OA
ATOM     89  O   UNL A   1      42.424  23.206  25.477  1.00  0.00    -0.237 OA
ATOM     90  O   UNL A   1      42.153  23.309  27.926  1.00  0.00    -0.744 OA
ENDBRANCH  83  87
ENDBRANCH  56  80
BRANCH  68  91
ATOM     91  C   UNL A   1      44.074  27.636  34.049  1.00  0.00     0.023 A 
ATOM     92  C   UNL A   1      43.809  26.404  34.672  1.00  0.00     0.031 A 
ATOM     93  C   UNL A   1      45.394  28.122  34.084  1.00  0.00     0.131 A 
ATOM     94  C   UNL A   1      44.821  25.753  35.392  1.00  0.00     0.055 A 
ATOM     95  C   UNL A   1      46.416  27.425  34.730  1.00  0.00     0.041 A 
ATOM     96  F   UNL A   1      45.709  29.292  33.505  1.00  0.00    -0.206 F 
ATOM     97  C   UNL A   1      46.127  26.245  35.410  1.00  0.00     0.022 A 
BRANCH  94  98
ATOM     98  S   UNL A   1      44.365  24.341  36.436  1.00  0.00     0.124 S 
ATOM     99  O   UNL A   1      45.670  23.807  36.810  1.00  0.00    -0.237 OA
ATOM    100  O   UNL A   1      43.607  24.979  37.507  1.00  0.00    -0.237 OA
ATOM    101  O   UNL A   1      43.580  23.492  35.541  1.00  0.00    -0.744 OA
ENDBRANCH  94  98
ENDBRANCH  68  91
ENDBRANCH  42  43
ENDBRANCH  34  37
ENDBRANCH  32  33
ENDBRANCH  31  32
ENDBRANCH   1  31
TORSDOF 18
ENDMDL
MODEL 2
REMARK VINA RESULT:     -12.9      1.628      7.495
REMARK SMILES O=C(C[NH+]1CCC(C(=O)NCCCNC(=O)c2ccc(-c3c4nc(c(-c5cc(S(=O)(=O)[O-])ccc5F)c5ccc([nH]5)c(-c5cc(S(=O)(=O)[O-])ccc5F)c5nc(c(-c6cc(S(=O)(=O)[O-])ccc6F)c6ccc3[nH]6)C=C5)C=C4)cc2)CC1)Nc1ccccc1Oc1ccccc1
REMARK SMILES IDX 11 1 10 2 8 3 9 4 7 6 4 7 5 8 81 9 6 11 80 12 3 13 2 14 1 15
REMARK SMILES IDX 82 16 83 18 84 19 88 20 85 21 87 22 86 23 89 24 90 25 91 26
REMARK SMILES IDX 95 27 92 28 94 29 93 30 12 31 13 32 14 33 15 34 16 36 17 37
REMARK SMILES IDX 18 38 79 39 19 40 78 41 20 42 21 43 22 44 72 45 23 46 77 47
REMARK SMILES IDX 71 48 73 49 24 50 76 51 70 52 69 53 25 55 57 56 37 57 56 58
REMARK SMILES IDX 38 59 41 60 55 61 74 62 39 63 40 64 54 66 75 67 42 68 26 69
REMARK SMILES IDX 27 70 35 71 28 72 34 73 36 74 33 75 29 76 30 77 31 78 32 79
REMARK SMILES IDX 58 80 59 81 67 82 60 83 66 84 68 85 65 86 61 87 62 88 63 89
REMARK SMILES IDX 64 90 43 91 44 92 52 93 45 94 51 95 53 96 50 97 46 98 47 99
REMARK SMILES IDX 48 100 49 101
REMARK H PARENT 10 5 4 10 82 17 14 35 73 54 41 65
REMARK Flexibility Score: inf
ROOT
ATOM      1  C   UNL A   1      31.805  30.426  25.993  1.00  0.00     0.117 C 
ENDROOT
BRANCH   1   2
ATOM      2  N   UNL A   1      31.015  30.327  24.772  1.00  0.00    -0.356 N 
ATOM      3  C   UNL A   1      30.862  29.295  23.896  1.00  0.00     0.223 C 
ATOM      4  O   UNL A   1      30.146  29.463  22.909  1.00  0.00    -0.275 OA
ATOM      5  H   UNL A   1      30.509  31.139  24.542  1.00  0.00     0.163 HD
BRANCH   3   6
ATOM      6  C   UNL A   1      31.520  27.954  24.156  1.00  0.00     0.089 C 
ATOM      7  N   UNL A   1      31.050  25.153  23.587  1.00  0.00    -0.327 N 
ATOM      8  C   UNL A   1      31.035  25.593  24.986  1.00  0.00     0.263 C 
ATOM      9  C   UNL A   1      32.122  25.846  22.859  1.00  0.00     0.263 C 
ATOM     10  H   UNL A   1      30.172  25.402  23.129  1.00  0.00     0.348 HD
ATOM     11  C   UNL A   1      30.655  27.065  25.057  1.00  0.00     0.075 C 
ATOM     12  C   UNL A   1      31.951  27.348  22.819  1.00  0.00     0.075 C 
BRANCH   7  13
ATOM     13  C   UNL A   1      31.157  23.672  23.519  1.00  0.00     0.363 C 
BRANCH  13  14
ATOM     14  C   UNL A   1      32.578  23.183  23.222  1.00  0.00     0.279 C 
ATOM     15  O   UNL A   1      32.940  22.821  22.106  1.00  0.00    -0.268 OA
ATOM     16  N   UNL A   1      33.316  23.056  24.395  1.00  0.00    -0.318 N 
ATOM     17  H   UNL A   1      32.894  23.328  25.242  1.00  0.00     0.170 HD
BRANCH  16  18
ATOM     18  C   UNL A   1      34.625  22.563  24.439  1.00  0.00     0.084 A 
ATOM     19  C   UNL A   1      35.598  23.431  23.911  1.00  0.00     0.030 A 
ATOM     20  C   UNL A   1      34.997  21.307  24.939  1.00  0.00     0.150 A 
ATOM     21  C   UNL A   1      36.950  23.104  23.966  1.00  0.00     0.002 A 
ATOM     22  C   UNL A   1      36.367  20.994  24.979  1.00  0.00     0.049 A 
ATOM     23  C   UNL A   1      37.336  21.886  24.510  1.00  0.00     0.004 A 
BRANCH  20  24
ATOM     24  O   UNL A   1      34.207  20.265  25.385  1.00  0.00    -0.455 OA
BRANCH  24  25
ATOM     25  C   UNL A   1      33.842  19.232  24.560  1.00  0.00     0.127 A 
ATOM     26  C   UNL A   1      32.657  19.401  23.837  1.00  0.00     0.047 A 
ATOM     27  C   UNL A   1      34.572  18.048  24.436  1.00  0.00     0.047 A 
ATOM     28  C   UNL A   1      32.262  18.442  22.905  1.00  0.00     0.004 A 
ATOM     29  C   UNL A   1      34.176  17.089  23.498  1.00  0.00     0.004 A 
ATOM     30  C   UNL A   1      33.032  17.295  22.723  1.00  0.00     0.000 A 
ENDBRANCH  24  25
ENDBRANCH  20  24
ENDBRANCH  16  18
ENDBRANCH  13  14
ENDBRANCH   7  13
ENDBRANCH   3   6
ENDBRANCH   1   2
BRANCH   1  31
ATOM     31  C   UNL A   1      31.560  31.731  26.728  1.00  0.00     0.042 C 
BRANCH  31  32
ATOM     32  C   UNL A   1      32.833  32.370  27.254  1.00  0.00     0.118 C 
BRANCH  32  33
ATOM     33  N   UNL A   1      32.668  33.787  27.538  1.00  0.00    -0.352 N 
ATOM     34  C   UNL A   1      33.256  34.552  28.512  1.00  0.00     0.251 C 
ATOM     35  H   UNL A   1      32.045  34.266  26.944  1.00  0.00     0.163 HD
ATOM     36  O   UNL A   1      32.826  35.686  28.726  1.00  0.00    -0.269 OA
BRANCH  34  37
ATOM     37  C   UNL A   1      34.371  34.003  29.311  1.00  0.00     0.039 A 
ATOM     38  C   UNL A   1      34.076  33.211  30.420  1.00  0.00     0.014 A 
ATOM     39  C   UNL A   1      35.701  34.259  28.967  1.00  0.00     0.014 A 
ATOM     40  C   UNL A   1      35.116  32.634  31.148  1.00  0.00     0.010 A 
ATOM     41  C   UNL A   1      36.730  33.594  29.622  1.00  0.00     0.010 A 
ATOM     42  C   UNL A   1      36.451  32.786  30.732  1.00  0.00    -0.014 A 
BRANCH  42  43
ATOM     43  C   UNL A   1      37.553  32.113  31.466  1.00  0.00     0.031 A 
ATOM     44  C   UNL A   1      38.330  30.998  30.815  1.00  0.00     0.074 A 
ATOM     45  C   UNL A   1      37.845  32.508  32.722  1.00  0.00     0.049 A 
ATOM     46  N   UNL A   1      39.339  30.312  31.288  1.00  0.00    -0.248 NA
ATOM     47  C   UNL A   1      37.904  30.581  29.470  1.00  0.00     0.031 C 
ATOM     48  C   UNL A   1      37.123  33.539  33.474  1.00  0.00     0.029 A 
ATOM     49  N   UNL A   1      38.833  32.106  33.584  1.00  0.00    -0.354 N 
ATOM     50  C   UNL A   1      39.673  29.395  30.297  1.00  0.00     0.074 A 
ATOM     51  C   UNL A   1      38.705  29.553  29.235  1.00  0.00     0.031 C 
ATOM     52  C   UNL A   1      37.726  33.725  34.658  1.00  0.00     0.029 A 
ATOM     53  C   UNL A   1      38.844  32.797  34.775  1.00  0.00     0.049 A 
ATOM     54  H   UNL A   1      39.474  31.390  33.371  1.00  0.00     0.167 HD
ATOM     55  C   UNL A   1      40.713  28.526  30.259  1.00  0.00     0.034 A 
ATOM     56  C   UNL A   1      39.667  32.695  35.837  1.00  0.00     0.034 A 
ATOM     57  C   UNL A   1      41.673  28.382  31.324  1.00  0.00     0.049 A 
ATOM     58  C   UNL A   1      40.799  31.699  35.775  1.00  0.00     0.074 A 
ATOM     59  C   UNL A   1      42.776  27.547  31.384  1.00  0.00     0.029 A 
ATOM     60  N   UNL A   1      41.648  29.090  32.519  1.00  0.00    -0.354 N 
ATOM     61  N   UNL A   1      41.130  30.879  34.803  1.00  0.00    -0.248 NA
ATOM     62  C   UNL A   1      41.683  31.634  36.944  1.00  0.00     0.031 C 
ATOM     63  C   UNL A   1      43.378  27.703  32.637  1.00  0.00     0.029 A 
ATOM     64  C   UNL A   1      42.703  28.696  33.328  1.00  0.00     0.049 A 
ATOM     65  H   UNL A   1      40.979  29.772  32.756  1.00  0.00     0.167 HD
ATOM     66  C   UNL A   1      42.284  30.229  35.234  1.00  0.00     0.074 A 
ATOM     67  C   UNL A   1      42.609  30.785  36.531  1.00  0.00     0.031 C 
ATOM     68  C   UNL A   1      43.008  29.256  34.623  1.00  0.00     0.034 A 
BRANCH  55  69
ATOM     69  C   UNL A   1      40.861  27.669  29.026  1.00  0.00     0.023 A 
ATOM     70  C   UNL A   1      41.844  27.941  28.056  1.00  0.00     0.031 A 
ATOM     71  C   UNL A   1      40.022  26.561  28.816  1.00  0.00     0.131 A 
ATOM     72  C   UNL A   1      41.928  27.152  26.899  1.00  0.00     0.055 A 
ATOM     73  C   UNL A   1      40.160  25.733  27.700  1.00  0.00     0.041 A 
ATOM     74  F   UNL A   1      39.049  26.266  29.693  1.00  0.00    -0.206 F 
ATOM     75  C   UNL A   1      41.111  26.032  26.729  1.00  0.00     0.022 A 
BRANCH  72  76
ATOM     76  S   UNL A   1      43.042  27.677  25.569  1.00  0.00     0.124 S 
ATOM     77  O   UNL A   1      43.610  26.402  25.140  1.00  0.00    -0.237 OA
ATOM     78  O   UNL A   1      42.131  28.319  24.628  1.00  0.00    -0.237 OA
ATOM     79  O   UNL A   1      43.979  28.574  26.242  1.00  0.00    -0.744 OA
ENDBRANCH  72  76
ENDBRANCH  55  69
BRANCH  56  80
ATOM     80  C   UNL A   1      39.467  33.540  37.053  1.00  0.00     0.023 A 
ATOM     81  C   UNL A   1      40.255  34.680  37.277  1.00  0.00     0.031 A 
ATOM     82  C   UNL A   1      38.553  33.167  38.055  1.00  0.00     0.131 A 
ATOM     83  C   UNL A   1      40.182  35.352  38.507  1.00  0.00     0.055 A 
ATOM     84  C   UNL A   1      38.428  33.887  39.245  1.00  0.00     0.041 A 
ATOM     85  F   UNL A   1      37.769  32.089  37.895  1.00  0.00    -0.206 F 
ATOM     86  C   UNL A   1      39.263  34.973  39.487  1.00  0.00     0.022 A 
BRANCH  83  87
ATOM     87  S   UNL A   1      41.411  36.639  38.865  1.00  0.00     0.124 S 
ATOM     88  O   UNL A   1      40.596  37.650  39.529  1.00  0.00    -0.237 OA
ATOM     89  O   UNL A   1      42.359  35.921  39.712  1.00  0.00    -0.237 OA
ATOM     90  O   UNL A   1      41.913  37.006  37.543  1.00  0.00    -0.744 OA
ENDBRANCH  83  87
ENDBRANCH  56  80
BRANCH  68  91
ATOM     91  C   UNL A   1      44.246  28.778  35.346  1.00  0.00     0.023 A 
ATOM     92  C   UNL A   1      44.175  27.832  36.383  1.00  0.00     0.031 A 
ATOM     93  C   UNL A   1      45.505  29.324  35.036  1.00  0.00     0.131 A 
ATOM     94  C   UNL A   1      45.318  27.538  37.141  1.00  0.00     0.055 A 
ATOM     95  C   UNL A   1      46.656  28.962  35.739  1.00  0.00     0.041 A 
ATOM     96  F   UNL A   1      45.636  30.232  34.055  1.00  0.00    -0.206 F 
ATOM     97  C   UNL A   1      46.562  28.083  36.814  1.00  0.00     0.022 A 
BRANCH  94  98
ATOM     98  S   UNL A   1      45.121  26.561  38.656  1.00  0.00     0.124 S 
ATOM     99  O   UNL A   1      45.768  27.410  39.650  1.00  0.00    -0.237 OA
ATOM    100  O   UNL A   1      43.671  26.445  38.765  1.00  0.00    -0.237 OA
ATOM    101  O   UNL A   1      45.821  25.314  38.352  1.00  0.00    -0.744 OA
ENDBRANCH  94  98
ENDBRANCH  68  91
ENDBRANCH  42  43
ENDBRANCH  34  37
ENDBRANCH  32  33
ENDBRANCH  31  32
ENDBRANCH   1  31
TORSDOF 18
ENDMDL
MODEL 3
REMARK VINA RESULT:     -12.8      1.534      2.779
REMARK SMILES O=C(C[NH+]1CCC(C(=O)NCCCNC(=O)c2ccc(-c3c4nc(c(-c5cc(S(=O)(=O)[O-])ccc5F)c5ccc([nH]5)c(-c5cc(S(=O)(=O)[O-])ccc5F)c5nc(c(-c6cc(S(=O)(=O)[O-])ccc6F)c6ccc3[nH]6)C=C5)C=C4)cc2)CC1)Nc1ccccc1Oc1ccccc1
REMARK SMILES IDX 11 1 10 2 8 3 9 4 7 6 4 7 5 8 81 9 6 11 80 12 3 13 2 14 1 15
REMARK SMILES IDX 82 16 83 18 84 19 88 20 85 21 87 22 86 23 89 24 90 25 91 26
REMARK SMILES IDX 95 27 92 28 94 29 93 30 12 31 13 32 14 33 15 34 16 36 17 37
REMARK SMILES IDX 18 38 79 39 19 40 78 41 20 42 21 43 22 44 72 45 23 46 77 47
REMARK SMILES IDX 71 48 73 49 24 50 76 51 70 52 69 53 25 55 57 56 37 57 56 58
REMARK SMILES IDX 38 59 41 60 55 61 74 62 39 63 40 64 54 66 75 67 42 68 26 69
REMARK SMILES IDX 27 70 35 71 28 72 34 73 36 74 33 75 29 76 30 77 31 78 32 79
REMARK SMILES IDX 58 80 59 81 67 82 60 83 66 84 68 85 65 86 61 87 62 88 63 89
REMARK SMILES IDX 64 90 43 91 44 92 52 93 45 94 51 95 53 96 50 97 46 98 47 99
REMARK SMILES IDX 48 100 49 101
REMARK H PARENT 10 5 4 10 82 17 14 35 73 54 41 65
REMARK Flexibility Score: inf
ROOT
ATOM      1  C   UNL A   1      31.512  30.784  25.893  1.00  0.00     0.117 C 
ENDROOT
BRANCH   1   2
ATOM      2  N   UNL A   1      30.589  30.919  24.773  1.00  0.00    -0.356 N 
ATOM      3  C   UNL A   1      30.301  30.062  23.754  1.00  0.00     0.223 C 
ATOM      4  O   UNL A   1      29.488  30.418  22.900  1.00  0.00    -0.275 OA
ATOM      5  H   UNL A   1      30.094  31.768  24.748  1.00  0.00     0.163 HD
BRANCH   3   6
ATOM      6  C   UNL A   1      30.931  28.684  23.698  1.00  0.00     0.089 C 
ATOM      7  N   UNL A   1      31.835  26.785  21.707  1.00  0.00    -0.327 N 
ATOM      8  C   UNL A   1      30.712  26.408  22.572  1.00  0.00     0.263 C 
ATOM      9  C   UNL A   1      32.843  27.513  22.490  1.00  0.00     0.263 C 
ATOM     10  H   UNL A   1      31.517  27.417  20.972  1.00  0.00     0.348 HD
ATOM     11  C   UNL A   1      29.992  27.659  23.052  1.00  0.00     0.075 C 
ATOM     12  C   UNL A   1      32.327  28.804  23.085  1.00  0.00     0.075 C 
BRANCH   7  13
ATOM     13  C   UNL A   1      32.379  25.581  21.025  1.00  0.00     0.363 C 
BRANCH  13  14
ATOM     14  C   UNL A   1      32.834  24.489  21.998  1.00  0.00     0.279 C 
ATOM     15  O   UNL A   1      34.016  24.234  22.212  1.00  0.00    -0.268 OA
ATOM     16  N   UNL A   1      31.749  23.747  22.456  1.00  0.00    -0.318 N 
ATOM     17  H   UNL A   1      30.847  24.017  22.168  1.00  0.00     0.170 HD
BRANCH  16  18
ATOM     18  C   UNL A   1      31.868  22.641  23.303  1.00  0.00     0.084 A 
ATOM     19  C   UNL A   1      32.201  21.437  22.657  1.00  0.00     0.030 A 
ATOM     20  C   UNL A   1      31.667  22.662  24.691  1.00  0.00     0.150 A 
ATOM     21  C   UNL A   1      32.434  20.275  23.387  1.00  0.00     0.002 A 
ATOM     22  C   UNL A   1      31.900  21.477  25.409  1.00  0.00     0.049 A 
ATOM     23  C   UNL A   1      32.292  20.298  24.769  1.00  0.00     0.004 A 
BRANCH  20  24
ATOM     24  O   UNL A   1      31.223  23.690  25.503  1.00  0.00    -0.455 OA
BRANCH  24  25
ATOM     25  C   UNL A   1      32.005  24.785  25.771  1.00  0.00     0.127 A 
ATOM     26  C   UNL A   1      33.375  24.645  25.537  1.00  0.00     0.047 A 
ATOM     27  C   UNL A   1      31.502  25.987  26.276  1.00  0.00     0.047 A 
ATOM     28  C   UNL A   1      34.228  25.737  25.693  1.00  0.00     0.004 A 
ATOM     29  C   UNL A   1      32.358  27.082  26.428  1.00  0.00     0.004 A 
ATOM     30  C   UNL A   1      33.716  26.960  26.122  1.00  0.00     0.000 A 
ENDBRANCH  24  25
ENDBRANCH  20  24
ENDBRANCH  16  18
ENDBRANCH  13  14
ENDBRANCH   7  13
ENDBRANCH   3   6
ENDBRANCH   1   2
BRANCH   1  31
ATOM     31  C   UNL A   1      31.381  31.927  26.883  1.00  0.00     0.042 C 
BRANCH  31  32
ATOM     32  C   UNL A   1      32.704  32.602  27.197  1.00  0.00     0.118 C 
BRANCH  32  33
ATOM     33  N   UNL A   1      32.534  33.972  27.658  1.00  0.00    -0.352 N 
ATOM     34  C   UNL A   1      33.201  34.644  28.649  1.00  0.00     0.251 C 
ATOM     35  H   UNL A   1      31.839  34.490  27.191  1.00  0.00     0.163 HD
ATOM     36  O   UNL A   1      32.769  35.729  29.036  1.00  0.00    -0.269 OA
BRANCH  34  37
ATOM     37  C   UNL A   1      34.409  34.050  29.261  1.00  0.00     0.039 A 
ATOM     38  C   UNL A   1      34.254  33.025  30.193  1.00  0.00     0.014 A 
ATOM     39  C   UNL A   1      35.688  34.495  28.913  1.00  0.00     0.014 A 
ATOM     40  C   UNL A   1      35.385  32.412  30.733  1.00  0.00     0.010 A 
ATOM     41  C   UNL A   1      36.809  33.809  29.365  1.00  0.00     0.010 A 
ATOM     42  C   UNL A   1      36.671  32.770  30.293  1.00  0.00    -0.014 A 
BRANCH  42  43
ATOM     43  C   UNL A   1      37.872  32.067  30.817  1.00  0.00     0.031 A 
ATOM     44  C   UNL A   1      38.402  32.390  32.189  1.00  0.00     0.074 A 
ATOM     45  C   UNL A   1      38.482  31.143  30.047  1.00  0.00     0.049 A 
ATOM     46  N   UNL A   1      39.419  31.864  32.824  1.00  0.00    -0.248 NA
ATOM     47  C   UNL A   1      37.720  33.459  32.937  1.00  0.00     0.031 C 
ATOM     48  C   UNL A   1      38.089  30.790  28.679  1.00  0.00     0.029 A 
ATOM     49  N   UNL A   1      39.548  30.320  30.305  1.00  0.00    -0.354 N 
ATOM     50  C   UNL A   1      39.489  32.528  34.045  1.00  0.00     0.074 A 
ATOM     51  C   UNL A   1      38.470  33.553  34.026  1.00  0.00     0.031 C 
ATOM     52  C   UNL A   1      38.866  29.786  28.243  1.00  0.00     0.029 A 
ATOM     53  C   UNL A   1      39.843  29.457  29.274  1.00  0.00     0.049 A 
ATOM     54  H   UNL A   1      40.054  30.344  31.149  1.00  0.00     0.167 HD
ATOM     55  C   UNL A   1      40.304  32.282  35.100  1.00  0.00     0.034 A 
ATOM     56  C   UNL A   1      40.793  28.506  29.176  1.00  0.00     0.034 A 
ATOM     57  C   UNL A   1      41.315  31.254  35.107  1.00  0.00     0.049 A 
ATOM     58  C   UNL A   1      41.702  28.274  30.358  1.00  0.00     0.074 A 
ATOM     59  C   UNL A   1      42.183  30.905  36.126  1.00  0.00     0.029 A 
ATOM     60  N   UNL A   1      41.594  30.405  34.042  1.00  0.00    -0.354 N 
ATOM     61  N   UNL A   1      41.715  28.878  31.524  1.00  0.00    -0.248 NA
ATOM     62  C   UNL A   1      42.708  27.216  30.216  1.00  0.00     0.031 C 
ATOM     63  C   UNL A   1      43.028  29.893  35.657  1.00  0.00     0.029 A 
ATOM     64  C   UNL A   1      42.633  29.550  34.375  1.00  0.00     0.049 A 
ATOM     65  H   UNL A   1      41.122  30.411  33.178  1.00  0.00     0.167 HD
ATOM     66  C   UNL A   1      42.708  28.242  32.267  1.00  0.00     0.074 A 
ATOM     67  C   UNL A   1      43.237  27.187  31.428  1.00  0.00     0.031 C 
ATOM     68  C   UNL A   1      43.152  28.507  33.523  1.00  0.00     0.034 A 
BRANCH  55  69
ATOM     69  C   UNL A   1      40.133  33.140  36.329  1.00  0.00     0.023 A 
ATOM     70  C   UNL A   1      40.909  34.296  36.531  1.00  0.00     0.031 A 
ATOM     71  C   UNL A   1      39.180  32.811  37.308  1.00  0.00     0.131 A 
ATOM     72  C   UNL A   1      40.757  35.049  37.705  1.00  0.00     0.055 A 
ATOM     73  C   UNL A   1      38.979  33.606  38.438  1.00  0.00     0.041 A 
ATOM     74  F   UNL A   1      38.426  31.706  37.183  1.00  0.00    -0.206 F 
ATOM     75  C   UNL A   1      39.777  34.728  38.646  1.00  0.00     0.022 A 
BRANCH  72  76
ATOM     76  S   UNL A   1      41.935  36.386  38.038  1.00  0.00     0.124 S 
ATOM     77  O   UNL A   1      42.988  35.677  38.761  1.00  0.00    -0.237 OA
ATOM     78  O   UNL A   1      42.279  36.846  36.698  1.00  0.00    -0.237 OA
ATOM     79  O   UNL A   1      41.163  37.330  38.843  1.00  0.00    -0.744 OA
ENDBRANCH  72  76
ENDBRANCH  55  69
BRANCH  56  80
ATOM     80  C   UNL A   1      40.950  27.698  27.929  1.00  0.00     0.023 A 
ATOM     81  C   UNL A   1      40.558  26.351  27.886  1.00  0.00     0.031 A 
ATOM     82  C   UNL A   1      41.583  28.233  26.792  1.00  0.00     0.131 A 
ATOM     83  C   UNL A   1      40.882  25.561  26.773  1.00  0.00     0.055 A 
ATOM     84  C   UNL A   1      41.833  27.461  25.655  1.00  0.00     0.041 A 
ATOM     85  F   UNL A   1      41.977  29.516  26.772  1.00  0.00    -0.206 F 
ATOM     86  C   UNL A   1      41.504  26.110  25.651  1.00  0.00     0.022 A 
BRANCH  83  87
ATOM     87  S   UNL A   1      40.614  23.768  26.876  1.00  0.00     0.124 S 
ATOM     88  O   UNL A   1      39.217  23.655  26.472  1.00  0.00    -0.237 OA
ATOM     89  O   UNL A   1      41.599  23.262  25.926  1.00  0.00    -0.237 OA
ATOM     90  O   UNL A   1      40.888  23.465  28.279  1.00  0.00    -0.744 OA
ENDBRANCH  83  87
ENDBRANCH  56  80
BRANCH  68  91
ATOM     91  C   UNL A   1      44.232  27.600  34.064  1.00  0.00     0.023 A 
ATOM     92  C   UNL A   1      43.929  26.355  34.643  1.00  0.00     0.031 A 
ATOM     93  C   UNL A   1      45.577  28.014  34.059  1.00  0.00     0.131 A 
ATOM     94  C   UNL A   1      44.935  25.618  35.284  1.00  0.00     0.055 A 
ATOM     95  C   UNL A   1      46.588  27.235  34.624  1.00  0.00     0.041 A 
ATOM     96  F   UNL A   1      45.929  29.193  33.520  1.00  0.00    -0.206 F 
ATOM     97  C   UNL A   1      46.266  26.040  35.262  1.00  0.00     0.022 A 
BRANCH  94  98
ATOM     98  S   UNL A   1      44.450  24.184  36.284  1.00  0.00     0.124 S 
ATOM     99  O   UNL A   1      43.107  23.908  35.786  1.00  0.00    -0.237 OA
ATOM    100  O   UNL A   1      45.472  23.204  35.937  1.00  0.00    -0.237 OA
ATOM    101  O   UNL A   1      44.513  24.686  37.656  1.00  0.00    -0.744 OA
ENDBRANCH  94  98
ENDBRANCH  68  91
ENDBRANCH  42  43
ENDBRANCH  34  37
ENDBRANCH  32  33
ENDBRANCH  31  32
ENDBRANCH   1  31
TORSDOF 18
ENDMDL
