MODEL 1
REMARK VINA RESULT:     -11.2      0.000      0.000
REMARK SMILES CCCc1nnc(SCC(=O)NCCCNC(=O)c2ccc(-c3c4nc(c(-c5cc(S(=O)(=O)[O-])ccc5F)c5ccc([nH]5)c(-c5cc(S(=O)(=O)[O-])ccc5F)c5nc(c(-c6cc(S(=O)(=O)[O-])ccc6F)c6ccc3[nH]6)C=C5)C=C4)cc2)n1C[C@H]1CCCO1
REMARK SMILES IDX 13 1 12 2 10 3 11 4 9 6 8 7 7 8 4 9 5 10 82 11 6 12 3 13
REMARK SMILES IDX 2 14 1 15 83 16 84 17 85 18 88 19 86 20 87 21 14 22 15 23
REMARK SMILES IDX 16 24 17 25 18 27 19 28 20 29 81 30 21 31 80 32 22 33 23 34
REMARK SMILES IDX 24 35 74 36 25 37 79 38 73 39 75 40 26 41 78 42 72 43 71 44
REMARK SMILES IDX 27 46 59 47 39 48 58 49 40 50 43 51 57 52 76 53 41 54 42 55
REMARK SMILES IDX 56 57 77 58 44 59 28 60 29 61 37 62 30 63 36 64 38 65 35 66
REMARK SMILES IDX 31 67 32 68 33 69 34 70 60 71 61 72 69 73 62 74 68 75 70 76
REMARK SMILES IDX 67 77 63 78 64 79 65 80 66 81 45 82 46 83 54 84 47 85 53 86
REMARK SMILES IDX 55 87 52 88 48 89 49 90 50 91 51 92
REMARK H PARENT 12 5 16 26 75 45 43 56
REMARK Flexibility Score: inf
ROOT
ATOM      1  C   UNL A   1      35.905  20.915  25.510  1.00  0.00     0.117 C 
ENDROOT
BRANCH   1   2
ATOM      2  N   UNL A   1      34.716  20.129  25.251  1.00  0.00    -0.355 N 
ATOM      3  C   UNL A   1      33.424  20.403  25.562  1.00  0.00     0.230 C 
ATOM      4  O   UNL A   1      32.554  19.618  25.181  1.00  0.00    -0.274 OA
ATOM      5  H   UNL A   1      34.866  19.275  24.783  1.00  0.00     0.163 HD
BRANCH   3   6
ATOM      6  C   UNL A   1      33.063  21.695  26.255  1.00  0.00     0.178 C 
BRANCH   6   7
ATOM      7  S   UNL A   1      31.442  22.323  25.896  1.00  0.00    -0.076 SA
BRANCH   7   8
ATOM      8  C   UNL A   1      31.315  24.027  26.141  1.00  0.00     0.191 A 
ATOM      9  C   UNL A   1      31.413  26.215  26.096  1.00  0.00     0.133 A 
ATOM     10  N   UNL A   1      30.232  25.865  26.558  1.00  0.00    -0.134 NA
ATOM     11  N   UNL A   1      32.197  25.071  25.975  1.00  0.00    -0.303 N 
ATOM     12  N   UNL A   1      30.166  24.508  26.569  1.00  0.00    -0.123 NA
BRANCH   9  13
ATOM     13  C   UNL A   1      31.791  27.625  25.772  1.00  0.00     0.077 C 
BRANCH  13  14
ATOM     14  C   UNL A   1      32.521  28.329  26.928  1.00  0.00     0.005 C 
ATOM     15  C   UNL A   1      32.114  29.786  27.130  1.00  0.00     0.004 C 
ENDBRANCH  13  14
ENDBRANCH   9  13
BRANCH  11  16
ATOM     16  C   UNL A   1      33.608  25.056  25.670  1.00  0.00     0.158 C 
BRANCH  16  17
ATOM     17  C   UNL A   1      34.014  25.094  24.178  1.00  0.00     0.138 C 
ATOM     18  C   UNL A   1      35.039  24.097  23.646  1.00  0.00     0.036 C 
ATOM     19  O   UNL A   1      32.836  24.880  23.375  1.00  0.00    -0.376 OA
ATOM     20  C   UNL A   1      34.259  23.031  22.903  1.00  0.00     0.031 C 
ATOM     21  C   UNL A   1      32.843  23.555  22.838  1.00  0.00     0.160 C 
ENDBRANCH  16  17
ENDBRANCH  11  16
ENDBRANCH   7   8
ENDBRANCH   6   7
ENDBRANCH   3   6
ENDBRANCH   1   2
BRANCH   1  22
ATOM     22  C   UNL A   1      37.135  20.420  24.750  1.00  0.00     0.042 C 
BRANCH  22  23
ATOM     23  C   UNL A   1      38.439  20.784  25.436  1.00  0.00     0.118 C 
BRANCH  23  24
ATOM     24  N   UNL A   1      39.339  19.642  25.557  1.00  0.00    -0.352 N 
ATOM     25  C   UNL A   1      40.677  19.649  25.906  1.00  0.00     0.251 C 
ATOM     26  H   UNL A   1      38.946  18.760  25.366  1.00  0.00     0.163 HD
ATOM     27  O   UNL A   1      41.381  18.689  25.662  1.00  0.00    -0.269 OA
BRANCH  25  28
ATOM     28  C   UNL A   1      41.218  20.857  26.559  1.00  0.00     0.039 A 
ATOM     29  C   UNL A   1      41.694  21.921  25.792  1.00  0.00     0.014 A 
ATOM     30  C   UNL A   1      41.184  20.932  27.950  1.00  0.00     0.014 A 
ATOM     31  C   UNL A   1      42.060  23.098  26.438  1.00  0.00     0.010 A 
ATOM     32  C   UNL A   1      41.414  22.136  28.571  1.00  0.00     0.010 A 
ATOM     33  C   UNL A   1      41.894  23.210  27.829  1.00  0.00    -0.014 A 
BRANCH  33  34
ATOM     34  C   UNL A   1      42.097  24.493  28.498  1.00  0.00     0.031 A 
ATOM     35  C   UNL A   1      40.990  25.468  28.319  1.00  0.00     0.074 A 
ATOM     36  C   UNL A   1      43.087  24.726  29.386  1.00  0.00     0.049 A 
ATOM     37  N   UNL A   1      41.004  26.552  27.617  1.00  0.00    -0.248 NA
ATOM     38  C   UNL A   1      39.661  25.127  28.850  1.00  0.00     0.031 C 
ATOM     39  C   UNL A   1      44.082  23.781  29.903  1.00  0.00     0.029 A 
ATOM     40  N   UNL A   1      43.340  25.851  30.109  1.00  0.00    -0.354 N 
ATOM     41  C   UNL A   1      39.772  27.164  27.826  1.00  0.00     0.074 A 
ATOM     42  C   UNL A   1      38.928  26.147  28.396  1.00  0.00     0.031 C 
ATOM     43  C   UNL A   1      44.664  24.294  31.010  1.00  0.00     0.029 A 
ATOM     44  C   UNL A   1      44.218  25.666  31.173  1.00  0.00     0.049 A 
ATOM     45  H   UNL A   1      42.937  26.723  29.896  1.00  0.00     0.167 HD
ATOM     46  C   UNL A   1      39.640  28.518  27.746  1.00  0.00     0.034 A 
ATOM     47  C   UNL A   1      44.551  26.566  32.135  1.00  0.00     0.034 A 
ATOM     48  C   UNL A   1      40.793  29.106  27.092  1.00  0.00     0.049 A 
ATOM     49  C   UNL A   1      44.281  27.910  31.568  1.00  0.00     0.074 A 
ATOM     50  C   UNL A   1      41.405  28.932  25.865  1.00  0.00     0.029 A 
ATOM     51  N   UNL A   1      41.732  29.738  27.880  1.00  0.00    -0.354 N 
ATOM     52  N   UNL A   1      44.930  28.394  30.543  1.00  0.00    -0.248 NA
ATOM     53  C   UNL A   1      42.980  28.515  31.814  1.00  0.00     0.031 C 
ATOM     54  C   UNL A   1      42.804  28.978  26.145  1.00  0.00     0.029 A 
ATOM     55  C   UNL A   1      42.967  29.272  27.501  1.00  0.00     0.049 A 
ATOM     56  H   UNL A   1      41.551  30.401  28.585  1.00  0.00     0.167 HD
ATOM     57  C   UNL A   1      43.963  29.015  29.768  1.00  0.00     0.074 A 
ATOM     58  C   UNL A   1      42.807  29.156  30.653  1.00  0.00     0.031 C 
ATOM     59  C   UNL A   1      44.087  29.095  28.409  1.00  0.00     0.034 A 
BRANCH  46  60
ATOM     60  C   UNL A   1      38.689  29.358  28.580  1.00  0.00     0.023 A 
ATOM     61  C   UNL A   1      38.942  29.416  29.966  1.00  0.00     0.031 A 
ATOM     62  C   UNL A   1      37.425  29.842  28.175  1.00  0.00     0.131 A 
ATOM     63  C   UNL A   1      37.936  29.786  30.874  1.00  0.00     0.055 A 
ATOM     64  C   UNL A   1      36.451  30.279  29.079  1.00  0.00     0.041 A 
ATOM     65  F   UNL A   1      37.018  29.843  26.902  1.00  0.00    -0.206 F 
ATOM     66  C   UNL A   1      36.686  30.215  30.439  1.00  0.00     0.022 A 
BRANCH  63  67
ATOM     67  S   UNL A   1      38.230  29.497  32.637  1.00  0.00     0.124 S 
ATOM     68  O   UNL A   1      37.313  28.394  32.905  1.00  0.00    -0.237 OA
ATOM     69  O   UNL A   1      39.652  29.172  32.653  1.00  0.00    -0.237 OA
ATOM     70  O   UNL A   1      37.873  30.772  33.253  1.00  0.00    -0.744 OA
ENDBRANCH  63  67
ENDBRANCH  46  60
BRANCH  47  71
ATOM     71  C   UNL A   1      44.793  26.297  33.578  1.00  0.00     0.023 A 
ATOM     72  C   UNL A   1      43.821  26.523  34.574  1.00  0.00     0.031 A 
ATOM     73  C   UNL A   1      45.941  25.569  33.966  1.00  0.00     0.131 A 
ATOM     74  C   UNL A   1      44.016  26.027  35.886  1.00  0.00     0.055 A 
ATOM     75  C   UNL A   1      46.130  25.084  35.262  1.00  0.00     0.041 A 
ATOM     76  F   UNL A   1      46.884  25.229  33.073  1.00  0.00    -0.206 F 
ATOM     77  C   UNL A   1      45.161  25.303  36.226  1.00  0.00     0.022 A 
BRANCH  74  78
ATOM     78  S   UNL A   1      42.727  26.236  37.157  1.00  0.00     0.124 S 
ATOM     79  O   UNL A   1      42.050  27.450  36.717  1.00  0.00    -0.237 OA
ATOM     80  O   UNL A   1      41.971  24.994  37.046  1.00  0.00    -0.237 OA
ATOM     81  O   UNL A   1      43.490  26.376  38.398  1.00  0.00    -0.744 OA
ENDBRANCH  74  78
ENDBRANCH  47  71
BRANCH  59  82
ATOM     82  C   UNL A   1      45.433  28.778  27.782  1.00  0.00     0.023 A 
ATOM     83  C   UNL A   1      45.866  27.490  27.389  1.00  0.00     0.031 A 
ATOM     84  C   UNL A   1      46.265  29.867  27.465  1.00  0.00     0.131 A 
ATOM     85  C   UNL A   1      47.094  27.334  26.714  1.00  0.00     0.055 A 
ATOM     86  C   UNL A   1      47.467  29.711  26.778  1.00  0.00     0.041 A 
ATOM     87  F   UNL A   1      45.900  31.119  27.788  1.00  0.00    -0.206 F 
ATOM     88  C   UNL A   1      47.890  28.441  26.404  1.00  0.00     0.022 A 
BRANCH  85  89
ATOM     89  S   UNL A   1      47.695  25.680  26.237  1.00  0.00     0.124 S 
ATOM     90  O   UNL A   1      49.085  25.678  26.680  1.00  0.00    -0.237 OA
ATOM     91  O   UNL A   1      46.791  24.792  26.962  1.00  0.00    -0.237 OA
ATOM     92  O   UNL A   1      47.522  25.661  24.782  1.00  0.00    -0.744 OA
ENDBRANCH  85  89
ENDBRANCH  59  82
ENDBRANCH  33  34
ENDBRANCH  25  28
ENDBRANCH  23  24
ENDBRANCH  22  23
ENDBRANCH   1  22
TORSDOF 19
ENDMDL
MODEL 2
REMARK VINA RESULT:     -11.1      3.198      8.505
REMARK SMILES CCCc1nnc(SCC(=O)NCCCNC(=O)c2ccc(-c3c4nc(c(-c5cc(S(=O)(=O)[O-])ccc5F)c5ccc([nH]5)c(-c5cc(S(=O)(=O)[O-])ccc5F)c5nc(c(-c6cc(S(=O)(=O)[O-])ccc6F)c6ccc3[nH]6)C=C5)C=C4)cc2)n1C[C@H]1CCCO1
REMARK SMILES IDX 13 1 12 2 10 3 11 4 9 6 8 7 7 8 4 9 5 10 82 11 6 12 3 13
REMARK SMILES IDX 2 14 1 15 83 16 84 17 85 18 88 19 86 20 87 21 14 22 15 23
REMARK SMILES IDX 16 24 17 25 18 27 19 28 20 29 81 30 21 31 80 32 22 33 23 34
REMARK SMILES IDX 24 35 74 36 25 37 79 38 73 39 75 40 26 41 78 42 72 43 71 44
REMARK SMILES IDX 27 46 59 47 39 48 58 49 40 50 43 51 57 52 76 53 41 54 42 55
REMARK SMILES IDX 56 57 77 58 44 59 28 60 29 61 37 62 30 63 36 64 38 65 35 66
REMARK SMILES IDX 31 67 32 68 33 69 34 70 60 71 61 72 69 73 62 74 68 75 70 76
REMARK SMILES IDX 67 77 63 78 64 79 65 80 66 81 45 82 46 83 54 84 47 85 53 86
REMARK SMILES IDX 55 87 52 88 48 89 49 90 50 91 51 92
REMARK H PARENT 12 5 16 26 75 45 43 56
REMARK Flexibility Score: inf
ROOT
ATOM      1  C   UNL A   1      33.142  30.493  27.296  1.00  0.00     0.117 C 
ENDROOT
BRANCH   1   2
ATOM      2  N   UNL A   1      32.434  29.267  27.605  1.00  0.00    -0.355 N 
ATOM      3  C   UNL A   1      31.748  28.442  26.774  1.00  0.00     0.230 C 
ATOM      4  O   UNL A   1      31.277  27.405  27.243  1.00  0.00    -0.274 OA
ATOM      5  H   UNL A   1      32.453  28.994  28.551  1.00  0.00     0.163 HD
BRANCH   3   6
ATOM      6  C   UNL A   1      31.671  28.739  25.296  1.00  0.00     0.178 C 
BRANCH   6   7
ATOM      7  S   UNL A   1      30.956  27.455  24.299  1.00  0.00    -0.076 SA
BRANCH   7   8
ATOM      8  C   UNL A   1      32.139  26.386  23.637  1.00  0.00     0.191 A 
ATOM      9  C   UNL A   1      33.472  24.737  23.084  1.00  0.00     0.133 A 
ATOM     10  N   UNL A   1      33.241  25.459  22.008  1.00  0.00    -0.134 NA
ATOM     11  N   UNL A   1      32.921  25.391  24.182  1.00  0.00    -0.303 N 
ATOM     12  N   UNL A   1      32.400  26.470  22.349  1.00  0.00    -0.123 NA
BRANCH   9  13
ATOM     13  C   UNL A   1      34.210  23.436  23.066  1.00  0.00     0.077 C 
BRANCH  13  14
ATOM     14  C   UNL A   1      35.510  23.475  23.887  1.00  0.00     0.005 C 
ATOM     15  C   UNL A   1      36.702  22.814  23.203  1.00  0.00     0.004 C 
ENDBRANCH  13  14
ENDBRANCH   9  13
BRANCH  11  16
ATOM     16  C   UNL A   1      33.114  25.012  25.561  1.00  0.00     0.158 C 
BRANCH  16  17
ATOM     17  C   UNL A   1      32.086  24.036  26.181  1.00  0.00     0.138 C 
ATOM     18  C   UNL A   1      31.113  23.285  25.276  1.00  0.00     0.036 C 
ATOM     19  O   UNL A   1      32.800  23.007  26.895  1.00  0.00    -0.376 OA
ATOM     20  C   UNL A   1      31.646  21.872  25.149  1.00  0.00     0.031 C 
ATOM     21  C   UNL A   1      32.776  21.786  26.150  1.00  0.00     0.160 C 
ENDBRANCH  16  17
ENDBRANCH  11  16
ENDBRANCH   7   8
ENDBRANCH   6   7
ENDBRANCH   3   6
ENDBRANCH   1   2
BRANCH   1  22
ATOM     22  C   UNL A   1      34.613  30.271  26.949  1.00  0.00     0.042 C 
BRANCH  22  23
ATOM     23  C   UNL A   1      35.301  29.299  27.890  1.00  0.00     0.118 C 
BRANCH  23  24
ATOM     24  N   UNL A   1      35.465  29.848  29.232  1.00  0.00    -0.352 N 
ATOM     25  C   UNL A   1      36.492  29.613  30.127  1.00  0.00     0.251 C 
ATOM     26  H   UNL A   1      34.756  30.460  29.538  1.00  0.00     0.163 HD
ATOM     27  O   UNL A   1      36.350  29.868  31.307  1.00  0.00    -0.269 OA
BRANCH  25  28
ATOM     28  C   UNL A   1      37.743  29.027  29.609  1.00  0.00     0.039 A 
ATOM     29  C   UNL A   1      38.381  29.591  28.503  1.00  0.00     0.014 A 
ATOM     30  C   UNL A   1      38.299  27.942  30.284  1.00  0.00     0.014 A 
ATOM     31  C   UNL A   1      39.631  29.101  28.134  1.00  0.00     0.010 A 
ATOM     32  C   UNL A   1      39.586  27.554  30.004  1.00  0.00     0.010 A 
ATOM     33  C   UNL A   1      40.243  28.098  28.904  1.00  0.00    -0.014 A 
BRANCH  33  34
ATOM     34  C   UNL A   1      41.624  27.702  28.643  1.00  0.00     0.031 A 
ATOM     35  C   UNL A   1      41.773  26.451  27.855  1.00  0.00     0.074 A 
ATOM     36  C   UNL A   1      42.690  28.493  28.894  1.00  0.00     0.049 A 
ATOM     37  N   UNL A   1      42.191  25.303  28.275  1.00  0.00    -0.248 NA
ATOM     38  C   UNL A   1      41.251  26.422  26.480  1.00  0.00     0.031 C 
ATOM     39  C   UNL A   1      42.699  29.873  29.389  1.00  0.00     0.029 A 
ATOM     40  N   UNL A   1      44.007  28.257  28.643  1.00  0.00    -0.354 N 
ATOM     41  C   UNL A   1      42.231  24.475  27.157  1.00  0.00     0.074 A 
ATOM     42  C   UNL A   1      41.441  25.141  26.155  1.00  0.00     0.031 C 
ATOM     43  C   UNL A   1      43.915  30.423  29.177  1.00  0.00     0.029 A 
ATOM     44  C   UNL A   1      44.816  29.387  28.704  1.00  0.00     0.049 A 
ATOM     45  H   UNL A   1      44.359  27.361  28.437  1.00  0.00     0.167 HD
ATOM     46  C   UNL A   1      43.120  23.444  27.081  1.00  0.00     0.034 A 
ATOM     47  C   UNL A   1      46.131  29.482  28.376  1.00  0.00     0.034 A 
ATOM     48  C   UNL A   1      43.682  23.156  28.386  1.00  0.00     0.049 A 
ATOM     49  C   UNL A   1      46.692  28.113  28.483  1.00  0.00     0.074 A 
ATOM     50  C   UNL A   1      43.151  22.819  29.617  1.00  0.00     0.029 A 
ATOM     51  N   UNL A   1      44.963  23.593  28.651  1.00  0.00    -0.354 N 
ATOM     52  N   UNL A   1      46.766  27.460  29.613  1.00  0.00    -0.248 NA
ATOM     53  C   UNL A   1      46.717  27.281  27.290  1.00  0.00     0.031 C 
ATOM     54  C   UNL A   1      43.924  23.557  30.563  1.00  0.00     0.029 A 
ATOM     55  C   UNL A   1      44.938  24.224  29.871  1.00  0.00     0.049 A 
ATOM     56  H   UNL A   1      45.751  23.475  28.071  1.00  0.00     0.167 HD
ATOM     57  C   UNL A   1      46.393  26.162  29.300  1.00  0.00     0.074 A 
ATOM     58  C   UNL A   1      46.487  26.085  27.843  1.00  0.00     0.031 C 
ATOM     59  C   UNL A   1      45.772  25.362  30.218  1.00  0.00     0.034 A 
BRANCH  46  60
ATOM     60  C   UNL A   1      43.782  22.949  25.807  1.00  0.00     0.023 A 
ATOM     61  C   UNL A   1      43.863  21.553  25.635  1.00  0.00     0.031 A 
ATOM     62  C   UNL A   1      44.577  23.715  24.926  1.00  0.00     0.131 A 
ATOM     63  C   UNL A   1      44.792  20.982  24.750  1.00  0.00     0.055 A 
ATOM     64  C   UNL A   1      45.449  23.142  23.994  1.00  0.00     0.041 A 
ATOM     65  F   UNL A   1      44.631  25.050  24.965  1.00  0.00    -0.206 F 
ATOM     66  C   UNL A   1      45.593  21.769  23.929  1.00  0.00     0.022 A 
BRANCH  63  67
ATOM     67  S   UNL A   1      45.077  19.196  24.847  1.00  0.00     0.124 S 
ATOM     68  O   UNL A   1      46.433  19.149  25.385  1.00  0.00    -0.237 OA
ATOM     69  O   UNL A   1      44.010  18.772  25.747  1.00  0.00    -0.237 OA
ATOM     70  O   UNL A   1      44.938  18.756  23.461  1.00  0.00    -0.744 OA
ENDBRANCH  63  67
ENDBRANCH  46  60
BRANCH  47  71
ATOM     71  C   UNL A   1      46.815  30.618  27.702  1.00  0.00     0.023 A 
ATOM     72  C   UNL A   1      46.120  31.631  27.011  1.00  0.00     0.031 A 
ATOM     73  C   UNL A   1      48.189  30.846  27.947  1.00  0.00     0.131 A 
ATOM     74  C   UNL A   1      46.795  32.806  26.601  1.00  0.00     0.055 A 
ATOM     75  C   UNL A   1      48.851  32.005  27.538  1.00  0.00     0.041 A 
ATOM     76  F   UNL A   1      48.919  29.982  28.670  1.00  0.00    -0.206 F 
ATOM     77  C   UNL A   1      48.152  32.997  26.871  1.00  0.00     0.022 A 
BRANCH  74  78
ATOM     78  S   UNL A   1      45.886  34.160  25.786  1.00  0.00     0.124 S 
ATOM     79  O   UNL A   1      46.928  34.800  24.992  1.00  0.00    -0.237 OA
ATOM     80  O   UNL A   1      44.852  33.444  25.046  1.00  0.00    -0.237 OA
ATOM     81  O   UNL A   1      45.390  34.962  26.906  1.00  0.00    -0.744 OA
ENDBRANCH  74  78
ENDBRANCH  47  71
BRANCH  59  82
ATOM     82  C   UNL A   1      45.769  25.793  31.674  1.00  0.00     0.023 A 
ATOM     83  C   UNL A   1      44.624  26.181  32.407  1.00  0.00     0.031 A 
ATOM     84  C   UNL A   1      46.983  25.686  32.376  1.00  0.00     0.131 A 
ATOM     85  C   UNL A   1      44.727  26.454  33.787  1.00  0.00     0.055 A 
ATOM     86  C   UNL A   1      47.078  25.935  33.744  1.00  0.00     0.041 A 
ATOM     87  F   UNL A   1      48.103  25.297  31.744  1.00  0.00    -0.206 F 
ATOM     88  C   UNL A   1      45.949  26.326  34.454  1.00  0.00     0.022 A 
BRANCH  85  89
ATOM     89  S   UNL A   1      43.274  27.000  34.744  1.00  0.00     0.124 S 
ATOM     90  O   UNL A   1      43.853  27.789  35.826  1.00  0.00    -0.237 OA
ATOM     91  O   UNL A   1      42.502  27.743  33.753  1.00  0.00    -0.237 OA
ATOM     92  O   UNL A   1      42.657  25.742  35.173  1.00  0.00    -0.744 OA
ENDBRANCH  85  89
ENDBRANCH  59  82
ENDBRANCH  33  34
ENDBRANCH  25  28
ENDBRANCH  23  24
ENDBRANCH  22  23
ENDBRANCH   1  22
TORSDOF 19
ENDMDL
MODEL 3
REMARK VINA RESULT:     -11.0      1.944      2.590
REMARK SMILES CCCc1nnc(SCC(=O)NCCCNC(=O)c2ccc(-c3c4nc(c(-c5cc(S(=O)(=O)[O-])ccc5F)c5ccc([nH]5)c(-c5cc(S(=O)(=O)[O-])ccc5F)c5nc(c(-c6cc(S(=O)(=O)[O-])ccc6F)c6ccc3[nH]6)C=C5)C=C4)cc2)n1C[C@H]1CCCO1
REMARK SMILES IDX 13 1 12 2 10 3 11 4 9 6 8 7 7 8 4 9 5 10 82 11 6 12 3 13
REMARK SMILES IDX 2 14 1 15 83 16 84 17 85 18 88 19 86 20 87 21 14 22 15 23
REMARK SMILES IDX 16 24 17 25 18 27 19 28 20 29 81 30 21 31 80 32 22 33 23 34
REMARK SMILES IDX 24 35 74 36 25 37 79 38 73 39 75 40 26 41 78 42 72 43 71 44
REMARK SMILES IDX 27 46 59 47 39 48 58 49 40 50 43 51 57 52 76 53 41 54 42 55
REMARK SMILES IDX 56 57 77 58 44 59 28 60 29 61 37 62 30 63 36 64 38 65 35 66
REMARK SMILES IDX 31 67 32 68 33 69 34 70 60 71 61 72 69 73 62 74 68 75 70 76
REMARK SMILES IDX 67 77 63 78 64 79 65 80 66 81 45 82 46 83 54 84 47 85 53 86
REMARK SMILES IDX 55 87 52 88 48 89 49 90 50 91 51 92
REMARK H PARENT 12 5 16 26 75 45 43 56
REMARK Flexibility Score: inf
ROOT
ATOM      1  C   UNL A   1      35.158  21.246  25.751  1.00  0.00     0.117 C 
ENDROOT
BRANCH   1   2
ATOM      2  N   UNL A   1      34.152  20.203  25.719  1.00  0.00    -0.355 N 
ATOM      3  C   UNL A   1      32.858  20.275  25.319  1.00  0.00     0.230 C 
ATOM      4  O   UNL A   1      32.193  19.237  25.310  1.00  0.00    -0.274 OA
ATOM      5  H   UNL A   1      34.450  19.318  26.031  1.00  0.00     0.163 HD
BRANCH   3   6
ATOM      6  C   UNL A   1      32.291  21.572  24.793  1.00  0.00     0.178 C 
BRANCH   6   7
ATOM      7  S   UNL A   1      32.272  21.731  23.025  1.00  0.00    -0.076 SA
BRANCH   7   8
ATOM      8  C   UNL A   1      32.405  23.369  22.499  1.00  0.00     0.191 A 
ATOM      9  C   UNL A   1      32.477  25.545  22.252  1.00  0.00     0.133 A 
ATOM     10  N   UNL A   1      33.358  25.009  21.436  1.00  0.00    -0.134 NA
ATOM     11  N   UNL A   1      31.729  24.523  22.830  1.00  0.00    -0.303 N 
ATOM     12  N   UNL A   1      33.325  23.661  21.603  1.00  0.00    -0.123 NA
BRANCH   9  13
ATOM     13  C   UNL A   1      32.350  27.018  22.482  1.00  0.00     0.077 C 
BRANCH  13  14
ATOM     14  C   UNL A   1      33.702  27.749  22.425  1.00  0.00     0.005 C 
ATOM     15  C   UNL A   1      34.068  28.489  23.709  1.00  0.00     0.004 C 
ENDBRANCH  13  14
ENDBRANCH   9  13
BRANCH  11  16
ATOM     16  C   UNL A   1      30.551  24.710  23.643  1.00  0.00     0.158 C 
BRANCH  16  17
ATOM     17  C   UNL A   1      30.753  24.803  25.174  1.00  0.00     0.138 C 
ATOM     18  C   UNL A   1      32.162  24.909  25.748  1.00  0.00     0.036 C 
ATOM     19  O   UNL A   1      30.065  25.974  25.659  1.00  0.00    -0.376 OA
ATOM     20  C   UNL A   1      32.367  26.362  26.124  1.00  0.00     0.031 C 
ATOM     21  C   UNL A   1      31.008  27.005  25.965  1.00  0.00     0.160 C 
ENDBRANCH  16  17
ENDBRANCH  11  16
ENDBRANCH   7   8
ENDBRANCH   6   7
ENDBRANCH   3   6
ENDBRANCH   1   2
BRANCH   1  22
ATOM     22  C   UNL A   1      35.754  21.554  24.379  1.00  0.00     0.042 C 
BRANCH  22  23
ATOM     23  C   UNL A   1      37.271  21.568  24.383  1.00  0.00     0.118 C 
BRANCH  23  24
ATOM     24  N   UNL A   1      37.837  20.265  24.717  1.00  0.00    -0.352 N 
ATOM     25  C   UNL A   1      38.964  19.995  25.471  1.00  0.00     0.251 C 
ATOM     26  H   UNL A   1      37.357  19.482  24.360  1.00  0.00     0.163 HD
ATOM     27  O   UNL A   1      39.501  18.907  25.407  1.00  0.00    -0.269 OA
BRANCH  25  28
ATOM     28  C   UNL A   1      39.496  21.070  26.330  1.00  0.00     0.039 A 
ATOM     29  C   UNL A   1      40.592  20.833  27.160  1.00  0.00     0.014 A 
ATOM     30  C   UNL A   1      38.919  22.336  26.246  1.00  0.00     0.014 A 
ATOM     31  C   UNL A   1      41.155  21.907  27.845  1.00  0.00     0.010 A 
ATOM     32  C   UNL A   1      39.557  23.413  26.812  1.00  0.00     0.010 A 
ATOM     33  C   UNL A   1      40.649  23.202  27.648  1.00  0.00    -0.014 A 
BRANCH  33  34
ATOM     34  C   UNL A   1      41.338  24.361  28.210  1.00  0.00     0.031 A 
ATOM     35  C   UNL A   1      40.507  25.590  28.305  1.00  0.00     0.074 A 
ATOM     36  C   UNL A   1      42.550  24.298  28.800  1.00  0.00     0.049 A 
ATOM     37  N   UNL A   1      40.614  26.666  27.598  1.00  0.00    -0.248 NA
ATOM     38  C   UNL A   1      39.322  25.570  29.175  1.00  0.00     0.031 C 
ATOM     39  C   UNL A   1      43.372  23.111  29.059  1.00  0.00     0.029 A 
ATOM     40  N   UNL A   1      43.260  25.290  29.404  1.00  0.00    -0.354 N 
ATOM     41  C   UNL A   1      39.675  27.557  28.110  1.00  0.00     0.074 A 
ATOM     42  C   UNL A   1      38.779  26.760  28.905  1.00  0.00     0.031 C 
ATOM     43  C   UNL A   1      44.332  23.413  29.962  1.00  0.00     0.029 A 
ATOM     44  C   UNL A   1      44.307  24.844  30.204  1.00  0.00     0.049 A 
ATOM     45  H   UNL A   1      43.050  26.244  29.285  1.00  0.00     0.167 HD
ATOM     46  C   UNL A   1      39.875  28.904  28.035  1.00  0.00     0.034 A 
ATOM     47  C   UNL A   1      45.096  25.587  31.023  1.00  0.00     0.034 A 
ATOM     48  C   UNL A   1      40.928  29.213  27.088  1.00  0.00     0.049 A 
ATOM     49  C   UNL A   1      45.039  26.980  30.516  1.00  0.00     0.074 A 
ATOM     50  C   UNL A   1      41.135  28.946  25.747  1.00  0.00     0.029 A 
ATOM     51  N   UNL A   1      42.168  29.552  27.586  1.00  0.00    -0.354 N 
ATOM     52  N   UNL A   1      45.500  27.331  29.345  1.00  0.00    -0.248 NA
ATOM     53  C   UNL A   1      44.044  27.880  31.081  1.00  0.00     0.031 C 
ATOM     54  C   UNL A   1      42.523  28.626  25.648  1.00  0.00     0.029 A 
ATOM     55  C   UNL A   1      43.102  28.808  26.906  1.00  0.00     0.049 A 
ATOM     56  H   UNL A   1      42.352  30.208  28.298  1.00  0.00     0.167 HD
ATOM     57  C   UNL A   1      44.554  28.209  28.837  1.00  0.00     0.074 A 
ATOM     58  C   UNL A   1      43.744  28.596  29.991  1.00  0.00     0.031 C 
ATOM     59  C   UNL A   1      44.337  28.316  27.492  1.00  0.00     0.034 A 
BRANCH  46  60
ATOM     60  C   UNL A   1      39.419  29.917  29.070  1.00  0.00     0.023 A 
ATOM     61  C   UNL A   1      40.049  29.865  30.330  1.00  0.00     0.031 A 
ATOM     62  C   UNL A   1      38.247  30.703  29.011  1.00  0.00     0.131 A 
ATOM     63  C   UNL A   1      39.450  30.433  31.467  1.00  0.00     0.055 A 
ATOM     64  C   UNL A   1      37.692  31.329  30.133  1.00  0.00     0.041 A 
ATOM     65  F   UNL A   1      37.519  30.846  27.899  1.00  0.00    -0.206 F 
ATOM     66  C   UNL A   1      38.269  31.163  31.378  1.00  0.00     0.022 A 
BRANCH  63  67
ATOM     67  S   UNL A   1      40.138  30.020  33.090  1.00  0.00     0.124 S 
ATOM     68  O   UNL A   1      39.659  28.653  33.267  1.00  0.00    -0.237 OA
ATOM     69  O   UNL A   1      41.569  30.178  32.857  1.00  0.00    -0.237 OA
ATOM     70  O   UNL A   1      39.535  31.014  33.976  1.00  0.00    -0.744 OA
ENDBRANCH  63  67
ENDBRANCH  46  60
BRANCH  47  71
ATOM     71  C   UNL A   1      45.629  25.202  32.358  1.00  0.00     0.023 A 
ATOM     72  C   UNL A   1      44.909  24.404  33.270  1.00  0.00     0.031 A 
ATOM     73  C   UNL A   1      46.993  25.429  32.654  1.00  0.00     0.131 A 
ATOM     74  C   UNL A   1      45.553  23.871  34.413  1.00  0.00     0.055 A 
ATOM     75  C   UNL A   1      47.623  24.903  33.783  1.00  0.00     0.041 A 
ATOM     76  F   UNL A   1      47.786  26.103  31.806  1.00  0.00    -0.206 F 
ATOM     77  C   UNL A   1      46.906  24.110  34.664  1.00  0.00     0.022 A 
BRANCH  74  78
ATOM     78  S   UNL A   1      44.654  22.766  35.552  1.00  0.00     0.124 S 
ATOM     79  O   UNL A   1      44.829  21.463  34.923  1.00  0.00    -0.237 OA
ATOM     80  O   UNL A   1      45.354  22.979  36.814  1.00  0.00    -0.237 OA
ATOM     81  O   UNL A   1      43.285  23.284  35.520  1.00  0.00    -0.744 OA
ENDBRANCH  74  78
ENDBRANCH  47  71
BRANCH  59  82
ATOM     82  C   UNL A   1      45.348  27.700  26.541  1.00  0.00     0.023 A 
ATOM     83  C   UNL A   1      45.394  26.335  26.174  1.00  0.00     0.031 A 
ATOM     84  C   UNL A   1      46.232  28.578  25.889  1.00  0.00     0.131 A 
ATOM     85  C   UNL A   1      46.309  25.898  25.194  1.00  0.00     0.055 A 
ATOM     86  C   UNL A   1      47.120  28.146  24.905  1.00  0.00     0.041 A 
ATOM     87  F   UNL A   1      46.221  29.891  26.173  1.00  0.00    -0.206 F 
ATOM     88  C   UNL A   1      47.166  26.801  24.558  1.00  0.00     0.022 A 
BRANCH  85  89
ATOM     89  S   UNL A   1      46.419  24.136  24.736  1.00  0.00     0.124 S 
ATOM     90  O   UNL A   1      46.817  23.482  25.978  1.00  0.00    -0.237 OA
ATOM     91  O   UNL A   1      45.068  23.846  24.264  1.00  0.00    -0.237 OA
ATOM     92  O   UNL A   1      47.442  24.120  23.688  1.00  0.00    -0.744 OA
ENDBRANCH  85  89
ENDBRANCH  59  82
ENDBRANCH  33  34
ENDBRANCH  25  28
ENDBRANCH  23  24
ENDBRANCH  22  23
ENDBRANCH   1  22
TORSDOF 19
ENDMDL
