MODEL 1
REMARK VINA RESULT:     -12.5      0.000      0.000
REMARK SMILES CC(C)CCc1cc2c(cc1Cl)C=C(C(=O)NCCCNC(=O)c1ccc(-c3c4nc(c(-c5cc(S(=O)(=O)[O-])ccc5F)c5ccc([nH]5)c(-c5cc(S(=O)(=O)[O-])ccc5F)c5nc(c(-c6cc(S(=O)(=O)[O-])ccc6F)c6ccc3[nH]6)C=C5)C=C4)cc1)[C@@H](C(F)(F)F)O2
REMARK SMILES IDX 19 1 18 2 17 3 15 4 16 5 14 7 6 8 7 9 11 10 8 11 10 12 12 13
REMARK SMILES IDX 9 14 92 15 13 16 87 17 5 18 4 19 2 20 1 21 3 22 88 23 89 24
REMARK SMILES IDX 90 25 91 26 20 27 21 28 22 29 23 31 24 32 25 33 86 34 26 35
REMARK SMILES IDX 85 36 27 37 28 38 29 39 79 40 30 41 84 42 78 43 80 44 31 45
REMARK SMILES IDX 83 46 77 47 76 48 32 50 64 51 44 52 63 53 45 54 48 55 62 56
REMARK SMILES IDX 81 57 46 58 47 59 61 61 82 62 49 63 33 64 34 65 42 66 35 67
REMARK SMILES IDX 41 68 43 69 40 70 36 71 37 72 38 73 39 74 65 75 66 76 74 77
REMARK SMILES IDX 67 78 73 79 75 80 72 81 68 82 69 83 70 84 71 85 50 86 51 87
REMARK SMILES IDX 59 88 52 89 58 90 60 91 57 92 53 93 54 94 55 95 56 96
REMARK H PARENT 17 6 21 30 80 49 48 60
REMARK Flexibility Score: inf
ROOT
ATOM      1  C   UNL A   1      31.094  31.268  25.816  1.00  0.00     0.042 C 
ENDROOT
BRANCH   1   2
ATOM      2  C   UNL A   1      31.300  29.937  25.113  1.00  0.00     0.118 C 
BRANCH   2   3
ATOM      3  N   UNL A   1      30.584  29.877  23.847  1.00  0.00    -0.352 N 
ATOM      4  C   UNL A   1      30.379  28.973  22.864  1.00  0.00     0.251 C 
ATOM      5  O   UNL A   1      29.675  29.368  21.927  1.00  0.00    -0.270 OA
ATOM      6  H   UNL A   1      30.125  30.726  23.654  1.00  0.00     0.163 HD
BRANCH   4   7
ATOM      7  C   UNL A   1      30.913  27.582  22.845  1.00  0.00     0.067 C 
ATOM      8  C   UNL A   1      31.809  22.702  23.800  1.00  0.00    -0.026 A 
ATOM      9  C   UNL A   1      32.107  23.573  22.735  1.00  0.00     0.052 A 
ATOM     10  C   UNL A   1      31.051  23.211  24.872  1.00  0.00     0.045 A 
ATOM     11  C   UNL A   1      31.652  24.890  22.739  1.00  0.00     0.128 A 
ATOM     12  C   UNL A   1      30.542  24.517  24.837  1.00  0.00     0.032 A 
ATOM     13  Cl  UNL A   1      30.730  22.305  26.305  1.00  0.00    -0.084 Cl
ATOM     14  C   UNL A   1      30.843  25.361  23.769  1.00  0.00     0.019 A 
ATOM     15  O   UNL A   1      32.023  25.684  21.689  1.00  0.00    -0.475 OA
ATOM     16  C   UNL A   1      30.332  26.723  23.704  1.00  0.00     0.025 C 
ATOM     17  C   UNL A   1      32.052  27.112  21.984  1.00  0.00     0.314 C 
BRANCH   8  18
ATOM     18  C   UNL A   1      32.368  21.296  23.727  1.00  0.00     0.037 C 
BRANCH  18  19
ATOM     19  C   UNL A   1      33.523  20.935  24.674  1.00  0.00     0.008 C 
BRANCH  19  20
ATOM     20  C   UNL A   1      34.591  22.026  24.876  1.00  0.00    -0.017 C 
ATOM     21  C   UNL A   1      34.532  22.628  26.278  1.00  0.00     0.007 C 
ATOM     22  C   UNL A   1      35.980  21.442  24.609  1.00  0.00     0.007 C 
ENDBRANCH  19  20
ENDBRANCH  18  19
ENDBRANCH   8  18
BRANCH  17  23
ATOM     23  C   UNL A   1      33.427  27.498  22.571  1.00  0.00     0.429 C 
ATOM     24  F   UNL A   1      33.365  27.572  23.924  1.00  0.00    -0.167 F 
ATOM     25  F   UNL A   1      34.390  26.591  22.279  1.00  0.00    -0.167 F 
ATOM     26  F   UNL A   1      33.875  28.692  22.121  1.00  0.00    -0.167 F 
ENDBRANCH  17  23
ENDBRANCH   4   7
ENDBRANCH   2   3
ENDBRANCH   1   2
BRANCH   1  27
ATOM     27  C   UNL A   1      32.197  31.572  26.820  1.00  0.00     0.118 C 
BRANCH  27  28
ATOM     28  N   UNL A   1      32.243  32.988  27.178  1.00  0.00    -0.352 N 
ATOM     29  C   UNL A   1      33.126  33.676  27.977  1.00  0.00     0.251 C 
ATOM     30  H   UNL A   1      31.527  33.538  26.784  1.00  0.00     0.163 HD
ATOM     31  O   UNL A   1      32.851  34.816  28.343  1.00  0.00    -0.269 OA
BRANCH  29  32
ATOM     32  C   UNL A   1      34.383  33.032  28.410  1.00  0.00     0.039 A 
ATOM     33  C   UNL A   1      34.361  31.744  28.942  1.00  0.00     0.014 A 
ATOM     34  C   UNL A   1      35.592  33.723  28.297  1.00  0.00     0.014 A 
ATOM     35  C   UNL A   1      35.497  31.238  29.557  1.00  0.00     0.010 A 
ATOM     36  C   UNL A   1      36.764  33.157  28.812  1.00  0.00     0.010 A 
ATOM     37  C   UNL A   1      36.714  31.935  29.499  1.00  0.00    -0.014 A 
BRANCH  37  38
ATOM     38  C   UNL A   1      37.910  31.350  30.163  1.00  0.00     0.031 A 
ATOM     39  C   UNL A   1      38.218  31.651  31.605  1.00  0.00     0.074 A 
ATOM     40  C   UNL A   1      38.672  30.477  29.474  1.00  0.00     0.049 A 
ATOM     41  N   UNL A   1      39.186  31.184  32.351  1.00  0.00    -0.248 NA
ATOM     42  C   UNL A   1      37.335  32.601  32.301  1.00  0.00     0.031 C 
ATOM     43  C   UNL A   1      38.456  30.109  28.074  1.00  0.00     0.029 A 
ATOM     44  N   UNL A   1      39.746  29.713  29.855  1.00  0.00    -0.354 N 
ATOM     45  C   UNL A   1      39.044  31.797  33.591  1.00  0.00     0.074 A 
ATOM     46  C   UNL A   1      37.917  32.695  33.489  1.00  0.00     0.031 C 
ATOM     47  C   UNL A   1      39.311  29.135  27.738  1.00  0.00     0.029 A 
ATOM     48  C   UNL A   1      40.198  28.869  28.867  1.00  0.00     0.049 A 
ATOM     49  H   UNL A   1      40.154  29.762  30.751  1.00  0.00     0.167 HD
ATOM     50  C   UNL A   1      39.780  31.613  34.713  1.00  0.00     0.034 A 
ATOM     51  C   UNL A   1      41.217  27.986  28.858  1.00  0.00     0.034 A 
ATOM     52  C   UNL A   1      40.886  30.693  34.802  1.00  0.00     0.049 A 
ATOM     53  C   UNL A   1      42.029  27.812  30.114  1.00  0.00     0.074 A 
ATOM     54  C   UNL A   1      41.686  30.422  35.898  1.00  0.00     0.029 A 
ATOM     55  N   UNL A   1      41.341  29.887  33.768  1.00  0.00    -0.354 N 
ATOM     56  N   UNL A   1      41.866  28.384  31.283  1.00  0.00    -0.248 NA
ATOM     57  C   UNL A   1      43.164  26.881  30.054  1.00  0.00     0.031 C 
ATOM     58  C   UNL A   1      42.657  29.498  35.513  1.00  0.00     0.029 A 
ATOM     59  C   UNL A   1      42.425  29.136  34.195  1.00  0.00     0.049 A 
ATOM     60  H   UNL A   1      40.953  29.854  32.864  1.00  0.00     0.167 HD
ATOM     61  C   UNL A   1      42.869  27.877  32.101  1.00  0.00     0.074 A 
ATOM     62  C   UNL A   1      43.613  26.925  31.302  1.00  0.00     0.031 C 
ATOM     63  C   UNL A   1      43.153  28.181  33.393  1.00  0.00     0.034 A 
BRANCH  50  64
ATOM     64  C   UNL A   1      39.430  32.406  35.948  1.00  0.00     0.023 A 
ATOM     65  C   UNL A   1      38.555  31.863  36.910  1.00  0.00     0.031 A 
ATOM     66  C   UNL A   1      39.857  33.735  36.116  1.00  0.00     0.131 A 
ATOM     67  C   UNL A   1      38.112  32.655  37.976  1.00  0.00     0.055 A 
ATOM     68  C   UNL A   1      39.443  34.508  37.203  1.00  0.00     0.041 A 
ATOM     69  F   UNL A   1      40.692  34.299  35.229  1.00  0.00    -0.206 F 
ATOM     70  C   UNL A   1      38.556  33.973  38.131  1.00  0.00     0.022 A 
BRANCH  67  71
ATOM     71  S   UNL A   1      36.896  32.032  39.169  1.00  0.00     0.124 S 
ATOM     72  O   UNL A   1      35.702  32.791  38.801  1.00  0.00    -0.237 OA
ATOM     73  O   UNL A   1      36.854  30.608  38.846  1.00  0.00    -0.237 OA
ATOM     74  O   UNL A   1      37.471  32.370  40.466  1.00  0.00    -0.744 OA
ENDBRANCH  67  71
ENDBRANCH  50  64
BRANCH  51  75
ATOM     75  C   UNL A   1      41.472  27.185  27.624  1.00  0.00     0.023 A 
ATOM     76  C   UNL A   1      41.168  25.812  27.580  1.00  0.00     0.031 A 
ATOM     77  C   UNL A   1      42.145  27.747  26.527  1.00  0.00     0.131 A 
ATOM     78  C   UNL A   1      41.617  25.031  26.508  1.00  0.00     0.055 A 
ATOM     79  C   UNL A   1      42.518  26.980  25.421  1.00  0.00     0.041 A 
ATOM     80  F   UNL A   1      42.467  29.049  26.525  1.00  0.00    -0.206 F 
ATOM     81  C   UNL A   1      42.275  25.610  25.419  1.00  0.00     0.022 A 
BRANCH  78  82
ATOM     82  S   UNL A   1      41.508  23.220  26.571  1.00  0.00     0.124 S 
ATOM     83  O   UNL A   1      40.077  22.995  26.394  1.00  0.00    -0.237 OA
ATOM     84  O   UNL A   1      42.353  22.831  25.445  1.00  0.00    -0.237 OA
ATOM     85  O   UNL A   1      42.043  22.889  27.888  1.00  0.00    -0.744 OA
ENDBRANCH  78  82
ENDBRANCH  51  75
BRANCH  63  86
ATOM     86  C   UNL A   1      44.320  27.491  34.053  1.00  0.00     0.023 A 
ATOM     87  C   UNL A   1      44.129  26.262  34.714  1.00  0.00     0.031 A 
ATOM     88  C   UNL A   1      45.572  28.120  34.164  1.00  0.00     0.131 A 
ATOM     89  C   UNL A   1      45.161  25.723  35.491  1.00  0.00     0.055 A 
ATOM     90  C   UNL A   1      46.613  27.554  34.902  1.00  0.00     0.041 A 
ATOM     91  F   UNL A   1      45.798  29.297  33.560  1.00  0.00    -0.206 F 
ATOM     92  C   UNL A   1      46.404  26.359  35.582  1.00  0.00     0.022 A 
BRANCH  89  93
ATOM     93  S   UNL A   1      44.899  24.230  36.487  1.00  0.00     0.124 S 
ATOM     94  O   UNL A   1      43.872  23.531  35.717  1.00  0.00    -0.237 OA
ATOM     95  O   UNL A   1      46.221  23.610  36.469  1.00  0.00    -0.237 OA
ATOM     96  O   UNL A   1      44.463  24.741  37.782  1.00  0.00    -0.744 OA
ENDBRANCH  89  93
ENDBRANCH  63  86
ENDBRANCH  37  38
ENDBRANCH  29  32
ENDBRANCH  27  28
ENDBRANCH   1  27
TORSDOF 17
ENDMDL
MODEL 2
REMARK VINA RESULT:     -12.4      1.996      2.516
REMARK SMILES CC(C)CCc1cc2c(cc1Cl)C=C(C(=O)NCCCNC(=O)c1ccc(-c3c4nc(c(-c5cc(S(=O)(=O)[O-])ccc5F)c5ccc([nH]5)c(-c5cc(S(=O)(=O)[O-])ccc5F)c5nc(c(-c6cc(S(=O)(=O)[O-])ccc6F)c6ccc3[nH]6)C=C5)C=C4)cc1)[C@@H](C(F)(F)F)O2
REMARK SMILES IDX 19 1 18 2 17 3 15 4 16 5 14 7 6 8 7 9 11 10 8 11 10 12 12 13
REMARK SMILES IDX 9 14 92 15 13 16 87 17 5 18 4 19 2 20 1 21 3 22 88 23 89 24
REMARK SMILES IDX 90 25 91 26 20 27 21 28 22 29 23 31 24 32 25 33 86 34 26 35
REMARK SMILES IDX 85 36 27 37 28 38 29 39 79 40 30 41 84 42 78 43 80 44 31 45
REMARK SMILES IDX 83 46 77 47 76 48 32 50 64 51 44 52 63 53 45 54 48 55 62 56
REMARK SMILES IDX 81 57 46 58 47 59 61 61 82 62 49 63 33 64 34 65 42 66 35 67
REMARK SMILES IDX 41 68 43 69 40 70 36 71 37 72 38 73 39 74 65 75 66 76 74 77
REMARK SMILES IDX 67 78 73 79 75 80 72 81 68 82 69 83 70 84 71 85 50 86 51 87
REMARK SMILES IDX 59 88 52 89 58 90 60 91 57 92 53 93 54 94 55 95 56 96
REMARK H PARENT 17 6 21 30 80 49 48 60
REMARK Flexibility Score: inf
ROOT
ATOM      1  C   UNL A   1      30.999  30.601  25.299  1.00  0.00     0.042 C 
ENDROOT
BRANCH   1   2
ATOM      2  C   UNL A   1      31.257  29.262  24.627  1.00  0.00     0.118 C 
BRANCH   2   3
ATOM      3  N   UNL A   1      32.592  29.195  24.052  1.00  0.00    -0.352 N 
ATOM      4  C   UNL A   1      33.561  28.265  23.896  1.00  0.00     0.251 C 
ATOM      5  O   UNL A   1      34.584  28.664  23.326  1.00  0.00    -0.270 OA
ATOM      6  H   UNL A   1      32.864  30.062  23.674  1.00  0.00     0.163 HD
BRANCH   4   7
ATOM      7  C   UNL A   1      33.472  26.845  24.335  1.00  0.00     0.067 C 
ATOM      8  C   UNL A   1      33.024  21.814  24.473  1.00  0.00    -0.026 A 
ATOM      9  C   UNL A   1      33.480  22.792  25.377  1.00  0.00     0.052 A 
ATOM     10  C   UNL A   1      32.619  22.241  23.194  1.00  0.00     0.045 A 
ATOM     11  C   UNL A   1      33.542  24.134  25.008  1.00  0.00     0.128 A 
ATOM     12  C   UNL A   1      32.747  23.583  22.809  1.00  0.00     0.032 A 
ATOM     13  Cl  UNL A   1      31.907  21.178  22.035  1.00  0.00    -0.084 Cl
ATOM     14  C   UNL A   1      33.208  24.534  23.718  1.00  0.00     0.019 A 
ATOM     15  O   UNL A   1      33.953  25.027  25.959  1.00  0.00    -0.475 OA
ATOM     16  C   UNL A   1      33.349  25.936  23.350  1.00  0.00     0.025 C 
ATOM     17  C   UNL A   1      33.468  26.389  25.768  1.00  0.00     0.314 C 
BRANCH   8  18
ATOM     18  C   UNL A   1      32.962  20.384  24.968  1.00  0.00     0.037 C 
BRANCH  18  19
ATOM     19  C   UNL A   1      33.946  19.372  24.361  1.00  0.00     0.008 C 
BRANCH  19  20
ATOM     20  C   UNL A   1      33.380  17.965  24.092  1.00  0.00    -0.017 C 
ATOM     21  C   UNL A   1      32.726  17.868  22.715  1.00  0.00     0.007 C 
ATOM     22  C   UNL A   1      34.498  16.928  24.221  1.00  0.00     0.007 C 
ENDBRANCH  19  20
ENDBRANCH  18  19
ENDBRANCH   8  18
BRANCH  17  23
ATOM     23  C   UNL A   1      32.082  26.549  26.429  1.00  0.00     0.429 C 
ATOM     24  F   UNL A   1      31.110  26.627  25.487  1.00  0.00    -0.167 F 
ATOM     25  F   UNL A   1      31.762  25.501  27.226  1.00  0.00    -0.167 F 
ATOM     26  F   UNL A   1      31.989  27.658  27.197  1.00  0.00    -0.167 F 
ENDBRANCH  17  23
ENDBRANCH   4   7
ENDBRANCH   2   3
ENDBRANCH   1   2
BRANCH   1  27
ATOM     27  C   UNL A   1      32.119  31.000  26.250  1.00  0.00     0.118 C 
BRANCH  27  28
ATOM     28  N   UNL A   1      32.019  32.398  26.663  1.00  0.00    -0.352 N 
ATOM     29  C   UNL A   1      32.801  33.128  27.529  1.00  0.00     0.251 C 
ATOM     30  H   UNL A   1      31.274  32.898  26.258  1.00  0.00     0.163 HD
ATOM     31  O   UNL A   1      32.407  34.222  27.926  1.00  0.00    -0.269 OA
BRANCH  29  32
ATOM     32  C   UNL A   1      34.091  32.581  27.996  1.00  0.00     0.039 A 
ATOM     33  C   UNL A   1      34.170  31.265  28.448  1.00  0.00     0.014 A 
ATOM     34  C   UNL A   1      35.230  33.391  27.996  1.00  0.00     0.014 A 
ATOM     35  C   UNL A   1      35.316  30.831  29.097  1.00  0.00     0.010 A 
ATOM     36  C   UNL A   1      36.424  32.907  28.544  1.00  0.00     0.010 A 
ATOM     37  C   UNL A   1      36.460  31.644  29.153  1.00  0.00    -0.014 A 
BRANCH  37  38
ATOM     38  C   UNL A   1      37.671  31.135  29.850  1.00  0.00     0.031 A 
ATOM     39  C   UNL A   1      37.958  31.514  31.278  1.00  0.00     0.074 A 
ATOM     40  C   UNL A   1      38.469  30.259  29.207  1.00  0.00     0.049 A 
ATOM     41  N   UNL A   1      38.937  31.118  32.050  1.00  0.00    -0.248 NA
ATOM     42  C   UNL A   1      37.037  32.463  31.924  1.00  0.00     0.031 C 
ATOM     43  C   UNL A   1      38.276  29.818  27.825  1.00  0.00     0.029 A 
ATOM     44  N   UNL A   1      39.567  29.553  29.629  1.00  0.00    -0.354 N 
ATOM     45  C   UNL A   1      38.764  31.783  33.259  1.00  0.00     0.074 A 
ATOM     46  C   UNL A   1      37.606  32.634  33.109  1.00  0.00     0.031 C 
ATOM     47  C   UNL A   1      39.168  28.861  27.540  1.00  0.00     0.029 A 
ATOM     48  C   UNL A   1      40.056  28.681  28.684  1.00  0.00     0.049 A 
ATOM     49  H   UNL A   1      39.967  29.659  30.524  1.00  0.00     0.167 HD
ATOM     50  C   UNL A   1      39.499  31.679  34.392  1.00  0.00     0.034 A 
ATOM     51  C   UNL A   1      41.106  27.835  28.723  1.00  0.00     0.034 A 
ATOM     52  C   UNL A   1      40.637  30.806  34.530  1.00  0.00     0.049 A 
ATOM     53  C   UNL A   1      41.915  27.750  29.989  1.00  0.00     0.074 A 
ATOM     54  C   UNL A   1      41.438  30.616  35.642  1.00  0.00     0.029 A 
ATOM     55  N   UNL A   1      41.128  29.969  33.538  1.00  0.00    -0.354 N 
ATOM     56  N   UNL A   1      41.723  28.371  31.129  1.00  0.00    -0.248 NA
ATOM     57  C   UNL A   1      43.083  26.860  29.979  1.00  0.00     0.031 C 
ATOM     58  C   UNL A   1      42.445  29.711  35.306  1.00  0.00     0.029 A 
ATOM     59  C   UNL A   1      42.235  29.279  34.006  1.00  0.00     0.049 A 
ATOM     60  H   UNL A   1      40.748  29.879  32.635  1.00  0.00     0.167 HD
ATOM     61  C   UNL A   1      42.739  27.939  31.976  1.00  0.00     0.074 A 
ATOM     62  C   UNL A   1      43.522  26.979  31.226  1.00  0.00     0.031 C 
ATOM     63  C   UNL A   1      43.002  28.314  33.253  1.00  0.00     0.034 A 
BRANCH  50  64
ATOM     64  C   UNL A   1      39.111  32.516  35.587  1.00  0.00     0.023 A 
ATOM     65  C   UNL A   1      39.609  33.827  35.721  1.00  0.00     0.031 A 
ATOM     66  C   UNL A   1      38.356  31.982  36.646  1.00  0.00     0.131 A 
ATOM     67  C   UNL A   1      39.373  34.546  36.899  1.00  0.00     0.055 A 
ATOM     68  C   UNL A   1      38.090  32.718  37.802  1.00  0.00     0.041 A 
ATOM     69  F   UNL A   1      37.857  30.738  36.567  1.00  0.00    -0.206 F 
ATOM     70  C   UNL A   1      38.611  34.000  37.938  1.00  0.00     0.022 A 
BRANCH  67  71
ATOM     71  S   UNL A   1      40.096  36.189  37.159  1.00  0.00     0.124 S 
ATOM     72  O   UNL A   1      39.889  36.815  35.855  1.00  0.00    -0.237 OA
ATOM     73  O   UNL A   1      39.271  36.717  38.242  1.00  0.00    -0.237 OA
ATOM     74  O   UNL A   1      41.486  35.911  37.501  1.00  0.00    -0.744 OA
ENDBRANCH  67  71
ENDBRANCH  50  64
BRANCH  51  75
ATOM     75  C   UNL A   1      41.399  26.988  27.529  1.00  0.00     0.023 A 
ATOM     76  C   UNL A   1      41.052  25.624  27.512  1.00  0.00     0.031 A 
ATOM     77  C   UNL A   1      42.146  27.492  26.452  1.00  0.00     0.131 A 
ATOM     78  C   UNL A   1      41.530  24.795  26.489  1.00  0.00     0.055 A 
ATOM     79  C   UNL A   1      42.550  26.678  25.392  1.00  0.00     0.041 A 
ATOM     80  F   UNL A   1      42.511  28.783  26.427  1.00  0.00    -0.206 F 
ATOM     81  C   UNL A   1      42.263  25.317  25.419  1.00  0.00     0.022 A 
BRANCH  78  82
ATOM     82  S   UNL A   1      41.358  22.991  26.602  1.00  0.00     0.124 S 
ATOM     83  O   UNL A   1      41.810  22.728  27.965  1.00  0.00    -0.237 OA
ATOM     84  O   UNL A   1      39.929  22.811  26.364  1.00  0.00    -0.237 OA
ATOM     85  O   UNL A   1      42.229  22.496  25.540  1.00  0.00    -0.744 OA
ENDBRANCH  78  82
ENDBRANCH  51  75
BRANCH  63  86
ATOM     86  C   UNL A   1      44.190  27.699  33.951  1.00  0.00     0.023 A 
ATOM     87  C   UNL A   1      44.015  26.565  34.769  1.00  0.00     0.031 A 
ATOM     88  C   UNL A   1      45.449  28.322  33.935  1.00  0.00     0.131 A 
ATOM     89  C   UNL A   1      45.072  26.116  35.569  1.00  0.00     0.055 A 
ATOM     90  C   UNL A   1      46.513  27.841  34.699  1.00  0.00     0.041 A 
ATOM     91  F   UNL A   1      45.660  29.411  33.179  1.00  0.00    -0.206 F 
ATOM     92  C   UNL A   1      46.322  26.743  35.532  1.00  0.00     0.022 A 
BRANCH  89  93
ATOM     93  S   UNL A   1      44.838  24.763  36.754  1.00  0.00     0.124 S 
ATOM     94  O   UNL A   1      43.642  25.196  37.473  1.00  0.00    -0.237 OA
ATOM     95  O   UNL A   1      44.654  23.611  35.876  1.00  0.00    -0.237 OA
ATOM     96  O   UNL A   1      46.069  24.764  37.538  1.00  0.00    -0.744 OA
ENDBRANCH  89  93
ENDBRANCH  63  86
ENDBRANCH  37  38
ENDBRANCH  29  32
ENDBRANCH  27  28
ENDBRANCH   1  27
TORSDOF 17
ENDMDL
MODEL 3
REMARK VINA RESULT:     -12.4      2.273      7.939
REMARK SMILES CC(C)CCc1cc2c(cc1Cl)C=C(C(=O)NCCCNC(=O)c1ccc(-c3c4nc(c(-c5cc(S(=O)(=O)[O-])ccc5F)c5ccc([nH]5)c(-c5cc(S(=O)(=O)[O-])ccc5F)c5nc(c(-c6cc(S(=O)(=O)[O-])ccc6F)c6ccc3[nH]6)C=C5)C=C4)cc1)[C@@H](C(F)(F)F)O2
REMARK SMILES IDX 19 1 18 2 17 3 15 4 16 5 14 7 6 8 7 9 11 10 8 11 10 12 12 13
REMARK SMILES IDX 9 14 92 15 13 16 87 17 5 18 4 19 2 20 1 21 3 22 88 23 89 24
REMARK SMILES IDX 90 25 91 26 20 27 21 28 22 29 23 31 24 32 25 33 86 34 26 35
REMARK SMILES IDX 85 36 27 37 28 38 29 39 79 40 30 41 84 42 78 43 80 44 31 45
REMARK SMILES IDX 83 46 77 47 76 48 32 50 64 51 44 52 63 53 45 54 48 55 62 56
REMARK SMILES IDX 81 57 46 58 47 59 61 61 82 62 49 63 33 64 34 65 42 66 35 67
REMARK SMILES IDX 41 68 43 69 40 70 36 71 37 72 38 73 39 74 65 75 66 76 74 77
REMARK SMILES IDX 67 78 73 79 75 80 72 81 68 82 69 83 70 84 71 85 50 86 51 87
REMARK SMILES IDX 59 88 52 89 58 90 60 91 57 92 53 93 54 94 55 95 56 96
REMARK H PARENT 17 6 21 30 80 49 48 60
REMARK Flexibility Score: inf
ROOT
ATOM      1  C   UNL A   1      31.760  32.039  26.863  1.00  0.00     0.042 C 
ENDROOT
BRANCH   1   2
ATOM      2  C   UNL A   1      31.932  30.546  26.634  1.00  0.00     0.118 C 
BRANCH   2   3
ATOM      3  N   UNL A   1      31.660  30.176  25.253  1.00  0.00    -0.352 N 
ATOM      4  C   UNL A   1      31.606  29.041  24.521  1.00  0.00     0.251 C 
ATOM      5  O   UNL A   1      31.328  29.201  23.326  1.00  0.00    -0.270 OA
ATOM      6  H   UNL A   1      31.461  30.967  24.702  1.00  0.00     0.163 HD
BRANCH   4   7
ATOM      7  C   UNL A   1      31.836  27.666  25.044  1.00  0.00     0.067 C 
ATOM      8  C   UNL A   1      33.917  23.287  26.467  1.00  0.00    -0.026 A 
ATOM      9  C   UNL A   1      32.694  23.933  26.729  1.00  0.00     0.052 A 
ATOM     10  C   UNL A   1      34.858  23.964  25.667  1.00  0.00     0.045 A 
ATOM     11  C   UNL A   1      32.435  25.205  26.225  1.00  0.00     0.128 A 
ATOM     12  C   UNL A   1      34.615  25.269  25.219  1.00  0.00     0.032 A 
ATOM     13  Cl  UNL A   1      36.337  23.240  25.148  1.00  0.00    -0.084 Cl
ATOM     14  C   UNL A   1      33.400  25.893  25.496  1.00  0.00     0.019 A 
ATOM     15  O   UNL A   1      31.204  25.744  26.486  1.00  0.00    -0.475 OA
ATOM     16  C   UNL A   1      33.115  27.248  25.042  1.00  0.00     0.025 C 
ATOM     17  C   UNL A   1      30.753  26.735  25.517  1.00  0.00     0.314 C 
BRANCH   8  18
ATOM     18  C   UNL A   1      34.104  21.894  27.031  1.00  0.00     0.037 C 
BRANCH  18  19
ATOM     19  C   UNL A   1      33.433  20.725  26.292  1.00  0.00     0.008 C 
BRANCH  19  20
ATOM     20  C   UNL A   1      33.908  20.487  24.846  1.00  0.00    -0.017 C 
ATOM     21  C   UNL A   1      34.195  19.011  24.578  1.00  0.00     0.007 C 
ATOM     22  C   UNL A   1      32.853  21.007  23.866  1.00  0.00     0.007 C 
ENDBRANCH  19  20
ENDBRANCH  18  19
ENDBRANCH   8  18
BRANCH  17  23
ATOM     23  C   UNL A   1      30.033  26.033  24.346  1.00  0.00     0.429 C 
ATOM     24  F   UNL A   1      28.726  26.391  24.305  1.00  0.00    -0.167 F 
ATOM     25  F   UNL A   1      30.560  26.360  23.141  1.00  0.00    -0.167 F 
ATOM     26  F   UNL A   1      30.080  24.684  24.431  1.00  0.00    -0.167 F 
ENDBRANCH  17  23
ENDBRANCH   4   7
ENDBRANCH   2   3
ENDBRANCH   1   2
BRANCH   1  27
ATOM     27  C   UNL A   1      32.986  32.673  27.507  1.00  0.00     0.118 C 
BRANCH  27  28
ATOM     28  N   UNL A   1      32.766  34.078  27.845  1.00  0.00    -0.352 N 
ATOM     29  C   UNL A   1      33.248  34.826  28.894  1.00  0.00     0.251 C 
ATOM     30  H   UNL A   1      32.180  34.567  27.223  1.00  0.00     0.163 HD
ATOM     31  O   UNL A   1      32.754  35.925  29.132  1.00  0.00    -0.269 OA
BRANCH  29  32
ATOM     32  C   UNL A   1      34.335  34.293  29.740  1.00  0.00     0.039 A 
ATOM     33  C   UNL A   1      35.666  34.502  29.381  1.00  0.00     0.014 A 
ATOM     34  C   UNL A   1      34.026  33.568  30.894  1.00  0.00     0.014 A 
ATOM     35  C   UNL A   1      36.670  33.810  30.042  1.00  0.00     0.010 A 
ATOM     36  C   UNL A   1      35.054  32.968  31.631  1.00  0.00     0.010 A 
ATOM     37  C   UNL A   1      36.379  33.035  31.177  1.00  0.00    -0.014 A 
BRANCH  37  38
ATOM     38  C   UNL A   1      37.488  32.318  31.861  1.00  0.00     0.031 A 
ATOM     39  C   UNL A   1      38.230  31.204  31.172  1.00  0.00     0.074 A 
ATOM     40  C   UNL A   1      37.876  32.737  33.082  1.00  0.00     0.049 A 
ATOM     41  N   UNL A   1      39.254  30.512  31.601  1.00  0.00    -0.248 NA
ATOM     42  C   UNL A   1      37.764  30.809  29.833  1.00  0.00     0.031 C 
ATOM     43  C   UNL A   1      37.230  33.813  33.835  1.00  0.00     0.029 A 
ATOM     44  N   UNL A   1      38.917  32.348  33.887  1.00  0.00    -0.354 N 
ATOM     45  C   UNL A   1      39.539  29.588  30.602  1.00  0.00     0.074 A 
ATOM     46  C   UNL A   1      38.561  29.785  29.557  1.00  0.00     0.031 C 
ATOM     47  C   UNL A   1      37.934  34.054  34.949  1.00  0.00     0.029 A 
ATOM     48  C   UNL A   1      39.028  33.093  35.038  1.00  0.00     0.049 A 
ATOM     49  H   UNL A   1      39.526  31.608  33.662  1.00  0.00     0.167 HD
ATOM     50  C   UNL A   1      40.535  28.672  30.559  1.00  0.00     0.034 A 
ATOM     51  C   UNL A   1      39.903  33.010  36.062  1.00  0.00     0.034 A 
ATOM     52  C   UNL A   1      41.517  28.509  31.601  1.00  0.00     0.049 A 
ATOM     53  C   UNL A   1      40.992  31.973  35.995  1.00  0.00     0.074 A 
ATOM     54  C   UNL A   1      42.577  27.620  31.645  1.00  0.00     0.029 A 
ATOM     55  N   UNL A   1      41.573  29.252  32.772  1.00  0.00    -0.354 N 
ATOM     56  N   UNL A   1      41.259  31.123  35.032  1.00  0.00    -0.248 NA
ATOM     57  C   UNL A   1      41.895  31.875  37.149  1.00  0.00     0.031 C 
ATOM     58  C   UNL A   1      43.236  27.785  32.862  1.00  0.00     0.029 A 
ATOM     59  C   UNL A   1      42.635  28.826  33.553  1.00  0.00     0.049 A 
ATOM     60  H   UNL A   1      40.950  29.975  33.012  1.00  0.00     0.167 HD
ATOM     61  C   UNL A   1      42.366  30.397  35.458  1.00  0.00     0.074 A 
ATOM     62  C   UNL A   1      42.738  30.931  36.751  1.00  0.00     0.031 C 
ATOM     63  C   UNL A   1      43.006  29.374  34.837  1.00  0.00     0.034 A 
BRANCH  50  64
ATOM     64  C   UNL A   1      40.638  27.769  29.354  1.00  0.00     0.023 A 
ATOM     65  C   UNL A   1      41.557  28.063  28.329  1.00  0.00     0.031 A 
ATOM     66  C   UNL A   1      39.750  26.696  29.161  1.00  0.00     0.131 A 
ATOM     67  C   UNL A   1      41.547  27.314  27.145  1.00  0.00     0.055 A 
ATOM     68  C   UNL A   1      39.770  25.927  27.995  1.00  0.00     0.041 A 
ATOM     69  F   UNL A   1      38.855  26.372  30.108  1.00  0.00    -0.206 F 
ATOM     70  C   UNL A   1      40.661  26.244  26.976  1.00  0.00     0.022 A 
BRANCH  67  71
ATOM     71  S   UNL A   1      42.633  27.736  25.755  1.00  0.00     0.124 S 
ATOM     72  O   UNL A   1      42.261  29.125  25.497  1.00  0.00    -0.237 OA
ATOM     73  O   UNL A   1      43.959  27.542  26.335  1.00  0.00    -0.237 OA
ATOM     74  O   UNL A   1      42.254  26.787  24.714  1.00  0.00    -0.744 OA
ENDBRANCH  67  71
ENDBRANCH  50  64
BRANCH  51  75
ATOM     75  C   UNL A   1      39.787  33.976  37.195  1.00  0.00     0.023 A 
ATOM     76  C   UNL A   1      39.247  33.573  38.431  1.00  0.00     0.031 A 
ATOM     77  C   UNL A   1      40.081  35.336  37.016  1.00  0.00     0.131 A 
ATOM     78  C   UNL A   1      38.936  34.532  39.403  1.00  0.00     0.055 A 
ATOM     79  C   UNL A   1      39.846  36.279  38.020  1.00  0.00     0.041 A 
ATOM     80  F   UNL A   1      40.586  35.772  35.852  1.00  0.00    -0.206 F 
ATOM     81  C   UNL A   1      39.248  35.881  39.211  1.00  0.00     0.022 A 
BRANCH  78  82
ATOM     82  S   UNL A   1      37.966  34.083  40.870  1.00  0.00     0.124 S 
ATOM     83  O   UNL A   1      36.879  33.301  40.289  1.00  0.00    -0.237 OA
ATOM     84  O   UNL A   1      38.941  33.327  41.653  1.00  0.00    -0.237 OA
ATOM     85  O   UNL A   1      37.585  35.373  41.438  1.00  0.00    -0.744 OA
ENDBRANCH  78  82
ENDBRANCH  51  75
BRANCH  63  86
ATOM     86  C   UNL A   1      44.185  28.738  35.530  1.00  0.00     0.023 A 
ATOM     87  C   UNL A   1      43.980  27.692  36.450  1.00  0.00     0.031 A 
ATOM     88  C   UNL A   1      45.480  29.269  35.402  1.00  0.00     0.131 A 
ATOM     89  C   UNL A   1      45.045  27.238  37.236  1.00  0.00     0.055 A 
ATOM     90  C   UNL A   1      46.549  28.781  36.155  1.00  0.00     0.041 A 
ATOM     91  F   UNL A   1      45.722  30.274  34.546  1.00  0.00    -0.206 F 
ATOM     92  C   UNL A   1      46.330  27.773  37.088  1.00  0.00     0.022 A 
BRANCH  89  93
ATOM     93  S   UNL A   1      44.785  26.009  38.543  1.00  0.00     0.124 S 
ATOM     94  O   UNL A   1      46.157  25.672  38.918  1.00  0.00    -0.237 OA
ATOM     95  O   UNL A   1      44.036  26.770  39.539  1.00  0.00    -0.237 OA
ATOM     96  O   UNL A   1      44.042  24.941  37.881  1.00  0.00    -0.744 OA
ENDBRANCH  89  93
ENDBRANCH  63  86
ENDBRANCH  37  38
ENDBRANCH  29  32
ENDBRANCH  27  28
ENDBRANCH   1  27
TORSDOF 17
ENDMDL
