MODEL 1
REMARK VINA RESULT:     -11.2      0.000      0.000
REMARK SMILES CC[C@H](C)[C@H](C(=O)NCCCNC(=O)c1ccc(-c2c3nc(c(-c4cc(S(=O)(=O)[O-])ccc4F)c4ccc([nH]4)c(-c4cc(S(=O)(=O)[O-])ccc4F)c4nc(c(-c5cc(S(=O)(=O)[O-])ccc5F)c5ccc2[nH]5)C=C4)C=C3)cc1)[NH+]1CC2(CC2)C1
REMARK SMILES IDX 10 1 9 2 8 3 6 4 7 5 5 7 3 8 4 9 2 10 1 11 78 12 79 13 83 14
REMARK SMILES IDX 80 16 81 17 82 18 11 19 12 20 13 21 14 23 15 24 16 25 77 26
REMARK SMILES IDX 17 27 76 28 18 29 19 30 20 31 70 32 21 33 75 34 69 35 71 36
REMARK SMILES IDX 22 37 74 38 68 39 67 40 23 42 55 43 35 44 54 45 36 46 39 47
REMARK SMILES IDX 53 48 72 49 37 50 38 51 52 53 73 54 40 55 24 56 25 57 33 58
REMARK SMILES IDX 26 59 32 60 34 61 31 62 27 63 28 64 29 65 30 66 56 67 57 68
REMARK SMILES IDX 65 69 58 70 64 71 66 72 63 73 59 74 60 75 61 76 62 77 41 78
REMARK SMILES IDX 42 79 50 80 43 81 49 82 51 83 48 84 44 85 45 86 46 87 47 88
REMARK H PARENT 8 6 78 15 12 22 71 41 39 52
REMARK Flexibility Score: inf
ROOT
ATOM      1  C   UNL A   1      37.321  20.204  25.003  1.00  0.00     0.042 C 
ENDROOT
BRANCH   1   2
ATOM      2  C   UNL A   1      36.130  21.143  24.963  1.00  0.00     0.118 C 
BRANCH   2   3
ATOM      3  N   UNL A   1      35.471  21.291  26.232  1.00  0.00    -0.351 N 
ATOM      4  C   UNL A   1      34.191  21.505  26.606  1.00  0.00     0.278 C 
ATOM      5  O   UNL A   1      34.059  21.459  27.844  1.00  0.00    -0.268 OA
ATOM      6  H   UNL A   1      36.089  21.221  26.996  1.00  0.00     0.163 HD
BRANCH   4   7
ATOM      7  C   UNL A   1      32.942  21.874  25.693  1.00  0.00     0.277 C 
BRANCH   7   8
ATOM      8  C   UNL A   1      32.457  21.009  24.483  1.00  0.00     0.054 C 
ATOM      9  C   UNL A   1      32.371  21.766  23.147  1.00  0.00     0.014 C 
BRANCH   8  10
ATOM     10  C   UNL A   1      32.883  19.516  24.412  1.00  0.00     0.006 C 
ATOM     11  C   UNL A   1      32.676  18.584  25.591  1.00  0.00     0.004 C 
ENDBRANCH   8  10
ENDBRANCH   7   8
BRANCH   7  12
ATOM     12  N   UNL A   1      31.825  22.208  26.659  1.00  0.00    -0.323 N 
ATOM     13  C   UNL A   1      31.963  23.634  27.112  1.00  0.00     0.275 C 
ATOM     14  C   UNL A   1      30.521  22.594  26.060  1.00  0.00     0.275 C 
ATOM     15  H   UNL A   1      31.864  21.392  27.269  1.00  0.00     0.348 HD
ATOM     16  C   UNL A   1      30.999  23.982  26.047  1.00  0.00     0.068 C 
ATOM     17  C   UNL A   1      31.265  24.837  24.847  1.00  0.00     0.020 C 
ATOM     18  C   UNL A   1      30.198  25.219  25.844  1.00  0.00     0.020 C 
ENDBRANCH   7  12
ENDBRANCH   4   7
ENDBRANCH   2   3
ENDBRANCH   1   2
BRANCH   1  19
ATOM     19  C   UNL A   1      38.607  20.917  25.376  1.00  0.00     0.118 C 
BRANCH  19  20
ATOM     20  N   UNL A   1      39.509  20.059  26.141  1.00  0.00    -0.352 N 
ATOM     21  C   UNL A   1      40.613  20.382  26.898  1.00  0.00     0.251 C 
ATOM     22  H   UNL A   1      39.293  19.099  26.112  1.00  0.00     0.163 HD
ATOM     23  O   UNL A   1      41.367  19.496  27.275  1.00  0.00    -0.269 OA
BRANCH  21  24
ATOM     24  C   UNL A   1      40.885  21.797  27.227  1.00  0.00     0.039 A 
ATOM     25  C   UNL A   1      41.821  22.108  28.215  1.00  0.00     0.014 A 
ATOM     26  C   UNL A   1      40.217  22.817  26.547  1.00  0.00     0.014 A 
ATOM     27  C   UNL A   1      42.142  23.446  28.462  1.00  0.00     0.010 A 
ATOM     28  C   UNL A   1      40.626  24.131  26.705  1.00  0.00     0.010 A 
ATOM     29  C   UNL A   1      41.579  24.464  27.678  1.00  0.00    -0.014 A 
BRANCH  29  30
ATOM     30  C   UNL A   1      41.906  25.899  27.878  1.00  0.00     0.031 A 
ATOM     31  C   UNL A   1      43.262  26.401  27.457  1.00  0.00     0.074 A 
ATOM     32  C   UNL A   1      41.037  26.713  28.509  1.00  0.00     0.049 A 
ATOM     33  N   UNL A   1      43.836  27.549  27.705  1.00  0.00    -0.248 NA
ATOM     34  C   UNL A   1      44.103  25.462  26.696  1.00  0.00     0.031 C 
ATOM     35  C   UNL A   1      39.705  26.331  28.981  1.00  0.00     0.029 A 
ATOM     36  N   UNL A   1      41.151  28.031  28.875  1.00  0.00    -0.354 N 
ATOM     37  C   UNL A   1      45.107  27.462  27.146  1.00  0.00     0.074 A 
ATOM     38  C   UNL A   1      45.249  26.120  26.626  1.00  0.00     0.031 C 
ATOM     39  C   UNL A   1      39.118  27.397  29.551  1.00  0.00     0.029 A 
ATOM     40  C   UNL A   1      40.050  28.519  29.541  1.00  0.00     0.049 A 
ATOM     41  H   UNL A   1      41.947  28.577  28.679  1.00  0.00     0.167 HD
ATOM     42  C   UNL A   1      46.056  28.424  27.040  1.00  0.00     0.034 A 
ATOM     43  C   UNL A   1      39.830  29.728  30.096  1.00  0.00     0.034 A 
ATOM     44  C   UNL A   1      45.886  29.762  27.544  1.00  0.00     0.049 A 
ATOM     45  C   UNL A   1      40.922  30.770  30.009  1.00  0.00     0.074 A 
ATOM     46  C   UNL A   1      46.767  30.827  27.482  1.00  0.00     0.029 A 
ATOM     47  N   UNL A   1      44.750  30.223  28.198  1.00  0.00    -0.354 N 
ATOM     48  N   UNL A   1      42.113  30.676  29.463  1.00  0.00    -0.248 NA
ATOM     49  C   UNL A   1      40.637  32.082  30.604  1.00  0.00     0.031 C 
ATOM     50  C   UNL A   1      46.188  31.913  28.146  1.00  0.00     0.029 A 
ATOM     51  C   UNL A   1      44.913  31.551  28.554  1.00  0.00     0.049 A 
ATOM     52  H   UNL A   1      43.946  29.684  28.381  1.00  0.00     0.167 HD
ATOM     53  C   UNL A   1      42.695  31.934  29.605  1.00  0.00     0.074 A 
ATOM     54  C   UNL A   1      41.723  32.767  30.281  1.00  0.00     0.031 C 
ATOM     55  C   UNL A   1      43.920  32.366  29.210  1.00  0.00     0.034 A 
BRANCH  42  56
ATOM     56  C   UNL A   1      47.349  28.052  26.357  1.00  0.00     0.023 A 
ATOM     57  C   UNL A   1      47.498  28.160  24.964  1.00  0.00     0.031 A 
ATOM     58  C   UNL A   1      48.437  27.555  27.097  1.00  0.00     0.131 A 
ATOM     59  C   UNL A   1      48.669  27.704  24.344  1.00  0.00     0.055 A 
ATOM     60  C   UNL A   1      49.636  27.186  26.483  1.00  0.00     0.041 A 
ATOM     61  F   UNL A   1      48.349  27.406  28.428  1.00  0.00    -0.206 F 
ATOM     62  C   UNL A   1      49.752  27.243  25.097  1.00  0.00     0.022 A 
BRANCH  59  63
ATOM     63  S   UNL A   1      48.699  27.583  22.535  1.00  0.00     0.124 S 
ATOM     64  O   UNL A   1      47.427  28.211  22.180  1.00  0.00    -0.237 OA
ATOM     65  O   UNL A   1      49.900  28.332  22.187  1.00  0.00    -0.237 OA
ATOM     66  O   UNL A   1      48.765  26.145  22.289  1.00  0.00    -0.744 OA
ENDBRANCH  59  63
ENDBRANCH  42  56
BRANCH  43  67
ATOM     67  C   UNL A   1      38.545  30.034  30.791  1.00  0.00     0.023 A 
ATOM     68  C   UNL A   1      37.551  30.796  30.156  1.00  0.00     0.031 A 
ATOM     69  C   UNL A   1      38.317  29.640  32.121  1.00  0.00     0.131 A 
ATOM     70  C   UNL A   1      36.415  31.205  30.870  1.00  0.00     0.055 A 
ATOM     71  C   UNL A   1      37.152  29.990  32.807  1.00  0.00     0.041 A 
ATOM     72  F   UNL A   1      39.229  28.907  32.780  1.00  0.00    -0.206 F 
ATOM     73  C   UNL A   1      36.201  30.796  32.188  1.00  0.00     0.022 A 
BRANCH  70  74
ATOM     74  S   UNL A   1      35.288  32.396  30.093  1.00  0.00     0.124 S 
ATOM     75  O   UNL A   1      34.315  32.617  31.157  1.00  0.00    -0.237 OA
ATOM     76  O   UNL A   1      36.182  33.509  29.798  1.00  0.00    -0.237 OA
ATOM     77  O   UNL A   1      34.785  31.675  28.926  1.00  0.00    -0.744 OA
ENDBRANCH  70  74
ENDBRANCH  43  67
BRANCH  55  78
ATOM     78  C   UNL A   1      44.240  33.823  29.426  1.00  0.00     0.023 A 
ATOM     79  C   UNL A   1      43.950  34.800  28.459  1.00  0.00     0.031 A 
ATOM     80  C   UNL A   1      44.831  34.237  30.633  1.00  0.00     0.131 A 
ATOM     81  C   UNL A   1      44.298  36.138  28.696  1.00  0.00     0.055 A 
ATOM     82  C   UNL A   1      45.118  35.577  30.889  1.00  0.00     0.041 A 
ATOM     83  F   UNL A   1      45.129  33.343  31.590  1.00  0.00    -0.206 F 
ATOM     84  C   UNL A   1      44.862  36.536  29.913  1.00  0.00     0.022 A 
BRANCH  81  85
ATOM     85  S   UNL A   1      44.072  37.346  27.364  1.00  0.00     0.124 S 
ATOM     86  O   UNL A   1      43.806  38.573  28.108  1.00  0.00    -0.237 OA
ATOM     87  O   UNL A   1      45.353  37.288  26.667  1.00  0.00    -0.237 OA
ATOM     88  O   UNL A   1      42.934  36.819  26.611  1.00  0.00    -0.744 OA
ENDBRANCH  81  85
ENDBRANCH  55  78
ENDBRANCH  29  30
ENDBRANCH  21  24
ENDBRANCH  19  20
ENDBRANCH   1  19
TORSDOF 16
ENDMDL
MODEL 2
REMARK VINA RESULT:     -11.2      1.751      8.152
REMARK SMILES CC[C@H](C)[C@H](C(=O)NCCCNC(=O)c1ccc(-c2c3nc(c(-c4cc(S(=O)(=O)[O-])ccc4F)c4ccc([nH]4)c(-c4cc(S(=O)(=O)[O-])ccc4F)c4nc(c(-c5cc(S(=O)(=O)[O-])ccc5F)c5ccc2[nH]5)C=C4)C=C3)cc1)[NH+]1CC2(CC2)C1
REMARK SMILES IDX 10 1 9 2 8 3 6 4 7 5 5 7 3 8 4 9 2 10 1 11 78 12 79 13 83 14
REMARK SMILES IDX 80 16 81 17 82 18 11 19 12 20 13 21 14 23 15 24 16 25 77 26
REMARK SMILES IDX 17 27 76 28 18 29 19 30 20 31 70 32 21 33 75 34 69 35 71 36
REMARK SMILES IDX 22 37 74 38 68 39 67 40 23 42 55 43 35 44 54 45 36 46 39 47
REMARK SMILES IDX 53 48 72 49 37 50 38 51 52 53 73 54 40 55 24 56 25 57 33 58
REMARK SMILES IDX 26 59 32 60 34 61 31 62 27 63 28 64 29 65 30 66 56 67 57 68
REMARK SMILES IDX 65 69 58 70 64 71 66 72 63 73 59 74 60 75 61 76 62 77 41 78
REMARK SMILES IDX 42 79 50 80 43 81 49 82 51 83 48 84 44 85 45 86 46 87 47 88
REMARK H PARENT 8 6 78 15 12 22 71 41 39 52
REMARK Flexibility Score: inf
ROOT
ATOM      1  C   UNL A   1      35.146  22.692  24.553  1.00  0.00     0.042 C 
ENDROOT
BRANCH   1   2
ATOM      2  C   UNL A   1      35.310  24.133  24.108  1.00  0.00     0.118 C 
BRANCH   2   3
ATOM      3  N   UNL A   1      34.310  24.564  23.170  1.00  0.00    -0.351 N 
ATOM      4  C   UNL A   1      33.185  25.304  23.271  1.00  0.00     0.278 C 
ATOM      5  O   UNL A   1      32.673  25.517  22.156  1.00  0.00    -0.268 OA
ATOM      6  H   UNL A   1      34.484  24.250  22.253  1.00  0.00     0.163 HD
BRANCH   4   7
ATOM      7  C   UNL A   1      32.454  25.817  24.586  1.00  0.00     0.277 C 
BRANCH   7   8
ATOM      8  C   UNL A   1      32.534  27.287  25.117  1.00  0.00     0.054 C 
ATOM      9  C   UNL A   1      31.570  28.269  24.430  1.00  0.00     0.014 C 
BRANCH   8  10
ATOM     10  C   UNL A   1      32.810  27.523  26.628  1.00  0.00     0.006 C 
ATOM     11  C   UNL A   1      31.744  28.104  27.538  1.00  0.00     0.004 C 
ENDBRANCH   8  10
ENDBRANCH   7   8
BRANCH   7  12
ATOM     12  N   UNL A   1      31.030  25.312  24.476  1.00  0.00    -0.323 N 
ATOM     13  C   UNL A   1      31.029  23.810  24.470  1.00  0.00     0.275 C 
ATOM     14  C   UNL A   1      30.249  25.243  25.737  1.00  0.00     0.275 C 
ATOM     15  H   UNL A   1      30.689  25.902  23.716  1.00  0.00     0.348 HD
ATOM     16  C   UNL A   1      30.774  23.885  25.924  1.00  0.00     0.068 C 
ATOM     17  C   UNL A   1      31.680  23.408  27.016  1.00  0.00     0.020 C 
ATOM     18  C   UNL A   1      30.288  22.843  26.868  1.00  0.00     0.020 C 
ENDBRANCH   7  12
ENDBRANCH   4   7
ENDBRANCH   2   3
ENDBRANCH   1   2
BRANCH   1  19
ATOM     19  C   UNL A   1      35.913  22.388  25.826  1.00  0.00     0.118 C 
BRANCH  19  20
ATOM     20  N   UNL A   1      36.835  21.267  25.657  1.00  0.00    -0.352 N 
ATOM     21  C   UNL A   1      38.210  21.231  25.723  1.00  0.00     0.251 C 
ATOM     22  H   UNL A   1      36.407  20.402  25.468  1.00  0.00     0.163 HD
ATOM     23  O   UNL A   1      38.808  20.239  25.329  1.00  0.00    -0.269 OA
BRANCH  21  24
ATOM     24  C   UNL A   1      38.948  22.399  26.250  1.00  0.00     0.039 A 
ATOM     25  C   UNL A   1      40.052  22.200  27.081  1.00  0.00     0.014 A 
ATOM     26  C   UNL A   1      38.549  23.692  25.910  1.00  0.00     0.014 A 
ATOM     27  C   UNL A   1      40.802  23.301  27.504  1.00  0.00     0.010 A 
ATOM     28  C   UNL A   1      39.362  24.769  26.226  1.00  0.00     0.010 A 
ATOM     29  C   UNL A   1      40.488  24.589  27.044  1.00  0.00    -0.014 A 
BRANCH  29  30
ATOM     30  C   UNL A   1      41.267  25.790  27.439  1.00  0.00     0.031 A 
ATOM     31  C   UNL A   1      40.599  26.844  28.282  1.00  0.00     0.074 A 
ATOM     32  C   UNL A   1      42.518  25.973  26.974  1.00  0.00     0.049 A 
ATOM     33  N   UNL A   1      41.009  28.049  28.584  1.00  0.00    -0.248 NA
ATOM     34  C   UNL A   1      39.268  26.512  28.816  1.00  0.00     0.031 C 
ATOM     35  C   UNL A   1      43.257  25.030  26.131  1.00  0.00     0.029 A 
ATOM     36  N   UNL A   1      43.386  27.023  27.133  1.00  0.00    -0.354 N 
ATOM     37  C   UNL A   1      39.980  28.620  29.326  1.00  0.00     0.074 A 
ATOM     38  C   UNL A   1      38.896  27.664  29.352  1.00  0.00     0.031 C 
ATOM     39  C   UNL A   1      44.474  25.535  25.869  1.00  0.00     0.029 A 
ATOM     40  C   UNL A   1      44.582  26.860  26.471  1.00  0.00     0.049 A 
ATOM     41  H   UNL A   1      43.174  27.821  27.670  1.00  0.00     0.167 HD
ATOM     42  C   UNL A   1      39.955  29.817  29.961  1.00  0.00     0.034 A 
ATOM     43  C   UNL A   1      45.634  27.695  26.349  1.00  0.00     0.034 A 
ATOM     44  C   UNL A   1      41.055  30.746  29.942  1.00  0.00     0.049 A 
ATOM     45  C   UNL A   1      45.564  29.046  27.025  1.00  0.00     0.074 A 
ATOM     46  C   UNL A   1      41.155  31.980  30.561  1.00  0.00     0.029 A 
ATOM     47  N   UNL A   1      42.256  30.537  29.275  1.00  0.00    -0.354 N 
ATOM     48  N   UNL A   1      44.590  29.564  27.736  1.00  0.00    -0.248 NA
ATOM     49  C   UNL A   1      46.738  29.917  26.891  1.00  0.00     0.031 C 
ATOM     50  C   UNL A   1      42.390  32.540  30.221  1.00  0.00     0.029 A 
ATOM     51  C   UNL A   1      43.095  31.624  29.456  1.00  0.00     0.049 A 
ATOM     52  H   UNL A   1      42.478  29.734  28.750  1.00  0.00     0.167 HD
ATOM     53  C   UNL A   1      45.057  30.801  28.175  1.00  0.00     0.074 A 
ATOM     54  C   UNL A   1      46.400  30.946  27.654  1.00  0.00     0.031 C 
ATOM     55  C   UNL A   1      44.438  31.734  28.942  1.00  0.00     0.034 A 
BRANCH  42  56
ATOM     56  C   UNL A   1      38.700  30.175  30.719  1.00  0.00     0.023 A 
ATOM     57  C   UNL A   1      37.643  30.865  30.101  1.00  0.00     0.031 A 
ATOM     58  C   UNL A   1      38.566  29.853  32.081  1.00  0.00     0.131 A 
ATOM     59  C   UNL A   1      36.539  31.282  30.856  1.00  0.00     0.055 A 
ATOM     60  C   UNL A   1      37.423  30.193  32.808  1.00  0.00     0.041 A 
ATOM     61  F   UNL A   1      39.550  29.215  32.734  1.00  0.00    -0.206 F 
ATOM     62  C   UNL A   1      36.407  30.926  32.200  1.00  0.00     0.022 A 
BRANCH  59  63
ATOM     63  S   UNL A   1      35.352  32.421  30.093  1.00  0.00     0.124 S 
ATOM     64  O   UNL A   1      36.210  33.555  29.756  1.00  0.00    -0.237 OA
ATOM     65  O   UNL A   1      34.846  31.645  28.968  1.00  0.00    -0.237 OA
ATOM     66  O   UNL A   1      34.388  32.676  31.161  1.00  0.00    -0.744 OA
ENDBRANCH  59  63
ENDBRANCH  42  56
BRANCH  43  67
ATOM     67  C   UNL A   1      46.839  27.305  25.558  1.00  0.00     0.023 A 
ATOM     68  C   UNL A   1      47.046  27.820  24.268  1.00  0.00     0.031 A 
ATOM     69  C   UNL A   1      47.759  26.358  26.041  1.00  0.00     0.131 A 
ATOM     70  C   UNL A   1      48.098  27.332  23.478  1.00  0.00     0.055 A 
ATOM     71  C   UNL A   1      48.845  25.927  25.277  1.00  0.00     0.041 A 
ATOM     72  F   UNL A   1      47.614  25.833  27.269  1.00  0.00    -0.206 F 
ATOM     73  C   UNL A   1      49.008  26.399  23.978  1.00  0.00     0.022 A 
BRANCH  70  74
ATOM     74  S   UNL A   1      48.175  27.834  21.736  1.00  0.00     0.124 S 
ATOM     75  O   UNL A   1      46.871  28.462  21.553  1.00  0.00    -0.237 OA
ATOM     76  O   UNL A   1      49.327  28.730  21.732  1.00  0.00    -0.237 OA
ATOM     77  O   UNL A   1      48.367  26.572  21.027  1.00  0.00    -0.744 OA
ENDBRANCH  70  74
ENDBRANCH  43  67
BRANCH  55  78
ATOM     78  C   UNL A   1      45.239  32.950  29.330  1.00  0.00     0.023 A 
ATOM     79  C   UNL A   1      45.243  34.119  28.551  1.00  0.00     0.031 A 
ATOM     80  C   UNL A   1      45.999  32.938  30.514  1.00  0.00     0.131 A 
ATOM     81  C   UNL A   1      46.032  35.212  28.941  1.00  0.00     0.055 A 
ATOM     82  C   UNL A   1      46.732  34.049  30.928  1.00  0.00     0.041 A 
ATOM     83  F   UNL A   1      46.030  31.845  31.295  1.00  0.00    -0.206 F 
ATOM     84  C   UNL A   1      46.761  35.192  30.134  1.00  0.00     0.022 A 
BRANCH  81  85
ATOM     85  S   UNL A   1      46.154  36.638  27.828  1.00  0.00     0.124 S 
ATOM     86  O   UNL A   1      44.836  37.249  27.973  1.00  0.00    -0.237 OA
ATOM     87  O   UNL A   1      47.270  37.386  28.398  1.00  0.00    -0.237 OA
ATOM     88  O   UNL A   1      46.417  36.034  26.522  1.00  0.00    -0.744 OA
ENDBRANCH  81  85
ENDBRANCH  55  78
ENDBRANCH  29  30
ENDBRANCH  21  24
ENDBRANCH  19  20
ENDBRANCH   1  19
TORSDOF 16
ENDMDL
MODEL 3
REMARK VINA RESULT:     -11.1      2.061      8.175
REMARK SMILES CC[C@H](C)[C@H](C(=O)NCCCNC(=O)c1ccc(-c2c3nc(c(-c4cc(S(=O)(=O)[O-])ccc4F)c4ccc([nH]4)c(-c4cc(S(=O)(=O)[O-])ccc4F)c4nc(c(-c5cc(S(=O)(=O)[O-])ccc5F)c5ccc2[nH]5)C=C4)C=C3)cc1)[NH+]1CC2(CC2)C1
REMARK SMILES IDX 10 1 9 2 8 3 6 4 7 5 5 7 3 8 4 9 2 10 1 11 78 12 79 13 83 14
REMARK SMILES IDX 80 16 81 17 82 18 11 19 12 20 13 21 14 23 15 24 16 25 77 26
REMARK SMILES IDX 17 27 76 28 18 29 19 30 20 31 70 32 21 33 75 34 69 35 71 36
REMARK SMILES IDX 22 37 74 38 68 39 67 40 23 42 55 43 35 44 54 45 36 46 39 47
REMARK SMILES IDX 53 48 72 49 37 50 38 51 52 53 73 54 40 55 24 56 25 57 33 58
REMARK SMILES IDX 26 59 32 60 34 61 31 62 27 63 28 64 29 65 30 66 56 67 57 68
REMARK SMILES IDX 65 69 58 70 64 71 66 72 63 73 59 74 60 75 61 76 62 77 41 78
REMARK SMILES IDX 42 79 50 80 43 81 49 82 51 83 48 84 44 85 45 86 46 87 47 88
REMARK H PARENT 8 6 78 15 12 22 71 41 39 52
REMARK Flexibility Score: inf
ROOT
ATOM      1  C   UNL A   1      35.247  23.151  24.893  1.00  0.00     0.042 C 
ENDROOT
BRANCH   1   2
ATOM      2  C   UNL A   1      34.382  24.355  25.210  1.00  0.00     0.118 C 
BRANCH   2   3
ATOM      3  N   UNL A   1      34.030  25.132  24.053  1.00  0.00    -0.351 N 
ATOM      4  C   UNL A   1      33.182  26.160  23.834  1.00  0.00     0.278 C 
ATOM      5  O   UNL A   1      33.281  26.600  22.673  1.00  0.00    -0.268 OA
ATOM      6  H   UNL A   1      34.515  24.853  23.242  1.00  0.00     0.163 HD
BRANCH   4   7
ATOM      7  C   UNL A   1      32.084  26.762  24.815  1.00  0.00     0.277 C 
BRANCH   7   8
ATOM      8  C   UNL A   1      30.706  26.083  25.110  1.00  0.00     0.054 C 
ATOM      9  C   UNL A   1      29.632  26.320  24.035  1.00  0.00     0.014 C 
BRANCH   8  10
ATOM     10  C   UNL A   1      30.690  24.699  25.817  1.00  0.00     0.006 C 
ATOM     11  C   UNL A   1      30.945  23.420  25.042  1.00  0.00     0.004 C 
ENDBRANCH   8  10
ENDBRANCH   7   8
BRANCH   7  12
ATOM     12  N   UNL A   1      32.835  27.133  26.077  1.00  0.00    -0.323 N 
ATOM     13  C   UNL A   1      33.659  28.363  25.827  1.00  0.00     0.275 C 
ATOM     14  C   UNL A   1      32.086  27.920  27.090  1.00  0.00     0.275 C 
ATOM     15  H   UNL A   1      33.208  26.219  26.339  1.00  0.00     0.348 HD
ATOM     16  C   UNL A   1      32.537  29.134  26.400  1.00  0.00     0.068 C 
ATOM     17  C   UNL A   1      31.685  30.137  25.685  1.00  0.00     0.020 C 
ATOM     18  C   UNL A   1      32.490  30.535  26.899  1.00  0.00     0.020 C 
ENDBRANCH   7  12
ENDBRANCH   4   7
ENDBRANCH   2   3
ENDBRANCH   1   2
BRANCH   1  19
ATOM     19  C   UNL A   1      35.849  22.528  26.138  1.00  0.00     0.118 C 
BRANCH  19  20
ATOM     20  N   UNL A   1      36.769  21.439  25.818  1.00  0.00    -0.352 N 
ATOM     21  C   UNL A   1      38.144  21.428  25.751  1.00  0.00     0.251 C 
ATOM     22  H   UNL A   1      36.338  20.576  25.620  1.00  0.00     0.163 HD
ATOM     23  O   UNL A   1      38.717  20.474  25.245  1.00  0.00    -0.269 OA
BRANCH  21  24
ATOM     24  C   UNL A   1      38.910  22.581  26.272  1.00  0.00     0.039 A 
ATOM     25  C   UNL A   1      40.016  22.359  27.095  1.00  0.00     0.014 A 
ATOM     26  C   UNL A   1      38.536  23.882  25.936  1.00  0.00     0.014 A 
ATOM     27  C   UNL A   1      40.792  23.443  27.513  1.00  0.00     0.010 A 
ATOM     28  C   UNL A   1      39.373  24.941  26.247  1.00  0.00     0.010 A 
ATOM     29  C   UNL A   1      40.502  24.738  27.055  1.00  0.00    -0.014 A 
BRANCH  29  30
ATOM     30  C   UNL A   1      41.308  25.922  27.445  1.00  0.00     0.031 A 
ATOM     31  C   UNL A   1      40.675  26.980  28.310  1.00  0.00     0.074 A 
ATOM     32  C   UNL A   1      42.553  26.088  26.957  1.00  0.00     0.049 A 
ATOM     33  N   UNL A   1      41.111  28.175  28.614  1.00  0.00    -0.248 NA
ATOM     34  C   UNL A   1      39.349  26.666  28.868  1.00  0.00     0.031 C 
ATOM     35  C   UNL A   1      43.259  25.141  26.092  1.00  0.00     0.029 A 
ATOM     36  N   UNL A   1      43.442  27.123  27.107  1.00  0.00    -0.354 N 
ATOM     37  C   UNL A   1      40.106  28.756  29.381  1.00  0.00     0.074 A 
ATOM     38  C   UNL A   1      39.007  27.818  29.420  1.00  0.00     0.031 C 
ATOM     39  C   UNL A   1      44.479  25.628  25.810  1.00  0.00     0.029 A 
ATOM     40  C   UNL A   1      44.621  26.945  26.420  1.00  0.00     0.049 A 
ATOM     41  H   UNL A   1      43.253  27.919  27.655  1.00  0.00     0.167 HD
ATOM     42  C   UNL A   1      40.114  29.948  30.026  1.00  0.00     0.034 A 
ATOM     43  C   UNL A   1      45.684  27.763  26.285  1.00  0.00     0.034 A 
ATOM     44  C   UNL A   1      41.229  30.859  29.994  1.00  0.00     0.049 A 
ATOM     45  C   UNL A   1      45.651  29.109  26.974  1.00  0.00     0.074 A 
ATOM     46  C   UNL A   1      41.362  32.086  30.620  1.00  0.00     0.029 A 
ATOM     47  N   UNL A   1      42.413  30.635  29.301  1.00  0.00    -0.354 N 
ATOM     48  N   UNL A   1      44.699  29.638  27.709  1.00  0.00    -0.248 NA
ATOM     49  C   UNL A   1      46.837  29.962  26.824  1.00  0.00     0.031 C 
ATOM     50  C   UNL A   1      42.599  32.628  30.261  1.00  0.00     0.029 A 
ATOM     51  C   UNL A   1      43.273  31.707  29.475  1.00  0.00     0.049 A 
ATOM     52  H   UNL A   1      42.611  29.834  28.765  1.00  0.00     0.167 HD
ATOM     53  C   UNL A   1      45.196  30.863  28.148  1.00  0.00     0.074 A 
ATOM     54  C   UNL A   1      46.531  30.989  27.602  1.00  0.00     0.031 C 
ATOM     55  C   UNL A   1      44.608  31.799  28.936  1.00  0.00     0.034 A 
BRANCH  42  56
ATOM     56  C   UNL A   1      38.881  30.320  30.812  1.00  0.00     0.023 A 
ATOM     57  C   UNL A   1      37.840  31.066  30.231  1.00  0.00     0.031 A 
ATOM     58  C   UNL A   1      38.752  29.957  32.164  1.00  0.00     0.131 A 
ATOM     59  C   UNL A   1      36.759  31.492  31.014  1.00  0.00     0.055 A 
ATOM     60  C   UNL A   1      37.629  30.308  32.916  1.00  0.00     0.041 A 
ATOM     61  F   UNL A   1      39.722  29.265  32.783  1.00  0.00    -0.206 F 
ATOM     62  C   UNL A   1      36.631  31.094  32.347  1.00  0.00     0.022 A 
BRANCH  59  63
ATOM     63  S   UNL A   1      35.601  32.694  30.306  1.00  0.00     0.124 S 
ATOM     64  O   UNL A   1      34.403  32.454  31.108  1.00  0.00    -0.237 OA
ATOM     65  O   UNL A   1      36.281  33.963  30.536  1.00  0.00    -0.237 OA
ATOM     66  O   UNL A   1      35.497  32.285  28.907  1.00  0.00    -0.744 OA
ENDBRANCH  59  63
ENDBRANCH  42  56
BRANCH  43  67
ATOM     67  C   UNL A   1      46.867  27.361  25.468  1.00  0.00     0.023 A 
ATOM     68  C   UNL A   1      47.044  27.863  24.168  1.00  0.00     0.031 A 
ATOM     69  C   UNL A   1      47.794  26.413  25.936  1.00  0.00     0.131 A 
ATOM     70  C   UNL A   1      48.073  27.362  23.356  1.00  0.00     0.055 A 
ATOM     71  C   UNL A   1      48.859  25.969  25.148  1.00  0.00     0.041 A 
ATOM     72  F   UNL A   1      47.678  25.899  27.171  1.00  0.00    -0.206 F 
ATOM     73  C   UNL A   1      48.991  26.429  23.841  1.00  0.00     0.022 A 
BRANCH  70  74
ATOM     74  S   UNL A   1      48.108  27.849  21.608  1.00  0.00     0.124 S 
ATOM     75  O   UNL A   1      48.276  26.560  20.947  1.00  0.00    -0.237 OA
ATOM     76  O   UNL A   1      46.808  28.490  21.448  1.00  0.00    -0.237 OA
ATOM     77  O   UNL A   1      49.259  28.747  21.530  1.00  0.00    -0.744 OA
ENDBRANCH  70  74
ENDBRANCH  43  67
BRANCH  55  78
ATOM     78  C   UNL A   1      45.437  32.998  29.318  1.00  0.00     0.023 A 
ATOM     79  C   UNL A   1      45.431  34.181  28.559  1.00  0.00     0.031 A 
ATOM     80  C   UNL A   1      46.235  32.956  30.476  1.00  0.00     0.131 A 
ATOM     81  C   UNL A   1      46.246  35.257  28.941  1.00  0.00     0.055 A 
ATOM     82  C   UNL A   1      46.995  34.051  30.884  1.00  0.00     0.041 A 
ATOM     83  F   UNL A   1      46.277  31.849  31.236  1.00  0.00    -0.206 F 
ATOM     84  C   UNL A   1      47.013  35.207  30.109  1.00  0.00     0.022 A 
BRANCH  81  85
ATOM     85  S   UNL A   1      46.350  36.700  27.850  1.00  0.00     0.124 S 
ATOM     86  O   UNL A   1      45.110  37.405  28.161  1.00  0.00    -0.237 OA
ATOM     87  O   UNL A   1      47.580  37.345  28.298  1.00  0.00    -0.237 OA
ATOM     88  O   UNL A   1      46.411  36.115  26.511  1.00  0.00    -0.744 OA
ENDBRANCH  81  85
ENDBRANCH  55  78
ENDBRANCH  29  30
ENDBRANCH  21  24
ENDBRANCH  19  20
ENDBRANCH   1  19
TORSDOF 16
ENDMDL
