MODEL 1
REMARK VINA RESULT:     -13.0      0.000      0.000
REMARK SMILES C[C@H]1N=N[C@H](S/C(=C/c2ccc(-c3cccc(Cl)c3)o2)C(=O)NCCCNC(=O)c2ccc(-c3c4nc(c(-c5cc(S(=O)(=O)[O-])ccc5F)c5ccc([nH]5)c(-c5cc(S(=O)(=O)[O-])ccc5F)c5nc(c(-c6cc(S(=O)(=O)[O-])ccc6F)c6ccc3[nH]6)C=C5)C=C4)cc2)[NH2+]1
REMARK SMILES IDX 25 1 24 2 23 3 21 4 22 5 7 7 8 8 6 9 5 10 1 11 2 12 3 13
REMARK SMILES IDX 93 14 4 15 9 18 10 19 20 20 11 21 12 22 13 23 14 24 19 25
REMARK SMILES IDX 15 26 17 27 16 28 18 29 26 30 27 31 28 32 29 34 30 35 31 36
REMARK SMILES IDX 92 37 32 38 91 39 33 40 34 41 35 42 85 43 36 44 90 45 84 46
REMARK SMILES IDX 86 47 37 48 89 49 83 50 82 51 38 53 70 54 50 55 69 56 51 57
REMARK SMILES IDX 54 58 68 59 87 60 52 61 53 62 67 64 88 65 55 66 39 67 40 68
REMARK SMILES IDX 48 69 41 70 47 71 49 72 46 73 42 74 43 75 44 76 45 77 71 78
REMARK SMILES IDX 72 79 80 80 73 81 79 82 81 83 78 84 74 85 75 86 76 87 77 88
REMARK SMILES IDX 56 89 57 90 65 91 58 92 64 93 66 94 63 95 59 96 60 97 61 98
REMARK SMILES IDX 62 99
REMARK H PARENT 23 6 93 16 93 17 27 33 86 52 54 63
REMARK Flexibility Score: inf
ROOT
ATOM      1  C   UNL A   1      31.477  29.503  27.030  1.00  0.00     0.042 C 
ENDROOT
BRANCH   1   2
ATOM      2  C   UNL A   1      32.320  28.280  27.320  1.00  0.00     0.118 C 
BRANCH   2   3
ATOM      3  N   UNL A   1      31.658  27.004  27.339  1.00  0.00    -0.352 N 
ATOM      4  C   UNL A   1      31.906  25.927  26.535  1.00  0.00     0.258 C 
ATOM      5  O   UNL A   1      31.415  24.846  26.881  1.00  0.00    -0.269 OA
ATOM      6  H   UNL A   1      30.944  26.893  28.008  1.00  0.00     0.163 HD
BRANCH   4   7
ATOM      7  C   UNL A   1      32.662  26.024  25.216  1.00  0.00     0.084 C 
ATOM      8  C   UNL A   1      32.277  26.672  24.099  1.00  0.00     0.068 C 
BRANCH   7   9
ATOM      9  S   UNL A   1      34.219  25.204  25.381  1.00  0.00    -0.030 SA
BRANCH   9  10
ATOM     10  C   UNL A   1      34.248  23.652  24.432  1.00  0.00     0.393 C 
ATOM     11  C   UNL A   1      37.007  21.410  24.254  1.00  0.00     0.106 C 
ATOM     12  C   UNL A   1      36.281  22.740  24.362  1.00  0.00     0.324 C 
ATOM     13  N   UNL A   1      35.962  23.270  23.028  1.00  0.00    -0.126 NA
ATOM     14  N   UNL A   1      35.010  22.575  25.056  1.00  0.00    -0.293 N 
ATOM     15  N   UNL A   1      34.813  23.789  23.063  1.00  0.00    -0.115 NA
ATOM     16  H   UNL A   1      35.106  22.710  26.061  1.00  0.00     0.350 HD
ATOM     17  H   UNL A   1      34.592  21.648  24.976  1.00  0.00     0.350 HD
ENDBRANCH   9  10
ENDBRANCH   7   9
BRANCH   8  18
ATOM     18  C   UNL A   1      30.989  27.185  23.800  1.00  0.00     0.128 A 
ATOM     19  C   UNL A   1      29.761  26.567  23.620  1.00  0.00     0.051 A 
ATOM     20  O   UNL A   1      30.788  28.546  23.651  1.00  0.00    -0.457 OA
ATOM     21  C   UNL A   1      28.815  27.576  23.286  1.00  0.00     0.051 A 
ATOM     22  C   UNL A   1      29.498  28.775  23.274  1.00  0.00     0.134 A 
BRANCH  22  23
ATOM     23  C   UNL A   1      29.155  30.148  22.900  1.00  0.00     0.019 A 
ATOM     24  C   UNL A   1      29.251  31.185  23.841  1.00  0.00     0.012 A 
ATOM     25  C   UNL A   1      28.667  30.462  21.620  1.00  0.00     0.032 A 
ATOM     26  C   UNL A   1      28.883  32.495  23.516  1.00  0.00     0.002 A 
ATOM     27  C   UNL A   1      28.284  31.769  21.304  1.00  0.00     0.041 A 
ATOM     28  C   UNL A   1      28.395  32.789  22.245  1.00  0.00     0.020 A 
ATOM     29  Cl  UNL A   1      27.656  32.121  19.741  1.00  0.00    -0.084 Cl
ENDBRANCH  22  23
ENDBRANCH   8  18
ENDBRANCH   4   7
ENDBRANCH   2   3
ENDBRANCH   1   2
BRANCH   1  30
ATOM     30  C   UNL A   1      32.158  30.566  26.177  1.00  0.00     0.118 C 
BRANCH  30  31
ATOM     31  N   UNL A   1      32.085  31.932  26.700  1.00  0.00    -0.352 N 
ATOM     32  C   UNL A   1      32.909  32.703  27.496  1.00  0.00     0.251 C 
ATOM     33  H   UNL A   1      31.267  32.404  26.423  1.00  0.00     0.163 HD
ATOM     34  O   UNL A   1      32.514  33.814  27.829  1.00  0.00    -0.269 OA
BRANCH  32  35
ATOM     35  C   UNL A   1      34.219  32.209  27.994  1.00  0.00     0.039 A 
ATOM     36  C   UNL A   1      35.300  33.098  28.071  1.00  0.00     0.014 A 
ATOM     37  C   UNL A   1      34.416  30.889  28.378  1.00  0.00     0.014 A 
ATOM     38  C   UNL A   1      36.512  32.688  28.644  1.00  0.00     0.010 A 
ATOM     39  C   UNL A   1      35.555  30.528  29.089  1.00  0.00     0.010 A 
ATOM     40  C   UNL A   1      36.626  31.419  29.231  1.00  0.00    -0.014 A 
BRANCH  40  41
ATOM     41  C   UNL A   1      37.836  30.980  29.986  1.00  0.00     0.031 A 
ATOM     42  C   UNL A   1      38.796  29.993  29.365  1.00  0.00     0.074 A 
ATOM     43  C   UNL A   1      38.005  31.365  31.270  1.00  0.00     0.049 A 
ATOM     44  N   UNL A   1      39.794  29.346  29.914  1.00  0.00    -0.248 NA
ATOM     45  C   UNL A   1      38.572  29.645  27.951  1.00  0.00     0.031 C 
ATOM     46  C   UNL A   1      37.115  32.262  32.009  1.00  0.00     0.029 A 
ATOM     47  N   UNL A   1      38.968  31.031  32.193  1.00  0.00    -0.354 N 
ATOM     48  C   UNL A   1      40.279  28.488  28.931  1.00  0.00     0.074 A 
ATOM     49  C   UNL A   1      39.428  28.651  27.774  1.00  0.00     0.031 C 
ATOM     50  C   UNL A   1      37.581  32.424  33.257  1.00  0.00     0.029 A 
ATOM     51  C   UNL A   1      38.768  31.596  33.434  1.00  0.00     0.049 A 
ATOM     52  H   UNL A   1      39.730  30.443  31.986  1.00  0.00     0.167 HD
ATOM     53  C   UNL A   1      41.352  27.660  28.980  1.00  0.00     0.034 A 
ATOM     54  C   UNL A   1      39.445  31.445  34.590  1.00  0.00     0.034 A 
ATOM     55  C   UNL A   1      42.227  27.557  30.121  1.00  0.00     0.049 A 
ATOM     56  C   UNL A   1      40.645  30.532  34.612  1.00  0.00     0.074 A 
ATOM     57  C   UNL A   1      43.406  26.842  30.237  1.00  0.00     0.029 A 
ATOM     58  N   UNL A   1      42.017  28.182  31.343  1.00  0.00    -0.354 N 
ATOM     59  N   UNL A   1      41.139  29.793  33.643  1.00  0.00    -0.248 NA
ATOM     60  C   UNL A   1      41.388  30.440  35.875  1.00  0.00     0.031 C 
ATOM     61  C   UNL A   1      43.871  26.976  31.549  1.00  0.00     0.029 A 
ATOM     62  C   UNL A   1      43.028  27.841  32.228  1.00  0.00     0.049 A 
ATOM     63  H   UNL A   1      41.263  28.779  31.550  1.00  0.00     0.167 HD
ATOM     64  C   UNL A   1      42.274  29.186  34.172  1.00  0.00     0.074 A 
ATOM     65  C   UNL A   1      42.399  29.655  35.536  1.00  0.00     0.031 C 
ATOM     66  C   UNL A   1      43.141  28.323  33.584  1.00  0.00     0.034 A 
BRANCH  53  67
ATOM     67  C   UNL A   1      41.636  26.798  27.773  1.00  0.00     0.023 A 
ATOM     68  C   UNL A   1      41.309  25.431  27.739  1.00  0.00     0.031 A 
ATOM     69  C   UNL A   1      42.241  27.357  26.631  1.00  0.00     0.131 A 
ATOM     70  C   UNL A   1      41.649  24.656  26.620  1.00  0.00     0.055 A 
ATOM     71  C   UNL A   1      42.502  26.597  25.489  1.00  0.00     0.041 A 
ATOM     72  F   UNL A   1      42.595  28.651  26.610  1.00  0.00    -0.206 F 
ATOM     73  C   UNL A   1      42.217  25.235  25.483  1.00  0.00     0.022 A 
BRANCH  70  74
ATOM     74  S   UNL A   1      41.451  22.856  26.720  1.00  0.00     0.124 S 
ATOM     75  O   UNL A   1      40.011  22.730  26.934  1.00  0.00    -0.237 OA
ATOM     76  O   UNL A   1      41.944  22.411  25.421  1.00  0.00    -0.237 OA
ATOM     77  O   UNL A   1      42.279  22.482  27.863  1.00  0.00    -0.744 OA
ENDBRANCH  70  74
ENDBRANCH  53  67
BRANCH  54  78
ATOM     78  C   UNL A   1      39.009  32.153  35.832  1.00  0.00     0.023 A 
ATOM     79  C   UNL A   1      38.335  31.467  36.855  1.00  0.00     0.031 A 
ATOM     80  C   UNL A   1      39.197  33.539  35.986  1.00  0.00     0.131 A 
ATOM     81  C   UNL A   1      37.815  32.174  37.951  1.00  0.00     0.055 A 
ATOM     82  C   UNL A   1      38.735  34.227  37.110  1.00  0.00     0.041 A 
ATOM     83  F   UNL A   1      39.835  34.247  35.040  1.00  0.00    -0.206 F 
ATOM     84  C   UNL A   1      38.021  33.547  38.092  1.00  0.00     0.022 A 
BRANCH  81  85
ATOM     85  S   UNL A   1      36.757  31.289  39.130  1.00  0.00     0.124 S 
ATOM     86  O   UNL A   1      35.553  32.111  39.124  1.00  0.00    -0.237 OA
ATOM     87  O   UNL A   1      36.640  29.976  38.502  1.00  0.00    -0.237 OA
ATOM     88  O   UNL A   1      37.529  31.319  40.369  1.00  0.00    -0.744 OA
ENDBRANCH  81  85
ENDBRANCH  54  78
BRANCH  66  89
ATOM     89  C   UNL A   1      44.335  27.888  34.396  1.00  0.00     0.023 A 
ATOM     90  C   UNL A   1      44.313  26.725  35.186  1.00  0.00     0.031 A 
ATOM     91  C   UNL A   1      45.512  28.658  34.383  1.00  0.00     0.131 A 
ATOM     92  C   UNL A   1      45.424  26.399  35.977  1.00  0.00     0.055 A 
ATOM     93  C   UNL A   1      46.637  28.292  35.120  1.00  0.00     0.041 A 
ATOM     94  F   UNL A   1      45.587  29.779  33.649  1.00  0.00    -0.206 F 
ATOM     95  C   UNL A   1      46.593  27.164  35.934  1.00  0.00     0.022 A 
BRANCH  92  96
ATOM     96  S   UNL A   1      45.287  25.016  37.142  1.00  0.00     0.124 S 
ATOM     97  O   UNL A   1      43.932  25.186  37.656  1.00  0.00    -0.237 OA
ATOM     98  O   UNL A   1      45.499  23.859  36.278  1.00  0.00    -0.237 OA
ATOM     99  O   UNL A   1      46.354  25.272  38.106  1.00  0.00    -0.744 OA
ENDBRANCH  92  96
ENDBRANCH  66  89
ENDBRANCH  40  41
ENDBRANCH  32  35
ENDBRANCH  30  31
ENDBRANCH   1  30
TORSDOF 17
ENDMDL
MODEL 2
REMARK VINA RESULT:     -12.8      2.372      4.643
REMARK SMILES C[C@H]1N=N[C@H](S/C(=C/c2ccc(-c3cccc(Cl)c3)o2)C(=O)NCCCNC(=O)c2ccc(-c3c4nc(c(-c5cc(S(=O)(=O)[O-])ccc5F)c5ccc([nH]5)c(-c5cc(S(=O)(=O)[O-])ccc5F)c5nc(c(-c6cc(S(=O)(=O)[O-])ccc6F)c6ccc3[nH]6)C=C5)C=C4)cc2)[NH2+]1
REMARK SMILES IDX 25 1 24 2 23 3 21 4 22 5 7 7 8 8 6 9 5 10 1 11 2 12 3 13
REMARK SMILES IDX 93 14 4 15 9 18 10 19 20 20 11 21 12 22 13 23 14 24 19 25
REMARK SMILES IDX 15 26 17 27 16 28 18 29 26 30 27 31 28 32 29 34 30 35 31 36
REMARK SMILES IDX 92 37 32 38 91 39 33 40 34 41 35 42 85 43 36 44 90 45 84 46
REMARK SMILES IDX 86 47 37 48 89 49 83 50 82 51 38 53 70 54 50 55 69 56 51 57
REMARK SMILES IDX 54 58 68 59 87 60 52 61 53 62 67 64 88 65 55 66 39 67 40 68
REMARK SMILES IDX 48 69 41 70 47 71 49 72 46 73 42 74 43 75 44 76 45 77 71 78
REMARK SMILES IDX 72 79 80 80 73 81 79 82 81 83 78 84 74 85 75 86 76 87 77 88
REMARK SMILES IDX 56 89 57 90 65 91 58 92 64 93 66 94 63 95 59 96 60 97 61 98
REMARK SMILES IDX 62 99
REMARK H PARENT 23 6 93 16 93 17 27 33 86 52 54 63
REMARK Flexibility Score: inf
ROOT
ATOM      1  C   UNL A   1      33.482  28.622  25.143  1.00  0.00     0.042 C 
ENDROOT
BRANCH   1   2
ATOM      2  C   UNL A   1      32.850  28.908  23.799  1.00  0.00     0.118 C 
BRANCH   2   3
ATOM      3  N   UNL A   1      32.625  27.795  22.918  1.00  0.00    -0.352 N 
ATOM      4  C   UNL A   1      31.473  27.074  22.765  1.00  0.00     0.258 C 
ATOM      5  O   UNL A   1      31.404  26.333  21.778  1.00  0.00    -0.269 OA
ATOM      6  H   UNL A   1      33.388  27.519  22.359  1.00  0.00     0.163 HD
BRANCH   4   7
ATOM      7  C   UNL A   1      30.345  27.076  23.789  1.00  0.00     0.084 C 
ATOM      8  C   UNL A   1      30.312  26.431  24.971  1.00  0.00     0.068 C 
BRANCH   7   9
ATOM      9  S   UNL A   1      29.058  28.151  23.227  1.00  0.00    -0.030 SA
BRANCH   9  10
ATOM     10  C   UNL A   1      29.744  29.629  22.419  1.00  0.00     0.393 C 
ATOM     11  C   UNL A   1      28.780  32.982  23.123  1.00  0.00     0.106 C 
ATOM     12  C   UNL A   1      28.624  31.482  22.951  1.00  0.00     0.324 C 
ATOM     13  N   UNL A   1      28.329  31.146  21.550  1.00  0.00    -0.126 NA
ATOM     14  N   UNL A   1      29.863  30.794  23.289  1.00  0.00    -0.293 N 
ATOM     15  N   UNL A   1      28.959  30.097  21.245  1.00  0.00    -0.115 NA
ATOM     16  H   UNL A   1      29.895  30.532  24.273  1.00  0.00     0.350 HD
ATOM     17  H   UNL A   1      30.711  31.346  23.158  1.00  0.00     0.350 HD
ENDBRANCH   9  10
ENDBRANCH   7   9
BRANCH   8  18
ATOM     18  C   UNL A   1      31.186  25.409  25.421  1.00  0.00     0.128 A 
ATOM     19  C   UNL A   1      31.125  24.542  26.501  1.00  0.00     0.051 A 
ATOM     20  O   UNL A   1      32.345  25.113  24.724  1.00  0.00    -0.457 OA
ATOM     21  C   UNL A   1      32.310  23.755  26.491  1.00  0.00     0.051 A 
ATOM     22  C   UNL A   1      33.054  24.169  25.406  1.00  0.00     0.134 A 
BRANCH  22  23
ATOM     23  C   UNL A   1      34.395  23.863  24.903  1.00  0.00     0.019 A 
ATOM     24  C   UNL A   1      34.564  23.297  23.631  1.00  0.00     0.012 A 
ATOM     25  C   UNL A   1      35.540  24.069  25.691  1.00  0.00     0.032 A 
ATOM     26  C   UNL A   1      35.833  22.954  23.153  1.00  0.00     0.002 A 
ATOM     27  C   UNL A   1      36.805  23.710  25.217  1.00  0.00     0.041 A 
ATOM     28  C   UNL A   1      36.958  23.158  23.948  1.00  0.00     0.020 A 
ATOM     29  Cl  UNL A   1      38.189  23.940  26.215  1.00  0.00    -0.084 Cl
ENDBRANCH  22  23
ENDBRANCH   8  18
ENDBRANCH   4   7
ENDBRANCH   2   3
ENDBRANCH   1   2
BRANCH   1  30
ATOM     30  C   UNL A   1      32.618  28.976  26.348  1.00  0.00     0.118 C 
BRANCH  30  31
ATOM     31  N   UNL A   1      32.522  30.405  26.653  1.00  0.00    -0.352 N 
ATOM     32  C   UNL A   1      33.364  31.320  27.251  1.00  0.00     0.251 C 
ATOM     33  H   UNL A   1      31.667  30.799  26.366  1.00  0.00     0.163 HD
ATOM     34  O   UNL A   1      32.945  32.457  27.433  1.00  0.00    -0.269 OA
BRANCH  32  35
ATOM     35  C   UNL A   1      34.726  30.956  27.722  1.00  0.00     0.039 A 
ATOM     36  C   UNL A   1      35.701  31.956  27.834  1.00  0.00     0.014 A 
ATOM     37  C   UNL A   1      35.072  29.650  28.047  1.00  0.00     0.014 A 
ATOM     38  C   UNL A   1      36.957  31.660  28.384  1.00  0.00     0.010 A 
ATOM     39  C   UNL A   1      36.251  29.389  28.737  1.00  0.00     0.010 A 
ATOM     40  C   UNL A   1      37.217  30.388  28.913  1.00  0.00    -0.014 A 
BRANCH  40  41
ATOM     41  C   UNL A   1      38.475  30.055  29.644  1.00  0.00     0.031 A 
ATOM     42  C   UNL A   1      39.409  29.002  29.096  1.00  0.00     0.074 A 
ATOM     43  C   UNL A   1      38.715  30.601  30.856  1.00  0.00     0.049 A 
ATOM     44  N   UNL A   1      40.446  28.435  29.662  1.00  0.00    -0.248 NA
ATOM     45  C   UNL A   1      39.107  28.475  27.754  1.00  0.00     0.031 C 
ATOM     46  C   UNL A   1      37.859  31.581  31.527  1.00  0.00     0.029 A 
ATOM     47  N   UNL A   1      39.735  30.393  31.754  1.00  0.00    -0.354 N 
ATOM     48  C   UNL A   1      40.883  27.462  28.769  1.00  0.00     0.074 A 
ATOM     49  C   UNL A   1      39.963  27.471  27.654  1.00  0.00     0.031 C 
ATOM     50  C   UNL A   1      38.396  31.903  32.714  1.00  0.00     0.029 A 
ATOM     51  C   UNL A   1      39.602  31.111  32.923  1.00  0.00     0.049 A 
ATOM     52  H   UNL A   1      40.491  29.787  31.578  1.00  0.00     0.167 HD
ATOM     53  C   UNL A   1      41.968  26.652  28.857  1.00  0.00     0.034 A 
ATOM     54  C   UNL A   1      40.348  31.112  34.046  1.00  0.00     0.034 A 
ATOM     55  C   UNL A   1      42.910  26.700  29.946  1.00  0.00     0.049 A 
ATOM     56  C   UNL A   1      41.559  30.215  34.110  1.00  0.00     0.074 A 
ATOM     57  C   UNL A   1      44.103  26.012  30.081  1.00  0.00     0.029 A 
ATOM     58  N   UNL A   1      42.765  27.475  31.089  1.00  0.00    -0.354 N 
ATOM     59  N   UNL A   1      42.004  29.362  33.216  1.00  0.00    -0.248 NA
ATOM     60  C   UNL A   1      42.377  30.289  35.328  1.00  0.00     0.031 C 
ATOM     61  C   UNL A   1      44.643  26.314  31.335  1.00  0.00     0.029 A 
ATOM     62  C   UNL A   1      43.831  27.255  31.949  1.00  0.00     0.049 A 
ATOM     63  H   UNL A   1      42.017  28.090  31.264  1.00  0.00     0.167 HD
ATOM     64  C   UNL A   1      43.177  28.833  33.748  1.00  0.00     0.074 A 
ATOM     65  C   UNL A   1      43.376  29.472  35.031  1.00  0.00     0.031 C 
ATOM     66  C   UNL A   1      44.018  27.906  33.223  1.00  0.00     0.034 A 
BRANCH  53  67
ATOM     67  C   UNL A   1      42.190  25.644  27.754  1.00  0.00     0.023 A 
ATOM     68  C   UNL A   1      41.627  24.357  27.795  1.00  0.00     0.031 A 
ATOM     69  C   UNL A   1      42.978  25.981  26.637  1.00  0.00     0.131 A 
ATOM     70  C   UNL A   1      41.913  23.433  26.778  1.00  0.00     0.055 A 
ATOM     71  C   UNL A   1      43.192  25.084  25.589  1.00  0.00     0.041 A 
ATOM     72  F   UNL A   1      43.560  27.187  26.549  1.00  0.00    -0.206 F 
ATOM     73  C   UNL A   1      42.668  23.796  25.661  1.00  0.00     0.022 A 
BRANCH  70  74
ATOM     74  S   UNL A   1      41.387  21.711  26.999  1.00  0.00     0.124 S 
ATOM     75  O   UNL A   1      40.530  21.515  25.832  1.00  0.00    -0.237 OA
ATOM     76  O   UNL A   1      42.655  20.990  26.988  1.00  0.00    -0.237 OA
ATOM     77  O   UNL A   1      40.689  21.727  28.281  1.00  0.00    -0.744 OA
ENDBRANCH  70  74
ENDBRANCH  53  67
BRANCH  54  78
ATOM     78  C   UNL A   1      39.978  31.970  35.211  1.00  0.00     0.023 A 
ATOM     79  C   UNL A   1      39.125  31.491  36.219  1.00  0.00     0.031 A 
ATOM     80  C   UNL A   1      40.413  33.305  35.302  1.00  0.00     0.131 A 
ATOM     81  C   UNL A   1      38.680  32.354  37.233  1.00  0.00     0.055 A 
ATOM     82  C   UNL A   1      40.021  34.141  36.350  1.00  0.00     0.041 A 
ATOM     83  F   UNL A   1      41.231  33.818  34.369  1.00  0.00    -0.206 F 
ATOM     84  C   UNL A   1      39.133  33.672  37.313  1.00  0.00     0.022 A 
BRANCH  81  85
ATOM     85  S   UNL A   1      37.404  31.761  38.378  1.00  0.00     0.124 S 
ATOM     86  O   UNL A   1      36.321  32.706  38.130  1.00  0.00    -0.237 OA
ATOM     87  O   UNL A   1      37.186  30.398  37.906  1.00  0.00    -0.237 OA
ATOM     88  O   UNL A   1      38.043  31.871  39.687  1.00  0.00    -0.744 OA
ENDBRANCH  81  85
ENDBRANCH  54  78
BRANCH  66  89
ATOM     89  C   UNL A   1      45.264  27.585  34.009  1.00  0.00     0.023 A 
ATOM     90  C   UNL A   1      45.303  26.535  34.944  1.00  0.00     0.031 A 
ATOM     91  C   UNL A   1      46.429  28.350  33.825  1.00  0.00     0.131 A 
ATOM     92  C   UNL A   1      46.462  26.318  35.701  1.00  0.00     0.055 A 
ATOM     93  C   UNL A   1      47.601  28.086  34.532  1.00  0.00     0.041 A 
ATOM     94  F   UNL A   1      46.447  29.366  32.947  1.00  0.00    -0.206 F 
ATOM     95  C   UNL A   1      47.618  27.074  35.488  1.00  0.00     0.022 A 
BRANCH  92  96
ATOM     96  S   UNL A   1      46.411  25.099  37.042  1.00  0.00     0.124 S 
ATOM     97  O   UNL A   1      45.327  25.609  37.874  1.00  0.00    -0.237 OA
ATOM     98  O   UNL A   1      46.133  23.858  36.325  1.00  0.00    -0.237 OA
ATOM     99  O   UNL A   1      47.744  25.185  37.636  1.00  0.00    -0.744 OA
ENDBRANCH  92  96
ENDBRANCH  66  89
ENDBRANCH  40  41
ENDBRANCH  32  35
ENDBRANCH  30  31
ENDBRANCH   1  30
TORSDOF 17
ENDMDL
MODEL 3
REMARK VINA RESULT:     -12.8      5.512     10.932
REMARK SMILES C[C@H]1N=N[C@H](S/C(=C/c2ccc(-c3cccc(Cl)c3)o2)C(=O)NCCCNC(=O)c2ccc(-c3c4nc(c(-c5cc(S(=O)(=O)[O-])ccc5F)c5ccc([nH]5)c(-c5cc(S(=O)(=O)[O-])ccc5F)c5nc(c(-c6cc(S(=O)(=O)[O-])ccc6F)c6ccc3[nH]6)C=C5)C=C4)cc2)[NH2+]1
REMARK SMILES IDX 25 1 24 2 23 3 21 4 22 5 7 7 8 8 6 9 5 10 1 11 2 12 3 13
REMARK SMILES IDX 93 14 4 15 9 18 10 19 20 20 11 21 12 22 13 23 14 24 19 25
REMARK SMILES IDX 15 26 17 27 16 28 18 29 26 30 27 31 28 32 29 34 30 35 31 36
REMARK SMILES IDX 92 37 32 38 91 39 33 40 34 41 35 42 85 43 36 44 90 45 84 46
REMARK SMILES IDX 86 47 37 48 89 49 83 50 82 51 38 53 70 54 50 55 69 56 51 57
REMARK SMILES IDX 54 58 68 59 87 60 52 61 53 62 67 64 88 65 55 66 39 67 40 68
REMARK SMILES IDX 48 69 41 70 47 71 49 72 46 73 42 74 43 75 44 76 45 77 71 78
REMARK SMILES IDX 72 79 80 80 73 81 79 82 81 83 78 84 74 85 75 86 76 87 77 88
REMARK SMILES IDX 56 89 57 90 65 91 58 92 64 93 66 94 63 95 59 96 60 97 61 98
REMARK SMILES IDX 62 99
REMARK H PARENT 23 6 93 16 93 17 27 33 86 52 54 63
REMARK Flexibility Score: inf
ROOT
ATOM      1  C   UNL A   1      36.739  22.178  23.779  1.00  0.00     0.042 C 
ENDROOT
BRANCH   1   2
ATOM      2  C   UNL A   1      35.983  23.486  23.690  1.00  0.00     0.118 C 
BRANCH   2   3
ATOM      3  N   UNL A   1      34.712  23.476  23.020  1.00  0.00    -0.352 N 
ATOM      4  C   UNL A   1      33.643  24.296  23.251  1.00  0.00     0.258 C 
ATOM      5  O   UNL A   1      32.747  24.300  22.399  1.00  0.00    -0.269 OA
ATOM      6  H   UNL A   1      34.597  22.800  22.312  1.00  0.00     0.163 HD
BRANCH   4   7
ATOM      7  C   UNL A   1      33.474  25.107  24.529  1.00  0.00     0.084 C 
ATOM      8  C   UNL A   1      33.547  24.660  25.797  1.00  0.00     0.068 C 
BRANCH   7   9
ATOM      9  S   UNL A   1      33.237  26.807  24.106  1.00  0.00    -0.030 SA
BRANCH   9  10
ATOM     10  C   UNL A   1      31.470  27.232  24.054  1.00  0.00     0.393 C 
ATOM     11  C   UNL A   1      30.025  29.743  21.986  1.00  0.00     0.106 C 
ATOM     12  C   UNL A   1      31.074  29.067  22.851  1.00  0.00     0.324 C 
ATOM     13  N   UNL A   1      30.864  29.386  24.271  1.00  0.00    -0.126 NA
ATOM     14  N   UNL A   1      30.978  27.617  22.735  1.00  0.00    -0.293 N 
ATOM     15  N   UNL A   1      31.088  28.351  24.956  1.00  0.00    -0.115 NA
ATOM     16  H   UNL A   1      31.570  27.257  21.988  1.00  0.00     0.350 HD
ATOM     17  H   UNL A   1      30.051  27.264  22.499  1.00  0.00     0.350 HD
ENDBRANCH   9  10
ENDBRANCH   7   9
BRANCH   8  18
ATOM     18  C   UNL A   1      33.537  23.312  26.239  1.00  0.00     0.128 A 
ATOM     19  C   UNL A   1      33.910  22.723  27.437  1.00  0.00     0.051 A 
ATOM     20  O   UNL A   1      33.072  22.302  25.414  1.00  0.00    -0.457 OA
ATOM     21  C   UNL A   1      33.731  21.318  27.303  1.00  0.00     0.051 A 
ATOM     22  C   UNL A   1      33.254  21.097  26.027  1.00  0.00     0.134 A 
BRANCH  22  23
ATOM     23  C   UNL A   1      32.980  19.904  25.225  1.00  0.00     0.019 A 
ATOM     24  C   UNL A   1      32.679  20.020  23.860  1.00  0.00     0.012 A 
ATOM     25  C   UNL A   1      32.951  18.622  25.801  1.00  0.00     0.032 A 
ATOM     26  C   UNL A   1      32.367  18.895  23.088  1.00  0.00     0.002 A 
ATOM     27  C   UNL A   1      32.623  17.503  25.030  1.00  0.00     0.041 A 
ATOM     28  C   UNL A   1      32.336  17.632  23.674  1.00  0.00     0.020 A 
ATOM     29  Cl  UNL A   1      32.559  15.948  25.766  1.00  0.00    -0.084 Cl
ENDBRANCH  22  23
ENDBRANCH   8  18
ENDBRANCH   4   7
ENDBRANCH   2   3
ENDBRANCH   1   2
BRANCH   1  30
ATOM     30  C   UNL A   1      36.787  21.556  25.170  1.00  0.00     0.118 C 
BRANCH  30  31
ATOM     31  N   UNL A   1      37.878  20.607  25.395  1.00  0.00    -0.352 N 
ATOM     32  C   UNL A   1      39.139  20.703  25.950  1.00  0.00     0.251 C 
ATOM     33  H   UNL A   1      37.665  19.698  25.082  1.00  0.00     0.163 HD
ATOM     34  O   UNL A   1      39.861  19.715  25.918  1.00  0.00    -0.269 OA
BRANCH  32  35
ATOM     35  C   UNL A   1      39.656  21.971  26.529  1.00  0.00     0.039 A 
ATOM     36  C   UNL A   1      40.682  21.919  27.481  1.00  0.00     0.014 A 
ATOM     37  C   UNL A   1      39.148  23.212  26.166  1.00  0.00     0.014 A 
ATOM     38  C   UNL A   1      41.266  23.102  27.957  1.00  0.00     0.010 A 
ATOM     39  C   UNL A   1      39.827  24.375  26.511  1.00  0.00     0.010 A 
ATOM     40  C   UNL A   1      40.895  24.343  27.417  1.00  0.00    -0.014 A 
BRANCH  40  41
ATOM     41  C   UNL A   1      41.581  25.619  27.771  1.00  0.00     0.031 A 
ATOM     42  C   UNL A   1      40.831  26.697  28.519  1.00  0.00     0.074 A 
ATOM     43  C   UNL A   1      42.829  25.864  27.314  1.00  0.00     0.049 A 
ATOM     44  N   UNL A   1      41.177  27.937  28.757  1.00  0.00    -0.248 NA
ATOM     45  C   UNL A   1      39.490  26.350  29.019  1.00  0.00     0.031 C 
ATOM     46  C   UNL A   1      43.638  24.933  26.524  1.00  0.00     0.029 A 
ATOM     47  N   UNL A   1      43.628  26.977  27.422  1.00  0.00    -0.354 N 
ATOM     48  C   UNL A   1      40.083  28.523  29.387  1.00  0.00     0.074 A 
ATOM     49  C   UNL A   1      39.041  27.523  29.437  1.00  0.00     0.031 C 
ATOM     50  C   UNL A   1      44.820  25.502  26.238  1.00  0.00     0.029 A 
ATOM     51  C   UNL A   1      44.836  26.860  26.768  1.00  0.00     0.049 A 
ATOM     52  H   UNL A   1      43.363  27.783  27.921  1.00  0.00     0.167 HD
ATOM     53  C   UNL A   1      39.967  29.773  29.901  1.00  0.00     0.034 A 
ATOM     54  C   UNL A   1      45.831  27.751  26.590  1.00  0.00     0.034 A 
ATOM     55  C   UNL A   1      41.038  30.737  29.898  1.00  0.00     0.049 A 
ATOM     56  C   UNL A   1      45.684  29.129  27.187  1.00  0.00     0.074 A 
ATOM     57  C   UNL A   1      41.071  31.986  30.493  1.00  0.00     0.029 A 
ATOM     58  N   UNL A   1      42.263  30.564  29.267  1.00  0.00    -0.354 N 
ATOM     59  N   UNL A   1      44.672  29.636  27.856  1.00  0.00    -0.248 NA
ATOM     60  C   UNL A   1      46.815  30.050  27.020  1.00  0.00     0.031 C 
ATOM     61  C   UNL A   1      42.284  32.597  30.161  1.00  0.00     0.029 A 
ATOM     62  C   UNL A   1      43.044  31.697  29.430  1.00  0.00     0.049 A 
ATOM     63  H   UNL A   1      42.536  29.756  28.777  1.00  0.00     0.167 HD
ATOM     64  C   UNL A   1      45.067  30.919  28.223  1.00  0.00     0.074 A 
ATOM     65  C   UNL A   1      46.410  31.101  27.716  1.00  0.00     0.031 C 
ATOM     66  C   UNL A   1      44.385  31.861  28.922  1.00  0.00     0.034 A 
BRANCH  53  67
ATOM     67  C   UNL A   1      38.639  30.171  30.501  1.00  0.00     0.023 A 
ATOM     68  C   UNL A   1      37.649  30.830  29.751  1.00  0.00     0.031 A 
ATOM     69  C   UNL A   1      38.357  29.881  31.849  1.00  0.00     0.131 A 
ATOM     70  C   UNL A   1      36.456  31.237  30.368  1.00  0.00     0.055 A 
ATOM     71  C   UNL A   1      37.135  30.215  32.435  1.00  0.00     0.041 A 
ATOM     72  F   UNL A   1      39.270  29.272  32.623  1.00  0.00    -0.206 F 
ATOM     73  C   UNL A   1      36.180  30.909  31.698  1.00  0.00     0.022 A 
BRANCH  70  74
ATOM     74  S   UNL A   1      35.324  32.309  29.443  1.00  0.00     0.124 S 
ATOM     75  O   UNL A   1      36.219  33.380  29.012  1.00  0.00    -0.237 OA
ATOM     76  O   UNL A   1      34.837  31.422  28.392  1.00  0.00    -0.237 OA
ATOM     77  O   UNL A   1      34.330  32.700  30.439  1.00  0.00    -0.744 OA
ENDBRANCH  70  74
ENDBRANCH  53  67
BRANCH  54  78
ATOM     78  C   UNL A   1      47.050  27.393  25.803  1.00  0.00     0.023 A 
ATOM     79  C   UNL A   1      47.194  27.804  24.468  1.00  0.00     0.031 A 
ATOM     80  C   UNL A   1      48.057  26.576  26.350  1.00  0.00     0.131 A 
ATOM     81  C   UNL A   1      48.280  27.346  23.705  1.00  0.00     0.055 A 
ATOM     82  C   UNL A   1      49.169  26.176  25.605  1.00  0.00     0.041 A 
ATOM     83  F   UNL A   1      47.973  26.154  27.621  1.00  0.00    -0.206 F 
ATOM     84  C   UNL A   1      49.276  26.545  24.268  1.00  0.00     0.022 A 
BRANCH  81  85
ATOM     85  S   UNL A   1      48.306  27.712  21.928  1.00  0.00     0.124 S 
ATOM     86  O   UNL A   1      46.990  28.308  21.729  1.00  0.00    -0.237 OA
ATOM     87  O   UNL A   1      49.444  28.620  21.825  1.00  0.00    -0.237 OA
ATOM     88  O   UNL A   1      48.499  26.402  21.313  1.00  0.00    -0.744 OA
ENDBRANCH  81  85
ENDBRANCH  54  78
BRANCH  66  89
ATOM     89  C   UNL A   1      45.112  33.145  29.235  1.00  0.00     0.023 A 
ATOM     90  C   UNL A   1      45.052  34.260  28.381  1.00  0.00     0.031 A 
ATOM     91  C   UNL A   1      45.885  33.249  30.406  1.00  0.00     0.131 A 
ATOM     92  C   UNL A   1      45.800  35.408  28.679  1.00  0.00     0.055 A 
ATOM     93  C   UNL A   1      46.573  34.417  30.731  1.00  0.00     0.041 A 
ATOM     94  F   UNL A   1      45.980  32.213  31.255  1.00  0.00    -0.206 F 
ATOM     95  C   UNL A   1      46.545  35.500  29.858  1.00  0.00     0.022 A 
BRANCH  92  96
ATOM     96  S   UNL A   1      45.869  36.744  27.456  1.00  0.00     0.124 S 
ATOM     97  O   UNL A   1      44.454  37.028  27.238  1.00  0.00    -0.237 OA
ATOM     98  O   UNL A   1      46.623  37.775  28.161  1.00  0.00    -0.237 OA
ATOM     99  O   UNL A   1      46.562  36.136  26.322  1.00  0.00    -0.744 OA
ENDBRANCH  92  96
ENDBRANCH  66  89
ENDBRANCH  40  41
ENDBRANCH  32  35
ENDBRANCH  30  31
ENDBRANCH   1  30
TORSDOF 17
ENDMDL
