MODEL 1
REMARK VINA RESULT:     -12.5      0.000      0.000
REMARK SMILES Cc1oc2c(c1C(=O)NCCCC(=O)NCCCNC(=O)c1ccc(-c3c4nc(c(-c5cc(S(=O)(=O)[O-])ccc5F)c5ccc([nH]5)c(-c5cc(S(=O)(=O)[O-])ccc5F)c5nc(c(-c6cc(S(=O)(=O)[O-])ccc6F)c6ccc3[nH]6)C=C5)C=C4)cc1)CCCC2
REMARK SMILES IDX 16 1 15 2 13 3 14 4 12 6 11 7 10 8 9 9 7 10 8 11 6 13 1 14
REMARK SMILES IDX 2 15 3 16 4 17 5 18 88 19 85 20 87 21 86 22 17 23 18 24
REMARK SMILES IDX 19 25 20 26 21 28 22 29 23 30 84 31 24 32 83 33 25 34 26 35
REMARK SMILES IDX 27 36 77 37 28 38 82 39 76 40 78 41 29 42 81 43 75 44 74 45
REMARK SMILES IDX 30 47 62 48 42 49 61 50 43 51 46 52 60 53 79 54 44 55 45 56
REMARK SMILES IDX 59 58 80 59 47 60 31 61 32 62 40 63 33 64 39 65 41 66 38 67
REMARK SMILES IDX 34 68 35 69 36 70 37 71 63 72 64 73 72 74 65 75 71 76 73 77
REMARK SMILES IDX 70 78 66 79 67 80 68 81 69 82 48 83 49 84 57 85 50 86 56 87
REMARK SMILES IDX 58 88 55 89 51 90 52 91 53 92 54 93
REMARK H PARENT 15 5 9 12 19 27 78 46 46 57
REMARK Flexibility Score: inf
ROOT
ATOM      1  C   UNL A   1      33.272  29.301  25.950  1.00  0.00     0.117 C 
ENDROOT
BRANCH   1   2
ATOM      2  N   UNL A   1      33.992  29.124  24.696  1.00  0.00    -0.356 N 
ATOM      3  C   UNL A   1      33.554  28.717  23.471  1.00  0.00     0.220 C 
ATOM      4  O   UNL A   1      34.377  28.558  22.569  1.00  0.00    -0.275 OA
ATOM      5  H   UNL A   1      34.953  29.332  24.739  1.00  0.00     0.163 HD
BRANCH   3   6
ATOM      6  C   UNL A   1      32.081  28.479  23.213  1.00  0.00     0.102 C 
BRANCH   6   7
ATOM      7  C   UNL A   1      31.749  27.066  22.732  1.00  0.00     0.031 C 
BRANCH   7   8
ATOM      8  C   UNL A   1      30.881  26.214  23.652  1.00  0.00     0.116 C 
BRANCH   8   9
ATOM      9  N   UNL A   1      30.756  26.705  25.003  1.00  0.00    -0.352 N 
ATOM     10  C   UNL A   1      31.160  26.181  26.206  1.00  0.00     0.255 C 
ATOM     11  O   UNL A   1      30.953  26.905  27.185  1.00  0.00    -0.269 OA
ATOM     12  H   UNL A   1      30.296  27.573  25.076  1.00  0.00     0.163 HD
BRANCH  10  13
ATOM     13  C   UNL A   1      31.722  24.840  26.370  1.00  0.00     0.084 A 
ATOM     14  C   UNL A   1      29.827  23.060  27.044  1.00  0.00     0.088 C 
ATOM     15  C   UNL A   1      31.169  23.614  26.757  1.00  0.00     0.114 A 
ATOM     16  O   UNL A   1      32.139  22.652  26.844  1.00  0.00    -0.465 OA
ATOM     17  C   UNL A   1      33.283  23.209  26.423  1.00  0.00     0.108 A 
ATOM     18  C   UNL A   1      33.092  24.513  26.046  1.00  0.00     0.007 A 
ATOM     19  C   UNL A   1      34.519  22.403  26.369  1.00  0.00     0.076 C 
ATOM     20  C   UNL A   1      34.206  25.322  25.468  1.00  0.00     0.040 C 
ATOM     21  C   UNL A   1      35.713  23.351  26.153  1.00  0.00     0.008 C 
ATOM     22  C   UNL A   1      35.409  24.424  25.086  1.00  0.00     0.005 C 
ENDBRANCH  10  13
ENDBRANCH   8   9
ENDBRANCH   7   8
ENDBRANCH   6   7
ENDBRANCH   3   6
ENDBRANCH   1   2
BRANCH   1  23
ATOM     23  C   UNL A   1      34.031  28.701  27.138  1.00  0.00     0.042 C 
BRANCH  23  24
ATOM     24  C   UNL A   1      35.360  29.367  27.406  1.00  0.00     0.118 C 
BRANCH  24  25
ATOM     25  N   UNL A   1      35.514  29.811  28.793  1.00  0.00    -0.352 N 
ATOM     26  C   UNL A   1      36.517  29.451  29.691  1.00  0.00     0.251 C 
ATOM     27  H   UNL A   1      34.832  30.435  29.130  1.00  0.00     0.163 HD
ATOM     28  O   UNL A   1      36.345  29.547  30.891  1.00  0.00    -0.269 OA
BRANCH  26  29
ATOM     29  C   UNL A   1      37.787  28.941  29.131  1.00  0.00     0.039 A 
ATOM     30  C   UNL A   1      38.413  29.493  28.011  1.00  0.00     0.014 A 
ATOM     31  C   UNL A   1      38.395  27.915  29.839  1.00  0.00     0.014 A 
ATOM     32  C   UNL A   1      39.688  29.034  27.677  1.00  0.00     0.010 A 
ATOM     33  C   UNL A   1      39.735  27.721  29.709  1.00  0.00     0.010 A 
ATOM     34  C   UNL A   1      40.349  28.153  28.551  1.00  0.00    -0.014 A 
BRANCH  34  35
ATOM     35  C   UNL A   1      41.722  27.705  28.362  1.00  0.00     0.031 A 
ATOM     36  C   UNL A   1      41.835  26.463  27.569  1.00  0.00     0.074 A 
ATOM     37  C   UNL A   1      42.798  28.471  28.662  1.00  0.00     0.049 A 
ATOM     38  N   UNL A   1      42.058  25.277  28.021  1.00  0.00    -0.248 NA
ATOM     39  C   UNL A   1      41.448  26.494  26.150  1.00  0.00     0.031 C 
ATOM     40  C   UNL A   1      42.838  29.853  29.163  1.00  0.00     0.029 A 
ATOM     41  N   UNL A   1      44.116  28.196  28.480  1.00  0.00    -0.354 N 
ATOM     42  C   UNL A   1      42.133  24.459  26.903  1.00  0.00     0.074 A 
ATOM     43  C   UNL A   1      41.495  25.195  25.845  1.00  0.00     0.031 C 
ATOM     44  C   UNL A   1      44.086  30.358  29.025  1.00  0.00     0.029 A 
ATOM     45  C   UNL A   1      44.972  29.292  28.596  1.00  0.00     0.049 A 
ATOM     46  H   UNL A   1      44.444  27.289  28.280  1.00  0.00     0.167 HD
ATOM     47  C   UNL A   1      42.963  23.379  26.893  1.00  0.00     0.034 A 
ATOM     48  C   UNL A   1      46.313  29.320  28.356  1.00  0.00     0.034 A 
ATOM     49  C   UNL A   1      43.440  23.094  28.234  1.00  0.00     0.049 A 
ATOM     50  C   UNL A   1      46.784  27.917  28.489  1.00  0.00     0.074 A 
ATOM     51  C   UNL A   1      42.822  22.816  29.439  1.00  0.00     0.029 A 
ATOM     52  N   UNL A   1      44.716  23.507  28.565  1.00  0.00    -0.354 N 
ATOM     53  N   UNL A   1      46.739  27.258  29.616  1.00  0.00    -0.248 NA
ATOM     54  C   UNL A   1      46.794  27.087  27.292  1.00  0.00     0.031 C 
ATOM     55  C   UNL A   1      43.555  23.566  30.407  1.00  0.00     0.029 A 
ATOM     56  C   UNL A   1      44.644  24.166  29.769  1.00  0.00     0.049 A 
ATOM     57  H   UNL A   1      45.530  23.356  28.034  1.00  0.00     0.167 HD
ATOM     58  C   UNL A   1      46.262  26.000  29.280  1.00  0.00     0.074 A 
ATOM     59  C   UNL A   1      46.407  25.921  27.824  1.00  0.00     0.031 C 
ATOM     60  C   UNL A   1      45.522  25.259  30.159  1.00  0.00     0.034 A 
BRANCH  47  61
ATOM     61  C   UNL A   1      43.655  22.820  25.668  1.00  0.00     0.023 A 
ATOM     62  C   UNL A   1      43.628  21.421  25.514  1.00  0.00     0.031 A 
ATOM     63  C   UNL A   1      44.547  23.511  24.818  1.00  0.00     0.131 A 
ATOM     64  C   UNL A   1      44.533  20.768  24.660  1.00  0.00     0.055 A 
ATOM     65  C   UNL A   1      45.398  22.861  23.919  1.00  0.00     0.041 A 
ATOM     66  F   UNL A   1      44.719  24.835  24.860  1.00  0.00    -0.206 F 
ATOM     67  C   UNL A   1      45.421  21.480  23.862  1.00  0.00     0.022 A 
BRANCH  64  68
ATOM     68  S   UNL A   1      44.648  18.966  24.759  1.00  0.00     0.124 S 
ATOM     69  O   UNL A   1      43.297  18.610  25.178  1.00  0.00    -0.237 OA
ATOM     70  O   UNL A   1      45.014  18.614  23.391  1.00  0.00    -0.237 OA
ATOM     71  O   UNL A   1      45.691  18.749  25.760  1.00  0.00    -0.744 OA
ENDBRANCH  64  68
ENDBRANCH  47  61
BRANCH  48  72
ATOM     72  C   UNL A   1      47.107  30.407  27.705  1.00  0.00     0.023 A 
ATOM     73  C   UNL A   1      46.524  31.538  27.086  1.00  0.00     0.031 A 
ATOM     74  C   UNL A   1      48.504  30.461  27.918  1.00  0.00     0.131 A 
ATOM     75  C   UNL A   1      47.327  32.648  26.716  1.00  0.00     0.055 A 
ATOM     76  C   UNL A   1      49.289  31.559  27.556  1.00  0.00     0.041 A 
ATOM     77  F   UNL A   1      49.145  29.477  28.569  1.00  0.00    -0.206 F 
ATOM     78  C   UNL A   1      48.702  32.663  26.962  1.00  0.00     0.022 A 
BRANCH  75  79
ATOM     79  S   UNL A   1      46.583  34.147  25.981  1.00  0.00     0.124 S 
ATOM     80  O   UNL A   1      45.435  33.605  25.264  1.00  0.00    -0.237 OA
ATOM     81  O   UNL A   1      46.290  34.962  27.154  1.00  0.00    -0.237 OA
ATOM     82  O   UNL A   1      47.647  34.674  25.124  1.00  0.00    -0.744 OA
ENDBRANCH  75  79
ENDBRANCH  48  72
BRANCH  60  83
ATOM     83  C   UNL A   1      45.452  25.710  31.610  1.00  0.00     0.023 A 
ATOM     84  C   UNL A   1      46.460  25.504  32.583  1.00  0.00     0.031 A 
ATOM     85  C   UNL A   1      44.350  26.501  31.980  1.00  0.00     0.131 A 
ATOM     86  C   UNL A   1      46.331  26.075  33.868  1.00  0.00     0.055 A 
ATOM     87  C   UNL A   1      44.238  27.083  33.241  1.00  0.00     0.041 A 
ATOM     88  F   UNL A   1      43.369  26.756  31.098  1.00  0.00    -0.206 F 
ATOM     89  C   UNL A   1      45.227  26.868  34.194  1.00  0.00     0.022 A 
BRANCH  86  90
ATOM     90  S   UNL A   1      47.589  25.781  35.157  1.00  0.00     0.124 S 
ATOM     91  O   UNL A   1      48.120  24.464  34.823  1.00  0.00    -0.237 OA
ATOM     92  O   UNL A   1      48.504  26.904  34.971  1.00  0.00    -0.237 OA
ATOM     93  O   UNL A   1      46.818  25.828  36.402  1.00  0.00    -0.744 OA
ENDBRANCH  86  90
ENDBRANCH  60  83
ENDBRANCH  34  35
ENDBRANCH  26  29
ENDBRANCH  24  25
ENDBRANCH  23  24
ENDBRANCH   1  23
TORSDOF 17
ENDMDL
MODEL 2
REMARK VINA RESULT:     -12.1      3.221      8.402
REMARK SMILES Cc1oc2c(c1C(=O)NCCCC(=O)NCCCNC(=O)c1ccc(-c3c4nc(c(-c5cc(S(=O)(=O)[O-])ccc5F)c5ccc([nH]5)c(-c5cc(S(=O)(=O)[O-])ccc5F)c5nc(c(-c6cc(S(=O)(=O)[O-])ccc6F)c6ccc3[nH]6)C=C5)C=C4)cc1)CCCC2
REMARK SMILES IDX 16 1 15 2 13 3 14 4 12 6 11 7 10 8 9 9 7 10 8 11 6 13 1 14
REMARK SMILES IDX 2 15 3 16 4 17 5 18 88 19 85 20 87 21 86 22 17 23 18 24
REMARK SMILES IDX 19 25 20 26 21 28 22 29 23 30 84 31 24 32 83 33 25 34 26 35
REMARK SMILES IDX 27 36 77 37 28 38 82 39 76 40 78 41 29 42 81 43 75 44 74 45
REMARK SMILES IDX 30 47 62 48 42 49 61 50 43 51 46 52 60 53 79 54 44 55 45 56
REMARK SMILES IDX 59 58 80 59 47 60 31 61 32 62 40 63 33 64 39 65 41 66 38 67
REMARK SMILES IDX 34 68 35 69 36 70 37 71 63 72 64 73 72 74 65 75 71 76 73 77
REMARK SMILES IDX 70 78 66 79 67 80 68 81 69 82 48 83 49 84 57 85 50 86 56 87
REMARK SMILES IDX 58 88 55 89 51 90 52 91 53 92 54 93
REMARK H PARENT 15 5 9 12 19 27 78 46 46 57
REMARK Flexibility Score: inf
ROOT
ATOM      1  C   UNL A   1      36.584  21.258  24.839  1.00  0.00     0.117 C 
ENDROOT
BRANCH   1   2
ATOM      2  N   UNL A   1      35.583  21.178  25.895  1.00  0.00    -0.356 N 
ATOM      3  C   UNL A   1      34.265  20.835  25.843  1.00  0.00     0.220 C 
ATOM      4  O   UNL A   1      33.588  20.925  26.869  1.00  0.00    -0.275 OA
ATOM      5  H   UNL A   1      35.912  21.408  26.793  1.00  0.00     0.163 HD
BRANCH   3   6
ATOM      6  C   UNL A   1      33.642  20.337  24.556  1.00  0.00     0.102 C 
BRANCH   6   7
ATOM      7  C   UNL A   1      32.178  20.739  24.372  1.00  0.00     0.031 C 
BRANCH   7   8
ATOM      8  C   UNL A   1      31.875  22.233  24.341  1.00  0.00     0.116 C 
BRANCH   8   9
ATOM      9  N   UNL A   1      31.400  22.787  25.586  1.00  0.00    -0.352 N 
ATOM     10  C   UNL A   1      31.434  24.064  26.089  1.00  0.00     0.255 C 
ATOM     11  O   UNL A   1      30.867  24.211  27.176  1.00  0.00    -0.269 OA
ATOM     12  H   UNL A   1      30.975  22.130  26.183  1.00  0.00     0.163 HD
BRANCH  10  13
ATOM     13  C   UNL A   1      32.147  25.177  25.459  1.00  0.00     0.084 A 
ATOM     14  C   UNL A   1      34.797  24.740  25.413  1.00  0.00     0.088 C 
ATOM     15  C   UNL A   1      33.504  25.442  25.246  1.00  0.00     0.114 A 
ATOM     16  O   UNL A   1      33.672  26.677  24.682  1.00  0.00    -0.465 OA
ATOM     17  C   UNL A   1      32.449  27.166  24.434  1.00  0.00     0.108 A 
ATOM     18  C   UNL A   1      31.474  26.278  24.808  1.00  0.00     0.007 A 
ATOM     19  C   UNL A   1      32.298  28.485  23.789  1.00  0.00     0.076 C 
ATOM     20  C   UNL A   1      30.030  26.565  24.561  1.00  0.00     0.040 C 
ATOM     21  C   UNL A   1      30.827  28.923  23.907  1.00  0.00     0.008 C 
ATOM     22  C   UNL A   1      29.856  27.765  23.596  1.00  0.00     0.005 C 
ENDBRANCH  10  13
ENDBRANCH   8   9
ENDBRANCH   7   8
ENDBRANCH   6   7
ENDBRANCH   3   6
ENDBRANCH   1   2
BRANCH   1  23
ATOM     23  C   UNL A   1      37.625  20.139  24.949  1.00  0.00     0.042 C 
BRANCH  23  24
ATOM     24  C   UNL A   1      38.907  20.570  25.622  1.00  0.00     0.118 C 
BRANCH  24  25
ATOM     25  N   UNL A   1      39.873  19.480  25.777  1.00  0.00    -0.352 N 
ATOM     26  C   UNL A   1      41.250  19.588  25.966  1.00  0.00     0.251 C 
ATOM     27  H   UNL A   1      39.509  18.566  25.745  1.00  0.00     0.163 HD
ATOM     28  O   UNL A   1      41.992  18.665  25.691  1.00  0.00    -0.269 OA
BRANCH  26  29
ATOM     29  C   UNL A   1      41.769  20.865  26.501  1.00  0.00     0.039 A 
ATOM     30  C   UNL A   1      42.226  21.910  25.695  1.00  0.00     0.014 A 
ATOM     31  C   UNL A   1      41.699  21.020  27.877  1.00  0.00     0.014 A 
ATOM     32  C   UNL A   1      42.535  23.126  26.307  1.00  0.00     0.010 A 
ATOM     33  C   UNL A   1      41.680  22.274  28.405  1.00  0.00     0.010 A 
ATOM     34  C   UNL A   1      42.240  23.300  27.670  1.00  0.00    -0.014 A 
BRANCH  34  35
ATOM     35  C   UNL A   1      42.410  24.560  28.379  1.00  0.00     0.031 A 
ATOM     36  C   UNL A   1      41.250  25.468  28.261  1.00  0.00     0.074 A 
ATOM     37  C   UNL A   1      43.414  24.784  29.261  1.00  0.00     0.049 A 
ATOM     38  N   UNL A   1      41.156  26.505  27.501  1.00  0.00    -0.248 NA
ATOM     39  C   UNL A   1      39.977  25.072  28.883  1.00  0.00     0.031 C 
ATOM     40  C   UNL A   1      44.463  23.861  29.719  1.00  0.00     0.029 A 
ATOM     41  N   UNL A   1      43.649  25.883  30.025  1.00  0.00    -0.354 N 
ATOM     42  C   UNL A   1      39.914  27.059  27.775  1.00  0.00     0.074 A 
ATOM     43  C   UNL A   1      39.157  26.011  28.404  1.00  0.00     0.031 C 
ATOM     44  C   UNL A   1      45.063  24.357  30.826  1.00  0.00     0.029 A 
ATOM     45  C   UNL A   1      44.572  25.703  31.055  1.00  0.00     0.049 A 
ATOM     46  H   UNL A   1      43.200  26.744  29.862  1.00  0.00     0.167 HD
ATOM     47  C   UNL A   1      39.731  28.407  27.714  1.00  0.00     0.034 A 
ATOM     48  C   UNL A   1      44.907  26.598  32.028  1.00  0.00     0.034 A 
ATOM     49  C   UNL A   1      40.861  29.043  27.060  1.00  0.00     0.049 A 
ATOM     50  C   UNL A   1      44.553  27.937  31.492  1.00  0.00     0.074 A 
ATOM     51  C   UNL A   1      41.463  28.902  25.823  1.00  0.00     0.029 A 
ATOM     52  N   UNL A   1      41.804  29.659  27.857  1.00  0.00    -0.354 N 
ATOM     53  N   UNL A   1      45.139  28.461  30.448  1.00  0.00    -0.248 NA
ATOM     54  C   UNL A   1      43.218  28.449  31.768  1.00  0.00     0.031 C 
ATOM     55  C   UNL A   1      42.864  28.947  26.092  1.00  0.00     0.029 A 
ATOM     56  C   UNL A   1      43.044  29.227  27.449  1.00  0.00     0.049 A 
ATOM     57  H   UNL A   1      41.622  30.294  28.587  1.00  0.00     0.167 HD
ATOM     58  C   UNL A   1      44.111  29.004  29.692  1.00  0.00     0.074 A 
ATOM     59  C   UNL A   1      42.963  29.053  30.601  1.00  0.00     0.031 C 
ATOM     60  C   UNL A   1      44.194  29.085  28.330  1.00  0.00     0.034 A 
BRANCH  47  61
ATOM     61  C   UNL A   1      38.759  29.197  28.565  1.00  0.00     0.023 A 
ATOM     62  C   UNL A   1      39.020  29.236  29.947  1.00  0.00     0.031 A 
ATOM     63  C   UNL A   1      37.486  29.665  28.170  1.00  0.00     0.131 A 
ATOM     64  C   UNL A   1      38.017  29.594  30.864  1.00  0.00     0.055 A 
ATOM     65  C   UNL A   1      36.514  30.086  29.082  1.00  0.00     0.041 A 
ATOM     66  F   UNL A   1      37.067  29.663  26.901  1.00  0.00    -0.206 F 
ATOM     67  C   UNL A   1      36.762  30.018  30.441  1.00  0.00     0.022 A 
BRANCH  64  68
ATOM     68  S   UNL A   1      38.332  29.312  32.623  1.00  0.00     0.124 S 
ATOM     69  O   UNL A   1      39.702  28.811  32.597  1.00  0.00    -0.237 OA
ATOM     70  O   UNL A   1      38.145  30.649  33.178  1.00  0.00    -0.237 OA
ATOM     71  O   UNL A   1      37.314  28.333  32.996  1.00  0.00    -0.744 OA
ENDBRANCH  64  68
ENDBRANCH  47  61
BRANCH  48  72
ATOM     72  C   UNL A   1      45.187  26.324  33.470  1.00  0.00     0.023 A 
ATOM     73  C   UNL A   1      44.185  26.292  34.469  1.00  0.00     0.031 A 
ATOM     74  C   UNL A   1      46.458  25.829  33.843  1.00  0.00     0.131 A 
ATOM     75  C   UNL A   1      44.475  25.781  35.761  1.00  0.00     0.055 A 
ATOM     76  C   UNL A   1      46.736  25.323  35.115  1.00  0.00     0.041 A 
ATOM     77  F   UNL A   1      47.457  25.740  32.950  1.00  0.00    -0.206 F 
ATOM     78  C   UNL A   1      45.742  25.287  36.078  1.00  0.00     0.022 A 
BRANCH  75  79
ATOM     79  S   UNL A   1      43.176  25.664  37.042  1.00  0.00     0.124 S 
ATOM     80  O   UNL A   1      42.189  24.797  36.408  1.00  0.00    -0.237 OA
ATOM     81  O   UNL A   1      43.901  25.102  38.176  1.00  0.00    -0.237 OA
ATOM     82  O   UNL A   1      42.746  27.051  37.222  1.00  0.00    -0.744 OA
ENDBRANCH  75  79
ENDBRANCH  48  72
BRANCH  60  83
ATOM     83  C   UNL A   1      45.537  28.822  27.667  1.00  0.00     0.023 A 
ATOM     84  C   UNL A   1      45.947  27.590  27.103  1.00  0.00     0.031 A 
ATOM     85  C   UNL A   1      46.391  29.927  27.494  1.00  0.00     0.131 A 
ATOM     86  C   UNL A   1      47.173  27.501  26.409  1.00  0.00     0.055 A 
ATOM     87  C   UNL A   1      47.589  29.841  26.787  1.00  0.00     0.041 A 
ATOM     88  F   UNL A   1      46.052  31.131  27.984  1.00  0.00    -0.206 F 
ATOM     89  C   UNL A   1      47.988  28.625  26.245  1.00  0.00     0.022 A 
BRANCH  86  90
ATOM     90  S   UNL A   1      47.749  25.913  25.719  1.00  0.00     0.124 S 
ATOM     91  O   UNL A   1      47.088  24.917  26.553  1.00  0.00    -0.237 OA
ATOM     92  O   UNL A   1      47.298  25.986  24.332  1.00  0.00    -0.237 OA
ATOM     93  O   UNL A   1      49.203  25.977  25.886  1.00  0.00    -0.744 OA
ENDBRANCH  86  90
ENDBRANCH  60  83
ENDBRANCH  34  35
ENDBRANCH  26  29
ENDBRANCH  24  25
ENDBRANCH  23  24
ENDBRANCH   1  23
TORSDOF 17
ENDMDL
MODEL 3
REMARK VINA RESULT:     -12.0      1.641      2.248
REMARK SMILES Cc1oc2c(c1C(=O)NCCCC(=O)NCCCNC(=O)c1ccc(-c3c4nc(c(-c5cc(S(=O)(=O)[O-])ccc5F)c5ccc([nH]5)c(-c5cc(S(=O)(=O)[O-])ccc5F)c5nc(c(-c6cc(S(=O)(=O)[O-])ccc6F)c6ccc3[nH]6)C=C5)C=C4)cc1)CCCC2
REMARK SMILES IDX 16 1 15 2 13 3 14 4 12 6 11 7 10 8 9 9 7 10 8 11 6 13 1 14
REMARK SMILES IDX 2 15 3 16 4 17 5 18 88 19 85 20 87 21 86 22 17 23 18 24
REMARK SMILES IDX 19 25 20 26 21 28 22 29 23 30 84 31 24 32 83 33 25 34 26 35
REMARK SMILES IDX 27 36 77 37 28 38 82 39 76 40 78 41 29 42 81 43 75 44 74 45
REMARK SMILES IDX 30 47 62 48 42 49 61 50 43 51 46 52 60 53 79 54 44 55 45 56
REMARK SMILES IDX 59 58 80 59 47 60 31 61 32 62 40 63 33 64 39 65 41 66 38 67
REMARK SMILES IDX 34 68 35 69 36 70 37 71 63 72 64 73 72 74 65 75 71 76 73 77
REMARK SMILES IDX 70 78 66 79 67 80 68 81 69 82 48 83 49 84 57 85 50 86 56 87
REMARK SMILES IDX 58 88 55 89 51 90 52 91 53 92 54 93
REMARK H PARENT 15 5 9 12 19 27 78 46 46 57
REMARK Flexibility Score: inf
ROOT
ATOM      1  C   UNL A   1      33.546  27.955  26.624  1.00  0.00     0.117 C 
ENDROOT
BRANCH   1   2
ATOM      2  N   UNL A   1      33.669  27.634  25.208  1.00  0.00    -0.356 N 
ATOM      3  C   UNL A   1      33.150  26.603  24.484  1.00  0.00     0.220 C 
ATOM      4  O   UNL A   1      33.467  26.490  23.299  1.00  0.00    -0.275 OA
ATOM      5  H   UNL A   1      34.216  28.266  24.688  1.00  0.00     0.163 HD
BRANCH   3   6
ATOM      6  C   UNL A   1      32.188  25.618  25.116  1.00  0.00     0.102 C 
BRANCH   6   7
ATOM      7  C   UNL A   1      31.688  24.531  24.163  1.00  0.00     0.031 C 
BRANCH   7   8
ATOM      8  C   UNL A   1      31.270  23.206  24.792  1.00  0.00     0.116 C 
BRANCH   8   9
ATOM      9  N   UNL A   1      31.620  23.053  26.184  1.00  0.00    -0.352 N 
ATOM     10  C   UNL A   1      32.694  22.454  26.794  1.00  0.00     0.255 C 
ATOM     11  O   UNL A   1      32.722  22.563  28.024  1.00  0.00    -0.269 OA
ATOM     12  H   UNL A   1      30.970  23.448  26.809  1.00  0.00     0.163 HD
BRANCH  10  13
ATOM     13  C   UNL A   1      33.708  21.669  26.088  1.00  0.00     0.084 A 
ATOM     14  C   UNL A   1      32.668  19.402  25.090  1.00  0.00     0.088 C 
ATOM     15  C   UNL A   1      33.678  20.421  25.456  1.00  0.00     0.114 A 
ATOM     16  O   UNL A   1      34.925  20.075  25.011  1.00  0.00    -0.465 OA
ATOM     17  C   UNL A   1      35.731  21.117  25.253  1.00  0.00     0.108 A 
ATOM     18  C   UNL A   1      35.046  22.152  25.835  1.00  0.00     0.007 A 
ATOM     19  C   UNL A   1      37.151  21.061  24.851  1.00  0.00     0.076 C 
ATOM     20  C   UNL A   1      35.714  23.454  26.130  1.00  0.00     0.040 C 
ATOM     21  C   UNL A   1      37.895  22.235  25.514  1.00  0.00     0.008 C 
ATOM     22  C   UNL A   1      37.090  23.548  25.425  1.00  0.00     0.005 C 
ENDBRANCH  10  13
ENDBRANCH   8   9
ENDBRANCH   7   8
ENDBRANCH   6   7
ENDBRANCH   3   6
ENDBRANCH   1   2
BRANCH   1  23
ATOM     23  C   UNL A   1      34.026  29.377  26.933  1.00  0.00     0.042 C 
BRANCH  23  24
ATOM     24  C   UNL A   1      35.459  29.442  27.409  1.00  0.00     0.118 C 
BRANCH  24  25
ATOM     25  N   UNL A   1      35.583  29.827  28.817  1.00  0.00    -0.352 N 
ATOM     26  C   UNL A   1      36.577  29.443  29.715  1.00  0.00     0.251 C 
ATOM     27  H   UNL A   1      34.886  30.426  29.169  1.00  0.00     0.163 HD
ATOM     28  O   UNL A   1      36.384  29.484  30.915  1.00  0.00    -0.269 OA
BRANCH  26  29
ATOM     29  C   UNL A   1      37.864  28.978  29.155  1.00  0.00     0.039 A 
ATOM     30  C   UNL A   1      38.471  29.553  28.036  1.00  0.00     0.014 A 
ATOM     31  C   UNL A   1      38.506  27.972  29.861  1.00  0.00     0.014 A 
ATOM     32  C   UNL A   1      39.762  29.137  27.703  1.00  0.00     0.010 A 
ATOM     33  C   UNL A   1      39.851  27.823  29.733  1.00  0.00     0.010 A 
ATOM     34  C   UNL A   1      40.451  28.278  28.576  1.00  0.00    -0.014 A 
BRANCH  34  35
ATOM     35  C   UNL A   1      41.838  27.877  28.387  1.00  0.00     0.031 A 
ATOM     36  C   UNL A   1      41.992  26.622  27.622  1.00  0.00     0.074 A 
ATOM     37  C   UNL A   1      42.887  28.689  28.661  1.00  0.00     0.049 A 
ATOM     38  N   UNL A   1      42.262  25.456  28.100  1.00  0.00    -0.248 NA
ATOM     39  C   UNL A   1      41.596  26.605  26.205  1.00  0.00     0.031 C 
ATOM     40  C   UNL A   1      42.879  30.082  29.130  1.00  0.00     0.029 A 
ATOM     41  N   UNL A   1      44.214  28.459  28.475  1.00  0.00    -0.354 N 
ATOM     42  C   UNL A   1      42.360  24.614  27.001  1.00  0.00     0.074 A 
ATOM     43  C   UNL A   1      41.689  25.301  25.931  1.00  0.00     0.031 C 
ATOM     44  C   UNL A   1      44.106  30.630  28.971  1.00  0.00     0.029 A 
ATOM     45  C   UNL A   1      45.029  29.588  28.560  1.00  0.00     0.049 A 
ATOM     46  H   UNL A   1      44.574  27.560  28.295  1.00  0.00     0.167 HD
ATOM     47  C   UNL A   1      43.230  23.566  27.010  1.00  0.00     0.034 A 
ATOM     48  C   UNL A   1      46.367  29.660  28.309  1.00  0.00     0.034 A 
ATOM     49  C   UNL A   1      43.727  23.330  28.354  1.00  0.00     0.049 A 
ATOM     50  C   UNL A   1      46.889  28.279  28.471  1.00  0.00     0.074 A 
ATOM     51  C   UNL A   1      43.127  23.058  29.569  1.00  0.00     0.029 A 
ATOM     52  N   UNL A   1      44.988  23.798  28.665  1.00  0.00    -0.354 N 
ATOM     53  N   UNL A   1      46.877  27.646  29.614  1.00  0.00    -0.248 NA
ATOM     54  C   UNL A   1      46.923  27.422  27.294  1.00  0.00     0.031 C 
ATOM     55  C   UNL A   1      43.838  23.858  30.514  1.00  0.00     0.029 A 
ATOM     56  C   UNL A   1      44.900  24.482  29.854  1.00  0.00     0.049 A 
ATOM     57  H   UNL A   1      45.804  23.665  28.131  1.00  0.00     0.167 HD
ATOM     58  C   UNL A   1      46.445  26.363  29.310  1.00  0.00     0.074 A 
ATOM     59  C   UNL A   1      46.583  26.256  27.855  1.00  0.00     0.031 C 
ATOM     60  C   UNL A   1      45.739  25.616  30.212  1.00  0.00     0.034 A 
BRANCH  47  61
ATOM     61  C   UNL A   1      43.935  23.004  25.793  1.00  0.00     0.023 A 
ATOM     62  C   UNL A   1      43.734  21.637  25.525  1.00  0.00     0.031 A 
ATOM     63  C   UNL A   1      44.974  23.623  25.063  1.00  0.00     0.131 A 
ATOM     64  C   UNL A   1      44.608  20.927  24.684  1.00  0.00     0.055 A 
ATOM     65  C   UNL A   1      45.798  22.927  24.174  1.00  0.00     0.041 A 
ATOM     66  F   UNL A   1      45.317  24.905  25.223  1.00  0.00    -0.206 F 
ATOM     67  C   UNL A   1      45.642  21.564  24.007  1.00  0.00     0.022 A 
BRANCH  64  68
ATOM     68  S   UNL A   1      44.474  19.124  24.645  1.00  0.00     0.124 S 
ATOM     69  O   UNL A   1      45.443  18.737  25.665  1.00  0.00    -0.237 OA
ATOM     70  O   UNL A   1      43.068  18.921  24.982  1.00  0.00    -0.237 OA
ATOM     71  O   UNL A   1      44.842  18.788  23.272  1.00  0.00    -0.744 OA
ENDBRANCH  64  68
ENDBRANCH  47  61
BRANCH  48  72
ATOM     72  C   UNL A   1      47.115  30.760  27.628  1.00  0.00     0.023 A 
ATOM     73  C   UNL A   1      46.486  31.847  26.975  1.00  0.00     0.031 A 
ATOM     74  C   UNL A   1      48.508  30.879  27.839  1.00  0.00     0.131 A 
ATOM     75  C   UNL A   1      47.242  32.979  26.574  1.00  0.00     0.055 A 
ATOM     76  C   UNL A   1      49.246  31.998  27.445  1.00  0.00     0.041 A 
ATOM     77  F   UNL A   1      49.189  29.942  28.518  1.00  0.00    -0.206 F 
ATOM     78  C   UNL A   1      48.615  33.059  26.820  1.00  0.00     0.022 A 
BRANCH  75  79
ATOM     79  S   UNL A   1      46.437  34.424  25.796  1.00  0.00     0.124 S 
ATOM     80  O   UNL A   1      45.941  35.164  26.951  1.00  0.00    -0.237 OA
ATOM     81  O   UNL A   1      47.533  35.036  25.055  1.00  0.00    -0.237 OA
ATOM     82  O   UNL A   1      45.395  33.827  24.959  1.00  0.00    -0.744 OA
ENDBRANCH  75  79
ENDBRANCH  48  72
BRANCH  60  83
ATOM     83  C   UNL A   1      45.662  26.099  31.652  1.00  0.00     0.023 A 
ATOM     84  C   UNL A   1      44.553  26.754  32.240  1.00  0.00     0.031 A 
ATOM     85  C   UNL A   1      46.733  25.757  32.498  1.00  0.00     0.131 A 
ATOM     86  C   UNL A   1      44.555  27.048  33.621  1.00  0.00     0.055 A 
ATOM     87  C   UNL A   1      46.720  26.027  33.865  1.00  0.00     0.041 A 
ATOM     88  F   UNL A   1      47.806  25.113  32.010  1.00  0.00    -0.206 F 
ATOM     89  C   UNL A   1      45.632  26.679  34.433  1.00  0.00     0.022 A 
BRANCH  86  90
ATOM     90  S   UNL A   1      43.162  27.939  34.393  1.00  0.00     0.124 S 
ATOM     91  O   UNL A   1      42.035  27.635  33.520  1.00  0.00    -0.237 OA
ATOM     92  O   UNL A   1      43.111  27.353  35.730  1.00  0.00    -0.237 OA
ATOM     93  O   UNL A   1      43.594  29.338  34.363  1.00  0.00    -0.744 OA
ENDBRANCH  86  90
ENDBRANCH  60  83
ENDBRANCH  34  35
ENDBRANCH  26  29
ENDBRANCH  24  25
ENDBRANCH  23  24
ENDBRANCH   1  23
TORSDOF 17
ENDMDL
