MODEL 1
REMARK VINA RESULT:     -11.4      0.000      0.000
REMARK SMILES O=C(NCCCNC(=O)[C@H](CO)NC(=O)[C@H](CS)NC(=O)[C@H](Cc1c[nH]c2ccccc12)NC(=O)c1ccc(F)cc1)c1ccc(-c2c3nc(c(-c4cc(S(=O)(=O)[O-])ccc4F)c4ccc([nH]4)c(-c4cc(S(=O)(=O)[O-])ccc4F)c4nc(c(-c5cc(S(=O)(=O)[O-])ccc5F)c5ccc2[nH]5)C=C4)C=C3)cc1
REMARK SMILES IDX 7 1 8 2 9 3 6 5 5 6 4 7 3 8 1 9 2 10 43 12 44 13 105 14
REMARK SMILES IDX 45 15 104 16 46 17 47 18 48 19 98 20 49 21 103 22 97 23
REMARK SMILES IDX 99 24 50 25 102 26 96 27 95 28 51 30 83 31 63 32 82 33 64 34
REMARK SMILES IDX 67 35 81 36 100 37 65 38 66 39 80 41 101 42 68 43 52 44
REMARK SMILES IDX 53 45 61 46 54 47 60 48 62 49 59 50 55 51 56 52 57 53 58 54
REMARK SMILES IDX 84 55 85 56 93 57 86 58 92 59 94 60 91 61 87 62 88 63 89 64
REMARK SMILES IDX 90 65 69 66 70 67 78 68 71 69 77 70 79 71 76 72 72 73 73 74
REMARK SMILES IDX 74 75 75 76 10 77 13 78 14 79 15 81 16 82 19 83 20 84 21 86
REMARK SMILES IDX 22 87 33 88 34 89 35 91 36 92 37 93 42 94 38 95 41 96 39 97
REMARK SMILES IDX 40 98 23 99 24 100 25 101 32 102 26 103 27 104 31 105 28 107
REMARK SMILES IDX 30 108 29 109 17 110 18 111 11 113 12 114
REMARK H PARENT 7 4 3 11 99 29 67 40 13 80 19 85 33 90 26 106 18 112 12 115
REMARK Flexibility Score: inf
ROOT
ATOM      1  N   UNL A   1      37.474  23.028  25.156  1.00  0.00    -0.354 N 
ATOM      2  C   UNL A   1      36.813  24.089  25.671  1.00  0.00     0.244 C 
ATOM      3  O   UNL A   1      37.437  24.769  26.486  1.00  0.00    -0.273 OA
ATOM      4  H   UNL A   1      38.418  22.968  25.433  1.00  0.00     0.163 HD
ENDROOT
BRANCH   1   5
ATOM      5  C   UNL A   1      37.048  21.967  24.274  1.00  0.00     0.117 C 
BRANCH   5   6
ATOM      6  C   UNL A   1      37.693  20.649  24.660  1.00  0.00     0.042 C 
BRANCH   6   7
ATOM      7  C   UNL A   1      38.493  20.740  25.955  1.00  0.00     0.118 C 
BRANCH   7   8
ATOM      8  N   UNL A   1      39.511  19.699  26.045  1.00  0.00    -0.352 N 
ATOM      9  O   UNL A   1      41.603  18.865  25.931  1.00  0.00    -0.269 OA
ATOM     10  C   UNL A   1      40.873  19.833  26.134  1.00  0.00     0.251 C 
ATOM     11  H   UNL A   1      39.173  18.775  26.040  1.00  0.00     0.163 HD
BRANCH  10  12
ATOM     12  C   UNL A   1      41.439  21.150  26.470  1.00  0.00     0.039 A 
ATOM     13  C   UNL A   1      41.688  22.072  25.452  1.00  0.00     0.014 A 
ATOM     14  C   UNL A   1      41.713  21.469  27.802  1.00  0.00     0.014 A 
ATOM     15  C   UNL A   1      42.335  23.261  25.744  1.00  0.00     0.010 A 
ATOM     16  C   UNL A   1      42.263  22.715  28.108  1.00  0.00     0.010 A 
ATOM     17  C   UNL A   1      42.579  23.615  27.078  1.00  0.00    -0.014 A 
BRANCH  17  18
ATOM     18  C   UNL A   1      43.016  24.996  27.375  1.00  0.00     0.031 A 
ATOM     19  C   UNL A   1      44.369  25.496  26.977  1.00  0.00     0.074 A 
ATOM     20  C   UNL A   1      42.135  25.804  27.995  1.00  0.00     0.049 A 
ATOM     21  N   UNL A   1      44.905  26.669  27.195  1.00  0.00    -0.248 NA
ATOM     22  C   UNL A   1      45.235  24.562  26.246  1.00  0.00     0.031 C 
ATOM     23  C   UNL A   1      40.778  25.414  28.397  1.00  0.00     0.029 A 
ATOM     24  N   UNL A   1      42.224  27.118  28.365  1.00  0.00    -0.354 N 
ATOM     25  C   UNL A   1      46.173  26.619  26.632  1.00  0.00     0.074 A 
ATOM     26  C   UNL A   1      46.338  25.283  26.093  1.00  0.00     0.031 C 
ATOM     27  C   UNL A   1      40.140  26.484  28.885  1.00  0.00     0.029 A 
ATOM     28  C   UNL A   1      41.067  27.606  28.921  1.00  0.00     0.049 A 
ATOM     29  H   UNL A   1      43.037  27.660  28.245  1.00  0.00     0.167 HD
ATOM     30  C   UNL A   1      47.104  27.604  26.573  1.00  0.00     0.034 A 
ATOM     31  C   UNL A   1      40.784  28.818  29.431  1.00  0.00     0.034 A 
ATOM     32  C   UNL A   1      46.916  28.919  27.140  1.00  0.00     0.049 A 
ATOM     33  C   UNL A   1      41.858  29.860  29.431  1.00  0.00     0.074 A 
ATOM     34  C   UNL A   1      47.802  29.982  27.170  1.00  0.00     0.029 A 
ATOM     35  N   UNL A   1      45.761  29.354  27.782  1.00  0.00    -0.354 N 
ATOM     36  N   UNL A   1      43.083  29.778  28.968  1.00  0.00    -0.248 NA
ATOM     37  C   UNL A   1      41.518  31.153  30.033  1.00  0.00     0.031 C 
ATOM     38  C   UNL A   1      47.209  31.033  27.879  1.00  0.00     0.029 A 
ATOM     39  C   UNL A   1      45.919  30.659  28.226  1.00  0.00     0.049 A 
ATOM     40  H   UNL A   1      44.947  28.813  27.903  1.00  0.00     0.167 HD
ATOM     41  C   UNL A   1      43.659  31.019  29.200  1.00  0.00     0.074 A 
ATOM     42  C   UNL A   1      42.644  31.830  29.848  1.00  0.00     0.031 C 
ATOM     43  C   UNL A   1      44.909  31.449  28.893  1.00  0.00     0.034 A 
BRANCH  30  44
ATOM     44  C   UNL A   1      48.422  27.270  25.916  1.00  0.00     0.023 A 
ATOM     45  C   UNL A   1      48.653  27.523  24.552  1.00  0.00     0.031 A 
ATOM     46  C   UNL A   1      49.458  26.675  26.660  1.00  0.00     0.131 A 
ATOM     47  C   UNL A   1      49.864  27.126  23.962  1.00  0.00     0.055 A 
ATOM     48  C   UNL A   1      50.687  26.349  26.082  1.00  0.00     0.041 A 
ATOM     49  F   UNL A   1      49.287  26.389  27.960  1.00  0.00    -0.206 F 
ATOM     50  C   UNL A   1      50.891  26.563  24.723  1.00  0.00     0.022 A 
BRANCH  47  51
ATOM     51  S   UNL A   1      50.029  27.240  22.159  1.00  0.00     0.124 S 
ATOM     52  O   UNL A   1      51.389  26.744  21.957  1.00  0.00    -0.237 OA
ATOM     53  O   UNL A   1      48.956  26.373  21.689  1.00  0.00    -0.237 OA
ATOM     54  O   UNL A   1      49.846  28.664  21.887  1.00  0.00    -0.744 OA
ENDBRANCH  47  51
ENDBRANCH  30  44
BRANCH  31  55
ATOM     55  C   UNL A   1      39.427  29.072  29.976  1.00  0.00     0.023 A 
ATOM     56  C   UNL A   1      38.436  29.662  29.180  1.00  0.00     0.031 A 
ATOM     57  C   UNL A   1      39.078  28.641  31.269  1.00  0.00     0.131 A 
ATOM     58  C   UNL A   1      37.135  29.803  29.684  1.00  0.00     0.055 A 
ATOM     59  C   UNL A   1      37.775  28.752  31.753  1.00  0.00     0.041 A 
ATOM     60  F   UNL A   1      39.991  28.047  32.055  1.00  0.00    -0.206 F 
ATOM     61  C   UNL A   1      36.795  29.337  30.958  1.00  0.00     0.022 A 
BRANCH  58  62
ATOM     62  S   UNL A   1      35.878  30.590  28.641  1.00  0.00     0.124 S 
ATOM     63  O   UNL A   1      35.163  29.433  28.115  1.00  0.00    -0.237 OA
ATOM     64  O   UNL A   1      35.150  31.412  29.603  1.00  0.00    -0.237 OA
ATOM     65  O   UNL A   1      36.667  31.336  27.664  1.00  0.00    -0.744 OA
ENDBRANCH  58  62
ENDBRANCH  31  55
BRANCH  43  66
ATOM     66  C   UNL A   1      45.230  32.884  29.217  1.00  0.00     0.023 A 
ATOM     67  C   UNL A   1      45.074  33.911  28.271  1.00  0.00     0.031 A 
ATOM     68  C   UNL A   1      45.704  33.223  30.496  1.00  0.00     0.131 A 
ATOM     69  C   UNL A   1      45.433  35.225  28.605  1.00  0.00     0.055 A 
ATOM     70  C   UNL A   1      46.008  34.540  30.840  1.00  0.00     0.041 A 
ATOM     71  F   UNL A   1      45.876  32.278  31.434  1.00  0.00    -0.206 F 
ATOM     72  C   UNL A   1      45.883  35.548  29.889  1.00  0.00     0.022 A 
BRANCH  69  73
ATOM     73  S   UNL A   1      45.373  36.500  27.317  1.00  0.00     0.124 S 
ATOM     74  O   UNL A   1      45.506  35.706  26.100  1.00  0.00    -0.237 OA
ATOM     75  O   UNL A   1      44.067  37.111  27.541  1.00  0.00    -0.237 OA
ATOM     76  O   UNL A   1      46.516  37.356  27.628  1.00  0.00    -0.744 OA
ENDBRANCH  69  73
ENDBRANCH  43  66
ENDBRANCH  17  18
ENDBRANCH  10  12
ENDBRANCH   7   8
ENDBRANCH   6   7
ENDBRANCH   5   6
ENDBRANCH   1   5
BRANCH   2  77
ATOM     77  C   UNL A   1      35.311  24.300  25.453  1.00  0.00     0.197 C 
BRANCH  77  78
ATOM     78  N   UNL A   1      34.836  24.203  24.062  1.00  0.00    -0.340 N 
ATOM     79  C   UNL A   1      34.086  25.092  23.328  1.00  0.00     0.244 C 
ATOM     80  H   UNL A   1      35.093  23.381  23.586  1.00  0.00     0.164 HD
ATOM     81  O   UNL A   1      33.863  24.831  22.146  1.00  0.00    -0.273 OA
BRANCH  79  82
ATOM     82  C   UNL A   1      33.501  26.352  23.998  1.00  0.00     0.181 C 
BRANCH  82  83
ATOM     83  N   UNL A   1      33.161  26.172  25.418  1.00  0.00    -0.342 N 
ATOM     84  C   UNL A   1      31.942  26.281  26.045  1.00  0.00     0.243 C 
ATOM     85  H   UNL A   1      33.916  25.941  26.005  1.00  0.00     0.164 HD
ATOM     86  O   UNL A   1      31.912  26.294  27.276  1.00  0.00    -0.273 OA
BRANCH  84  87
ATOM     87  C   UNL A   1      30.661  26.463  25.190  1.00  0.00     0.176 C 
BRANCH  87  88
ATOM     88  N   UNL A   1      31.080  26.691  23.799  1.00  0.00    -0.340 N 
ATOM     89  C   UNL A   1      30.527  27.355  22.738  1.00  0.00     0.251 C 
ATOM     90  H   UNL A   1      31.946  26.275  23.585  1.00  0.00     0.164 HD
ATOM     91  O   UNL A   1      30.969  27.059  21.625  1.00  0.00    -0.269 OA
BRANCH  89  92
ATOM     92  C   UNL A   1      29.505  28.445  22.840  1.00  0.00     0.040 A 
ATOM     93  C   UNL A   1      28.124  28.244  22.970  1.00  0.00     0.017 A 
ATOM     94  C   UNL A   1      29.989  29.755  23.006  1.00  0.00     0.017 A 
ATOM     95  C   UNL A   1      27.258  29.294  23.286  1.00  0.00     0.040 A 
ATOM     96  C   UNL A   1      29.128  30.809  23.333  1.00  0.00     0.040 A 
ATOM     97  C   UNL A   1      27.771  30.565  23.481  1.00  0.00     0.123 A 
ATOM     98  F   UNL A   1      26.948  31.557  23.845  1.00  0.00    -0.207 F 
ENDBRANCH  89  92
ENDBRANCH  87  88
BRANCH  87  99
ATOM     99  C   UNL A   1      29.709  25.247  25.283  1.00  0.00     0.072 C 
BRANCH  99 100
ATOM    100  C   UNL A   1      30.427  23.960  25.616  1.00  0.00    -0.020 A 
ATOM    101  C   UNL A   1      30.608  23.428  26.881  1.00  0.00     0.087 A 
ATOM    102  C   UNL A   1      31.066  23.050  24.705  1.00  0.00     0.003 A 
ATOM    103  N   UNL A   1      31.149  22.178  26.753  1.00  0.00    -0.361 N 
ATOM    104  C   UNL A   1      31.487  21.942  25.444  1.00  0.00     0.046 A 
ATOM    105  C   UNL A   1      31.321  23.055  23.318  1.00  0.00     0.010 A 
ATOM    106  H   UNL A   1      31.276  21.541  27.493  1.00  0.00     0.166 HD
ATOM    107  C   UNL A   1      32.124  20.835  24.872  1.00  0.00     0.026 A 
ATOM    108  C   UNL A   1      31.992  21.971  22.733  1.00  0.00     0.001 A 
ATOM    109  C   UNL A   1      32.381  20.875  23.501  1.00  0.00     0.002 A 
ENDBRANCH  99 100
ENDBRANCH  87  99
ENDBRANCH  84  87
ENDBRANCH  82  83
BRANCH  82 110
ATOM    110  C   UNL A   1      34.417  27.566  23.756  1.00  0.00     0.101 C 
BRANCH 110 111
ATOM    111  S   UNL A   1      34.012  28.582  22.298  1.00  0.00    -0.177 SA
ATOM    112  H   UNL A   1      33.942  29.890  22.661  1.00  0.00     0.102 HD
ENDBRANCH 110 111
ENDBRANCH  82 110
ENDBRANCH  79  82
ENDBRANCH  77  78
BRANCH  77 113
ATOM    113  C   UNL A   1      34.560  23.384  26.433  1.00  0.00     0.191 C 
BRANCH 113 114
ATOM    114  O   UNL A   1      35.486  22.508  27.084  1.00  0.00    -0.394 OA
ATOM    115  H   UNL A   1      36.391  22.752  26.836  1.00  0.00     0.210 HD
ENDBRANCH 113 114
ENDBRANCH  77 113
ENDBRANCH   2  77
TORSDOF 25
ENDMDL
MODEL 2
REMARK VINA RESULT:     -11.4      2.050      3.902
REMARK SMILES O=C(NCCCNC(=O)[C@H](CO)NC(=O)[C@H](CS)NC(=O)[C@H](Cc1c[nH]c2ccccc12)NC(=O)c1ccc(F)cc1)c1ccc(-c2c3nc(c(-c4cc(S(=O)(=O)[O-])ccc4F)c4ccc([nH]4)c(-c4cc(S(=O)(=O)[O-])ccc4F)c4nc(c(-c5cc(S(=O)(=O)[O-])ccc5F)c5ccc2[nH]5)C=C4)C=C3)cc1
REMARK SMILES IDX 7 1 8 2 9 3 6 5 5 6 4 7 3 8 1 9 2 10 43 12 44 13 105 14
REMARK SMILES IDX 45 15 104 16 46 17 47 18 48 19 98 20 49 21 103 22 97 23
REMARK SMILES IDX 99 24 50 25 102 26 96 27 95 28 51 30 83 31 63 32 82 33 64 34
REMARK SMILES IDX 67 35 81 36 100 37 65 38 66 39 80 41 101 42 68 43 52 44
REMARK SMILES IDX 53 45 61 46 54 47 60 48 62 49 59 50 55 51 56 52 57 53 58 54
REMARK SMILES IDX 84 55 85 56 93 57 86 58 92 59 94 60 91 61 87 62 88 63 89 64
REMARK SMILES IDX 90 65 69 66 70 67 78 68 71 69 77 70 79 71 76 72 72 73 73 74
REMARK SMILES IDX 74 75 75 76 10 77 13 78 14 79 15 81 16 82 19 83 20 84 21 86
REMARK SMILES IDX 22 87 33 88 34 89 35 91 36 92 37 93 42 94 38 95 41 96 39 97
REMARK SMILES IDX 40 98 23 99 24 100 25 101 32 102 26 103 27 104 31 105 28 107
REMARK SMILES IDX 30 108 29 109 17 110 18 111 11 113 12 114
REMARK H PARENT 7 4 3 11 99 29 67 40 13 80 19 85 33 90 26 106 18 112 12 115
REMARK Flexibility Score: inf
ROOT
ATOM      1  N   UNL A   1      36.536  22.184  25.042  1.00  0.00    -0.354 N 
ATOM      2  C   UNL A   1      35.524  23.079  25.096  1.00  0.00     0.244 C 
ATOM      3  O   UNL A   1      35.847  24.264  25.011  1.00  0.00    -0.273 OA
ATOM      4  H   UNL A   1      37.417  22.583  24.857  1.00  0.00     0.163 HD
ENDROOT
BRANCH   1   5
ATOM      5  C   UNL A   1      36.558  20.749  25.207  1.00  0.00     0.117 C 
BRANCH   5   6
ATOM      6  C   UNL A   1      37.912  20.181  24.824  1.00  0.00     0.042 C 
BRANCH   6   7
ATOM      7  C   UNL A   1      39.019  20.593  25.789  1.00  0.00     0.118 C 
BRANCH   7   8
ATOM      8  N   UNL A   1      40.020  19.545  25.954  1.00  0.00    -0.352 N 
ATOM      9  O   UNL A   1      42.105  18.685  25.946  1.00  0.00    -0.269 OA
ATOM     10  C   UNL A   1      41.380  19.667  26.087  1.00  0.00     0.251 C 
ATOM     11  H   UNL A   1      39.672  18.625  25.971  1.00  0.00     0.163 HD
BRANCH  10  12
ATOM     12  C   UNL A   1      41.949  20.990  26.395  1.00  0.00     0.039 A 
ATOM     13  C   UNL A   1      42.159  21.907  25.363  1.00  0.00     0.014 A 
ATOM     14  C   UNL A   1      42.266  21.320  27.715  1.00  0.00     0.014 A 
ATOM     15  C   UNL A   1      42.809  23.101  25.624  1.00  0.00     0.010 A 
ATOM     16  C   UNL A   1      42.819  22.571  27.994  1.00  0.00     0.010 A 
ATOM     17  C   UNL A   1      43.095  23.465  26.948  1.00  0.00    -0.014 A 
BRANCH  17  18
ATOM     18  C   UNL A   1      43.533  24.851  27.220  1.00  0.00     0.031 A 
ATOM     19  C   UNL A   1      44.914  25.320  26.884  1.00  0.00     0.074 A 
ATOM     20  C   UNL A   1      42.630  25.691  27.759  1.00  0.00     0.049 A 
ATOM     21  N   UNL A   1      45.453  26.494  27.091  1.00  0.00    -0.248 NA
ATOM     22  C   UNL A   1      45.807  24.350  26.238  1.00  0.00     0.031 C 
ATOM     23  C   UNL A   1      41.246  25.333  28.095  1.00  0.00     0.029 A 
ATOM     24  N   UNL A   1      42.716  27.017  28.086  1.00  0.00    -0.354 N 
ATOM     25  C   UNL A   1      46.750  26.408  26.604  1.00  0.00     0.074 A 
ATOM     26  C   UNL A   1      46.927  25.052  26.124  1.00  0.00     0.031 C 
ATOM     27  C   UNL A   1      40.596  26.427  28.507  1.00  0.00     0.029 A 
ATOM     28  C   UNL A   1      41.535  27.539  28.558  1.00  0.00     0.049 A 
ATOM     29  H   UNL A   1      43.542  27.545  27.995  1.00  0.00     0.167 HD
ATOM     30  C   UNL A   1      47.697  27.379  26.565  1.00  0.00     0.034 A 
ATOM     31  C   UNL A   1      41.241  28.771  29.006  1.00  0.00     0.034 A 
ATOM     32  C   UNL A   1      47.495  28.716  27.074  1.00  0.00     0.049 A 
ATOM     33  C   UNL A   1      42.327  29.800  29.032  1.00  0.00     0.074 A 
ATOM     34  C   UNL A   1      48.393  29.768  27.117  1.00  0.00     0.029 A 
ATOM     35  N   UNL A   1      46.311  29.188  27.631  1.00  0.00    -0.354 N 
ATOM     36  N   UNL A   1      43.576  29.686  28.644  1.00  0.00    -0.248 NA
ATOM     37  C   UNL A   1      41.972  31.118  29.567  1.00  0.00     0.031 C 
ATOM     38  C   UNL A   1      47.775  30.852  27.753  1.00  0.00     0.029 A 
ATOM     39  C   UNL A   1      46.462  30.506  28.037  1.00  0.00     0.049 A 
ATOM     40  H   UNL A   1      45.485  28.661  27.724  1.00  0.00     0.167 HD
ATOM     41  C   UNL A   1      44.155  30.928  28.866  1.00  0.00     0.074 A 
ATOM     42  C   UNL A   1      43.116  31.775  29.424  1.00  0.00     0.031 C 
ATOM     43  C   UNL A   1      45.426  31.331  28.617  1.00  0.00     0.034 A 
BRANCH  30  44
ATOM     44  C   UNL A   1      49.046  27.006  25.998  1.00  0.00     0.023 A 
ATOM     45  C   UNL A   1      49.464  27.451  24.731  1.00  0.00     0.031 A 
ATOM     46  C   UNL A   1      49.921  26.179  26.726  1.00  0.00     0.131 A 
ATOM     47  C   UNL A   1      50.693  27.018  24.207  1.00  0.00     0.055 A 
ATOM     48  C   UNL A   1      51.173  25.811  26.230  1.00  0.00     0.041 A 
ATOM     49  F   UNL A   1      49.567  25.705  27.931  1.00  0.00    -0.206 F 
ATOM     50  C   UNL A   1      51.560  26.221  24.957  1.00  0.00     0.022 A 
BRANCH  47  51
ATOM     51  S   UNL A   1      51.085  27.407  22.479  1.00  0.00     0.124 S 
ATOM     52  O   UNL A   1      50.047  26.664  21.768  1.00  0.00    -0.237 OA
ATOM     53  O   UNL A   1      50.967  28.859  22.449  1.00  0.00    -0.237 OA
ATOM     54  O   UNL A   1      52.441  26.887  22.310  1.00  0.00    -0.744 OA
ENDBRANCH  47  51
ENDBRANCH  30  44
BRANCH  31  55
ATOM     55  C   UNL A   1      39.859  29.062  29.463  1.00  0.00     0.023 A 
ATOM     56  C   UNL A   1      39.559  29.136  30.830  1.00  0.00     0.031 A 
ATOM     57  C   UNL A   1      38.843  29.363  28.538  1.00  0.00     0.131 A 
ATOM     58  C   UNL A   1      38.269  29.509  31.238  1.00  0.00     0.055 A 
ATOM     59  C   UNL A   1      37.572  29.766  28.948  1.00  0.00     0.041 A 
ATOM     60  F   UNL A   1      39.095  29.329  27.220  1.00  0.00    -0.206 F 
ATOM     61  C   UNL A   1      37.280  29.840  30.306  1.00  0.00     0.022 A 
BRANCH  58  62
ATOM     62  S   UNL A   1      37.903  29.576  33.012  1.00  0.00     0.124 S 
ATOM     63  O   UNL A   1      37.202  28.313  33.218  1.00  0.00    -0.237 OA
ATOM     64  O   UNL A   1      39.236  29.674  33.598  1.00  0.00    -0.237 OA
ATOM     65  O   UNL A   1      37.081  30.777  33.143  1.00  0.00    -0.744 OA
ENDBRANCH  58  62
ENDBRANCH  31  55
BRANCH  43  66
ATOM     66  C   UNL A   1      45.749  32.773  28.907  1.00  0.00     0.023 A 
ATOM     67  C   UNL A   1      45.722  33.757  27.904  1.00  0.00     0.031 A 
ATOM     68  C   UNL A   1      46.093  33.164  30.213  1.00  0.00     0.131 A 
ATOM     69  C   UNL A   1      46.077  35.077  28.215  1.00  0.00     0.055 A 
ATOM     70  C   UNL A   1      46.392  34.489  30.528  1.00  0.00     0.041 A 
ATOM     71  F   UNL A   1      46.138  32.261  31.206  1.00  0.00    -0.206 F 
ATOM     72  C   UNL A   1      46.395  35.453  29.524  1.00  0.00     0.022 A 
BRANCH  69  73
ATOM     73  S   UNL A   1      46.188  36.290  26.871  1.00  0.00     0.124 S 
ATOM     74  O   UNL A   1      47.580  36.720  26.967  1.00  0.00    -0.237 OA
ATOM     75  O   UNL A   1      45.845  35.493  25.698  1.00  0.00    -0.237 OA
ATOM     76  O   UNL A   1      45.200  37.303  27.240  1.00  0.00    -0.744 OA
ENDBRANCH  69  73
ENDBRANCH  43  66
ENDBRANCH  17  18
ENDBRANCH  10  12
ENDBRANCH   7   8
ENDBRANCH   6   7
ENDBRANCH   5   6
ENDBRANCH   1   5
BRANCH   2  77
ATOM     77  C   UNL A   1      34.096  22.676  25.481  1.00  0.00     0.197 C 
BRANCH  77  78
ATOM     78  N   UNL A   1      33.227  22.225  24.380  1.00  0.00    -0.340 N 
ATOM     79  C   UNL A   1      32.095  22.810  23.862  1.00  0.00     0.244 C 
ATOM     80  H   UNL A   1      33.496  21.382  23.951  1.00  0.00     0.164 HD
ATOM     81  O   UNL A   1      31.564  22.286  22.882  1.00  0.00    -0.273 OA
BRANCH  79  82
ATOM     82  C   UNL A   1      31.490  24.059  24.534  1.00  0.00     0.181 C 
BRANCH  82  83
ATOM     83  N   UNL A   1      30.150  24.414  24.041  1.00  0.00    -0.342 N 
ATOM     84  C   UNL A   1      29.652  25.641  23.670  1.00  0.00     0.243 C 
ATOM     85  H   UNL A   1      29.517  23.664  23.966  1.00  0.00     0.164 HD
ATOM     86  O   UNL A   1      28.440  25.753  23.482  1.00  0.00    -0.273 OA
BRANCH  84  87
ATOM     87  C   UNL A   1      30.614  26.854  23.576  1.00  0.00     0.176 C 
BRANCH  87  88
ATOM     88  N   UNL A   1      31.965  26.336  23.316  1.00  0.00    -0.340 N 
ATOM     89  C   UNL A   1      33.225  26.780  23.611  1.00  0.00     0.251 C 
ATOM     90  H   UNL A   1      31.961  25.485  22.821  1.00  0.00     0.164 HD
ATOM     91  O   UNL A   1      34.141  26.288  22.947  1.00  0.00    -0.269 OA
BRANCH  89  92
ATOM     92  C   UNL A   1      33.567  27.738  24.710  1.00  0.00     0.040 A 
ATOM     93  C   UNL A   1      33.662  29.128  24.565  1.00  0.00     0.017 A 
ATOM     94  C   UNL A   1      33.609  27.216  26.016  1.00  0.00     0.017 A 
ATOM     95  C   UNL A   1      33.760  29.974  25.673  1.00  0.00     0.040 A 
ATOM     96  C   UNL A   1      33.697  28.059  27.130  1.00  0.00     0.040 A 
ATOM     97  C   UNL A   1      33.760  29.433  26.947  1.00  0.00     0.123 A 
ATOM     98  F   UNL A   1      33.792  30.248  28.008  1.00  0.00    -0.207 F 
ENDBRANCH  89  92
ENDBRANCH  87  88
BRANCH  87  99
ATOM     99  C   UNL A   1      30.192  27.862  22.480  1.00  0.00     0.072 C 
BRANCH  99 100
ATOM    100  C   UNL A   1      29.946  29.251  23.020  1.00  0.00    -0.020 A 
ATOM    101  C   UNL A   1      30.391  29.749  24.231  1.00  0.00     0.087 A 
ATOM    102  C   UNL A   1      29.202  30.314  22.400  1.00  0.00     0.003 A 
ATOM    103  N   UNL A   1      30.114  31.088  24.279  1.00  0.00    -0.361 N 
ATOM    104  C   UNL A   1      29.344  31.449  23.202  1.00  0.00     0.046 A 
ATOM    105  C   UNL A   1      28.426  30.426  21.228  1.00  0.00     0.010 A 
ATOM    106  H   UNL A   1      30.423  31.703  24.984  1.00  0.00     0.166 HD
ATOM    107  C   UNL A   1      28.777  32.688  22.884  1.00  0.00     0.026 A 
ATOM    108  C   UNL A   1      27.818  31.650  20.914  1.00  0.00     0.001 A 
ATOM    109  C   UNL A   1      27.998  32.765  21.729  1.00  0.00     0.002 A 
ENDBRANCH  99 100
ENDBRANCH  87  99
ENDBRANCH  84  87
ENDBRANCH  82  83
BRANCH  82 110
ATOM    110  C   UNL A   1      31.542  23.926  26.067  1.00  0.00     0.101 C 
BRANCH 110 111
ATOM    111  S   UNL A   1      30.188  22.968  26.823  1.00  0.00    -0.177 SA
ATOM    112  H   UNL A   1      30.583  21.678  26.990  1.00  0.00     0.102 HD
ENDBRANCH 110 111
ENDBRANCH  82 110
ENDBRANCH  79  82
ENDBRANCH  77  78
BRANCH  77 113
ATOM    113  C   UNL A   1      34.188  21.680  26.649  1.00  0.00     0.191 C 
BRANCH 113 114
ATOM    114  O   UNL A   1      34.706  22.340  27.808  1.00  0.00    -0.394 OA
ATOM    115  H   UNL A   1      35.422  22.940  27.546  1.00  0.00     0.210 HD
ENDBRANCH 113 114
ENDBRANCH  77 113
ENDBRANCH   2  77
TORSDOF 25
ENDMDL
MODEL 3
REMARK VINA RESULT:     -11.3      1.513      7.123
REMARK SMILES O=C(NCCCNC(=O)[C@H](CO)NC(=O)[C@H](CS)NC(=O)[C@H](Cc1c[nH]c2ccccc12)NC(=O)c1ccc(F)cc1)c1ccc(-c2c3nc(c(-c4cc(S(=O)(=O)[O-])ccc4F)c4ccc([nH]4)c(-c4cc(S(=O)(=O)[O-])ccc4F)c4nc(c(-c5cc(S(=O)(=O)[O-])ccc5F)c5ccc2[nH]5)C=C4)C=C3)cc1
REMARK SMILES IDX 7 1 8 2 9 3 6 5 5 6 4 7 3 8 1 9 2 10 43 12 44 13 105 14
REMARK SMILES IDX 45 15 104 16 46 17 47 18 48 19 98 20 49 21 103 22 97 23
REMARK SMILES IDX 99 24 50 25 102 26 96 27 95 28 51 30 83 31 63 32 82 33 64 34
REMARK SMILES IDX 67 35 81 36 100 37 65 38 66 39 80 41 101 42 68 43 52 44
REMARK SMILES IDX 53 45 61 46 54 47 60 48 62 49 59 50 55 51 56 52 57 53 58 54
REMARK SMILES IDX 84 55 85 56 93 57 86 58 92 59 94 60 91 61 87 62 88 63 89 64
REMARK SMILES IDX 90 65 69 66 70 67 78 68 71 69 77 70 79 71 76 72 72 73 73 74
REMARK SMILES IDX 74 75 75 76 10 77 13 78 14 79 15 81 16 82 19 83 20 84 21 86
REMARK SMILES IDX 22 87 33 88 34 89 35 91 36 92 37 93 42 94 38 95 41 96 39 97
REMARK SMILES IDX 40 98 23 99 24 100 25 101 32 102 26 103 27 104 31 105 28 107
REMARK SMILES IDX 30 108 29 109 17 110 18 111 11 113 12 114
REMARK H PARENT 7 4 3 11 99 29 67 40 13 80 19 85 33 90 26 106 18 112 12 115
REMARK Flexibility Score: inf
ROOT
ATOM      1  N   UNL A   1      37.553  22.796  25.197  1.00  0.00    -0.354 N 
ATOM      2  C   UNL A   1      36.916  23.922  25.589  1.00  0.00     0.244 C 
ATOM      3  O   UNL A   1      37.557  24.676  26.323  1.00  0.00    -0.273 OA
ATOM      4  H   UNL A   1      38.495  22.747  25.479  1.00  0.00     0.163 HD
ENDROOT
BRANCH   1   5
ATOM      5  C   UNL A   1      37.101  21.653  24.439  1.00  0.00     0.117 C 
BRANCH   5   6
ATOM      6  C   UNL A   1      37.819  20.391  24.881  1.00  0.00     0.042 C 
BRANCH   6   7
ATOM      7  C   UNL A   1      38.898  20.662  25.924  1.00  0.00     0.118 C 
BRANCH   7   8
ATOM      8  N   UNL A   1      39.881  19.585  25.987  1.00  0.00    -0.352 N 
ATOM      9  O   UNL A   1      41.936  18.675  25.807  1.00  0.00    -0.269 OA
ATOM     10  C   UNL A   1      41.249  19.670  26.026  1.00  0.00     0.251 C 
ATOM     11  H   UNL A   1      39.510  18.673  26.004  1.00  0.00     0.163 HD
BRANCH  10  12
ATOM     12  C   UNL A   1      41.874  20.969  26.329  1.00  0.00     0.039 A 
ATOM     13  C   UNL A   1      42.043  21.906  25.307  1.00  0.00     0.014 A 
ATOM     14  C   UNL A   1      42.283  21.257  27.633  1.00  0.00     0.014 A 
ATOM     15  C   UNL A   1      42.741  23.075  25.555  1.00  0.00     0.010 A 
ATOM     16  C   UNL A   1      42.888  22.484  27.905  1.00  0.00     0.010 A 
ATOM     17  C   UNL A   1      43.122  23.398  26.865  1.00  0.00    -0.014 A 
BRANCH  17  18
ATOM     18  C   UNL A   1      43.615  24.764  27.142  1.00  0.00     0.031 A 
ATOM     19  C   UNL A   1      42.726  25.820  27.719  1.00  0.00     0.074 A 
ATOM     20  C   UNL A   1      44.911  25.019  26.882  1.00  0.00     0.049 A 
ATOM     21  N   UNL A   1      43.005  27.069  27.988  1.00  0.00    -0.248 NA
ATOM     22  C   UNL A   1      41.345  25.429  28.032  1.00  0.00     0.031 C 
ATOM     23  C   UNL A   1      45.867  24.042  26.344  1.00  0.00     0.029 A 
ATOM     24  N   UNL A   1      45.661  26.149  27.061  1.00  0.00    -0.354 N 
ATOM     25  C   UNL A   1      41.837  27.620  28.499  1.00  0.00     0.074 A 
ATOM     26  C   UNL A   1      40.835  26.572  28.469  1.00  0.00     0.031 C 
ATOM     27  C   UNL A   1      47.086  24.593  26.311  1.00  0.00     0.029 A 
ATOM     28  C   UNL A   1      46.983  25.983  26.730  1.00  0.00     0.049 A 
ATOM     29  H   UNL A   1      45.289  26.998  27.394  1.00  0.00     0.167 HD
ATOM     30  C   UNL A   1      41.632  28.882  28.951  1.00  0.00     0.034 A 
ATOM     31  C   UNL A   1      48.004  26.859  26.737  1.00  0.00     0.034 A 
ATOM     32  C   UNL A   1      42.649  29.909  28.947  1.00  0.00     0.049 A 
ATOM     33  C   UNL A   1      47.732  28.269  27.159  1.00  0.00     0.074 A 
ATOM     34  C   UNL A   1      42.545  31.229  29.348  1.00  0.00     0.029 A 
ATOM     35  N   UNL A   1      43.960  29.732  28.517  1.00  0.00    -0.354 N 
ATOM     36  N   UNL A   1      46.603  28.801  27.565  1.00  0.00    -0.248 NA
ATOM     37  C   UNL A   1      48.864  29.198  27.113  1.00  0.00     0.031 C 
ATOM     38  C   UNL A   1      43.769  31.864  29.105  1.00  0.00     0.029 A 
ATOM     39  C   UNL A   1      44.666  30.922  28.625  1.00  0.00     0.049 A 
ATOM     40  H   UNL A   1      44.334  28.885  28.183  1.00  0.00     0.167 HD
ATOM     41  C   UNL A   1      46.893  30.129  27.847  1.00  0.00     0.074 A 
ATOM     42  C   UNL A   1      48.304  30.314  27.562  1.00  0.00     0.031 C 
ATOM     43  C   UNL A   1      46.067  31.100  28.312  1.00  0.00     0.034 A 
BRANCH  30  44
ATOM     44  C   UNL A   1      40.245  29.226  29.437  1.00  0.00     0.023 A 
ATOM     45  C   UNL A   1      39.925  29.243  30.806  1.00  0.00     0.031 A 
ATOM     46  C   UNL A   1      39.222  29.523  28.518  1.00  0.00     0.131 A 
ATOM     47  C   UNL A   1      38.604  29.491  31.213  1.00  0.00     0.055 A 
ATOM     48  C   UNL A   1      37.927  29.841  28.933  1.00  0.00     0.041 A 
ATOM     49  F   UNL A   1      39.462  29.499  27.198  1.00  0.00    -0.206 F 
ATOM     50  C   UNL A   1      37.609  29.814  30.288  1.00  0.00     0.022 A 
BRANCH  47  51
ATOM     51  S   UNL A   1      38.176  29.261  32.961  1.00  0.00     0.124 S 
ATOM     52  O   UNL A   1      37.723  27.873  32.972  1.00  0.00    -0.237 OA
ATOM     53  O   UNL A   1      39.442  29.526  33.632  1.00  0.00    -0.237 OA
ATOM     54  O   UNL A   1      37.127  30.254  33.190  1.00  0.00    -0.744 OA
ENDBRANCH  47  51
ENDBRANCH  30  44
BRANCH  31  55
ATOM     55  C   UNL A   1      49.352  26.399  26.321  1.00  0.00     0.023 A 
ATOM     56  C   UNL A   1      49.944  26.888  25.149  1.00  0.00     0.031 A 
ATOM     57  C   UNL A   1      50.104  25.538  27.141  1.00  0.00     0.131 A 
ATOM     58  C   UNL A   1      51.258  26.515  24.828  1.00  0.00     0.055 A 
ATOM     59  C   UNL A   1      51.422  25.197  26.836  1.00  0.00     0.041 A 
ATOM     60  F   UNL A   1      49.584  25.068  28.287  1.00  0.00    -0.206 F 
ATOM     61  C   UNL A   1      52.005  25.687  25.672  1.00  0.00     0.022 A 
BRANCH  58  62
ATOM     62  S   UNL A   1      51.991  27.145  23.294  1.00  0.00     0.124 S 
ATOM     63  O   UNL A   1      51.938  28.586  23.511  1.00  0.00    -0.237 OA
ATOM     64  O   UNL A   1      53.319  26.540  23.317  1.00  0.00    -0.237 OA
ATOM     65  O   UNL A   1      51.099  26.633  22.257  1.00  0.00    -0.744 OA
ENDBRANCH  58  62
ENDBRANCH  31  55
BRANCH  43  66
ATOM     66  C   UNL A   1      46.688  32.445  28.585  1.00  0.00     0.023 A 
ATOM     67  C   UNL A   1      46.644  33.487  27.644  1.00  0.00     0.031 A 
ATOM     68  C   UNL A   1      47.337  32.680  29.810  1.00  0.00     0.131 A 
ATOM     69  C   UNL A   1      47.279  34.705  27.927  1.00  0.00     0.055 A 
ATOM     70  C   UNL A   1      47.919  33.911  30.107  1.00  0.00     0.041 A 
ATOM     71  F   UNL A   1      47.410  31.714  30.741  1.00  0.00    -0.206 F 
ATOM     72  C   UNL A   1      47.901  34.930  29.159  1.00  0.00     0.022 A 
BRANCH  69  73
ATOM     73  S   UNL A   1      47.345  35.975  26.633  1.00  0.00     0.124 S 
ATOM     74  O   UNL A   1      46.023  35.856  26.026  1.00  0.00    -0.237 OA
ATOM     75  O   UNL A   1      47.589  37.192  27.399  1.00  0.00    -0.237 OA
ATOM     76  O   UNL A   1      48.456  35.545  25.786  1.00  0.00    -0.744 OA
ENDBRANCH  69  73
ENDBRANCH  43  66
ENDBRANCH  17  18
ENDBRANCH  10  12
ENDBRANCH   7   8
ENDBRANCH   6   7
ENDBRANCH   5   6
ENDBRANCH   1   5
BRANCH   2  77
ATOM     77  C   UNL A   1      35.419  24.141  25.348  1.00  0.00     0.197 C 
BRANCH  77  78
ATOM     78  N   UNL A   1      34.964  24.043  23.950  1.00  0.00    -0.340 N 
ATOM     79  C   UNL A   1      34.172  24.902  23.224  1.00  0.00     0.244 C 
ATOM     80  H   UNL A   1      35.272  23.246  23.463  1.00  0.00     0.164 HD
ATOM     81  O   UNL A   1      33.976  24.651  22.035  1.00  0.00    -0.273 OA
BRANCH  79  82
ATOM     82  C   UNL A   1      33.510  26.115  23.910  1.00  0.00     0.181 C 
BRANCH  82  83
ATOM     83  N   UNL A   1      33.278  25.934  25.351  1.00  0.00    -0.342 N 
ATOM     84  C   UNL A   1      32.112  26.054  26.070  1.00  0.00     0.243 C 
ATOM     85  H   UNL A   1      34.073  25.693  25.878  1.00  0.00     0.164 HD
ATOM     86  O   UNL A   1      32.176  26.063  27.300  1.00  0.00    -0.273 OA
BRANCH  84  87
ATOM     87  C   UNL A   1      30.771  26.251  25.316  1.00  0.00     0.176 C 
BRANCH  87  88
ATOM     88  N   UNL A   1      31.087  26.539  23.909  1.00  0.00    -0.340 N 
ATOM     89  C   UNL A   1      30.516  27.330  22.950  1.00  0.00     0.251 C 
ATOM     90  H   UNL A   1      31.882  26.056  23.587  1.00  0.00     0.164 HD
ATOM     91  O   UNL A   1      30.824  27.075  21.784  1.00  0.00    -0.269 OA
BRANCH  89  92
ATOM     92  C   UNL A   1      29.628  28.506  23.220  1.00  0.00     0.040 A 
ATOM     93  C   UNL A   1      30.072  29.817  23.435  1.00  0.00     0.017 A 
ATOM     94  C   UNL A   1      28.245  28.307  23.056  1.00  0.00     0.017 A 
ATOM     95  C   UNL A   1      29.184  30.897  23.454  1.00  0.00     0.040 A 
ATOM     96  C   UNL A   1      27.352  29.385  23.064  1.00  0.00     0.040 A 
ATOM     97  C   UNL A   1      27.833  30.673  23.252  1.00  0.00     0.123 A 
ATOM     98  F   UNL A   1      26.994  31.714  23.209  1.00  0.00    -0.207 F 
ENDBRANCH  89  92
ENDBRANCH  87  88
BRANCH  87  99
ATOM     99  C   UNL A   1      29.841  25.020  25.428  1.00  0.00     0.072 C 
BRANCH  99 100
ATOM    100  C   UNL A   1      30.594  23.732  25.666  1.00  0.00    -0.020 A 
ATOM    101  C   UNL A   1      30.855  23.152  26.895  1.00  0.00     0.087 A 
ATOM    102  C   UNL A   1      31.191  22.870  24.683  1.00  0.00     0.003 A 
ATOM    103  N   UNL A   1      31.404  21.917  26.685  1.00  0.00    -0.361 N 
ATOM    104  C   UNL A   1      31.668  21.740  25.351  1.00  0.00     0.046 A 
ATOM    105  C   UNL A   1      31.365  22.935  23.285  1.00  0.00     0.010 A 
ATOM    106  H   UNL A   1      31.582  21.252  27.390  1.00  0.00     0.166 HD
ATOM    107  C   UNL A   1      32.285  20.667  24.697  1.00  0.00     0.026 A 
ATOM    108  C   UNL A   1      32.015  21.886  22.618  1.00  0.00     0.001 A 
ATOM    109  C   UNL A   1      32.462  20.766  23.316  1.00  0.00     0.002 A 
ENDBRANCH  99 100
ENDBRANCH  87  99
ENDBRANCH  84  87
ENDBRANCH  82  83
BRANCH  82 110
ATOM    110  C   UNL A   1      34.287  27.405  23.591  1.00  0.00     0.101 C 
BRANCH 110 111
ATOM    111  S   UNL A   1      33.621  28.931  24.334  1.00  0.00    -0.177 SA
ATOM    112  H   UNL A   1      33.212  28.676  25.605  1.00  0.00     0.102 HD
ENDBRANCH 110 111
ENDBRANCH  82 110
ENDBRANCH  79  82
ENDBRANCH  77  78
BRANCH  77 113
ATOM    113  C   UNL A   1      34.648  23.232  26.319  1.00  0.00     0.191 C 
BRANCH 113 114
ATOM    114  O   UNL A   1      35.540  22.719  27.314  1.00  0.00    -0.394 OA
ATOM    115  H   UNL A   1      35.241  21.840  27.594  1.00  0.00     0.210 HD
ENDBRANCH 113 114
ENDBRANCH  77 113
ENDBRANCH   2  77
TORSDOF 25
ENDMDL
