MODEL 1
REMARK VINA RESULT:     -12.5      0.000      0.000
REMARK SMILES CN1C(=O)/C(=C/c2ccc(OCC(=O)NCCCNC(=O)c3ccc(-c4c5nc(c(-c6cc(S(=O)(=O)[O-])ccc6F)c6ccc([nH]6)c(-c6cc(S(=O)(=O)[O-])ccc6F)c6nc(c(-c7cc(S(=O)(=O)[O-])ccc7F)c7ccc4[nH]7)C=C6)C=C5)cc3)c(Br)c2)C(=O)NC1=S
REMARK SMILES IDX 17 1 16 2 15 3 13 4 14 5 12 7 11 8 10 9 7 10 8 11 87 12 9 13
REMARK SMILES IDX 85 14 86 15 6 16 1 17 2 18 3 19 91 20 4 21 5 22 90 23 92 24
REMARK SMILES IDX 88 25 89 27 18 28 19 29 20 30 21 32 22 33 23 34 84 35 24 36
REMARK SMILES IDX 83 37 25 38 26 39 27 40 77 41 28 42 82 43 76 44 78 45 29 46
REMARK SMILES IDX 81 47 75 48 74 49 30 51 62 52 42 53 61 54 43 55 46 56 60 57
REMARK SMILES IDX 79 58 44 59 45 60 59 62 80 63 47 64 31 65 32 66 40 67 33 68
REMARK SMILES IDX 39 69 41 70 38 71 34 72 35 73 36 74 37 75 63 76 64 77 72 78
REMARK SMILES IDX 65 79 71 80 73 81 70 82 66 83 67 84 68 85 69 86 48 87 49 88
REMARK SMILES IDX 57 89 50 90 56 91 58 92 55 93 51 94 52 95 53 96 54 97
REMARK H PARENT 15 6 90 26 19 31 78 50 46 61
REMARK Flexibility Score: inf
ROOT
ATOM      1  C   UNL A   1      37.932  20.367  24.797  1.00  0.00     0.042 C 
ENDROOT
BRANCH   1   2
ATOM      2  C   UNL A   1      36.503  20.649  25.243  1.00  0.00     0.117 C 
BRANCH   2   3
ATOM      3  N   UNL A   1      35.607  19.535  25.000  1.00  0.00    -0.353 N 
ATOM      4  C   UNL A   1      34.292  19.559  24.635  1.00  0.00     0.257 C 
ATOM      5  O   UNL A   1      33.739  18.489  24.377  1.00  0.00    -0.271 OA
ATOM      6  H   UNL A   1      36.001  18.639  25.113  1.00  0.00     0.163 HD
BRANCH   4   7
ATOM      7  C   UNL A   1      33.577  20.906  24.488  1.00  0.00     0.329 C 
BRANCH   7   8
ATOM      8  O   UNL A   1      33.020  21.487  25.648  1.00  0.00    -0.483 OA
BRANCH   8   9
ATOM      9  C   UNL A   1      33.037  22.834  25.865  1.00  0.00     0.134 A 
ATOM     10  C   UNL A   1      33.506  25.622  25.975  1.00  0.00    -0.023 A 
ATOM     11  C   UNL A   1      34.504  24.779  25.513  1.00  0.00     0.012 A 
ATOM     12  C   UNL A   1      32.294  25.072  26.411  1.00  0.00     0.027 A 
ATOM     13  C   UNL A   1      34.264  23.401  25.458  1.00  0.00     0.048 A 
ATOM     14  C   UNL A   1      32.040  23.694  26.335  1.00  0.00     0.060 A 
ATOM     15  Br  UNL A   1      30.246  23.235  26.757  1.00  0.00    -0.047 Br
BRANCH  10  16
ATOM     16  C   UNL A   1      33.590  27.083  25.922  1.00  0.00     0.027 C 
ATOM     17  C   UNL A   1      30.978  30.987  25.427  1.00  0.00     0.156 C 
ATOM     18  N   UNL A   1      31.458  29.739  24.838  1.00  0.00    -0.288 N 
ATOM     19  C   UNL A   1      32.648  29.228  25.366  1.00  0.00     0.265 C 
ATOM     20  C   UNL A   1      30.746  29.135  23.805  1.00  0.00     0.182 C 
ATOM     21  O   UNL A   1      33.374  29.845  26.142  1.00  0.00    -0.268 OA
ATOM     22  C   UNL A   1      32.936  27.819  24.999  1.00  0.00     0.106 C 
ATOM     23  N   UNL A   1      31.253  27.963  23.315  1.00  0.00    -0.298 N 
ATOM     24  S   UNL A   1      29.337  29.701  23.090  1.00  0.00    -0.040 S 
ATOM     25  C   UNL A   1      32.316  27.253  23.787  1.00  0.00     0.263 C 
ATOM     26  H   UNL A   1      30.795  27.589  22.528  1.00  0.00     0.172 HD
ATOM     27  O   UNL A   1      32.696  26.242  23.208  1.00  0.00    -0.269 OA
ENDBRANCH  10  16
ENDBRANCH   8   9
ENDBRANCH   7   8
ENDBRANCH   4   7
ENDBRANCH   2   3
ENDBRANCH   1   2
BRANCH   1  28
ATOM     28  C   UNL A   1      38.996  20.575  25.872  1.00  0.00     0.118 C 
BRANCH  28  29
ATOM     29  N   UNL A   1      39.984  19.507  25.913  1.00  0.00    -0.352 N 
ATOM     30  C   UNL A   1      41.345  19.552  26.097  1.00  0.00     0.251 C 
ATOM     31  H   UNL A   1      39.617  18.603  25.790  1.00  0.00     0.163 HD
ATOM     32  O   UNL A   1      41.999  18.524  25.940  1.00  0.00    -0.269 OA
BRANCH  30  33
ATOM     33  C   UNL A   1      42.028  20.819  26.443  1.00  0.00     0.039 A 
ATOM     34  C   UNL A   1      42.387  21.690  25.410  1.00  0.00     0.014 A 
ATOM     35  C   UNL A   1      42.340  21.145  27.766  1.00  0.00     0.014 A 
ATOM     36  C   UNL A   1      42.981  22.920  25.707  1.00  0.00     0.010 A 
ATOM     37  C   UNL A   1      42.870  22.400  28.065  1.00  0.00     0.010 A 
ATOM     38  C   UNL A   1      43.186  23.305  27.041  1.00  0.00    -0.014 A 
BRANCH  38  39
ATOM     39  C   UNL A   1      43.704  24.655  27.386  1.00  0.00     0.031 A 
ATOM     40  C   UNL A   1      42.769  25.722  27.886  1.00  0.00     0.074 A 
ATOM     41  C   UNL A   1      45.003  24.942  27.170  1.00  0.00     0.049 A 
ATOM     42  N   UNL A   1      43.007  26.987  28.121  1.00  0.00    -0.248 NA
ATOM     43  C   UNL A   1      41.377  25.316  28.123  1.00  0.00     0.031 C 
ATOM     44  C   UNL A   1      46.003  24.002  26.659  1.00  0.00     0.029 A 
ATOM     45  N   UNL A   1      45.704  26.111  27.335  1.00  0.00    -0.354 N 
ATOM     46  C   UNL A   1      41.792  27.534  28.519  1.00  0.00     0.074 A 
ATOM     47  C   UNL A   1      40.812  26.470  28.446  1.00  0.00     0.031 C 
ATOM     48  C   UNL A   1      47.186  24.628  26.560  1.00  0.00     0.029 A 
ATOM     49  C   UNL A   1      47.023  26.024  26.954  1.00  0.00     0.049 A 
ATOM     50  H   UNL A   1      45.300  26.935  27.693  1.00  0.00     0.167 HD
ATOM     51  C   UNL A   1      41.524  28.802  28.924  1.00  0.00     0.034 A 
ATOM     52  C   UNL A   1      47.986  26.964  26.902  1.00  0.00     0.034 A 
ATOM     53  C   UNL A   1      42.514  29.848  29.005  1.00  0.00     0.049 A 
ATOM     54  C   UNL A   1      47.657  28.372  27.324  1.00  0.00     0.074 A 
ATOM     55  C   UNL A   1      42.364  31.145  29.467  1.00  0.00     0.029 A 
ATOM     56  N   UNL A   1      43.839  29.724  28.604  1.00  0.00    -0.354 N 
ATOM     57  N   UNL A   1      46.512  28.863  27.740  1.00  0.00    -0.248 NA
ATOM     58  C   UNL A   1      48.750  29.351  27.271  1.00  0.00     0.031 C 
ATOM     59  C   UNL A   1      43.577  31.820  29.286  1.00  0.00     0.029 A 
ATOM     60  C   UNL A   1      44.505  30.929  28.773  1.00  0.00     0.049 A 
ATOM     61  H   UNL A   1      44.245  28.900  28.249  1.00  0.00     0.167 HD
ATOM     62  C   UNL A   1      46.755  30.206  28.016  1.00  0.00     0.074 A 
ATOM     63  C   UNL A   1      48.157  30.441  27.737  1.00  0.00     0.031 C 
ATOM     64  C   UNL A   1      45.897  31.157  28.464  1.00  0.00     0.034 A 
BRANCH  51  65
ATOM     65  C   UNL A   1      40.093  29.127  29.280  1.00  0.00     0.023 A 
ATOM     66  C   UNL A   1      39.664  29.211  30.617  1.00  0.00     0.031 A 
ATOM     67  C   UNL A   1      39.136  29.328  28.270  1.00  0.00     0.131 A 
ATOM     68  C   UNL A   1      38.307  29.411  30.907  1.00  0.00     0.055 A 
ATOM     69  C   UNL A   1      37.800  29.606  28.565  1.00  0.00     0.041 A 
ATOM     70  F   UNL A   1      39.481  29.242  26.975  1.00  0.00    -0.206 F 
ATOM     71  C   UNL A   1      37.375  29.633  29.890  1.00  0.00     0.022 A 
BRANCH  68  72
ATOM     72  S   UNL A   1      37.752  29.238  32.625  1.00  0.00     0.124 S 
ATOM     73  O   UNL A   1      36.429  29.854  32.571  1.00  0.00    -0.237 OA
ATOM     74  O   UNL A   1      37.777  27.793  32.819  1.00  0.00    -0.237 OA
ATOM     75  O   UNL A   1      38.750  29.989  33.385  1.00  0.00    -0.744 OA
ENDBRANCH  68  72
ENDBRANCH  51  65
BRANCH  52  76
ATOM     76  C   UNL A   1      49.347  26.621  26.403  1.00  0.00     0.023 A 
ATOM     77  C   UNL A   1      49.798  27.085  25.159  1.00  0.00     0.031 A 
ATOM     78  C   UNL A   1      50.204  25.794  27.152  1.00  0.00     0.131 A 
ATOM     79  C   UNL A   1      51.056  26.686  24.679  1.00  0.00     0.055 A 
ATOM     80  C   UNL A   1      51.472  25.437  26.692  1.00  0.00     0.041 A 
ATOM     81  F   UNL A   1      49.821  25.330  28.353  1.00  0.00    -0.206 F 
ATOM     82  C   UNL A   1      51.900  25.875  25.442  1.00  0.00     0.022 A 
BRANCH  79  83
ATOM     83  S   UNL A   1      51.546  27.187  23.007  1.00  0.00     0.124 S 
ATOM     84  O   UNL A   1      51.848  28.601  23.196  1.00  0.00    -0.237 OA
ATOM     85  O   UNL A   1      52.688  26.315  22.753  1.00  0.00    -0.237 OA
ATOM     86  O   UNL A   1      50.358  26.903  22.204  1.00  0.00    -0.744 OA
ENDBRANCH  79  83
ENDBRANCH  52  76
BRANCH  64  87
ATOM     87  C   UNL A   1      46.470  32.532  28.699  1.00  0.00     0.023 A 
ATOM     88  C   UNL A   1      46.542  33.485  27.670  1.00  0.00     0.031 A 
ATOM     89  C   UNL A   1      46.971  32.884  29.965  1.00  0.00     0.131 A 
ATOM     90  C   UNL A   1      47.149  34.728  27.909  1.00  0.00     0.055 A 
ATOM     91  C   UNL A   1      47.525  34.140  30.212  1.00  0.00     0.041 A 
ATOM     92  F   UNL A   1      46.930  32.009  30.983  1.00  0.00    -0.206 F 
ATOM     93  C   UNL A   1      47.628  35.066  29.178  1.00  0.00     0.022 A 
BRANCH  90  94
ATOM     94  S   UNL A   1      47.381  35.867  26.517  1.00  0.00     0.124 S 
ATOM     95  O   UNL A   1      47.323  37.168  27.177  1.00  0.00    -0.237 OA
ATOM     96  O   UNL A   1      48.688  35.471  26.003  1.00  0.00    -0.237 OA
ATOM     97  O   UNL A   1      46.254  35.567  25.636  1.00  0.00    -0.744 OA
ENDBRANCH  90  94
ENDBRANCH  64  87
ENDBRANCH  38  39
ENDBRANCH  30  33
ENDBRANCH  28  29
ENDBRANCH   1  28
TORSDOF 16
ENDMDL
MODEL 2
REMARK VINA RESULT:     -12.3      1.374      1.656
REMARK SMILES CN1C(=O)/C(=C/c2ccc(OCC(=O)NCCCNC(=O)c3ccc(-c4c5nc(c(-c6cc(S(=O)(=O)[O-])ccc6F)c6ccc([nH]6)c(-c6cc(S(=O)(=O)[O-])ccc6F)c6nc(c(-c7cc(S(=O)(=O)[O-])ccc7F)c7ccc4[nH]7)C=C6)C=C5)cc3)c(Br)c2)C(=O)NC1=S
REMARK SMILES IDX 17 1 16 2 15 3 13 4 14 5 12 7 11 8 10 9 7 10 8 11 87 12 9 13
REMARK SMILES IDX 85 14 86 15 6 16 1 17 2 18 3 19 91 20 4 21 5 22 90 23 92 24
REMARK SMILES IDX 88 25 89 27 18 28 19 29 20 30 21 32 22 33 23 34 84 35 24 36
REMARK SMILES IDX 83 37 25 38 26 39 27 40 77 41 28 42 82 43 76 44 78 45 29 46
REMARK SMILES IDX 81 47 75 48 74 49 30 51 62 52 42 53 61 54 43 55 46 56 60 57
REMARK SMILES IDX 79 58 44 59 45 60 59 62 80 63 47 64 31 65 32 66 40 67 33 68
REMARK SMILES IDX 39 69 41 70 38 71 34 72 35 73 36 74 37 75 63 76 64 77 72 78
REMARK SMILES IDX 65 79 71 80 73 81 70 82 66 83 67 84 68 85 69 86 48 87 49 88
REMARK SMILES IDX 57 89 50 90 56 91 58 92 55 93 51 94 52 95 53 96 54 97
REMARK H PARENT 15 6 90 26 19 31 78 50 46 61
REMARK Flexibility Score: inf
ROOT
ATOM      1  C   UNL A   1      37.746  20.079  24.713  1.00  0.00     0.042 C 
ENDROOT
BRANCH   1   2
ATOM      2  C   UNL A   1      36.327  20.450  25.123  1.00  0.00     0.117 C 
BRANCH   2   3
ATOM      3  N   UNL A   1      35.384  19.365  24.931  1.00  0.00    -0.353 N 
ATOM      4  C   UNL A   1      34.043  19.432  24.676  1.00  0.00     0.257 C 
ATOM      5  O   UNL A   1      33.442  18.382  24.444  1.00  0.00    -0.271 OA
ATOM      6  H   UNL A   1      35.760  18.457  24.993  1.00  0.00     0.163 HD
BRANCH   4   7
ATOM      7  C   UNL A   1      33.357  20.800  24.616  1.00  0.00     0.329 C 
BRANCH   7   8
ATOM      8  O   UNL A   1      33.095  21.461  25.836  1.00  0.00    -0.483 OA
BRANCH   8   9
ATOM      9  C   UNL A   1      33.058  22.822  25.930  1.00  0.00     0.134 A 
ATOM     10  C   UNL A   1      33.413  25.625  25.784  1.00  0.00    -0.023 A 
ATOM     11  C   UNL A   1      34.442  24.785  25.390  1.00  0.00     0.012 A 
ATOM     12  C   UNL A   1      32.227  25.068  26.280  1.00  0.00     0.027 A 
ATOM     13  C   UNL A   1      34.258  23.399  25.462  1.00  0.00     0.048 A 
ATOM     14  C   UNL A   1      32.029  23.679  26.331  1.00  0.00     0.060 A 
ATOM     15  Br  UNL A   1      30.258  23.188  26.810  1.00  0.00    -0.047 Br
BRANCH  10  16
ATOM     16  C   UNL A   1      33.436  27.077  25.599  1.00  0.00     0.027 C 
ATOM     17  C   UNL A   1      30.651  30.827  24.896  1.00  0.00     0.156 C 
ATOM     18  N   UNL A   1      31.152  29.549  24.396  1.00  0.00    -0.288 N 
ATOM     19  C   UNL A   1      32.385  29.130  24.906  1.00  0.00     0.265 C 
ATOM     20  C   UNL A   1      30.416  28.830  23.457  1.00  0.00     0.182 C 
ATOM     21  O   UNL A   1      33.122  29.839  25.586  1.00  0.00    -0.268 OA
ATOM     22  C   UNL A   1      32.710  27.705  24.650  1.00  0.00     0.106 C 
ATOM     23  N   UNL A   1      30.945  27.638  23.046  1.00  0.00    -0.298 N 
ATOM     24  S   UNL A   1      28.954  29.279  22.767  1.00  0.00    -0.040 S 
ATOM     25  C   UNL A   1      32.057  27.010  23.525  1.00  0.00     0.263 C 
ATOM     26  H   UNL A   1      30.466  27.179  22.319  1.00  0.00     0.172 HD
ATOM     27  O   UNL A   1      32.448  25.965  23.018  1.00  0.00    -0.269 OA
ENDBRANCH  10  16
ENDBRANCH   8   9
ENDBRANCH   7   8
ENDBRANCH   4   7
ENDBRANCH   2   3
ENDBRANCH   1   2
BRANCH   1  28
ATOM     28  C   UNL A   1      38.821  20.407  25.746  1.00  0.00     0.118 C 
BRANCH  28  29
ATOM     29  N   UNL A   1      39.851  19.383  25.846  1.00  0.00    -0.352 N 
ATOM     30  C   UNL A   1      41.202  19.490  26.072  1.00  0.00     0.251 C 
ATOM     31  H   UNL A   1      39.525  18.461  25.735  1.00  0.00     0.163 HD
ATOM     32  O   UNL A   1      41.902  18.486  25.962  1.00  0.00    -0.269 OA
BRANCH  30  33
ATOM     33  C   UNL A   1      41.821  20.792  26.406  1.00  0.00     0.039 A 
ATOM     34  C   UNL A   1      42.039  21.713  25.377  1.00  0.00     0.014 A 
ATOM     35  C   UNL A   1      42.210  21.104  27.712  1.00  0.00     0.014 A 
ATOM     36  C   UNL A   1      42.568  22.974  25.669  1.00  0.00     0.010 A 
ATOM     37  C   UNL A   1      42.674  22.386  28.011  1.00  0.00     0.010 A 
ATOM     38  C   UNL A   1      42.847  23.337  26.995  1.00  0.00    -0.014 A 
BRANCH  38  39
ATOM     39  C   UNL A   1      43.296  24.711  27.344  1.00  0.00     0.031 A 
ATOM     40  C   UNL A   1      42.348  25.676  28.002  1.00  0.00     0.074 A 
ATOM     41  C   UNL A   1      44.532  25.115  26.991  1.00  0.00     0.049 A 
ATOM     42  N   UNL A   1      42.512  26.946  28.271  1.00  0.00    -0.248 NA
ATOM     43  C   UNL A   1      41.031  25.145  28.382  1.00  0.00     0.031 C 
ATOM     44  C   UNL A   1      45.533  24.283  26.320  1.00  0.00     0.029 A 
ATOM     45  N   UNL A   1      45.154  26.331  27.130  1.00  0.00    -0.354 N 
ATOM     46  C   UNL A   1      41.316  27.372  28.836  1.00  0.00     0.074 A 
ATOM     47  C   UNL A   1      40.421  26.234  28.826  1.00  0.00     0.031 C 
ATOM     48  C   UNL A   1      46.643  25.009  26.113  1.00  0.00     0.029 A 
ATOM     49  C   UNL A   1      46.420  26.369  26.593  1.00  0.00     0.049 A 
ATOM     50  H   UNL A   1      44.734  27.103  27.573  1.00  0.00     0.167 HD
ATOM     51  C   UNL A   1      41.000  28.596  29.332  1.00  0.00     0.034 A 
ATOM     52  C   UNL A   1      47.293  27.388  26.475  1.00  0.00     0.034 A 
ATOM     53  C   UNL A   1      41.908  29.717  29.348  1.00  0.00     0.049 A 
ATOM     54  C   UNL A   1      46.909  28.746  27.002  1.00  0.00     0.074 A 
ATOM     55  C   UNL A   1      41.714  30.977  29.889  1.00  0.00     0.029 A 
ATOM     56  N   UNL A   1      43.180  29.721  28.788  1.00  0.00    -0.354 N 
ATOM     57  N   UNL A   1      45.788  29.122  27.574  1.00  0.00    -0.248 NA
ATOM     58  C   UNL A   1      47.907  29.814  26.870  1.00  0.00     0.031 C 
ATOM     59  C   UNL A   1      42.839  31.759  29.600  1.00  0.00     0.029 A 
ATOM     60  C   UNL A   1      43.766  30.970  28.938  1.00  0.00     0.049 A 
ATOM     61  H   UNL A   1      43.603  28.949  28.348  1.00  0.00     0.167 HD
ATOM     62  C   UNL A   1      45.956  30.468  27.886  1.00  0.00     0.074 A 
ATOM     63  C   UNL A   1      47.291  30.831  27.455  1.00  0.00     0.031 C 
ATOM     64  C   UNL A   1      45.087  31.326  28.479  1.00  0.00     0.034 A 
BRANCH  51  65
ATOM     65  C   UNL A   1      39.602  28.785  29.870  1.00  0.00     0.023 A 
ATOM     66  C   UNL A   1      38.559  29.272  29.063  1.00  0.00     0.031 A 
ATOM     67  C   UNL A   1      39.313  28.502  31.217  1.00  0.00     0.131 A 
ATOM     68  C   UNL A   1      37.300  29.532  29.625  1.00  0.00     0.055 A 
ATOM     69  C   UNL A   1      38.037  28.689  31.752  1.00  0.00     0.041 A 
ATOM     70  F   UNL A   1      40.272  28.052  32.042  1.00  0.00    -0.206 F 
ATOM     71  C   UNL A   1      37.025  29.222  30.959  1.00  0.00     0.022 A 
BRANCH  68  72
ATOM     72  S   UNL A   1      36.070  30.414  28.625  1.00  0.00     0.124 S 
ATOM     73  O   UNL A   1      36.914  31.062  27.624  1.00  0.00    -0.237 OA
ATOM     74  O   UNL A   1      35.223  29.330  28.142  1.00  0.00    -0.237 OA
ATOM     75  O   UNL A   1      35.439  31.323  29.580  1.00  0.00    -0.744 OA
ENDBRANCH  68  72
ENDBRANCH  51  65
BRANCH  52  76
ATOM     76  C   UNL A   1      48.606  27.181  25.803  1.00  0.00     0.023 A 
ATOM     77  C   UNL A   1      48.757  27.406  24.426  1.00  0.00     0.031 A 
ATOM     78  C   UNL A   1      49.722  26.719  26.524  1.00  0.00     0.131 A 
ATOM     79  C   UNL A   1      49.985  27.132  23.804  1.00  0.00     0.055 A 
ATOM     80  C   UNL A   1      50.954  26.491  25.910  1.00  0.00     0.041 A 
ATOM     81  F   UNL A   1      49.631  26.495  27.846  1.00  0.00    -0.206 F 
ATOM     82  C   UNL A   1      51.087  26.687  24.538  1.00  0.00     0.022 A 
BRANCH  79  83
ATOM     83  S   UNL A   1      50.101  27.298  22.002  1.00  0.00     0.124 S 
ATOM     84  O   UNL A   1      51.473  26.872  21.751  1.00  0.00    -0.237 OA
ATOM     85  O   UNL A   1      49.053  26.390  21.547  1.00  0.00    -0.237 OA
ATOM     86  O   UNL A   1      49.836  28.717  21.774  1.00  0.00    -0.744 OA
ENDBRANCH  79  83
ENDBRANCH  52  76
BRANCH  64  87
ATOM     87  C   UNL A   1      45.576  32.733  28.713  1.00  0.00     0.023 A 
ATOM     88  C   UNL A   1      45.468  33.724  27.722  1.00  0.00     0.031 A 
ATOM     89  C   UNL A   1      46.176  33.080  29.936  1.00  0.00     0.131 A 
ATOM     90  C   UNL A   1      46.000  35.002  27.952  1.00  0.00     0.055 A 
ATOM     91  C   UNL A   1      46.655  34.368  30.179  1.00  0.00     0.041 A 
ATOM     92  F   UNL A   1      46.307  32.171  30.915  1.00  0.00    -0.206 F 
ATOM     93  C   UNL A   1      46.580  35.334  29.180  1.00  0.00     0.022 A 
BRANCH  90  94
ATOM     94  S   UNL A   1      46.000  36.203  26.593  1.00  0.00     0.124 S 
ATOM     95  O   UNL A   1      44.973  35.661  25.708  1.00  0.00    -0.237 OA
ATOM     96  O   UNL A   1      45.661  37.448  27.275  1.00  0.00    -0.237 OA
ATOM     97  O   UNL A   1      47.365  36.135  26.075  1.00  0.00    -0.744 OA
ENDBRANCH  90  94
ENDBRANCH  64  87
ENDBRANCH  38  39
ENDBRANCH  30  33
ENDBRANCH  28  29
ENDBRANCH   1  28
TORSDOF 16
ENDMDL
MODEL 3
REMARK VINA RESULT:     -11.9      3.269      8.190
REMARK SMILES CN1C(=O)/C(=C/c2ccc(OCC(=O)NCCCNC(=O)c3ccc(-c4c5nc(c(-c6cc(S(=O)(=O)[O-])ccc6F)c6ccc([nH]6)c(-c6cc(S(=O)(=O)[O-])ccc6F)c6nc(c(-c7cc(S(=O)(=O)[O-])ccc7F)c7ccc4[nH]7)C=C6)C=C5)cc3)c(Br)c2)C(=O)NC1=S
REMARK SMILES IDX 17 1 16 2 15 3 13 4 14 5 12 7 11 8 10 9 7 10 8 11 87 12 9 13
REMARK SMILES IDX 85 14 86 15 6 16 1 17 2 18 3 19 91 20 4 21 5 22 90 23 92 24
REMARK SMILES IDX 88 25 89 27 18 28 19 29 20 30 21 32 22 33 23 34 84 35 24 36
REMARK SMILES IDX 83 37 25 38 26 39 27 40 77 41 28 42 82 43 76 44 78 45 29 46
REMARK SMILES IDX 81 47 75 48 74 49 30 51 62 52 42 53 61 54 43 55 46 56 60 57
REMARK SMILES IDX 79 58 44 59 45 60 59 62 80 63 47 64 31 65 32 66 40 67 33 68
REMARK SMILES IDX 39 69 41 70 38 71 34 72 35 73 36 74 37 75 63 76 64 77 72 78
REMARK SMILES IDX 65 79 71 80 73 81 70 82 66 83 67 84 68 85 69 86 48 87 49 88
REMARK SMILES IDX 57 89 50 90 56 91 58 92 55 93 51 94 52 95 53 96 54 97
REMARK H PARENT 15 6 90 26 19 31 78 50 46 61
REMARK Flexibility Score: inf
ROOT
ATOM      1  C   UNL A   1      37.406  21.932  24.699  1.00  0.00     0.042 C 
ENDROOT
BRANCH   1   2
ATOM      2  C   UNL A   1      36.400  20.819  24.965  1.00  0.00     0.117 C 
BRANCH   2   3
ATOM      3  N   UNL A   1      35.560  21.084  26.117  1.00  0.00    -0.353 N 
ATOM      4  C   UNL A   1      34.217  20.879  26.262  1.00  0.00     0.257 C 
ATOM      5  O   UNL A   1      33.714  21.078  27.368  1.00  0.00    -0.271 OA
ATOM      6  H   UNL A   1      36.019  21.462  26.901  1.00  0.00     0.163 HD
BRANCH   4   7
ATOM      7  C   UNL A   1      33.407  20.344  25.077  1.00  0.00     0.329 C 
BRANCH   7   8
ATOM      8  O   UNL A   1      32.968  21.271  24.106  1.00  0.00    -0.483 OA
BRANCH   8   9
ATOM      9  C   UNL A   1      33.000  22.618  24.323  1.00  0.00     0.134 A 
ATOM     10  C   UNL A   1      33.341  25.426  24.296  1.00  0.00    -0.023 A 
ATOM     11  C   UNL A   1      34.133  24.634  23.480  1.00  0.00     0.012 A 
ATOM     12  C   UNL A   1      32.409  24.816  25.145  1.00  0.00     0.027 A 
ATOM     13  C   UNL A   1      33.956  23.245  23.496  1.00  0.00     0.048 A 
ATOM     14  C   UNL A   1      32.212  23.427  25.147  1.00  0.00     0.060 A 
ATOM     15  Br  UNL A   1      30.731  22.878  26.202  1.00  0.00    -0.047 Br
BRANCH  10  16
ATOM     16  C   UNL A   1      33.329  26.889  24.240  1.00  0.00     0.027 C 
ATOM     17  C   UNL A   1      30.482  30.644  24.570  1.00  0.00     0.156 C 
ATOM     18  N   UNL A   1      30.837  29.422  23.851  1.00  0.00    -0.288 N 
ATOM     19  C   UNL A   1      32.154  28.979  24.007  1.00  0.00     0.265 C 
ATOM     20  C   UNL A   1      29.890  28.777  23.060  1.00  0.00     0.182 C 
ATOM     21  O   UNL A   1      33.039  29.636  24.548  1.00  0.00    -0.268 OA
ATOM     22  C   UNL A   1      32.398  27.586  23.555  1.00  0.00     0.106 C 
ATOM     23  N   UNL A   1      30.295  27.633  22.429  1.00  0.00    -0.298 N 
ATOM     24  S   UNL A   1      28.307  29.263  22.790  1.00  0.00    -0.040 S 
ATOM     25  C   UNL A   1      31.485  26.983  22.566  1.00  0.00     0.263 C 
ATOM     26  H   UNL A   1      29.650  27.232  21.804  1.00  0.00     0.172 HD
ATOM     27  O   UNL A   1      31.734  25.992  21.889  1.00  0.00    -0.269 OA
ENDBRANCH  10  16
ENDBRANCH   8   9
ENDBRANCH   7   8
ENDBRANCH   4   7
ENDBRANCH   2   3
ENDBRANCH   1   2
BRANCH   1  28
ATOM     28  C   UNL A   1      38.211  22.377  25.917  1.00  0.00     0.118 C 
BRANCH  28  29
ATOM     29  N   UNL A   1      39.527  21.760  25.990  1.00  0.00    -0.352 N 
ATOM     30  C   UNL A   1      40.755  22.299  26.291  1.00  0.00     0.251 C 
ATOM     31  H   UNL A   1      39.540  20.796  25.792  1.00  0.00     0.163 HD
ATOM     32  O   UNL A   1      41.759  21.608  26.141  1.00  0.00    -0.269 OA
BRANCH  30  33
ATOM     33  C   UNL A   1      40.882  23.699  26.756  1.00  0.00     0.039 A 
ATOM     34  C   UNL A   1      41.201  23.932  28.098  1.00  0.00     0.014 A 
ATOM     35  C   UNL A   1      40.666  24.779  25.896  1.00  0.00     0.014 A 
ATOM     36  C   UNL A   1      41.385  25.240  28.555  1.00  0.00     0.010 A 
ATOM     37  C   UNL A   1      40.917  26.079  26.337  1.00  0.00     0.010 A 
ATOM     38  C   UNL A   1      41.289  26.322  27.667  1.00  0.00    -0.014 A 
BRANCH  38  39
ATOM     39  C   UNL A   1      41.598  27.710  28.102  1.00  0.00     0.031 A 
ATOM     40  C   UNL A   1      43.024  28.186  28.166  1.00  0.00     0.074 A 
ATOM     41  C   UNL A   1      40.599  28.513  28.517  1.00  0.00     0.049 A 
ATOM     42  N   UNL A   1      43.501  29.312  28.632  1.00  0.00    -0.248 NA
ATOM     43  C   UNL A   1      44.048  27.259  27.664  1.00  0.00     0.031 C 
ATOM     44  C   UNL A   1      39.179  28.156  28.533  1.00  0.00     0.029 A 
ATOM     45  N   UNL A   1      40.623  29.789  29.024  1.00  0.00    -0.354 N 
ATOM     46  C   UNL A   1      44.882  29.224  28.496  1.00  0.00     0.074 A 
ATOM     47  C   UNL A   1      45.164  27.914  27.948  1.00  0.00     0.031 C 
ATOM     48  C   UNL A   1      38.470  29.189  29.016  1.00  0.00     0.029 A 
ATOM     49  C   UNL A   1      39.385  30.263  29.389  1.00  0.00     0.049 A 
ATOM     50  H   UNL A   1      41.450  30.315  29.118  1.00  0.00     0.167 HD
ATOM     51  C   UNL A   1      45.824  30.157  28.787  1.00  0.00     0.034 A 
ATOM     52  C   UNL A   1      39.026  31.419  29.980  1.00  0.00     0.034 A 
ATOM     53  C   UNL A   1      45.525  31.464  29.321  1.00  0.00     0.049 A 
ATOM     54  C   UNL A   1      40.092  32.426  30.325  1.00  0.00     0.074 A 
ATOM     55  C   UNL A   1      46.396  32.508  29.585  1.00  0.00     0.029 A 
ATOM     56  N   UNL A   1      44.259  31.906  29.684  1.00  0.00    -0.354 N 
ATOM     57  N   UNL A   1      41.391  32.345  30.149  1.00  0.00    -0.248 NA
ATOM     58  C   UNL A   1      39.644  33.679  30.944  1.00  0.00     0.031 C 
ATOM     59  C   UNL A   1      45.668  33.553  30.166  1.00  0.00     0.029 A 
ATOM     60  C   UNL A   1      44.332  33.191  30.204  1.00  0.00     0.049 A 
ATOM     61  H   UNL A   1      43.431  31.383  29.588  1.00  0.00     0.167 HD
ATOM     62  C   UNL A   1      41.911  33.547  30.621  1.00  0.00     0.074 A 
ATOM     63  C   UNL A   1      40.786  34.339  31.071  1.00  0.00     0.031 C 
ATOM     64  C   UNL A   1      43.203  33.960  30.674  1.00  0.00     0.034 A 
BRANCH  51  65
ATOM     65  C   UNL A   1      47.267  29.778  28.559  1.00  0.00     0.023 A 
ATOM     66  C   UNL A   1      48.032  29.146  29.555  1.00  0.00     0.031 A 
ATOM     67  C   UNL A   1      47.898  30.077  27.338  1.00  0.00     0.131 A 
ATOM     68  C   UNL A   1      49.398  28.903  29.343  1.00  0.00     0.055 A 
ATOM     69  C   UNL A   1      49.237  29.761  27.104  1.00  0.00     0.041 A 
ATOM     70  F   UNL A   1      47.225  30.697  26.355  1.00  0.00    -0.206 F 
ATOM     71  C   UNL A   1      50.000  29.185  28.115  1.00  0.00     0.022 A 
BRANCH  68  72
ATOM     72  S   UNL A   1      50.406  28.343  30.743  1.00  0.00     0.124 S 
ATOM     73  O   UNL A   1      51.429  27.548  30.069  1.00  0.00    -0.237 OA
ATOM     74  O   UNL A   1      50.857  29.601  31.328  1.00  0.00    -0.237 OA
ATOM     75  O   UNL A   1      49.466  27.575  31.558  1.00  0.00    -0.744 OA
ENDBRANCH  68  72
ENDBRANCH  51  65
BRANCH  52  76
ATOM     76  C   UNL A   1      37.599  31.682  30.316  1.00  0.00     0.023 A 
ATOM     77  C   UNL A   1      36.702  32.148  29.343  1.00  0.00     0.031 A 
ATOM     78  C   UNL A   1      37.120  31.503  31.627  1.00  0.00     0.131 A 
ATOM     79  C   UNL A   1      35.381  32.459  29.703  1.00  0.00     0.055 A 
ATOM     80  C   UNL A   1      35.795  31.769  31.970  1.00  0.00     0.041 A 
ATOM     81  F   UNL A   1      37.938  31.052  32.592  1.00  0.00    -0.206 F 
ATOM     82  C   UNL A   1      34.918  32.262  31.006  1.00  0.00     0.022 A 
BRANCH  79  83
ATOM     83  S   UNL A   1      34.291  33.193  28.453  1.00  0.00     0.124 S 
ATOM     84  O   UNL A   1      33.674  32.011  27.865  1.00  0.00    -0.237 OA
ATOM     85  O   UNL A   1      33.420  34.034  29.269  1.00  0.00    -0.237 OA
ATOM     86  O   UNL A   1      35.213  33.918  27.580  1.00  0.00    -0.744 OA
ENDBRANCH  79  83
ENDBRANCH  52  76
BRANCH  64  87
ATOM     87  C   UNL A   1      43.452  35.343  31.218  1.00  0.00     0.023 A 
ATOM     88  C   UNL A   1      43.569  36.458  30.371  1.00  0.00     0.031 A 
ATOM     89  C   UNL A   1      43.596  35.545  32.602  1.00  0.00     0.131 A 
ATOM     90  C   UNL A   1      43.873  37.717  30.910  1.00  0.00     0.055 A 
ATOM     91  C   UNL A   1      43.846  36.809  33.138  1.00  0.00     0.041 A 
ATOM     92  F   UNL A   1      43.498  34.514  33.457  1.00  0.00    -0.206 F 
ATOM     93  C   UNL A   1      43.998  37.902  32.290  1.00  0.00     0.022 A 
BRANCH  90  94
ATOM     94  S   UNL A   1      44.187  39.098  29.777  1.00  0.00     0.124 S 
ATOM     95  O   UNL A   1      45.237  38.555  28.920  1.00  0.00    -0.237 OA
ATOM     96  O   UNL A   1      42.885  39.290  29.147  1.00  0.00    -0.237 OA
ATOM     97  O   UNL A   1      44.609  40.181  30.665  1.00  0.00    -0.744 OA
ENDBRANCH  90  94
ENDBRANCH  64  87
ENDBRANCH  38  39
ENDBRANCH  30  33
ENDBRANCH  28  29
ENDBRANCH   1  28
TORSDOF 16
ENDMDL
