MODEL 1
REMARK VINA RESULT:     -10.7      0.000      0.000
REMARK SMILES CCn1c(=O)n(CC)c2cc(C(=O)NCCCNC(=O)c3ccc(-c4c5nc(c(-c6cc(S(=O)(=O)[O-])ccc6F)c6ccc([nH]6)c(-c6cc(S(=O)(=O)[O-])ccc6F)c6nc(c(-c7cc(S(=O)(=O)[O-])ccc7F)c7ccc4[nH]7)C=C6)C=C5)cc3)ccc21
REMARK SMILES IDX 17 1 16 2 15 3 14 4 12 5 13 6 11 8 3 9 4 10 86 11 5 12 6 13
REMARK SMILES IDX 9 14 85 15 10 16 84 17 2 18 1 19 7 20 8 21 18 22 19 23 20 25
REMARK SMILES IDX 21 26 22 27 83 28 23 29 82 30 24 31 25 32 26 33 76 34 27 35
REMARK SMILES IDX 81 36 75 37 77 38 28 39 80 40 74 41 73 42 29 44 61 45 41 46
REMARK SMILES IDX 60 47 42 48 45 49 59 50 78 51 43 52 44 53 58 55 79 56 46 57
REMARK SMILES IDX 30 58 31 59 39 60 32 61 38 62 40 63 37 64 33 65 34 66 35 67
REMARK SMILES IDX 36 68 62 69 63 70 71 71 64 72 70 73 72 74 69 75 65 76 66 77
REMARK SMILES IDX 67 78 68 79 47 80 48 81 56 82 49 83 55 84 57 85 54 86 50 87
REMARK SMILES IDX 51 88 52 89 53 90
REMARK H PARENT 14 7 18 24 77 43 45 54
REMARK Flexibility Score: inf
ROOT
ATOM      1  C   UNL A   1      41.472  20.858  27.733  1.00  0.00     0.118 C 
ENDROOT
BRANCH   1   2
ATOM      2  C   UNL A   1      42.124  19.546  27.288  1.00  0.00     0.042 C 
BRANCH   2   3
ATOM      3  C   UNL A   1      42.185  19.397  25.765  1.00  0.00     0.118 C 
BRANCH   3   4
ATOM      4  N   UNL A   1      43.549  19.195  25.305  1.00  0.00    -0.352 N 
ATOM      5  C   UNL A   1      44.609  20.023  25.047  1.00  0.00     0.251 C 
ATOM      6  O   UNL A   1      45.656  19.476  24.692  1.00  0.00    -0.269 OA
ATOM      7  H   UNL A   1      43.760  18.247  25.142  1.00  0.00     0.163 HD
BRANCH   5   8
ATOM      8  C   UNL A   1      44.602  21.509  25.210  1.00  0.00     0.042 A 
ATOM      9  N   UNL A   1      44.484  25.539  26.243  1.00  0.00    -0.292 N 
ATOM     10  C   UNL A   1      44.693  25.460  27.636  1.00  0.00     0.329 A 
ATOM     11  C   UNL A   1      44.510  24.246  25.706  1.00  0.00     0.069 A 
ATOM     12  O   UNL A   1      44.733  26.392  28.429  1.00  0.00    -0.248 OA
ATOM     13  N   UNL A   1      44.851  24.086  27.935  1.00  0.00    -0.292 N 
ATOM     14  C   UNL A   1      44.715  23.348  26.750  1.00  0.00     0.070 A 
ATOM     15  C   UNL A   1      44.396  23.821  24.401  1.00  0.00     0.029 A 
ATOM     16  C   UNL A   1      44.759  21.985  26.529  1.00  0.00     0.042 A 
ATOM     17  C   UNL A   1      44.475  22.441  24.158  1.00  0.00     0.016 A 
BRANCH   9  18
ATOM     18  C   UNL A   1      44.231  26.751  25.505  1.00  0.00     0.124 C 
ATOM     19  C   UNL A   1      45.524  27.450  25.114  1.00  0.00     0.028 C 
ENDBRANCH   9  18
BRANCH  13  20
ATOM     20  C   UNL A   1      45.170  23.560  29.237  1.00  0.00     0.124 C 
ATOM     21  C   UNL A   1      43.946  23.281  30.092  1.00  0.00     0.028 C 
ENDBRANCH  13  20
ENDBRANCH   5   8
ENDBRANCH   3   4
ENDBRANCH   2   3
ENDBRANCH   1   2
BRANCH   1  22
ATOM     22  N   UNL A   1      40.322  21.236  26.934  1.00  0.00    -0.352 N 
ATOM     23  C   UNL A   1      39.672  22.404  26.649  1.00  0.00     0.251 C 
ATOM     24  H   UNL A   1      39.909  20.463  26.487  1.00  0.00     0.163 HD
ATOM     25  O   UNL A   1      38.705  22.297  25.889  1.00  0.00    -0.269 OA
BRANCH  23  26
ATOM     26  C   UNL A   1      39.997  23.743  27.216  1.00  0.00     0.039 A 
ATOM     27  C   UNL A   1      41.199  24.100  27.827  1.00  0.00     0.014 A 
ATOM     28  C   UNL A   1      38.974  24.708  27.138  1.00  0.00     0.014 A 
ATOM     29  C   UNL A   1      41.338  25.348  28.429  1.00  0.00     0.010 A 
ATOM     30  C   UNL A   1      39.116  25.963  27.719  1.00  0.00     0.010 A 
ATOM     31  C   UNL A   1      40.283  26.265  28.410  1.00  0.00    -0.014 A 
BRANCH  31  32
ATOM     32  C   UNL A   1      40.482  27.555  29.071  1.00  0.00     0.031 A 
ATOM     33  C   UNL A   1      41.481  28.456  28.425  1.00  0.00     0.074 A 
ATOM     34  C   UNL A   1      39.756  27.971  30.128  1.00  0.00     0.049 A 
ATOM     35  N   UNL A   1      42.612  28.873  28.894  1.00  0.00    -0.248 NA
ATOM     36  C   UNL A   1      41.232  28.845  27.031  1.00  0.00     0.031 C 
ATOM     37  C   UNL A   1      38.536  27.374  30.678  1.00  0.00     0.029 A 
ATOM     38  N   UNL A   1      39.912  29.097  30.878  1.00  0.00    -0.354 N 
ATOM     39  C   UNL A   1      43.145  29.725  27.923  1.00  0.00     0.074 A 
ATOM     40  C   UNL A   1      42.327  29.551  26.750  1.00  0.00     0.031 C 
ATOM     41  C   UNL A   1      37.942  28.262  31.508  1.00  0.00     0.029 A 
ATOM     42  C   UNL A   1      38.817  29.412  31.668  1.00  0.00     0.049 A 
ATOM     43  H   UNL A   1      40.733  29.641  30.861  1.00  0.00     0.167 HD
ATOM     44  C   UNL A   1      44.118  30.641  28.208  1.00  0.00     0.034 A 
ATOM     45  C   UNL A   1      38.604  30.568  32.345  1.00  0.00     0.034 A 
ATOM     46  C   UNL A   1      44.732  30.371  29.478  1.00  0.00     0.049 A 
ATOM     47  C   UNL A   1      39.902  31.267  32.490  1.00  0.00     0.074 A 
ATOM     48  C   UNL A   1      45.508  29.354  29.992  1.00  0.00     0.029 A 
ATOM     49  N   UNL A   1      44.300  31.100  30.557  1.00  0.00    -0.354 N 
ATOM     50  N   UNL A   1      40.879  30.855  33.248  1.00  0.00    -0.248 NA
ATOM     51  C   UNL A   1      40.272  32.221  31.457  1.00  0.00     0.031 C 
ATOM     52  C   UNL A   1      45.117  29.247  31.356  1.00  0.00     0.029 A 
ATOM     53  C   UNL A   1      44.163  30.237  31.611  1.00  0.00     0.049 A 
ATOM     54  H   UNL A   1      44.120  32.069  30.572  1.00  0.00     0.167 HD
ATOM     55  C   UNL A   1      42.023  31.126  32.515  1.00  0.00     0.074 A 
ATOM     56  C   UNL A   1      41.597  32.067  31.481  1.00  0.00     0.031 C 
ATOM     57  C   UNL A   1      43.143  30.354  32.635  1.00  0.00     0.034 A 
BRANCH  44  58
ATOM     58  C   UNL A   1      44.301  31.961  27.491  1.00  0.00     0.023 A 
ATOM     59  C   UNL A   1      43.627  33.136  27.867  1.00  0.00     0.031 A 
ATOM     60  C   UNL A   1      45.343  32.131  26.553  1.00  0.00     0.131 A 
ATOM     61  C   UNL A   1      43.974  34.388  27.340  1.00  0.00     0.055 A 
ATOM     62  C   UNL A   1      45.736  33.388  26.076  1.00  0.00     0.041 A 
ATOM     63  F   UNL A   1      46.059  31.082  26.114  1.00  0.00    -0.206 F 
ATOM     64  C   UNL A   1      45.050  34.528  26.472  1.00  0.00     0.022 A 
BRANCH  61  65
ATOM     65  S   UNL A   1      43.030  35.867  27.800  1.00  0.00     0.124 S 
ATOM     66  O   UNL A   1      41.952  35.297  28.601  1.00  0.00    -0.237 OA
ATOM     67  O   UNL A   1      44.027  36.638  28.536  1.00  0.00    -0.237 OA
ATOM     68  O   UNL A   1      42.637  36.434  26.514  1.00  0.00    -0.744 OA
ENDBRANCH  61  65
ENDBRANCH  44  58
BRANCH  45  69
ATOM     69  C   UNL A   1      37.321  31.302  32.430  1.00  0.00     0.023 A 
ATOM     70  C   UNL A   1      36.659  31.672  31.243  1.00  0.00     0.031 A 
ATOM     71  C   UNL A   1      36.908  31.920  33.622  1.00  0.00     0.131 A 
ATOM     72  C   UNL A   1      35.665  32.658  31.261  1.00  0.00     0.055 A 
ATOM     73  C   UNL A   1      35.901  32.892  33.641  1.00  0.00     0.041 A 
ATOM     74  F   UNL A   1      37.524  31.640  34.781  1.00  0.00    -0.206 F 
ATOM     75  C   UNL A   1      35.284  33.277  32.453  1.00  0.00     0.022 A 
BRANCH  72  76
ATOM     76  S   UNL A   1      34.912  33.225  29.712  1.00  0.00     0.124 S 
ATOM     77  O   UNL A   1      34.515  31.968  29.085  1.00  0.00    -0.237 OA
ATOM     78  O   UNL A   1      33.819  34.057  30.202  1.00  0.00    -0.237 OA
ATOM     79  O   UNL A   1      36.000  33.933  29.042  1.00  0.00    -0.744 OA
ENDBRANCH  72  76
ENDBRANCH  45  69
BRANCH  57  80
ATOM     80  C   UNL A   1      43.228  29.351  33.765  1.00  0.00     0.023 A 
ATOM     81  C   UNL A   1      43.954  29.739  34.906  1.00  0.00     0.031 A 
ATOM     82  C   UNL A   1      42.849  27.999  33.664  1.00  0.00     0.131 A 
ATOM     83  C   UNL A   1      44.328  28.789  35.864  1.00  0.00     0.055 A 
ATOM     84  C   UNL A   1      43.155  27.070  34.664  1.00  0.00     0.041 A 
ATOM     85  F   UNL A   1      42.258  27.515  32.564  1.00  0.00    -0.206 F 
ATOM     86  C   UNL A   1      43.915  27.459  35.761  1.00  0.00     0.022 A 
BRANCH  83  87
ATOM     87  S   UNL A   1      45.507  29.225  37.167  1.00  0.00     0.124 S 
ATOM     88  O   UNL A   1      46.239  30.334  36.564  1.00  0.00    -0.237 OA
ATOM     89  O   UNL A   1      44.622  29.586  38.274  1.00  0.00    -0.237 OA
ATOM     90  O   UNL A   1      46.278  28.002  37.370  1.00  0.00    -0.744 OA
ENDBRANCH  83  87
ENDBRANCH  57  80
ENDBRANCH  31  32
ENDBRANCH  23  26
ENDBRANCH   1  22
TORSDOF 15
ENDMDL
MODEL 2
REMARK VINA RESULT:     -10.6      3.346     10.500
REMARK SMILES CCn1c(=O)n(CC)c2cc(C(=O)NCCCNC(=O)c3ccc(-c4c5nc(c(-c6cc(S(=O)(=O)[O-])ccc6F)c6ccc([nH]6)c(-c6cc(S(=O)(=O)[O-])ccc6F)c6nc(c(-c7cc(S(=O)(=O)[O-])ccc7F)c7ccc4[nH]7)C=C6)C=C5)cc3)ccc21
REMARK SMILES IDX 17 1 16 2 15 3 14 4 12 5 13 6 11 8 3 9 4 10 86 11 5 12 6 13
REMARK SMILES IDX 9 14 85 15 10 16 84 17 2 18 1 19 7 20 8 21 18 22 19 23 20 25
REMARK SMILES IDX 21 26 22 27 83 28 23 29 82 30 24 31 25 32 26 33 76 34 27 35
REMARK SMILES IDX 81 36 75 37 77 38 28 39 80 40 74 41 73 42 29 44 61 45 41 46
REMARK SMILES IDX 60 47 42 48 45 49 59 50 78 51 43 52 44 53 58 55 79 56 46 57
REMARK SMILES IDX 30 58 31 59 39 60 32 61 38 62 40 63 37 64 33 65 34 66 35 67
REMARK SMILES IDX 36 68 62 69 63 70 71 71 64 72 70 73 72 74 69 75 65 76 66 77
REMARK SMILES IDX 67 78 68 79 47 80 48 81 56 82 49 83 55 84 57 85 54 86 50 87
REMARK SMILES IDX 51 88 52 89 53 90
REMARK H PARENT 14 7 18 24 77 43 45 54
REMARK Flexibility Score: inf
ROOT
ATOM      1  C   UNL A   1      35.154  34.137  30.592  1.00  0.00     0.118 C 
ENDROOT
BRANCH   1   2
ATOM      2  C   UNL A   1      34.416  33.666  31.848  1.00  0.00     0.042 C 
BRANCH   2   3
ATOM      3  C   UNL A   1      35.346  33.021  32.880  1.00  0.00     0.118 C 
BRANCH   3   4
ATOM      4  N   UNL A   1      35.694  31.660  32.506  1.00  0.00    -0.352 N 
ATOM      5  C   UNL A   1      36.763  30.840  32.749  1.00  0.00     0.251 C 
ATOM      6  O   UNL A   1      36.694  29.700  32.282  1.00  0.00    -0.269 OA
ATOM      7  H   UNL A   1      35.003  31.230  31.951  1.00  0.00     0.163 HD
BRANCH   5   8
ATOM      8  C   UNL A   1      37.960  31.204  33.567  1.00  0.00     0.042 A 
ATOM      9  N   UNL A   1      41.547  32.372  35.324  1.00  0.00    -0.292 N 
ATOM     10  C   UNL A   1      42.099  33.163  34.296  1.00  0.00     0.329 A 
ATOM     11  C   UNL A   1      40.298  31.894  34.910  1.00  0.00     0.069 A 
ATOM     12  O   UNL A   1      43.179  33.740  34.310  1.00  0.00    -0.248 OA
ATOM     13  N   UNL A   1      41.153  33.160  33.244  1.00  0.00    -0.292 N 
ATOM     14  C   UNL A   1      40.063  32.362  33.620  1.00  0.00     0.070 A 
ATOM     15  C   UNL A   1      39.371  31.124  35.578  1.00  0.00     0.029 A 
ATOM     16  C   UNL A   1      38.913  32.029  32.931  1.00  0.00     0.042 A 
ATOM     17  C   UNL A   1      38.182  30.807  34.903  1.00  0.00     0.016 A 
BRANCH   9  18
ATOM     18  C   UNL A   1      42.192  32.062  36.576  1.00  0.00     0.124 C 
ATOM     19  C   UNL A   1      43.132  30.875  36.445  1.00  0.00     0.028 C 
ENDBRANCH   9  18
BRANCH  13  20
ATOM     20  C   UNL A   1      41.277  33.918  32.025  1.00  0.00     0.124 C 
ATOM     21  C   UNL A   1      41.832  33.108  30.865  1.00  0.00     0.028 C 
ENDBRANCH  13  20
ENDBRANCH   5   8
ENDBRANCH   3   4
ENDBRANCH   2   3
ENDBRANCH   1   2
BRANCH   1  22
ATOM     22  N   UNL A   1      34.742  33.449  29.384  1.00  0.00    -0.352 N 
ATOM     23  C   UNL A   1      35.198  32.379  28.666  1.00  0.00     0.251 C 
ATOM     24  H   UNL A   1      33.938  33.851  28.982  1.00  0.00     0.163 HD
ATOM     25  O   UNL A   1      34.534  32.096  27.664  1.00  0.00    -0.269 OA
BRANCH  23  26
ATOM     26  C   UNL A   1      36.427  31.591  28.962  1.00  0.00     0.039 A 
ATOM     27  C   UNL A   1      37.660  32.118  29.346  1.00  0.00     0.014 A 
ATOM     28  C   UNL A   1      36.315  30.196  28.807  1.00  0.00     0.014 A 
ATOM     29  C   UNL A   1      38.771  31.287  29.475  1.00  0.00     0.010 A 
ATOM     30  C   UNL A   1      37.415  29.359  28.955  1.00  0.00     0.010 A 
ATOM     31  C   UNL A   1      38.658  29.913  29.240  1.00  0.00    -0.014 A 
BRANCH  31  32
ATOM     32  C   UNL A   1      39.860  29.092  29.377  1.00  0.00     0.031 A 
ATOM     33  C   UNL A   1      40.252  28.759  30.778  1.00  0.00     0.074 A 
ATOM     34  C   UNL A   1      40.530  28.571  28.329  1.00  0.00     0.049 A 
ATOM     35  N   UNL A   1      41.313  29.116  31.425  1.00  0.00    -0.248 NA
ATOM     36  C   UNL A   1      39.271  28.030  31.593  1.00  0.00     0.031 C 
ATOM     37  C   UNL A   1      40.112  28.516  26.926  1.00  0.00     0.029 A 
ATOM     38  N   UNL A   1      41.704  27.879  28.327  1.00  0.00    -0.354 N 
ATOM     39  C   UNL A   1      41.225  28.510  32.681  1.00  0.00     0.074 A 
ATOM     40  C   UNL A   1      39.888  27.982  32.774  1.00  0.00     0.031 C 
ATOM     41  C   UNL A   1      40.895  27.633  26.263  1.00  0.00     0.029 A 
ATOM     42  C   UNL A   1      41.957  27.191  27.150  1.00  0.00     0.049 A 
ATOM     43  H   UNL A   1      42.319  27.868  29.096  1.00  0.00     0.167 HD
ATOM     44  C   UNL A   1      42.314  28.335  33.487  1.00  0.00     0.034 A 
ATOM     45  C   UNL A   1      42.923  26.262  26.941  1.00  0.00     0.034 A 
ATOM     46  C   UNL A   1      43.422  29.137  33.047  1.00  0.00     0.049 A 
ATOM     47  C   UNL A   1      43.950  26.411  27.998  1.00  0.00     0.074 A 
ATOM     48  C   UNL A   1      43.675  30.490  32.959  1.00  0.00     0.029 A 
ATOM     49  N   UNL A   1      44.390  28.522  32.294  1.00  0.00    -0.354 N 
ATOM     50  N   UNL A   1      44.766  27.424  28.093  1.00  0.00    -0.248 NA
ATOM     51  C   UNL A   1      43.790  25.622  29.208  1.00  0.00     0.031 C 
ATOM     52  C   UNL A   1      44.479  30.638  31.795  1.00  0.00     0.029 A 
ATOM     53  C   UNL A   1      44.713  29.366  31.266  1.00  0.00     0.049 A 
ATOM     54  H   UNL A   1      44.781  27.633  32.462  1.00  0.00     0.167 HD
ATOM     55  C   UNL A   1      44.856  27.669  29.453  1.00  0.00     0.074 A 
ATOM     56  C   UNL A   1      44.331  26.463  30.091  1.00  0.00     0.031 C 
ATOM     57  C   UNL A   1      45.083  28.927  29.935  1.00  0.00     0.034 A 
BRANCH  44  58
ATOM     58  C   UNL A   1      42.484  27.208  34.482  1.00  0.00     0.023 A 
ATOM     59  C   UNL A   1      43.313  26.096  34.245  1.00  0.00     0.031 A 
ATOM     60  C   UNL A   1      41.998  27.335  35.802  1.00  0.00     0.131 A 
ATOM     61  C   UNL A   1      43.629  25.183  35.260  1.00  0.00     0.055 A 
ATOM     62  C   UNL A   1      42.367  26.461  36.832  1.00  0.00     0.041 A 
ATOM     63  F   UNL A   1      41.195  28.354  36.150  1.00  0.00    -0.206 F 
ATOM     64  C   UNL A   1      43.191  25.376  36.564  1.00  0.00     0.022 A 
BRANCH  61  65
ATOM     65  S   UNL A   1      44.644  23.725  34.891  1.00  0.00     0.124 S 
ATOM     66  O   UNL A   1      43.667  22.646  34.993  1.00  0.00    -0.237 OA
ATOM     67  O   UNL A   1      45.117  24.026  33.544  1.00  0.00    -0.237 OA
ATOM     68  O   UNL A   1      45.671  23.754  35.928  1.00  0.00    -0.744 OA
ENDBRANCH  61  65
ENDBRANCH  44  58
BRANCH  45  69
ATOM     69  C   UNL A   1      42.760  24.989  26.203  1.00  0.00     0.023 A 
ATOM     70  C   UNL A   1      41.753  24.086  26.599  1.00  0.00     0.031 A 
ATOM     71  C   UNL A   1      43.761  24.506  25.344  1.00  0.00     0.131 A 
ATOM     72  C   UNL A   1      41.794  22.750  26.187  1.00  0.00     0.055 A 
ATOM     73  C   UNL A   1      43.789  23.173  24.917  1.00  0.00     0.041 A 
ATOM     74  F   UNL A   1      44.769  25.303  24.960  1.00  0.00    -0.206 F 
ATOM     75  C   UNL A   1      42.810  22.283  25.350  1.00  0.00     0.022 A 
BRANCH  72  76
ATOM     76  S   UNL A   1      40.572  21.563  26.809  1.00  0.00     0.124 S 
ATOM     77  O   UNL A   1      39.311  22.179  26.406  1.00  0.00    -0.237 OA
ATOM     78  O   UNL A   1      40.941  20.352  26.085  1.00  0.00    -0.237 OA
ATOM     79  O   UNL A   1      40.817  21.543  28.249  1.00  0.00    -0.744 OA
ENDBRANCH  72  76
ENDBRANCH  45  69
BRANCH  57  80
ATOM     80  C   UNL A   1      45.498  30.019  28.974  1.00  0.00     0.023 A 
ATOM     81  C   UNL A   1      46.863  30.358  28.946  1.00  0.00     0.031 A 
ATOM     82  C   UNL A   1      44.604  30.869  28.296  1.00  0.00     0.131 A 
ATOM     83  C   UNL A   1      47.288  31.532  28.315  1.00  0.00     0.055 A 
ATOM     84  C   UNL A   1      45.044  31.999  27.597  1.00  0.00     0.041 A 
ATOM     85  F   UNL A   1      43.278  30.691  28.363  1.00  0.00    -0.206 F 
ATOM     86  C   UNL A   1      46.389  32.346  27.622  1.00  0.00     0.022 A 
BRANCH  83  87
ATOM     87  S   UNL A   1      48.987  32.121  28.534  1.00  0.00     0.124 S 
ATOM     88  O   UNL A   1      49.765  31.062  27.900  1.00  0.00    -0.237 OA
ATOM     89  O   UNL A   1      48.964  33.397  27.820  1.00  0.00    -0.237 OA
ATOM     90  O   UNL A   1      49.140  32.230  29.982  1.00  0.00    -0.744 OA
ENDBRANCH  83  87
ENDBRANCH  57  80
ENDBRANCH  31  32
ENDBRANCH  23  26
ENDBRANCH   1  22
TORSDOF 15
ENDMDL
MODEL 3
REMARK VINA RESULT:     -10.5      3.441     11.039
REMARK SMILES CCn1c(=O)n(CC)c2cc(C(=O)NCCCNC(=O)c3ccc(-c4c5nc(c(-c6cc(S(=O)(=O)[O-])ccc6F)c6ccc([nH]6)c(-c6cc(S(=O)(=O)[O-])ccc6F)c6nc(c(-c7cc(S(=O)(=O)[O-])ccc7F)c7ccc4[nH]7)C=C6)C=C5)cc3)ccc21
REMARK SMILES IDX 17 1 16 2 15 3 14 4 12 5 13 6 11 8 3 9 4 10 86 11 5 12 6 13
REMARK SMILES IDX 9 14 85 15 10 16 84 17 2 18 1 19 7 20 8 21 18 22 19 23 20 25
REMARK SMILES IDX 21 26 22 27 83 28 23 29 82 30 24 31 25 32 26 33 76 34 27 35
REMARK SMILES IDX 81 36 75 37 77 38 28 39 80 40 74 41 73 42 29 44 61 45 41 46
REMARK SMILES IDX 60 47 42 48 45 49 59 50 78 51 43 52 44 53 58 55 79 56 46 57
REMARK SMILES IDX 30 58 31 59 39 60 32 61 38 62 40 63 37 64 33 65 34 66 35 67
REMARK SMILES IDX 36 68 62 69 63 70 71 71 64 72 70 73 72 74 69 75 65 76 66 77
REMARK SMILES IDX 67 78 68 79 47 80 48 81 56 82 49 83 55 84 57 85 54 86 50 87
REMARK SMILES IDX 51 88 52 89 53 90
REMARK H PARENT 14 7 18 24 77 43 45 54
REMARK Flexibility Score: inf
ROOT
ATOM      1  C   UNL A   1      35.156  34.114  27.986  1.00  0.00     0.118 C 
ENDROOT
BRANCH   1   2
ATOM      2  C   UNL A   1      34.376  35.343  28.463  1.00  0.00     0.042 C 
BRANCH   2   3
ATOM      3  C   UNL A   1      33.086  34.981  29.205  1.00  0.00     0.118 C 
BRANCH   3   4
ATOM      4  N   UNL A   1      32.943  35.752  30.429  1.00  0.00    -0.352 N 
ATOM      5  C   UNL A   1      33.493  35.677  31.681  1.00  0.00     0.251 C 
ATOM      6  O   UNL A   1      33.149  36.550  32.482  1.00  0.00    -0.269 OA
ATOM      7  H   UNL A   1      32.307  36.497  30.338  1.00  0.00     0.163 HD
BRANCH   5   8
ATOM      8  C   UNL A   1      34.499  34.662  32.122  1.00  0.00     0.042 A 
ATOM      9  N   UNL A   1      37.640  32.047  32.906  1.00  0.00    -0.292 N 
ATOM     10  C   UNL A   1      38.696  32.693  32.230  1.00  0.00     0.329 A 
ATOM     11  C   UNL A   1      36.474  32.811  32.764  1.00  0.00     0.069 A 
ATOM     12  O   UNL A   1      39.856  32.313  32.142  1.00  0.00    -0.248 OA
ATOM     13  N   UNL A   1      38.147  33.873  31.675  1.00  0.00    -0.292 N 
ATOM     14  C   UNL A   1      36.780  33.926  31.988  1.00  0.00     0.070 A 
ATOM     15  C   UNL A   1      35.212  32.613  33.277  1.00  0.00     0.029 A 
ATOM     16  C   UNL A   1      35.816  34.855  31.652  1.00  0.00     0.042 A 
ATOM     17  C   UNL A   1      34.230  33.569  32.972  1.00  0.00     0.016 A 
BRANCH   9  18
ATOM     18  C   UNL A   1      37.736  30.780  33.585  1.00  0.00     0.124 C 
ATOM     19  C   UNL A   1      38.567  30.884  34.854  1.00  0.00     0.028 C 
ENDBRANCH   9  18
BRANCH  13  20
ATOM     20  C   UNL A   1      38.900  34.877  30.968  1.00  0.00     0.124 C 
ATOM     21  C   UNL A   1      39.065  34.578  29.488  1.00  0.00     0.028 C 
ENDBRANCH  13  20
ENDBRANCH   5   8
ENDBRANCH   3   4
ENDBRANCH   2   3
ENDBRANCH   1   2
BRANCH   1  22
ATOM     22  N   UNL A   1      34.362  32.900  27.951  1.00  0.00    -0.352 N 
ATOM     23  C   UNL A   1      34.620  31.561  28.047  1.00  0.00     0.251 C 
ATOM     24  H   UNL A   1      33.403  33.086  27.829  1.00  0.00     0.163 HD
ATOM     25  O   UNL A   1      33.629  30.829  27.976  1.00  0.00    -0.269 OA
BRANCH  23  26
ATOM     26  C   UNL A   1      35.968  30.941  28.167  1.00  0.00     0.039 A 
ATOM     27  C   UNL A   1      36.346  29.702  27.647  1.00  0.00     0.014 A 
ATOM     28  C   UNL A   1      36.921  31.677  28.898  1.00  0.00     0.014 A 
ATOM     29  C   UNL A   1      37.602  29.173  27.932  1.00  0.00     0.010 A 
ATOM     30  C   UNL A   1      38.184  31.163  29.167  1.00  0.00     0.010 A 
ATOM     31  C   UNL A   1      38.507  29.885  28.725  1.00  0.00    -0.014 A 
BRANCH  31  32
ATOM     32  C   UNL A   1      39.806  29.274  29.002  1.00  0.00     0.031 A 
ATOM     33  C   UNL A   1      40.070  28.957  30.436  1.00  0.00     0.074 A 
ATOM     34  C   UNL A   1      40.682  28.915  28.042  1.00  0.00     0.049 A 
ATOM     35  N   UNL A   1      40.965  29.462  31.222  1.00  0.00    -0.248 NA
ATOM     36  C   UNL A   1      39.136  28.042  31.104  1.00  0.00     0.031 C 
ATOM     37  C   UNL A   1      40.458  28.846  26.595  1.00  0.00     0.029 A 
ATOM     38  N   UNL A   1      41.947  28.431  28.180  1.00  0.00    -0.354 N 
ATOM     39  C   UNL A   1      40.826  28.800  32.445  1.00  0.00     0.074 A 
ATOM     40  C   UNL A   1      39.599  28.052  32.354  1.00  0.00     0.031 C 
ATOM     41  C   UNL A   1      41.458  28.134  26.024  1.00  0.00     0.029 A 
ATOM     42  C   UNL A   1      42.461  27.842  27.035  1.00  0.00     0.049 A 
ATOM     43  H   UNL A   1      42.455  28.494  29.022  1.00  0.00     0.167 HD
ATOM     44  C   UNL A   1      41.819  28.780  33.383  1.00  0.00     0.034 A 
ATOM     45  C   UNL A   1      43.591  27.098  26.937  1.00  0.00     0.034 A 
ATOM     46  C   UNL A   1      42.819  29.773  33.105  1.00  0.00     0.049 A 
ATOM     47  C   UNL A   1      44.436  27.377  28.120  1.00  0.00     0.074 A 
ATOM     48  C   UNL A   1      42.845  31.152  33.074  1.00  0.00     0.029 A 
ATOM     49  N   UNL A   1      43.965  29.360  32.474  1.00  0.00    -0.354 N 
ATOM     50  N   UNL A   1      45.047  28.507  28.338  1.00  0.00    -0.248 NA
ATOM     51  C   UNL A   1      44.264  26.525  29.286  1.00  0.00     0.031 C 
ATOM     52  C   UNL A   1      43.750  31.479  32.027  1.00  0.00     0.029 A 
ATOM     53  C   UNL A   1      44.264  30.286  31.511  1.00  0.00     0.049 A 
ATOM     54  H   UNL A   1      44.479  28.544  32.676  1.00  0.00     0.167 HD
ATOM     55  C   UNL A   1      44.923  28.710  29.703  1.00  0.00     0.074 A 
ATOM     56  C   UNL A   1      44.537  27.409  30.246  1.00  0.00     0.031 C 
ATOM     57  C   UNL A   1      44.868  29.968  30.232  1.00  0.00     0.034 A 
BRANCH  44  58
ATOM     58  C   UNL A   1      42.055  27.659  34.371  1.00  0.00     0.023 A 
ATOM     59  C   UNL A   1      42.804  26.509  34.062  1.00  0.00     0.031 A 
ATOM     60  C   UNL A   1      41.729  27.824  35.736  1.00  0.00     0.131 A 
ATOM     61  C   UNL A   1      43.196  25.596  35.050  1.00  0.00     0.055 A 
ATOM     62  C   UNL A   1      42.176  26.947  36.733  1.00  0.00     0.041 A 
ATOM     63  F   UNL A   1      41.014  28.881  36.155  1.00  0.00    -0.206 F 
ATOM     64  C   UNL A   1      42.918  25.825  36.392  1.00  0.00     0.022 A 
BRANCH  61  65
ATOM     65  S   UNL A   1      44.101  24.091  34.594  1.00  0.00     0.124 S 
ATOM     66  O   UNL A   1      43.018  23.127  34.436  1.00  0.00    -0.237 OA
ATOM     67  O   UNL A   1      44.764  24.506  33.362  1.00  0.00    -0.237 OA
ATOM     68  O   UNL A   1      44.990  23.871  35.731  1.00  0.00    -0.744 OA
ENDBRANCH  61  65
ENDBRANCH  44  58
BRANCH  45  69
ATOM     69  C   UNL A   1      43.743  25.846  26.161  1.00  0.00     0.023 A 
ATOM     70  C   UNL A   1      42.883  24.762  26.427  1.00  0.00     0.031 A 
ATOM     71  C   UNL A   1      44.900  25.585  25.409  1.00  0.00     0.131 A 
ATOM     72  C   UNL A   1      43.212  23.471  25.997  1.00  0.00     0.055 A 
ATOM     73  C   UNL A   1      45.218  24.297  24.963  1.00  0.00     0.041 A 
ATOM     74  F   UNL A   1      45.780  26.566  25.154  1.00  0.00    -0.206 F 
ATOM     75  C   UNL A   1      44.379  23.228  25.269  1.00  0.00     0.022 A 
BRANCH  72  76
ATOM     76  S   UNL A   1      42.170  22.060  26.458  1.00  0.00     0.124 S 
ATOM     77  O   UNL A   1      42.478  21.094  25.408  1.00  0.00    -0.237 OA
ATOM     78  O   UNL A   1      42.683  21.735  27.784  1.00  0.00    -0.237 OA
ATOM     79  O   UNL A   1      40.816  22.607  26.416  1.00  0.00    -0.744 OA
ENDBRANCH  72  76
ENDBRANCH  45  69
BRANCH  57  80
ATOM     80  C   UNL A   1      45.206  31.152  29.352  1.00  0.00     0.023 A 
ATOM     81  C   UNL A   1      46.462  31.755  29.550  1.00  0.00     0.031 A 
ATOM     82  C   UNL A   1      44.281  31.830  28.536  1.00  0.00     0.131 A 
ATOM     83  C   UNL A   1      46.740  33.010  28.997  1.00  0.00     0.055 A 
ATOM     84  C   UNL A   1      44.593  33.047  27.919  1.00  0.00     0.041 A 
ATOM     85  F   UNL A   1      43.025  31.393  28.384  1.00  0.00    -0.206 F 
ATOM     86  C   UNL A   1      45.820  33.652  28.165  1.00  0.00     0.022 A 
BRANCH  83  87
ATOM     87  S   UNL A   1      48.228  33.914  29.494  1.00  0.00     0.124 S 
ATOM     88  O   UNL A   1      49.279  33.195  28.780  1.00  0.00    -0.237 OA
ATOM     89  O   UNL A   1      47.946  35.262  29.002  1.00  0.00    -0.237 OA
ATOM     90  O   UNL A   1      48.255  33.783  30.947  1.00  0.00    -0.744 OA
ENDBRANCH  83  87
ENDBRANCH  57  80
ENDBRANCH  31  32
ENDBRANCH  23  26
ENDBRANCH   1  22
TORSDOF 15
ENDMDL
