MODEL 1
REMARK VINA RESULT:     -12.7      0.000      0.000
REMARK SMILES Cc1cnc(NC(=O)[C@H]2[C@H]3CC[C@H](CC3)[C@H]2C(=O)NCCCNC(=O)c2ccc(-c3c4nc(c(-c5cc(S(=O)(=O)[O-])ccc5F)c5ccc([nH]5)c(-c5cc(S(=O)(=O)[O-])ccc5F)c5nc(c(-c6cc(S(=O)(=O)[O-])ccc6F)c6ccc3[nH]6)C=C5)C=C4)cc2)s1
REMARK SMILES IDX 21 1 20 2 19 3 17 4 18 5 16 7 9 8 10 9 15 10 11 11 13 12
REMARK SMILES IDX 14 13 12 14 7 15 6 16 8 18 5 19 1 20 2 21 3 22 89 23 4 24
REMARK SMILES IDX 22 25 23 26 24 27 25 29 26 30 27 31 88 32 28 33 87 34 29 35
REMARK SMILES IDX 30 36 31 37 81 38 32 39 86 40 80 41 82 42 33 43 85 44 79 45
REMARK SMILES IDX 78 46 34 48 66 49 46 50 65 51 47 52 50 53 64 54 83 55 48 56
REMARK SMILES IDX 49 57 63 59 84 60 51 61 35 62 36 63 44 64 37 65 43 66 45 67
REMARK SMILES IDX 42 68 38 69 39 70 40 71 41 72 67 73 68 74 76 75 69 76 75 77
REMARK SMILES IDX 77 78 74 79 70 80 71 81 72 82 73 83 52 84 53 85 61 86 54 87
REMARK SMILES IDX 60 88 62 89 59 90 55 91 56 92 57 93 58 94
REMARK H PARENT 19 6 6 17 23 28 82 47 50 58
REMARK Flexibility Score: inf
ROOT
ATOM      1  C   UNL A   1      31.397  32.147  26.727  1.00  0.00     0.042 C 
ENDROOT
BRANCH   1   2
ATOM      2  C   UNL A   1      31.504  30.769  26.118  1.00  0.00     0.117 C 
BRANCH   2   3
ATOM      3  N   UNL A   1      32.736  30.056  26.309  1.00  0.00    -0.356 N 
ATOM      4  C   UNL A   1      33.068  28.834  25.809  1.00  0.00     0.224 C 
ATOM      5  O   UNL A   1      34.275  28.587  25.701  1.00  0.00    -0.275 OA
ATOM      6  H   UNL A   1      33.418  30.500  26.863  1.00  0.00     0.163 HD
BRANCH   4   7
ATOM      7  C   UNL A   1      32.041  27.761  25.386  1.00  0.00     0.094 C 
ATOM      8  C   UNL A   1      31.802  27.421  23.894  1.00  0.00     0.094 C 
ATOM      9  C   UNL A   1      31.914  25.868  23.689  1.00  0.00     0.002 C 
ATOM     10  C   UNL A   1      33.113  25.172  24.374  1.00  0.00     0.005 C 
ATOM     11  C   UNL A   1      30.679  25.271  24.404  1.00  0.00     0.005 C 
ATOM     12  C   UNL A   1      32.007  26.462  26.230  1.00  0.00     0.002 C 
ATOM     13  C   UNL A   1      33.157  25.515  25.873  1.00  0.00     0.005 C 
ATOM     14  C   UNL A   1      30.689  25.711  25.885  1.00  0.00     0.005 C 
BRANCH   8  15
ATOM     15  C   UNL A   1      32.456  28.319  22.838  1.00  0.00     0.230 C 
ATOM     16  N   UNL A   1      31.775  29.342  22.233  1.00  0.00    -0.302 N 
ATOM     17  H   UNL A   1      32.325  29.926  21.662  1.00  0.00     0.172 HD
ATOM     18  O   UNL A   1      33.640  28.145  22.532  1.00  0.00    -0.274 OA
BRANCH  16  19
ATOM     19  C   UNL A   1      30.448  29.680  22.297  1.00  0.00     0.189 A 
ATOM     20  C   UNL A   1      27.395  31.555  23.654  1.00  0.00     0.058 C 
ATOM     21  C   UNL A   1      28.377  30.706  22.939  1.00  0.00     0.023 A 
ATOM     22  C   UNL A   1      28.509  30.415  21.595  1.00  0.00     0.128 A 
ATOM     23  S   UNL A   1      29.649  29.932  23.784  1.00  0.00    -0.102 S 
ATOM     24  N   UNL A   1      29.668  29.738  21.244  1.00  0.00    -0.228 NA
ENDBRANCH  16  19
ENDBRANCH   8  15
ENDBRANCH   4   7
ENDBRANCH   2   3
ENDBRANCH   1   2
BRANCH   1  25
ATOM     25  C   UNL A   1      32.726  32.787  27.045  1.00  0.00     0.118 C 
BRANCH  25  26
ATOM     26  N   UNL A   1      32.593  34.086  27.692  1.00  0.00    -0.352 N 
ATOM     27  C   UNL A   1      33.242  34.635  28.776  1.00  0.00     0.251 C 
ATOM     28  H   UNL A   1      31.919  34.676  27.283  1.00  0.00     0.163 HD
ATOM     29  O   UNL A   1      32.809  35.672  29.264  1.00  0.00    -0.269 OA
BRANCH  27  30
ATOM     30  C   UNL A   1      34.425  33.968  29.367  1.00  0.00     0.039 A 
ATOM     31  C   UNL A   1      35.704  34.452  29.075  1.00  0.00     0.014 A 
ATOM     32  C   UNL A   1      34.285  32.861  30.202  1.00  0.00     0.014 A 
ATOM     33  C   UNL A   1      36.821  33.875  29.689  1.00  0.00     0.010 A 
ATOM     34  C   UNL A   1      35.372  32.395  30.928  1.00  0.00     0.010 A 
ATOM     35  C   UNL A   1      36.661  32.874  30.660  1.00  0.00    -0.014 A 
BRANCH  35  36
ATOM     36  C   UNL A   1      37.817  32.276  31.378  1.00  0.00     0.031 A 
ATOM     37  C   UNL A   1      38.585  31.144  30.746  1.00  0.00     0.074 A 
ATOM     38  C   UNL A   1      38.119  32.690  32.625  1.00  0.00     0.049 A 
ATOM     39  N   UNL A   1      39.551  30.415  31.244  1.00  0.00    -0.248 NA
ATOM     40  C   UNL A   1      38.179  30.745  29.389  1.00  0.00     0.031 C 
ATOM     41  C   UNL A   1      37.402  33.729  33.369  1.00  0.00     0.029 A 
ATOM     42  N   UNL A   1      39.098  32.278  33.494  1.00  0.00    -0.354 N 
ATOM     43  C   UNL A   1      39.838  29.456  30.278  1.00  0.00     0.074 A 
ATOM     44  C   UNL A   1      38.889  29.645  29.203  1.00  0.00     0.031 C 
ATOM     45  C   UNL A   1      37.985  33.895  34.566  1.00  0.00     0.029 A 
ATOM     46  C   UNL A   1      39.077  32.937  34.702  1.00  0.00     0.049 A 
ATOM     47  H   UNL A   1      39.753  31.577  33.275  1.00  0.00     0.167 HD
ATOM     48  C   UNL A   1      40.823  28.522  30.272  1.00  0.00     0.034 A 
ATOM     49  C   UNL A   1      39.839  32.776  35.803  1.00  0.00     0.034 A 
ATOM     50  C   UNL A   1      41.774  28.372  31.345  1.00  0.00     0.049 A 
ATOM     51  C   UNL A   1      40.932  31.740  35.778  1.00  0.00     0.074 A 
ATOM     52  C   UNL A   1      42.866  27.527  31.416  1.00  0.00     0.029 A 
ATOM     53  N   UNL A   1      41.739  29.077  32.543  1.00  0.00    -0.354 N 
ATOM     54  N   UNL A   1      41.244  30.892  34.823  1.00  0.00    -0.248 NA
ATOM     55  C   UNL A   1      41.783  31.647  36.970  1.00  0.00     0.031 C 
ATOM     56  C   UNL A   1      43.438  27.657  32.685  1.00  0.00     0.029 A 
ATOM     57  C   UNL A   1      42.763  28.653  33.375  1.00  0.00     0.049 A 
ATOM     58  H   UNL A   1      41.083  29.775  32.768  1.00  0.00     0.167 HD
ATOM     59  C   UNL A   1      42.346  30.181  35.293  1.00  0.00     0.074 A 
ATOM     60  C   UNL A   1      42.651  30.713  36.606  1.00  0.00     0.031 C 
ATOM     61  C   UNL A   1      43.043  29.183  34.691  1.00  0.00     0.034 A 
BRANCH  48  62
ATOM     62  C   UNL A   1      40.889  27.585  29.086  1.00  0.00     0.023 A 
ATOM     63  C   UNL A   1      41.845  27.739  28.066  1.00  0.00     0.031 A 
ATOM     64  C   UNL A   1      39.947  26.550  28.945  1.00  0.00     0.131 A 
ATOM     65  C   UNL A   1      41.775  26.946  26.910  1.00  0.00     0.055 A 
ATOM     66  C   UNL A   1      39.945  25.699  27.837  1.00  0.00     0.041 A 
ATOM     67  F   UNL A   1      38.994  26.362  29.871  1.00  0.00    -0.206 F 
ATOM     68  C   UNL A   1      40.849  25.909  26.801  1.00  0.00     0.022 A 
BRANCH  65  69
ATOM     69  S   UNL A   1      42.786  27.416  25.478  1.00  0.00     0.124 S 
ATOM     70  O   UNL A   1      42.798  26.176  24.704  1.00  0.00    -0.237 OA
ATOM     71  O   UNL A   1      42.027  28.520  24.903  1.00  0.00    -0.237 OA
ATOM     72  O   UNL A   1      44.071  27.782  26.071  1.00  0.00    -0.744 OA
ENDBRANCH  65  69
ENDBRANCH  48  62
BRANCH  49  73
ATOM     73  C   UNL A   1      39.580  33.601  37.020  1.00  0.00     0.023 A 
ATOM     74  C   UNL A   1      38.877  33.082  38.119  1.00  0.00     0.031 A 
ATOM     75  C   UNL A   1      40.029  34.932  37.094  1.00  0.00     0.131 A 
ATOM     76  C   UNL A   1      38.614  33.901  39.230  1.00  0.00     0.055 A 
ATOM     77  C   UNL A   1      39.811  35.724  38.222  1.00  0.00     0.041 A 
ATOM     78  F   UNL A   1      40.709  35.476  36.072  1.00  0.00    -0.206 F 
ATOM     79  C   UNL A   1      39.090  35.212  39.295  1.00  0.00     0.022 A 
BRANCH  76  80
ATOM     80  S   UNL A   1      37.574  33.248  40.566  1.00  0.00     0.124 S 
ATOM     81  O   UNL A   1      38.390  32.149  41.068  1.00  0.00    -0.237 OA
ATOM     82  O   UNL A   1      37.446  34.406  41.444  1.00  0.00    -0.237 OA
ATOM     83  O   UNL A   1      36.346  32.852  39.879  1.00  0.00    -0.744 OA
ENDBRANCH  76  80
ENDBRANCH  49  73
BRANCH  61  84
ATOM     84  C   UNL A   1      44.234  28.630  35.438  1.00  0.00     0.023 A 
ATOM     85  C   UNL A   1      44.107  27.586  36.371  1.00  0.00     0.031 A 
ATOM     86  C   UNL A   1      45.518  29.160  35.211  1.00  0.00     0.131 A 
ATOM     87  C   UNL A   1      45.233  27.145  37.083  1.00  0.00     0.055 A 
ATOM     88  C   UNL A   1      46.644  28.669  35.871  1.00  0.00     0.041 A 
ATOM     89  F   UNL A   1      45.699  30.161  34.335  1.00  0.00    -0.206 F 
ATOM     90  C   UNL A   1      46.503  27.664  36.824  1.00  0.00     0.022 A 
BRANCH  87  91
ATOM     91  S   UNL A   1      44.998  25.955  38.431  1.00  0.00     0.124 S 
ATOM     92  O   UNL A   1      46.373  25.669  38.826  1.00  0.00    -0.237 OA
ATOM     93  O   UNL A   1      44.204  26.718  39.388  1.00  0.00    -0.237 OA
ATOM     94  O   UNL A   1      44.294  24.845  37.789  1.00  0.00    -0.744 OA
ENDBRANCH  87  91
ENDBRANCH  61  84
ENDBRANCH  35  36
ENDBRANCH  27  30
ENDBRANCH  25  26
ENDBRANCH   1  25
TORSDOF 15
ENDMDL
MODEL 2
REMARK VINA RESULT:     -12.4      6.428     12.086
REMARK SMILES Cc1cnc(NC(=O)[C@H]2[C@H]3CC[C@H](CC3)[C@H]2C(=O)NCCCNC(=O)c2ccc(-c3c4nc(c(-c5cc(S(=O)(=O)[O-])ccc5F)c5ccc([nH]5)c(-c5cc(S(=O)(=O)[O-])ccc5F)c5nc(c(-c6cc(S(=O)(=O)[O-])ccc6F)c6ccc3[nH]6)C=C5)C=C4)cc2)s1
REMARK SMILES IDX 21 1 20 2 19 3 17 4 18 5 16 7 9 8 10 9 15 10 11 11 13 12
REMARK SMILES IDX 14 13 12 14 7 15 6 16 8 18 5 19 1 20 2 21 3 22 89 23 4 24
REMARK SMILES IDX 22 25 23 26 24 27 25 29 26 30 27 31 88 32 28 33 87 34 29 35
REMARK SMILES IDX 30 36 31 37 81 38 32 39 86 40 80 41 82 42 33 43 85 44 79 45
REMARK SMILES IDX 78 46 34 48 66 49 46 50 65 51 47 52 50 53 64 54 83 55 48 56
REMARK SMILES IDX 49 57 63 59 84 60 51 61 35 62 36 63 44 64 37 65 43 66 45 67
REMARK SMILES IDX 42 68 38 69 39 70 40 71 41 72 67 73 68 74 76 75 69 76 75 77
REMARK SMILES IDX 77 78 74 79 70 80 71 81 72 82 73 83 52 84 53 85 61 86 54 87
REMARK SMILES IDX 60 88 62 89 59 90 55 91 56 92 57 93 58 94
REMARK H PARENT 19 6 6 17 23 28 82 47 50 58
REMARK Flexibility Score: inf
ROOT
ATOM      1  C   UNL A   1      38.261  19.666  25.016  1.00  0.00     0.042 C 
ENDROOT
BRANCH   1   2
ATOM      2  C   UNL A   1      37.325  20.768  24.580  1.00  0.00     0.117 C 
BRANCH   2   3
ATOM      3  N   UNL A   1      37.371  22.003  25.314  1.00  0.00    -0.356 N 
ATOM      4  C   UNL A   1      36.335  22.846  25.577  1.00  0.00     0.224 C 
ATOM      5  O   UNL A   1      36.457  23.589  26.557  1.00  0.00    -0.275 OA
ATOM      6  H   UNL A   1      38.250  22.269  25.667  1.00  0.00     0.163 HD
BRANCH   4   7
ATOM      7  C   UNL A   1      35.044  22.926  24.731  1.00  0.00     0.094 C 
ATOM      8  C   UNL A   1      33.694  22.399  25.274  1.00  0.00     0.094 C 
ATOM      9  C   UNL A   1      32.597  23.513  25.113  1.00  0.00     0.002 C 
ATOM     10  C   UNL A   1      33.006  24.941  25.541  1.00  0.00     0.005 C 
ATOM     11  C   UNL A   1      32.359  23.635  23.589  1.00  0.00     0.005 C 
ATOM     12  C   UNL A   1      34.814  24.238  23.939  1.00  0.00     0.002 C 
ATOM     13  C   UNL A   1      34.306  25.369  24.838  1.00  0.00     0.005 C 
ATOM     14  C   UNL A   1      33.697  23.965  22.891  1.00  0.00     0.005 C 
BRANCH   8  15
ATOM     15  C   UNL A   1      33.705  21.608  26.586  1.00  0.00     0.230 C 
ATOM     16  N   UNL A   1      33.603  20.241  26.611  1.00  0.00    -0.302 N 
ATOM     17  H   UNL A   1      33.741  19.831  27.495  1.00  0.00     0.172 HD
ATOM     18  O   UNL A   1      33.836  22.202  27.660  1.00  0.00    -0.274 OA
BRANCH  16  19
ATOM     19  C   UNL A   1      33.338  19.357  25.598  1.00  0.00     0.189 A 
ATOM     20  C   UNL A   1      34.020  16.326  23.355  1.00  0.00     0.058 C 
ATOM     21  C   UNL A   1      33.504  17.524  24.059  1.00  0.00     0.023 A 
ATOM     22  C   UNL A   1      32.224  17.852  24.462  1.00  0.00     0.128 A 
ATOM     23  S   UNL A   1      34.563  18.770  24.564  1.00  0.00    -0.102 S 
ATOM     24  N   UNL A   1      32.126  18.971  25.277  1.00  0.00    -0.228 NA
ENDBRANCH  16  19
ENDBRANCH   8  15
ENDBRANCH   4   7
ENDBRANCH   2   3
ENDBRANCH   1   2
BRANCH   1  25
ATOM     25  C   UNL A   1      39.249  20.078  26.080  1.00  0.00     0.118 C 
BRANCH  25  26
ATOM     26  N   UNL A   1      40.472  19.285  26.060  1.00  0.00    -0.352 N 
ATOM     27  C   UNL A   1      41.797  19.654  26.130  1.00  0.00     0.251 C 
ATOM     28  H   UNL A   1      40.324  18.315  25.983  1.00  0.00     0.163 HD
ATOM     29  O   UNL A   1      42.659  18.818  25.884  1.00  0.00    -0.269 OA
BRANCH  27  30
ATOM     30  C   UNL A   1      42.180  21.045  26.464  1.00  0.00     0.039 A 
ATOM     31  C   UNL A   1      42.529  21.366  27.779  1.00  0.00     0.014 A 
ATOM     32  C   UNL A   1      42.189  22.042  25.490  1.00  0.00     0.014 A 
ATOM     33  C   UNL A   1      42.963  22.660  28.086  1.00  0.00     0.010 A 
ATOM     34  C   UNL A   1      42.768  23.274  25.760  1.00  0.00     0.010 A 
ATOM     35  C   UNL A   1      43.135  23.612  27.069  1.00  0.00    -0.014 A 
BRANCH  35  36
ATOM     36  C   UNL A   1      43.651  24.979  27.344  1.00  0.00     0.031 A 
ATOM     37  C   UNL A   1      42.721  26.032  27.893  1.00  0.00     0.074 A 
ATOM     38  C   UNL A   1      44.921  25.294  27.022  1.00  0.00     0.049 A 
ATOM     39  N   UNL A   1      42.939  27.305  28.100  1.00  0.00    -0.248 NA
ATOM     40  C   UNL A   1      41.347  25.605  28.201  1.00  0.00     0.031 C 
ATOM     41  C   UNL A   1      45.893  24.379  26.420  1.00  0.00     0.029 A 
ATOM     42  N   UNL A   1      45.610  26.474  27.143  1.00  0.00    -0.354 N 
ATOM     43  C   UNL A   1      41.724  27.832  28.528  1.00  0.00     0.074 A 
ATOM     44  C   UNL A   1      40.758  26.759  28.469  1.00  0.00     0.031 C 
ATOM     45  C   UNL A   1      47.060  25.022  26.254  1.00  0.00     0.029 A 
ATOM     46  C   UNL A   1      46.905  26.408  26.681  1.00  0.00     0.049 A 
ATOM     47  H   UNL A   1      45.216  27.293  27.523  1.00  0.00     0.167 HD
ATOM     48  C   UNL A   1      41.447  29.088  28.960  1.00  0.00     0.034 A 
ATOM     49  C   UNL A   1      47.855  27.360  26.593  1.00  0.00     0.034 A 
ATOM     50  C   UNL A   1      42.437  30.133  29.036  1.00  0.00     0.049 A 
ATOM     51  C   UNL A   1      47.533  28.748  27.084  1.00  0.00     0.074 A 
ATOM     52  C   UNL A   1      42.300  31.414  29.537  1.00  0.00     0.029 A 
ATOM     53  N   UNL A   1      43.748  30.021  28.585  1.00  0.00    -0.354 N 
ATOM     54  N   UNL A   1      46.400  29.212  27.562  1.00  0.00    -0.248 NA
ATOM     55  C   UNL A   1      48.618  29.735  27.036  1.00  0.00     0.031 C 
ATOM     56  C   UNL A   1      43.496  32.102  29.311  1.00  0.00     0.029 A 
ATOM     57  C   UNL A   1      44.414  31.224  28.756  1.00  0.00     0.049 A 
ATOM     58  H   UNL A   1      44.144  29.207  28.199  1.00  0.00     0.167 HD
ATOM     59  C   UNL A   1      46.646  30.542  27.895  1.00  0.00     0.074 A 
ATOM     60  C   UNL A   1      48.038  30.796  27.579  1.00  0.00     0.031 C 
ATOM     61  C   UNL A   1      45.799  31.466  28.418  1.00  0.00     0.034 A 
BRANCH  48  62
ATOM     62  C   UNL A   1      40.017  29.391  29.350  1.00  0.00     0.023 A 
ATOM     63  C   UNL A   1      39.613  29.479  30.694  1.00  0.00     0.031 A 
ATOM     64  C   UNL A   1      39.029  29.545  28.360  1.00  0.00     0.131 A 
ATOM     65  C   UNL A   1      38.251  29.608  31.012  1.00  0.00     0.055 A 
ATOM     66  C   UNL A   1      37.689  29.773  28.684  1.00  0.00     0.041 A 
ATOM     67  F   UNL A   1      39.343  29.450  27.059  1.00  0.00    -0.206 F 
ATOM     68  C   UNL A   1      37.290  29.784  30.016  1.00  0.00     0.022 A 
BRANCH  65  69
ATOM     69  S   UNL A   1      37.739  29.353  32.735  1.00  0.00     0.124 S 
ATOM     70  O   UNL A   1      37.674  27.895  32.812  1.00  0.00    -0.237 OA
ATOM     71  O   UNL A   1      38.820  29.984  33.482  1.00  0.00    -0.237 OA
ATOM     72  O   UNL A   1      36.447  30.030  32.812  1.00  0.00    -0.744 OA
ENDBRANCH  65  69
ENDBRANCH  48  62
BRANCH  49  73
ATOM     73  C   UNL A   1      49.187  27.037  26.002  1.00  0.00     0.023 A 
ATOM     74  C   UNL A   1      49.510  27.399  24.685  1.00  0.00     0.031 A 
ATOM     75  C   UNL A   1      50.157  26.347  26.752  1.00  0.00     0.131 A 
ATOM     76  C   UNL A   1      50.758  27.040  24.147  1.00  0.00     0.055 A 
ATOM     77  C   UNL A   1      51.414  26.040  26.231  1.00  0.00     0.041 A 
ATOM     78  F   UNL A   1      49.901  25.980  28.018  1.00  0.00    -0.206 F 
ATOM     79  C   UNL A   1      51.717  26.378  24.916  1.00  0.00     0.022 A 
BRANCH  76  80
ATOM     80  S   UNL A   1      51.085  27.389  22.397  1.00  0.00     0.124 S 
ATOM     81  O   UNL A   1      52.380  26.746  22.202  1.00  0.00    -0.237 OA
ATOM     82  O   UNL A   1      49.947  26.751  21.743  1.00  0.00    -0.237 OA
ATOM     83  O   UNL A   1      51.097  28.849  22.337  1.00  0.00    -0.744 OA
ENDBRANCH  76  80
ENDBRANCH  49  73
BRANCH  61  84
ATOM     84  C   UNL A   1      46.373  32.831  28.719  1.00  0.00     0.023 A 
ATOM     85  C   UNL A   1      46.405  33.853  27.754  1.00  0.00     0.031 A 
ATOM     86  C   UNL A   1      46.897  33.110  29.995  1.00  0.00     0.131 A 
ATOM     87  C   UNL A   1      47.000  35.085  28.062  1.00  0.00     0.055 A 
ATOM     88  C   UNL A   1      47.425  34.361  30.316  1.00  0.00     0.041 A 
ATOM     89  F   UNL A   1      46.898  32.171  30.954  1.00  0.00    -0.206 F 
ATOM     90  C   UNL A   1      47.490  35.353  29.342  1.00  0.00     0.022 A 
BRANCH  87  91
ATOM     91  S   UNL A   1      47.222  36.300  26.734  1.00  0.00     0.124 S 
ATOM     92  O   UNL A   1      46.449  35.706  25.648  1.00  0.00    -0.237 OA
ATOM     93  O   UNL A   1      46.666  37.513  27.324  1.00  0.00    -0.237 OA
ATOM     94  O   UNL A   1      48.669  36.320  26.526  1.00  0.00    -0.744 OA
ENDBRANCH  87  91
ENDBRANCH  61  84
ENDBRANCH  35  36
ENDBRANCH  27  30
ENDBRANCH  25  26
ENDBRANCH   1  25
TORSDOF 15
ENDMDL
MODEL 3
REMARK VINA RESULT:     -12.3      1.825      2.160
REMARK SMILES Cc1cnc(NC(=O)[C@H]2[C@H]3CC[C@H](CC3)[C@H]2C(=O)NCCCNC(=O)c2ccc(-c3c4nc(c(-c5cc(S(=O)(=O)[O-])ccc5F)c5ccc([nH]5)c(-c5cc(S(=O)(=O)[O-])ccc5F)c5nc(c(-c6cc(S(=O)(=O)[O-])ccc6F)c6ccc3[nH]6)C=C5)C=C4)cc2)s1
REMARK SMILES IDX 21 1 20 2 19 3 17 4 18 5 16 7 9 8 10 9 15 10 11 11 13 12
REMARK SMILES IDX 14 13 12 14 7 15 6 16 8 18 5 19 1 20 2 21 3 22 89 23 4 24
REMARK SMILES IDX 22 25 23 26 24 27 25 29 26 30 27 31 88 32 28 33 87 34 29 35
REMARK SMILES IDX 30 36 31 37 81 38 32 39 86 40 80 41 82 42 33 43 85 44 79 45
REMARK SMILES IDX 78 46 34 48 66 49 46 50 65 51 47 52 50 53 64 54 83 55 48 56
REMARK SMILES IDX 49 57 63 59 84 60 51 61 35 62 36 63 44 64 37 65 43 66 45 67
REMARK SMILES IDX 42 68 38 69 39 70 40 71 41 72 67 73 68 74 76 75 69 76 75 77
REMARK SMILES IDX 77 78 74 79 70 80 71 81 72 82 73 83 52 84 53 85 61 86 54 87
REMARK SMILES IDX 60 88 62 89 59 90 55 91 56 92 57 93 58 94
REMARK H PARENT 19 6 6 17 23 28 82 47 50 58
REMARK Flexibility Score: inf
ROOT
ATOM      1  C   UNL A   1      31.200  31.758  26.479  1.00  0.00     0.042 C 
ENDROOT
BRANCH   1   2
ATOM      2  C   UNL A   1      31.400  30.286  26.208  1.00  0.00     0.117 C 
BRANCH   2   3
ATOM      3  N   UNL A   1      32.629  29.693  26.657  1.00  0.00    -0.356 N 
ATOM      4  C   UNL A   1      33.196  28.536  26.217  1.00  0.00     0.224 C 
ATOM      5  O   UNL A   1      34.415  28.417  26.381  1.00  0.00    -0.275 OA
ATOM      6  H   UNL A   1      33.116  30.176  27.362  1.00  0.00     0.163 HD
BRANCH   4   7
ATOM      7  C   UNL A   1      32.412  27.386  25.545  1.00  0.00     0.094 C 
ATOM      8  C   UNL A   1      32.272  27.302  24.005  1.00  0.00     0.094 C 
ATOM      9  C   UNL A   1      32.698  25.870  23.520  1.00  0.00     0.002 C 
ATOM     10  C   UNL A   1      34.001  25.302  24.128  1.00  0.00     0.005 C 
ATOM     11  C   UNL A   1      31.597  24.917  24.043  1.00  0.00     0.005 C 
ATOM     12  C   UNL A   1      32.627  25.966  26.128  1.00  0.00     0.002 C 
ATOM     13  C   UNL A   1      33.950  25.350  25.665  1.00  0.00     0.005 C 
ATOM     14  C   UNL A   1      31.493  25.055  25.578  1.00  0.00     0.005 C 
BRANCH   8  15
ATOM     15  C   UNL A   1      32.749  28.497  23.173  1.00  0.00     0.230 C 
ATOM     16  N   UNL A   1      31.871  29.335  22.536  1.00  0.00    -0.302 N 
ATOM     17  H   UNL A   1      32.278  30.134  22.131  1.00  0.00     0.172 HD
ATOM     18  O   UNL A   1      33.955  28.743  23.086  1.00  0.00    -0.274 OA
BRANCH  16  19
ATOM     19  C   UNL A   1      30.514  29.233  22.372  1.00  0.00     0.189 A 
ATOM     20  C   UNL A   1      26.911  28.578  23.500  1.00  0.00     0.058 C 
ATOM     21  C   UNL A   1      28.178  28.889  22.796  1.00  0.00     0.023 A 
ATOM     22  C   UNL A   1      28.479  29.874  21.876  1.00  0.00     0.128 A 
ATOM     23  S   UNL A   1      29.602  27.995  23.115  1.00  0.00    -0.102 S 
ATOM     24  N   UNL A   1      29.825  30.004  21.565  1.00  0.00    -0.228 NA
ENDBRANCH  16  19
ENDBRANCH   8  15
ENDBRANCH   4   7
ENDBRANCH   2   3
ENDBRANCH   1   2
BRANCH   1  25
ATOM     25  C   UNL A   1      32.481  32.554  26.551  1.00  0.00     0.118 C 
BRANCH  25  26
ATOM     26  N   UNL A   1      32.324  33.825  27.247  1.00  0.00    -0.352 N 
ATOM     27  C   UNL A   1      32.975  34.350  28.341  1.00  0.00     0.251 C 
ATOM     28  H   UNL A   1      31.630  34.411  26.868  1.00  0.00     0.163 HD
ATOM     29  O   UNL A   1      32.523  35.357  28.873  1.00  0.00    -0.269 OA
BRANCH  27  30
ATOM     30  C   UNL A   1      34.182  33.692  28.891  1.00  0.00     0.039 A 
ATOM     31  C   UNL A   1      35.427  34.315  28.755  1.00  0.00     0.014 A 
ATOM     32  C   UNL A   1      34.100  32.459  29.535  1.00  0.00     0.014 A 
ATOM     33  C   UNL A   1      36.560  33.738  29.338  1.00  0.00     0.010 A 
ATOM     34  C   UNL A   1      35.188  31.970  30.244  1.00  0.00     0.010 A 
ATOM     35  C   UNL A   1      36.441  32.585  30.131  1.00  0.00    -0.014 A 
BRANCH  35  36
ATOM     36  C   UNL A   1      37.611  31.974  30.816  1.00  0.00     0.031 A 
ATOM     37  C   UNL A   1      38.438  30.937  30.099  1.00  0.00     0.074 A 
ATOM     38  C   UNL A   1      37.873  32.284  32.100  1.00  0.00     0.049 A 
ATOM     39  N   UNL A   1      39.426  30.207  30.550  1.00  0.00    -0.248 NA
ATOM     40  C   UNL A   1      38.072  30.647  28.704  1.00  0.00     0.031 C 
ATOM     41  C   UNL A   1      37.100  33.220  32.921  1.00  0.00     0.029 A 
ATOM     42  N   UNL A   1      38.855  31.836  32.949  1.00  0.00    -0.354 N 
ATOM     43  C   UNL A   1      39.772  29.353  29.506  1.00  0.00     0.074 A 
ATOM     44  C   UNL A   1      38.834  29.600  28.434  1.00  0.00     0.031 C 
ATOM     45  C   UNL A   1      37.655  33.300  34.140  1.00  0.00     0.029 A 
ATOM     46  C   UNL A   1      38.785  32.381  34.211  1.00  0.00     0.049 A 
ATOM     47  H   UNL A   1      39.544  31.186  32.681  1.00  0.00     0.167 HD
ATOM     48  C   UNL A   1      40.796  28.466  29.437  1.00  0.00     0.034 A 
ATOM     49  C   UNL A   1      39.535  32.152  35.308  1.00  0.00     0.034 A 
ATOM     50  C   UNL A   1      41.735  28.258  30.511  1.00  0.00     0.049 A 
ATOM     51  C   UNL A   1      40.673  31.169  35.212  1.00  0.00     0.074 A 
ATOM     52  C   UNL A   1      42.861  27.457  30.527  1.00  0.00     0.029 A 
ATOM     53  N   UNL A   1      41.649  28.849  31.767  1.00  0.00    -0.354 N 
ATOM     54  N   UNL A   1      41.037  30.426  34.191  1.00  0.00    -0.248 NA
ATOM     55  C   UNL A   1      41.506  31.003  36.408  1.00  0.00     0.031 C 
ATOM     56  C   UNL A   1      43.406  27.495  31.815  1.00  0.00     0.029 A 
ATOM     57  C   UNL A   1      42.677  28.394  32.578  1.00  0.00     0.049 A 
ATOM     58  H   UNL A   1      40.959  29.495  32.040  1.00  0.00     0.167 HD
ATOM     59  C   UNL A   1      42.161  29.722  34.618  1.00  0.00     0.074 A 
ATOM     60  C   UNL A   1      42.420  30.144  35.979  1.00  0.00     0.031 C 
ATOM     61  C   UNL A   1      42.911  28.813  33.942  1.00  0.00     0.034 A 
BRANCH  48  62
ATOM     62  C   UNL A   1      40.923  27.645  28.173  1.00  0.00     0.023 A 
ATOM     63  C   UNL A   1      40.554  26.288  28.124  1.00  0.00     0.031 A 
ATOM     64  C   UNL A   1      41.471  28.213  27.008  1.00  0.00     0.131 A 
ATOM     65  C   UNL A   1      40.832  25.524  26.980  1.00  0.00     0.055 A 
ATOM     66  C   UNL A   1      41.653  27.470  25.839  1.00  0.00     0.041 A 
ATOM     67  F   UNL A   1      41.865  29.496  26.994  1.00  0.00    -0.206 F 
ATOM     68  C   UNL A   1      41.353  26.112  25.827  1.00  0.00     0.022 A 
BRANCH  65  69
ATOM     69  S   UNL A   1      40.677  23.719  27.089  1.00  0.00     0.124 S 
ATOM     70  O   UNL A   1      39.236  23.535  26.932  1.00  0.00    -0.237 OA
ATOM     71  O   UNL A   1      41.504  23.263  25.977  1.00  0.00    -0.237 OA
ATOM     72  O   UNL A   1      41.195  23.409  28.420  1.00  0.00    -0.744 OA
ENDBRANCH  65  69
ENDBRANCH  48  62
BRANCH  49  73
ATOM     73  C   UNL A   1      39.219  32.850  36.589  1.00  0.00     0.023 A 
ATOM     74  C   UNL A   1      39.785  34.097  36.901  1.00  0.00     0.031 A 
ATOM     75  C   UNL A   1      38.347  32.270  37.528  1.00  0.00     0.131 A 
ATOM     76  C   UNL A   1      39.500  34.705  38.135  1.00  0.00     0.055 A 
ATOM     77  C   UNL A   1      38.025  32.903  38.728  1.00  0.00     0.041 A 
ATOM     78  F   UNL A   1      37.776  31.080  37.278  1.00  0.00    -0.206 F 
ATOM     79  C   UNL A   1      38.611  34.125  39.043  1.00  0.00     0.022 A 
BRANCH  76  80
ATOM     80  S   UNL A   1      40.365  36.239  38.571  1.00  0.00     0.124 S 
ATOM     81  O   UNL A   1      39.272  37.205  38.579  1.00  0.00    -0.237 OA
ATOM     82  O   UNL A   1      40.937  35.906  39.871  1.00  0.00    -0.237 OA
ATOM     83  O   UNL A   1      41.334  36.402  37.490  1.00  0.00    -0.744 OA
ENDBRANCH  76  80
ENDBRANCH  49  73
BRANCH  61  84
ATOM     84  C   UNL A   1      44.112  28.245  34.660  1.00  0.00     0.023 A 
ATOM     85  C   UNL A   1      44.024  27.091  35.459  1.00  0.00     0.031 A 
ATOM     86  C   UNL A   1      45.367  28.872  34.543  1.00  0.00     0.131 A 
ATOM     87  C   UNL A   1      45.154  26.634  36.153  1.00  0.00     0.055 A 
ATOM     88  C   UNL A   1      46.502  28.372  35.180  1.00  0.00     0.041 A 
ATOM     89  F   UNL A   1      45.510  29.980  33.799  1.00  0.00    -0.206 F 
ATOM     90  C   UNL A   1      46.397  27.253  36.002  1.00  0.00     0.022 A 
BRANCH  87  91
ATOM     91  S   UNL A   1      44.955  25.278  37.341  1.00  0.00     0.124 S 
ATOM     92  O   UNL A   1      43.512  25.272  37.555  1.00  0.00    -0.237 OA
ATOM     93  O   UNL A   1      45.497  24.138  36.610  1.00  0.00    -0.237 OA
ATOM     94  O   UNL A   1      45.750  25.711  38.490  1.00  0.00    -0.744 OA
ENDBRANCH  87  91
ENDBRANCH  61  84
ENDBRANCH  35  36
ENDBRANCH  27  30
ENDBRANCH  25  26
ENDBRANCH   1  25
TORSDOF 15
ENDMDL
