MODEL 1
REMARK VINA RESULT:     -12.1      0.000      0.000
REMARK SMILES CCc1ccsc1CNS(=O)(=O)N1CCC(C(=O)NCCCNC(=O)c2ccc(-c3c4nc(c(-c5cc(S(=O)(=O)[O-])ccc5F)c5ccc([nH]5)c(-c5cc(S(=O)(=O)[O-])ccc5F)c5nc(c(-c6cc(S(=O)(=O)[O-])ccc6F)c6ccc3[nH]6)C=C5)C=C4)cc2)CC1
REMARK SMILES IDX 20 1 19 2 17 3 18 4 16 6 13 7 14 8 90 9 15 10 89 11 10 12
REMARK SMILES IDX 11 13 12 14 9 15 8 17 7 18 3 19 4 20 5 21 6 22 2 23 1 24
REMARK SMILES IDX 21 25 22 26 23 27 24 28 25 30 26 31 27 32 88 33 28 34 87 35
REMARK SMILES IDX 29 36 30 37 31 38 81 39 32 40 86 41 80 42 82 43 33 44 85 45
REMARK SMILES IDX 79 46 78 47 34 49 66 50 46 51 65 52 47 53 50 54 64 55 83 56
REMARK SMILES IDX 48 57 49 58 63 60 84 61 51 62 35 63 36 64 44 65 37 66 43 67
REMARK SMILES IDX 45 68 42 69 38 70 39 71 40 72 41 73 67 74 68 75 76 76 69 77
REMARK SMILES IDX 75 78 77 79 74 80 70 81 71 82 72 83 73 84 52 85 53 86 61 87
REMARK SMILES IDX 54 88 60 89 62 90 59 91 55 92 56 93 57 94 58 95
REMARK H PARENT 19 5 9 16 23 29 82 48 50 59
REMARK Flexibility Score: inf
ROOT
ATOM      1  C   UNL A   1      33.751  21.315  26.954  1.00  0.00     0.117 C 
ENDROOT
BRANCH   1   2
ATOM      2  N   UNL A   1      32.716  22.280  27.300  1.00  0.00    -0.356 N 
ATOM      3  C   UNL A   1      32.369  23.461  26.723  1.00  0.00     0.223 C 
ATOM      4  O   UNL A   1      31.465  24.121  27.238  1.00  0.00    -0.275 OA
ATOM      5  H   UNL A   1      32.174  22.034  28.085  1.00  0.00     0.163 HD
BRANCH   3   6
ATOM      6  C   UNL A   1      33.041  23.939  25.453  1.00  0.00     0.081 C 
ATOM      7  N   UNL A   1      32.828  25.562  23.085  1.00  0.00    -0.189 NA
ATOM      8  C   UNL A   1      32.884  24.093  22.930  1.00  0.00     0.104 C 
ATOM      9  C   UNL A   1      33.665  26.049  24.202  1.00  0.00     0.104 C 
ATOM     10  C   UNL A   1      32.330  23.442  24.192  1.00  0.00     0.030 C 
ATOM     11  C   UNL A   1      33.262  25.450  25.526  1.00  0.00     0.030 C 
BRANCH   7  12
ATOM     12  S   UNL A   1      32.923  26.458  21.654  1.00  0.00     0.279 S 
ATOM     13  O   UNL A   1      33.067  25.545  20.547  1.00  0.00    -0.195 OA
ATOM     14  O   UNL A   1      33.818  27.575  21.841  1.00  0.00    -0.195 OA
BRANCH  12  15
ATOM     15  N   UNL A   1      31.371  27.105  21.583  1.00  0.00    -0.197 NA
ATOM     16  H   UNL A   1      31.217  27.472  20.643  1.00  0.00     0.142 HD
BRANCH  15  17
ATOM     17  C   UNL A   1      31.141  28.190  22.548  1.00  0.00     0.146 C 
BRANCH  17  18
ATOM     18  C   UNL A   1      29.696  28.573  22.697  1.00  0.00     0.023 A 
ATOM     19  C   UNL A   1      28.713  27.754  23.248  1.00  0.00    -0.033 A 
ATOM     20  C   UNL A   1      27.458  28.440  23.317  1.00  0.00     0.015 A 
ATOM     21  C   UNL A   1      27.534  29.734  22.852  1.00  0.00     0.065 A 
ATOM     22  S   UNL A   1      29.105  30.133  22.325  1.00  0.00    -0.147 S 
BRANCH  19  23
ATOM     23  C   UNL A   1      29.008  26.353  23.732  1.00  0.00     0.033 C 
ATOM     24  C   UNL A   1      29.662  26.239  25.093  1.00  0.00     0.009 C 
ENDBRANCH  19  23
ENDBRANCH  17  18
ENDBRANCH  15  17
ENDBRANCH  12  15
ENDBRANCH   7  12
ENDBRANCH   3   6
ENDBRANCH   1   2
BRANCH   1  25
ATOM     25  C   UNL A   1      35.143  21.859  27.219  1.00  0.00     0.042 C 
BRANCH  25  26
ATOM     26  C   UNL A   1      35.960  22.044  25.952  1.00  0.00     0.118 C 
BRANCH  26  27
ATOM     27  N   UNL A   1      36.961  21.000  25.782  1.00  0.00    -0.352 N 
ATOM     28  C   UNL A   1      38.331  21.089  25.778  1.00  0.00     0.251 C 
ATOM     29  H   UNL A   1      36.601  20.094  25.648  1.00  0.00     0.163 HD
ATOM     30  O   UNL A   1      38.995  20.135  25.382  1.00  0.00    -0.269 OA
BRANCH  28  31
ATOM     31  C   UNL A   1      38.992  22.332  26.228  1.00  0.00     0.039 A 
ATOM     32  C   UNL A   1      40.103  22.245  27.068  1.00  0.00     0.014 A 
ATOM     33  C   UNL A   1      38.517  23.583  25.826  1.00  0.00     0.014 A 
ATOM     34  C   UNL A   1      40.773  23.409  27.448  1.00  0.00     0.010 A 
ATOM     35  C   UNL A   1      39.249  24.729  26.110  1.00  0.00     0.010 A 
ATOM     36  C   UNL A   1      40.377  24.657  26.940  1.00  0.00    -0.014 A 
BRANCH  36  37
ATOM     37  C   UNL A   1      41.116  25.899  27.287  1.00  0.00     0.031 A 
ATOM     38  C   UNL A   1      40.450  26.963  28.118  1.00  0.00     0.074 A 
ATOM     39  C   UNL A   1      42.366  26.082  26.819  1.00  0.00     0.049 A 
ATOM     40  N   UNL A   1      40.911  28.128  28.493  1.00  0.00    -0.248 NA
ATOM     41  C   UNL A   1      39.073  26.694  28.563  1.00  0.00     0.031 C 
ATOM     42  C   UNL A   1      43.098  25.140  25.969  1.00  0.00     0.029 A 
ATOM     43  N   UNL A   1      43.247  27.120  26.994  1.00  0.00    -0.354 N 
ATOM     44  C   UNL A   1      39.882  28.730  29.210  1.00  0.00     0.074 A 
ATOM     45  C   UNL A   1      38.748  27.834  29.150  1.00  0.00     0.031 C 
ATOM     46  C   UNL A   1      44.328  25.622  25.734  1.00  0.00     0.029 A 
ATOM     47  C   UNL A   1      44.457  26.931  26.366  1.00  0.00     0.049 A 
ATOM     48  H   UNL A   1      43.033  27.924  27.520  1.00  0.00     0.167 HD
ATOM     49  C   UNL A   1      39.891  29.908  29.883  1.00  0.00     0.034 A 
ATOM     50  C   UNL A   1      45.542  27.726  26.299  1.00  0.00     0.034 A 
ATOM     51  C   UNL A   1      41.035  30.784  29.938  1.00  0.00     0.049 A 
ATOM     52  C   UNL A   1      45.513  29.053  27.018  1.00  0.00     0.074 A 
ATOM     53  C   UNL A   1      41.172  31.977  30.624  1.00  0.00     0.029 A 
ATOM     54  N   UNL A   1      42.236  30.571  29.272  1.00  0.00    -0.354 N 
ATOM     55  N   UNL A   1      44.549  29.582  27.738  1.00  0.00    -0.248 NA
ATOM     56  C   UNL A   1      46.721  29.882  26.926  1.00  0.00     0.031 C 
ATOM     57  C   UNL A   1      42.421  32.523  30.311  1.00  0.00     0.029 A 
ATOM     58  C   UNL A   1      43.102  31.627  29.503  1.00  0.00     0.049 A 
ATOM     59  H   UNL A   1      42.440  29.783  28.718  1.00  0.00     0.167 HD
ATOM     60  C   UNL A   1      45.052  30.792  28.210  1.00  0.00     0.074 A 
ATOM     61  C   UNL A   1      46.407  30.900  27.712  1.00  0.00     0.031 C 
ATOM     62  C   UNL A   1      44.450  31.727  28.990  1.00  0.00     0.034 A 
BRANCH  49  63
ATOM     63  C   UNL A   1      38.622  30.317  30.591  1.00  0.00     0.023 A 
ATOM     64  C   UNL A   1      37.598  31.020  29.928  1.00  0.00     0.031 A 
ATOM     65  C   UNL A   1      38.436  30.022  31.953  1.00  0.00     0.131 A 
ATOM     66  C   UNL A   1      36.476  31.466  30.642  1.00  0.00     0.055 A 
ATOM     67  C   UNL A   1      37.277  30.391  32.636  1.00  0.00     0.041 A 
ATOM     68  F   UNL A   1      39.387  29.376  32.647  1.00  0.00    -0.206 F 
ATOM     69  C   UNL A   1      36.294  31.131  31.985  1.00  0.00     0.022 A 
BRANCH  66  70
ATOM     70  S   UNL A   1      35.333  32.615  29.828  1.00  0.00     0.124 S 
ATOM     71  O   UNL A   1      34.394  32.908  30.908  1.00  0.00    -0.237 OA
ATOM     72  O   UNL A   1      36.212  33.707  29.430  1.00  0.00    -0.237 OA
ATOM     73  O   UNL A   1      34.779  31.826  28.729  1.00  0.00    -0.744 OA
ENDBRANCH  66  70
ENDBRANCH  49  63
BRANCH  50  74
ATOM     74  C   UNL A   1      46.746  27.309  25.521  1.00  0.00     0.023 A 
ATOM     75  C   UNL A   1      46.980  27.805  24.228  1.00  0.00     0.031 A 
ATOM     76  C   UNL A   1      47.650  26.362  26.035  1.00  0.00     0.131 A 
ATOM     77  C   UNL A   1      48.055  27.312  23.472  1.00  0.00     0.055 A 
ATOM     78  C   UNL A   1      48.755  25.924  25.303  1.00  0.00     0.041 A 
ATOM     79  F   UNL A   1      47.476  25.852  27.265  1.00  0.00    -0.206 F 
ATOM     80  C   UNL A   1      48.952  26.386  24.007  1.00  0.00     0.022 A 
BRANCH  77  81
ATOM     81  S   UNL A   1      48.195  27.815  21.735  1.00  0.00     0.124 S 
ATOM     82  O   UNL A   1      46.882  28.404  21.491  1.00  0.00    -0.237 OA
ATOM     83  O   UNL A   1      49.318  28.745  21.778  1.00  0.00    -0.237 OA
ATOM     84  O   UNL A   1      48.454  26.557  21.037  1.00  0.00    -0.744 OA
ENDBRANCH  77  81
ENDBRANCH  50  74
BRANCH  62  85
ATOM     85  C   UNL A   1      45.276  32.927  29.387  1.00  0.00     0.023 A 
ATOM     86  C   UNL A   1      45.300  34.100  28.612  1.00  0.00     0.031 A 
ATOM     87  C   UNL A   1      46.060  32.890  30.553  1.00  0.00     0.131 A 
ATOM     88  C   UNL A   1      46.140  35.162  28.979  1.00  0.00     0.055 A 
ATOM     89  C   UNL A   1      46.838  33.978  30.952  1.00  0.00     0.041 A 
ATOM     90  F   UNL A   1      46.080  31.795  31.330  1.00  0.00    -0.206 F 
ATOM     91  C   UNL A   1      46.892  35.116  30.155  1.00  0.00     0.022 A 
BRANCH  88  92
ATOM     92  S   UNL A   1      46.319  36.564  27.841  1.00  0.00     0.124 S 
ATOM     93  O   UNL A   1      46.351  37.696  28.761  1.00  0.00    -0.237 OA
ATOM     94  O   UNL A   1      47.574  36.258  27.164  1.00  0.00    -0.237 OA
ATOM     95  O   UNL A   1      45.125  36.480  27.002  1.00  0.00    -0.744 OA
ENDBRANCH  88  92
ENDBRANCH  62  85
ENDBRANCH  36  37
ENDBRANCH  28  31
ENDBRANCH  26  27
ENDBRANCH  25  26
ENDBRANCH   1  25
TORSDOF 18
ENDMDL
MODEL 2
REMARK VINA RESULT:     -11.7      2.378      3.492
REMARK SMILES CCc1ccsc1CNS(=O)(=O)N1CCC(C(=O)NCCCNC(=O)c2ccc(-c3c4nc(c(-c5cc(S(=O)(=O)[O-])ccc5F)c5ccc([nH]5)c(-c5cc(S(=O)(=O)[O-])ccc5F)c5nc(c(-c6cc(S(=O)(=O)[O-])ccc6F)c6ccc3[nH]6)C=C5)C=C4)cc2)CC1
REMARK SMILES IDX 20 1 19 2 17 3 18 4 16 6 13 7 14 8 90 9 15 10 89 11 10 12
REMARK SMILES IDX 11 13 12 14 9 15 8 17 7 18 3 19 4 20 5 21 6 22 2 23 1 24
REMARK SMILES IDX 21 25 22 26 23 27 24 28 25 30 26 31 27 32 88 33 28 34 87 35
REMARK SMILES IDX 29 36 30 37 31 38 81 39 32 40 86 41 80 42 82 43 33 44 85 45
REMARK SMILES IDX 79 46 78 47 34 49 66 50 46 51 65 52 47 53 50 54 64 55 83 56
REMARK SMILES IDX 48 57 49 58 63 60 84 61 51 62 35 63 36 64 44 65 37 66 43 67
REMARK SMILES IDX 45 68 42 69 38 70 39 71 40 72 41 73 67 74 68 75 76 76 69 77
REMARK SMILES IDX 75 78 77 79 74 80 70 81 71 82 72 83 73 84 52 85 53 86 61 87
REMARK SMILES IDX 54 88 60 89 62 90 59 91 55 92 56 93 57 94 58 95
REMARK H PARENT 19 5 9 16 23 29 82 48 50 59
REMARK Flexibility Score: inf
ROOT
ATOM      1  C   UNL A   1      37.063  20.783  25.127  1.00  0.00     0.117 C 
ENDROOT
BRANCH   1   2
ATOM      2  N   UNL A   1      35.896  19.922  24.997  1.00  0.00    -0.356 N 
ATOM      3  C   UNL A   1      34.568  20.197  25.098  1.00  0.00     0.223 C 
ATOM      4  O   UNL A   1      33.767  19.268  24.982  1.00  0.00    -0.275 OA
ATOM      5  H   UNL A   1      36.104  18.979  24.805  1.00  0.00     0.163 HD
BRANCH   3   6
ATOM      6  C   UNL A   1      34.076  21.615  25.299  1.00  0.00     0.081 C 
ATOM      7  N   UNL A   1      31.859  23.314  25.993  1.00  0.00    -0.189 NA
ATOM      8  C   UNL A   1      32.375  23.360  24.608  1.00  0.00     0.104 C 
ATOM      9  C   UNL A   1      32.927  23.103  26.993  1.00  0.00     0.104 C 
ATOM     10  C   UNL A   1      33.011  22.016  24.275  1.00  0.00     0.030 C 
ATOM     11  C   UNL A   1      33.684  21.820  26.762  1.00  0.00     0.030 C 
BRANCH   7  12
ATOM     12  S   UNL A   1      30.706  24.487  26.389  1.00  0.00     0.279 S 
ATOM     13  O   UNL A   1      31.392  25.665  26.860  1.00  0.00    -0.195 OA
ATOM     14  O   UNL A   1      29.635  23.878  27.140  1.00  0.00    -0.195 OA
BRANCH  12  15
ATOM     15  N   UNL A   1      30.077  24.838  24.868  1.00  0.00    -0.197 NA
ATOM     16  H   UNL A   1      30.838  24.808  24.189  1.00  0.00     0.142 HD
BRANCH  15  17
ATOM     17  C   UNL A   1      29.436  26.158  24.788  1.00  0.00     0.146 C 
BRANCH  17  18
ATOM     18  C   UNL A   1      30.133  27.115  23.863  1.00  0.00     0.023 A 
ATOM     19  C   UNL A   1      29.491  28.095  23.108  1.00  0.00    -0.033 A 
ATOM     20  C   UNL A   1      30.442  28.890  22.392  1.00  0.00     0.015 A 
ATOM     21  C   UNL A   1      31.743  28.514  22.639  1.00  0.00     0.065 A 
ATOM     22  S   UNL A   1      31.834  27.204  23.727  1.00  0.00    -0.147 S 
BRANCH  19  23
ATOM     23  C   UNL A   1      27.990  28.272  23.124  1.00  0.00     0.033 C 
ATOM     24  C   UNL A   1      27.485  29.700  23.105  1.00  0.00     0.009 C 
ENDBRANCH  19  23
ENDBRANCH  17  18
ENDBRANCH  15  17
ENDBRANCH  12  15
ENDBRANCH   7  12
ENDBRANCH   3   6
ENDBRANCH   1   2
BRANCH   1  25
ATOM     25  C   UNL A   1      38.359  20.013  24.949  1.00  0.00     0.042 C 
BRANCH  25  26
ATOM     26  C   UNL A   1      39.371  20.290  26.045  1.00  0.00     0.118 C 
BRANCH  26  27
ATOM     27  N   UNL A   1      40.425  19.286  26.093  1.00  0.00    -0.352 N 
ATOM     28  C   UNL A   1      41.788  19.444  26.119  1.00  0.00     0.251 C 
ATOM     29  H   UNL A   1      40.112  18.353  26.107  1.00  0.00     0.163 HD
ATOM     30  O   UNL A   1      42.510  18.472  25.917  1.00  0.00    -0.269 OA
BRANCH  28  31
ATOM     31  C   UNL A   1      42.373  20.778  26.365  1.00  0.00     0.039 A 
ATOM     32  C   UNL A   1      42.649  21.609  25.278  1.00  0.00     0.014 A 
ATOM     33  C   UNL A   1      42.652  21.211  27.664  1.00  0.00     0.014 A 
ATOM     34  C   UNL A   1      43.143  22.896  25.502  1.00  0.00     0.010 A 
ATOM     35  C   UNL A   1      43.034  22.528  27.891  1.00  0.00     0.010 A 
ATOM     36  C   UNL A   1      43.301  23.380  26.811  1.00  0.00    -0.014 A 
BRANCH  36  37
ATOM     37  C   UNL A   1      43.770  24.767  27.067  1.00  0.00     0.031 A 
ATOM     38  C   UNL A   1      42.819  25.791  27.630  1.00  0.00     0.074 A 
ATOM     39  C   UNL A   1      45.035  25.111  26.754  1.00  0.00     0.049 A 
ATOM     40  N   UNL A   1      43.025  27.057  27.886  1.00  0.00    -0.248 NA
ATOM     41  C   UNL A   1      41.449  25.338  27.916  1.00  0.00     0.031 C 
ATOM     42  C   UNL A   1      46.033  24.216  26.164  1.00  0.00     0.029 A 
ATOM     43  N   UNL A   1      45.702  26.302  26.892  1.00  0.00    -0.354 N 
ATOM     44  C   UNL A   1      41.812  27.550  28.355  1.00  0.00     0.074 A 
ATOM     45  C   UNL A   1      40.858  26.466  28.275  1.00  0.00     0.031 C 
ATOM     46  C   UNL A   1      47.193  24.876  26.031  1.00  0.00     0.029 A 
ATOM     47  C   UNL A   1      47.012  26.255  26.472  1.00  0.00     0.049 A 
ATOM     48  H   UNL A   1      45.282  27.115  27.256  1.00  0.00     0.167 HD
ATOM     49  C   UNL A   1      41.528  28.785  28.839  1.00  0.00     0.034 A 
ATOM     50  C   UNL A   1      47.955  27.217  26.437  1.00  0.00     0.034 A 
ATOM     51  C   UNL A   1      42.495  29.851  28.919  1.00  0.00     0.049 A 
ATOM     52  C   UNL A   1      47.601  28.595  26.938  1.00  0.00     0.074 A 
ATOM     53  C   UNL A   1      42.330  31.125  29.432  1.00  0.00     0.029 A 
ATOM     54  N   UNL A   1      43.807  29.773  28.465  1.00  0.00    -0.354 N 
ATOM     55  N   UNL A   1      46.463  29.030  27.430  1.00  0.00    -0.248 NA
ATOM     56  C   UNL A   1      48.663  29.608  26.890  1.00  0.00     0.031 C 
ATOM     57  C   UNL A   1      43.513  31.842  29.216  1.00  0.00     0.029 A 
ATOM     58  C   UNL A   1      44.447  30.988  28.653  1.00  0.00     0.049 A 
ATOM     59  H   UNL A   1      44.219  28.973  28.069  1.00  0.00     0.167 HD
ATOM     60  C   UNL A   1      46.686  30.359  27.781  1.00  0.00     0.074 A 
ATOM     61  C   UNL A   1      48.070  30.644  27.464  1.00  0.00     0.031 C 
ATOM     62  C   UNL A   1      45.827  31.262  28.321  1.00  0.00     0.034 A 
BRANCH  49  63
ATOM     63  C   UNL A   1      40.112  29.046  29.296  1.00  0.00     0.023 A 
ATOM     64  C   UNL A   1      39.755  29.010  30.657  1.00  0.00     0.031 A 
ATOM     65  C   UNL A   1      39.098  29.315  28.360  1.00  0.00     0.131 A 
ATOM     66  C   UNL A   1      38.414  29.165  31.035  1.00  0.00     0.055 A 
ATOM     67  C   UNL A   1      37.779  29.556  28.751  1.00  0.00     0.041 A 
ATOM     68  F   UNL A   1      39.370  29.338  27.046  1.00  0.00    -0.206 F 
ATOM     69  C   UNL A   1      37.427  29.467  30.094  1.00  0.00     0.022 A 
BRANCH  66  70
ATOM     70  S   UNL A   1      37.954  28.818  32.755  1.00  0.00     0.124 S 
ATOM     71  O   UNL A   1      36.595  29.352  32.809  1.00  0.00    -0.237 OA
ATOM     72  O   UNL A   1      38.074  27.367  32.828  1.00  0.00    -0.237 OA
ATOM     73  O   UNL A   1      38.940  29.567  33.530  1.00  0.00    -0.744 OA
ENDBRANCH  66  70
ENDBRANCH  49  63
BRANCH  50  74
ATOM     74  C   UNL A   1      49.318  26.926  25.903  1.00  0.00     0.023 A 
ATOM     75  C   UNL A   1      49.733  27.434  24.662  1.00  0.00     0.031 A 
ATOM     76  C   UNL A   1      50.208  26.089  26.601  1.00  0.00     0.131 A 
ATOM     77  C   UNL A   1      50.975  27.055  24.129  1.00  0.00     0.055 A 
ATOM     78  C   UNL A   1      51.469  25.768  26.096  1.00  0.00     0.041 A 
ATOM     79  F   UNL A   1      49.865  25.575  27.793  1.00  0.00    -0.206 F 
ATOM     80  C   UNL A   1      51.851  26.238  24.844  1.00  0.00     0.022 A 
BRANCH  77  81
ATOM     81  S   UNL A   1      51.378  27.555  22.432  1.00  0.00     0.124 S 
ATOM     82  O   UNL A   1      52.811  27.285  22.377  1.00  0.00    -0.237 OA
ATOM     83  O   UNL A   1      50.528  26.669  21.645  1.00  0.00    -0.237 OA
ATOM     84  O   UNL A   1      51.007  28.968  22.397  1.00  0.00    -0.744 OA
ENDBRANCH  77  81
ENDBRANCH  50  74
BRANCH  62  85
ATOM     85  C   UNL A   1      46.379  32.630  28.644  1.00  0.00     0.023 A 
ATOM     86  C   UNL A   1      46.323  33.689  27.721  1.00  0.00     0.031 A 
ATOM     87  C   UNL A   1      46.982  32.871  29.892  1.00  0.00     0.131 A 
ATOM     88  C   UNL A   1      46.916  34.921  28.036  1.00  0.00     0.055 A 
ATOM     89  C   UNL A   1      47.505  34.121  30.226  1.00  0.00     0.041 A 
ATOM     90  F   UNL A   1      47.068  31.896  30.811  1.00  0.00    -0.206 F 
ATOM     91  C   UNL A   1      47.487  35.150  29.290  1.00  0.00     0.022 A 
BRANCH  88  92
ATOM     92  S   UNL A   1      47.026  36.189  26.744  1.00  0.00     0.124 S 
ATOM     93  O   UNL A   1      46.661  35.435  25.549  1.00  0.00    -0.237 OA
ATOM     94  O   UNL A   1      46.052  37.178  27.194  1.00  0.00    -0.237 OA
ATOM     95  O   UNL A   1      48.421  36.621  26.804  1.00  0.00    -0.744 OA
ENDBRANCH  88  92
ENDBRANCH  62  85
ENDBRANCH  36  37
ENDBRANCH  28  31
ENDBRANCH  26  27
ENDBRANCH  25  26
ENDBRANCH   1  25
TORSDOF 18
ENDMDL
MODEL 3
REMARK VINA RESULT:     -11.6      5.833     10.940
REMARK SMILES CCc1ccsc1CNS(=O)(=O)N1CCC(C(=O)NCCCNC(=O)c2ccc(-c3c4nc(c(-c5cc(S(=O)(=O)[O-])ccc5F)c5ccc([nH]5)c(-c5cc(S(=O)(=O)[O-])ccc5F)c5nc(c(-c6cc(S(=O)(=O)[O-])ccc6F)c6ccc3[nH]6)C=C5)C=C4)cc2)CC1
REMARK SMILES IDX 20 1 19 2 17 3 18 4 16 6 13 7 14 8 90 9 15 10 89 11 10 12
REMARK SMILES IDX 11 13 12 14 9 15 8 17 7 18 3 19 4 20 5 21 6 22 2 23 1 24
REMARK SMILES IDX 21 25 22 26 23 27 24 28 25 30 26 31 27 32 88 33 28 34 87 35
REMARK SMILES IDX 29 36 30 37 31 38 81 39 32 40 86 41 80 42 82 43 33 44 85 45
REMARK SMILES IDX 79 46 78 47 34 49 66 50 46 51 65 52 47 53 50 54 64 55 83 56
REMARK SMILES IDX 48 57 49 58 63 60 84 61 51 62 35 63 36 64 44 65 37 66 43 67
REMARK SMILES IDX 45 68 42 69 38 70 39 71 40 72 41 73 67 74 68 75 76 76 69 77
REMARK SMILES IDX 75 78 77 79 74 80 70 81 71 82 72 83 73 84 52 85 53 86 61 87
REMARK SMILES IDX 54 88 60 89 62 90 59 91 55 92 56 93 57 94 58 95
REMARK H PARENT 19 5 9 16 23 29 82 48 50 59
REMARK Flexibility Score: inf
ROOT
ATOM      1  C   UNL A   1      31.361  31.209  26.207  1.00  0.00     0.117 C 
ENDROOT
BRANCH   1   2
ATOM      2  N   UNL A   1      32.520  30.485  26.714  1.00  0.00    -0.356 N 
ATOM      3  C   UNL A   1      33.159  29.382  26.243  1.00  0.00     0.223 C 
ATOM      4  O   UNL A   1      34.110  28.935  26.889  1.00  0.00    -0.275 OA
ATOM      5  H   UNL A   1      32.905  30.859  27.540  1.00  0.00     0.163 HD
BRANCH   3   6
ATOM      6  C   UNL A   1      32.751  28.739  24.934  1.00  0.00     0.081 C 
ATOM      7  N   UNL A   1      32.966  26.442  23.214  1.00  0.00    -0.189 NA
ATOM      8  C   UNL A   1      33.555  27.720  22.760  1.00  0.00     0.104 C 
ATOM      9  C   UNL A   1      31.720  26.631  23.986  1.00  0.00     0.104 C 
ATOM     10  C   UNL A   1      33.933  28.549  23.981  1.00  0.00     0.030 C 
ATOM     11  C   UNL A   1      31.929  27.482  25.214  1.00  0.00     0.030 C 
BRANCH   7  12
ATOM     12  S   UNL A   1      32.936  25.197  22.070  1.00  0.00     0.279 S 
ATOM     13  O   UNL A   1      33.171  25.764  20.765  1.00  0.00    -0.195 OA
ATOM     14  O   UNL A   1      31.814  24.328  22.330  1.00  0.00    -0.195 OA
BRANCH  12  15
ATOM     15  N   UNL A   1      34.313  24.333  22.506  1.00  0.00    -0.197 NA
ATOM     16  H   UNL A   1      34.294  23.433  22.027  1.00  0.00     0.142 HD
BRANCH  15  17
ATOM     17  C   UNL A   1      34.418  24.087  23.952  1.00  0.00     0.146 C 
BRANCH  17  18
ATOM     18  C   UNL A   1      34.454  22.630  24.317  1.00  0.00     0.023 A 
ATOM     19  C   UNL A   1      35.618  21.895  24.526  1.00  0.00    -0.033 A 
ATOM     20  C   UNL A   1      35.310  20.558  24.937  1.00  0.00     0.015 A 
ATOM     21  C   UNL A   1      33.956  20.335  25.047  1.00  0.00     0.065 A 
ATOM     22  S   UNL A   1      33.045  21.723  24.657  1.00  0.00    -0.147 S 
BRANCH  19  23
ATOM     23  C   UNL A   1      36.994  22.500  24.370  1.00  0.00     0.033 C 
ATOM     24  C   UNL A   1      37.600  23.114  25.614  1.00  0.00     0.009 C 
ENDBRANCH  19  23
ENDBRANCH  17  18
ENDBRANCH  15  17
ENDBRANCH  12  15
ENDBRANCH   7  12
ENDBRANCH   3   6
ENDBRANCH   1   2
BRANCH   1  25
ATOM     25  C   UNL A   1      31.385  32.671  26.612  1.00  0.00     0.042 C 
BRANCH  25  26
ATOM     26  C   UNL A   1      32.685  33.083  27.278  1.00  0.00     0.118 C 
BRANCH  26  27
ATOM     27  N   UNL A   1      32.632  34.440  27.804  1.00  0.00    -0.352 N 
ATOM     28  C   UNL A   1      33.299  34.997  28.866  1.00  0.00     0.251 C 
ATOM     29  H   UNL A   1      32.026  35.049  27.325  1.00  0.00     0.163 HD
ATOM     30  O   UNL A   1      32.940  36.090  29.296  1.00  0.00    -0.269 OA
BRANCH  28  31
ATOM     31  C   UNL A   1      34.423  34.272  29.495  1.00  0.00     0.039 A 
ATOM     32  C   UNL A   1      35.727  34.557  29.088  1.00  0.00     0.014 A 
ATOM     33  C   UNL A   1      34.194  33.312  30.484  1.00  0.00     0.014 A 
ATOM     34  C   UNL A   1      36.800  33.924  29.718  1.00  0.00     0.010 A 
ATOM     35  C   UNL A   1      35.263  32.769  31.187  1.00  0.00     0.010 A 
ATOM     36  C   UNL A   1      36.579  33.056  30.800  1.00  0.00    -0.014 A 
BRANCH  36  37
ATOM     37  C   UNL A   1      37.713  32.421  31.521  1.00  0.00     0.031 A 
ATOM     38  C   UNL A   1      38.455  31.272  30.893  1.00  0.00     0.074 A 
ATOM     39  C   UNL A   1      38.043  32.853  32.754  1.00  0.00     0.049 A 
ATOM     40  N   UNL A   1      39.442  30.562  31.375  1.00  0.00    -0.248 NA
ATOM     41  C   UNL A   1      38.010  30.846  29.556  1.00  0.00     0.031 C 
ATOM     42  C   UNL A   1      37.368  33.930  33.482  1.00  0.00     0.029 A 
ATOM     43  N   UNL A   1      39.032  32.444  33.614  1.00  0.00    -0.354 N 
ATOM     44  C   UNL A   1      39.730  29.606  30.407  1.00  0.00     0.074 A 
ATOM     45  C   UNL A   1      38.763  29.778  29.346  1.00  0.00     0.031 C 
ATOM     46  C   UNL A   1      37.988  34.124  34.656  1.00  0.00     0.029 A 
ATOM     47  C   UNL A   1      39.068  33.153  34.793  1.00  0.00     0.049 A 
ATOM     48  H   UNL A   1      39.656  31.712  33.406  1.00  0.00     0.167 HD
ATOM     49  C   UNL A   1      40.729  28.688  30.390  1.00  0.00     0.034 A 
ATOM     50  C   UNL A   1      39.873  33.026  35.866  1.00  0.00     0.034 A 
ATOM     51  C   UNL A   1      41.689  28.537  31.455  1.00  0.00     0.049 A 
ATOM     52  C   UNL A   1      40.948  31.968  35.844  1.00  0.00     0.074 A 
ATOM     53  C   UNL A   1      42.768  27.674  31.524  1.00  0.00     0.029 A 
ATOM     54  N   UNL A   1      41.682  29.258  32.643  1.00  0.00    -0.354 N 
ATOM     55  N   UNL A   1      41.241  31.107  34.895  1.00  0.00    -0.248 NA
ATOM     56  C   UNL A   1      41.808  31.873  37.030  1.00  0.00     0.031 C 
ATOM     57  C   UNL A   1      43.363  27.815  32.783  1.00  0.00     0.029 A 
ATOM     58  C   UNL A   1      42.715  28.832  33.464  1.00  0.00     0.049 A 
ATOM     59  H   UNL A   1      41.038  29.968  32.868  1.00  0.00     0.167 HD
ATOM     60  C   UNL A   1      42.342  30.392  35.361  1.00  0.00     0.074 A 
ATOM     61  C   UNL A   1      42.670  30.938  36.661  1.00  0.00     0.031 C 
ATOM     62  C   UNL A   1      43.024  29.379  34.766  1.00  0.00     0.034 A 
BRANCH  49  63
ATOM     63  C   UNL A   1      40.814  27.771  29.194  1.00  0.00     0.023 A 
ATOM     64  C   UNL A   1      41.725  28.003  28.147  1.00  0.00     0.031 A 
ATOM     65  C   UNL A   1      39.959  26.660  29.083  1.00  0.00     0.131 A 
ATOM     66  C   UNL A   1      41.710  27.184  27.008  1.00  0.00     0.055 A 
ATOM     67  C   UNL A   1      40.010  25.796  27.988  1.00  0.00     0.041 A 
ATOM     68  F   UNL A   1      39.051  26.400  30.037  1.00  0.00    -0.206 F 
ATOM     69  C   UNL A   1      40.879  26.065  26.934  1.00  0.00     0.022 A 
BRANCH  66  70
ATOM     70  S   UNL A   1      42.685  27.690  25.565  1.00  0.00     0.124 S 
ATOM     71  O   UNL A   1      41.950  28.870  25.114  1.00  0.00    -0.237 OA
ATOM     72  O   UNL A   1      44.000  27.938  26.142  1.00  0.00    -0.237 OA
ATOM     73  O   UNL A   1      42.601  26.536  24.673  1.00  0.00    -0.744 OA
ENDBRANCH  66  70
ENDBRANCH  49  63
BRANCH  50  74
ATOM     74  C   UNL A   1      39.697  33.908  37.058  1.00  0.00     0.023 A 
ATOM     75  C   UNL A   1      39.095  33.428  38.232  1.00  0.00     0.031 A 
ATOM     76  C   UNL A   1      40.078  35.262  37.021  1.00  0.00     0.131 A 
ATOM     77  C   UNL A   1      38.838  34.305  39.296  1.00  0.00     0.055 A 
ATOM     78  C   UNL A   1      39.879  36.115  38.109  1.00  0.00     0.041 A 
ATOM     79  F   UNL A   1      40.658  35.776  35.924  1.00  0.00    -0.206 F 
ATOM     80  C   UNL A   1      39.240  35.641  39.249  1.00  0.00     0.022 A 
BRANCH  77  81
ATOM     81  S   UNL A   1      37.865  33.699  40.703  1.00  0.00     0.124 S 
ATOM     82  O   UNL A   1      37.424  34.947  41.318  1.00  0.00    -0.237 OA
ATOM     83  O   UNL A   1      36.833  32.910  40.040  1.00  0.00    -0.237 OA
ATOM     84  O   UNL A   1      38.835  32.929  41.479  1.00  0.00    -0.744 OA
ENDBRANCH  77  81
ENDBRANCH  50  74
BRANCH  62  85
ATOM     85  C   UNL A   1      44.222  28.830  35.503  1.00  0.00     0.023 A 
ATOM     86  C   UNL A   1      44.129  27.697  36.329  1.00  0.00     0.031 A 
ATOM     87  C   UNL A   1      45.474  29.460  35.384  1.00  0.00     0.131 A 
ATOM     88  C   UNL A   1      45.250  27.267  37.053  1.00  0.00     0.055 A 
ATOM     89  C   UNL A   1      46.603  28.983  36.050  1.00  0.00     0.041 A 
ATOM     90  F   UNL A   1      45.621  30.549  34.613  1.00  0.00    -0.206 F 
ATOM     91  C   UNL A   1      46.492  27.890  36.902  1.00  0.00     0.022 A 
BRANCH  88  92
ATOM     92  S   UNL A   1      45.042  25.945  38.279  1.00  0.00     0.124 S 
ATOM     93  O   UNL A   1      46.218  25.118  38.034  1.00  0.00    -0.237 OA
ATOM     94  O   UNL A   1      45.035  26.686  39.537  1.00  0.00    -0.237 OA
ATOM     95  O   UNL A   1      43.765  25.335  37.912  1.00  0.00    -0.744 OA
ENDBRANCH  88  92
ENDBRANCH  62  85
ENDBRANCH  36  37
ENDBRANCH  28  31
ENDBRANCH  26  27
ENDBRANCH  25  26
ENDBRANCH   1  25
TORSDOF 18
ENDMDL
