MODEL 1
REMARK VINA RESULT:     -11.6      0.000      0.000
REMARK SMILES CCC[C@@H](C(=O)OCCOC(=O)c1ccc(-c2c3nc(c(-c4cc(S(=O)(=O)[O-])ccc4F)c4ccc([nH]4)c(-c4cc(S(=O)(=O)[O-])ccc4F)c4nc(c(-c5cc(S(=O)(=O)[O-])ccc5F)c5ccc2[nH]5)C=C4)C=C3)cc1)n1nc(/C=C/c2ccc(OC)cc2)ccc1=O
REMARK SMILES IDX 8 1 7 2 5 3 6 4 4 5 3 6 2 7 1 8 76 9 77 10 91 11 78 12 90 13
REMARK SMILES IDX 92 14 89 15 79 16 80 17 81 18 82 19 88 20 83 21 87 22 84 23
REMARK SMILES IDX 85 24 86 25 9 26 10 27 11 28 12 29 13 30 14 31 75 32 15 33
REMARK SMILES IDX 74 34 16 35 17 36 18 37 68 38 19 39 73 40 67 41 69 42 20 43
REMARK SMILES IDX 72 44 66 45 65 46 21 48 53 49 33 50 52 51 34 52 37 53 51 54
REMARK SMILES IDX 70 55 35 56 36 57 50 59 71 60 38 61 22 62 23 63 31 64 24 65
REMARK SMILES IDX 30 66 32 67 29 68 25 69 26 70 27 71 28 72 54 73 55 74 63 75
REMARK SMILES IDX 56 76 62 77 64 78 61 79 57 80 58 81 59 82 60 83 39 84 40 85
REMARK SMILES IDX 48 86 41 87 47 88 49 89 46 90 42 91 43 92 44 93 45 94
REMARK H PARENT 69 47 37 58
REMARK Flexibility Score: inf
ROOT
ATOM      1  C   UNL A   1      31.730  28.979  25.165  1.00  0.00     0.274 C 
ENDROOT
BRANCH   1   2
ATOM      2  O   UNL A   1      31.496  27.877  26.068  1.00  0.00    -0.460 OA
BRANCH   2   3
ATOM      3  C   UNL A   1      30.648  26.887  25.670  1.00  0.00     0.331 C 
ATOM      4  O   UNL A   1      30.202  26.033  26.430  1.00  0.00    -0.250 OA
BRANCH   3   5
ATOM      5  C   UNL A   1      30.401  26.899  24.146  1.00  0.00     0.221 C 
BRANCH   5   6
ATOM      6  C   UNL A   1      28.924  26.817  23.680  1.00  0.00     0.039 C 
BRANCH   6   7
ATOM      7  C   UNL A   1      28.181  28.113  23.348  1.00  0.00    -0.001 C 
ATOM      8  C   UNL A   1      28.993  29.127  22.572  1.00  0.00     0.004 C 
ENDBRANCH   6   7
ENDBRANCH   5   6
BRANCH   5   9
ATOM      9  N   UNL A   1      31.192  25.821  23.509  1.00  0.00    -0.215 N 
ATOM     10  N   UNL A   1      31.406  24.648  24.237  1.00  0.00    -0.169 NA
ATOM     11  C   UNL A   1      31.711  26.040  22.237  1.00  0.00     0.267 A 
ATOM     12  C   UNL A   1      32.173  23.743  23.698  1.00  0.00     0.084 A 
ATOM     13  C   UNL A   1      32.666  25.046  21.737  1.00  0.00     0.075 A 
ATOM     14  O   UNL A   1      31.458  27.019  21.541  1.00  0.00    -0.268 OA
ATOM     15  C   UNL A   1      32.925  23.948  22.438  1.00  0.00     0.036 A 
BRANCH  12  16
ATOM     16  C   UNL A   1      32.400  22.421  24.365  1.00  0.00     0.031 C 
ATOM     17  C   UNL A   1      32.274  21.263  23.693  1.00  0.00     0.010 C 
BRANCH  17  18
ATOM     18  C   UNL A   1      32.613  19.940  24.215  1.00  0.00    -0.025 A 
ATOM     19  C   UNL A   1      32.505  18.845  23.347  1.00  0.00     0.012 A 
ATOM     20  C   UNL A   1      32.955  19.721  25.549  1.00  0.00     0.012 A 
ATOM     21  C   UNL A   1      32.781  17.555  23.800  1.00  0.00     0.047 A 
ATOM     22  C   UNL A   1      33.217  18.421  26.004  1.00  0.00     0.047 A 
ATOM     23  C   UNL A   1      33.158  17.337  25.125  1.00  0.00     0.118 A 
BRANCH  23  24
ATOM     24  O   UNL A   1      33.440  16.034  25.429  1.00  0.00    -0.497 OA
ATOM     25  C   UNL A   1      32.372  15.107  25.286  1.00  0.00     0.278 C 
ENDBRANCH  23  24
ENDBRANCH  17  18
ENDBRANCH  12  16
ENDBRANCH   5   9
ENDBRANCH   3   5
ENDBRANCH   2   3
ENDBRANCH   1   2
BRANCH   1  26
ATOM     26  C   UNL A   1      31.730  30.294  25.942  1.00  0.00     0.275 C 
BRANCH  26  27
ATOM     27  O   UNL A   1      32.714  30.185  26.978  1.00  0.00    -0.458 OA
BRANCH  27  28
ATOM     28  C   UNL A   1      33.359  31.321  27.338  1.00  0.00     0.338 C 
ATOM     29  O   UNL A   1      32.891  32.445  27.353  1.00  0.00    -0.246 OA
BRANCH  28  30
ATOM     30  C   UNL A   1      34.752  30.975  27.727  1.00  0.00     0.060 A 
ATOM     31  C   UNL A   1      35.108  29.646  27.940  1.00  0.00     0.016 A 
ATOM     32  C   UNL A   1      35.684  31.975  28.006  1.00  0.00     0.016 A 
ATOM     33  C   UNL A   1      36.314  29.335  28.566  1.00  0.00     0.010 A 
ATOM     34  C   UNL A   1      36.958  31.638  28.506  1.00  0.00     0.010 A 
ATOM     35  C   UNL A   1      37.277  30.312  28.857  1.00  0.00    -0.014 A 
BRANCH  35  36
ATOM     36  C   UNL A   1      38.541  29.943  29.597  1.00  0.00     0.031 A 
ATOM     37  C   UNL A   1      39.578  29.029  28.966  1.00  0.00     0.074 A 
ATOM     38  C   UNL A   1      38.840  30.481  30.804  1.00  0.00     0.049 A 
ATOM     39  N   UNL A   1      40.611  28.441  29.522  1.00  0.00    -0.248 NA
ATOM     40  C   UNL A   1      39.432  28.728  27.535  1.00  0.00     0.031 C 
ATOM     41  C   UNL A   1      38.002  31.422  31.548  1.00  0.00     0.029 A 
ATOM     42  N   UNL A   1      39.956  30.350  31.603  1.00  0.00    -0.354 N 
ATOM     43  C   UNL A   1      41.180  27.637  28.535  1.00  0.00     0.074 A 
ATOM     44  C   UNL A   1      40.379  27.821  27.344  1.00  0.00     0.031 C 
ATOM     45  C   UNL A   1      38.675  31.875  32.614  1.00  0.00     0.029 A 
ATOM     46  C   UNL A   1      39.914  31.122  32.747  1.00  0.00     0.049 A 
ATOM     47  H   UNL A   1      40.712  29.760  31.380  1.00  0.00     0.167 HD
ATOM     48  C   UNL A   1      42.262  26.820  28.615  1.00  0.00     0.034 A 
ATOM     49  C   UNL A   1      40.720  31.173  33.828  1.00  0.00     0.034 A 
ATOM     50  C   UNL A   1      43.111  26.699  29.779  1.00  0.00     0.049 A 
ATOM     51  C   UNL A   1      41.889  30.227  33.913  1.00  0.00     0.074 A 
ATOM     52  C   UNL A   1      44.215  25.881  29.961  1.00  0.00     0.029 A 
ATOM     53  N   UNL A   1      42.976  27.435  30.948  1.00  0.00    -0.354 N 
ATOM     54  N   UNL A   1      42.312  29.355  33.028  1.00  0.00    -0.248 NA
ATOM     55  C   UNL A   1      42.663  30.245  35.160  1.00  0.00     0.031 C 
ATOM     56  C   UNL A   1      44.714  26.085  31.253  1.00  0.00     0.029 A 
ATOM     57  C   UNL A   1      43.968  27.083  31.854  1.00  0.00     0.049 A 
ATOM     58  H   UNL A   1      42.277  28.109  31.112  1.00  0.00     0.167 HD
ATOM     59  C   UNL A   1      43.397  28.714  33.622  1.00  0.00     0.074 A 
ATOM     60  C   UNL A   1      43.595  29.339  34.913  1.00  0.00     0.031 C 
ATOM     61  C   UNL A   1      44.148  27.686  33.152  1.00  0.00     0.034 A 
BRANCH  48  62
ATOM     62  C   UNL A   1      42.565  25.936  27.427  1.00  0.00     0.023 A 
ATOM     63  C   UNL A   1      42.119  24.606  27.339  1.00  0.00     0.031 A 
ATOM     64  C   UNL A   1      43.311  26.450  26.348  1.00  0.00     0.131 A 
ATOM     65  C   UNL A   1      42.463  23.824  26.225  1.00  0.00     0.055 A 
ATOM     66  C   UNL A   1      43.585  25.691  25.209  1.00  0.00     0.041 A 
ATOM     67  F   UNL A   1      43.780  27.707  26.380  1.00  0.00    -0.206 F 
ATOM     68  C   UNL A   1      43.170  24.365  25.147  1.00  0.00     0.022 A 
BRANCH  65  69
ATOM     69  S   UNL A   1      42.070  22.053  26.249  1.00  0.00     0.124 S 
ATOM     70  O   UNL A   1      42.480  21.680  27.601  1.00  0.00    -0.237 OA
ATOM     71  O   UNL A   1      40.635  22.046  25.992  1.00  0.00    -0.237 OA
ATOM     72  O   UNL A   1      42.899  21.503  25.179  1.00  0.00    -0.744 OA
ENDBRANCH  65  69
ENDBRANCH  48  62
BRANCH  49  73
ATOM     73  C   UNL A   1      40.379  32.050  34.993  1.00  0.00     0.023 A 
ATOM     74  C   UNL A   1      39.444  31.654  35.964  1.00  0.00     0.031 A 
ATOM     75  C   UNL A   1      40.934  33.340  35.105  1.00  0.00     0.131 A 
ATOM     76  C   UNL A   1      39.068  32.553  36.979  1.00  0.00     0.055 A 
ATOM     77  C   UNL A   1      40.619  34.195  36.160  1.00  0.00     0.041 A 
ATOM     78  F   UNL A   1      41.810  33.787  34.190  1.00  0.00    -0.206 F 
ATOM     79  C   UNL A   1      39.668  33.809  37.096  1.00  0.00     0.022 A 
BRANCH  76  80
ATOM     80  S   UNL A   1      37.683  32.115  38.068  1.00  0.00     0.124 S 
ATOM     81  O   UNL A   1      38.274  32.295  39.389  1.00  0.00    -0.237 OA
ATOM     82  O   UNL A   1      36.667  33.087  37.680  1.00  0.00    -0.237 OA
ATOM     83  O   UNL A   1      37.387  30.732  37.702  1.00  0.00    -0.744 OA
ENDBRANCH  76  80
ENDBRANCH  49  73
BRANCH  61  84
ATOM     84  C   UNL A   1      45.267  27.201  34.043  1.00  0.00     0.023 A 
ATOM     85  C   UNL A   1      46.570  27.721  33.933  1.00  0.00     0.031 A 
ATOM     86  C   UNL A   1      45.048  26.162  34.963  1.00  0.00     0.131 A 
ATOM     87  C   UNL A   1      47.618  27.148  34.669  1.00  0.00     0.055 A 
ATOM     88  C   UNL A   1      46.082  25.640  35.743  1.00  0.00     0.041 A 
ATOM     89  F   UNL A   1      43.827  25.624  35.109  1.00  0.00    -0.206 F 
ATOM     90  C   UNL A   1      47.379  26.120  35.584  1.00  0.00     0.022 A 
BRANCH  87  91
ATOM     91  S   UNL A   1      49.319  27.675  34.316  1.00  0.00     0.124 S 
ATOM     92  O   UNL A   1      49.106  28.911  33.572  1.00  0.00    -0.237 OA
ATOM     93  O   UNL A   1      49.882  27.823  35.654  1.00  0.00    -0.237 OA
ATOM     94  O   UNL A   1      49.865  26.566  33.535  1.00  0.00    -0.744 OA
ENDBRANCH  87  91
ENDBRANCH  61  84
ENDBRANCH  35  36
ENDBRANCH  28  30
ENDBRANCH  27  28
ENDBRANCH  26  27
ENDBRANCH   1  26
TORSDOF 20
ENDMDL
MODEL 2
REMARK VINA RESULT:     -11.4      1.502      7.519
REMARK SMILES CCC[C@@H](C(=O)OCCOC(=O)c1ccc(-c2c3nc(c(-c4cc(S(=O)(=O)[O-])ccc4F)c4ccc([nH]4)c(-c4cc(S(=O)(=O)[O-])ccc4F)c4nc(c(-c5cc(S(=O)(=O)[O-])ccc5F)c5ccc2[nH]5)C=C4)C=C3)cc1)n1nc(/C=C/c2ccc(OC)cc2)ccc1=O
REMARK SMILES IDX 8 1 7 2 5 3 6 4 4 5 3 6 2 7 1 8 76 9 77 10 91 11 78 12 90 13
REMARK SMILES IDX 92 14 89 15 79 16 80 17 81 18 82 19 88 20 83 21 87 22 84 23
REMARK SMILES IDX 85 24 86 25 9 26 10 27 11 28 12 29 13 30 14 31 75 32 15 33
REMARK SMILES IDX 74 34 16 35 17 36 18 37 68 38 19 39 73 40 67 41 69 42 20 43
REMARK SMILES IDX 72 44 66 45 65 46 21 48 53 49 33 50 52 51 34 52 37 53 51 54
REMARK SMILES IDX 70 55 35 56 36 57 50 59 71 60 38 61 22 62 23 63 31 64 24 65
REMARK SMILES IDX 30 66 32 67 29 68 25 69 26 70 27 71 28 72 54 73 55 74 63 75
REMARK SMILES IDX 56 76 62 77 64 78 61 79 57 80 58 81 59 82 60 83 39 84 40 85
REMARK SMILES IDX 48 86 41 87 47 88 49 89 46 90 42 91 43 92 44 93 45 94
REMARK H PARENT 69 47 37 58
REMARK Flexibility Score: inf
ROOT
ATOM      1  C   UNL A   1      31.642  29.304  27.206  1.00  0.00     0.274 C 
ENDROOT
BRANCH   1   2
ATOM      2  O   UNL A   1      31.884  28.420  26.090  1.00  0.00    -0.460 OA
BRANCH   2   3
ATOM      3  C   UNL A   1      31.199  27.242  26.041  1.00  0.00     0.331 C 
ATOM      4  O   UNL A   1      31.082  26.488  27.002  1.00  0.00    -0.250 OA
BRANCH   3   5
ATOM      5  C   UNL A   1      30.683  26.918  24.623  1.00  0.00     0.221 C 
BRANCH   5   6
ATOM      6  C   UNL A   1      29.376  26.089  24.530  1.00  0.00     0.039 C 
BRANCH   6   7
ATOM      7  C   UNL A   1      28.161  26.704  23.831  1.00  0.00    -0.001 C 
ATOM      8  C   UNL A   1      28.391  28.087  23.261  1.00  0.00     0.004 C 
ENDBRANCH   6   7
ENDBRANCH   5   6
BRANCH   5   9
ATOM      9  N   UNL A   1      31.757  26.254  23.847  1.00  0.00    -0.215 N 
ATOM     10  N   UNL A   1      32.024  24.909  24.115  1.00  0.00    -0.169 NA
ATOM     11  C   UNL A   1      32.468  27.005  22.917  1.00  0.00     0.267 A 
ATOM     12  C   UNL A   1      33.025  24.362  23.486  1.00  0.00     0.084 A 
ATOM     13  C   UNL A   1      33.658  26.377  22.336  1.00  0.00     0.075 A 
ATOM     14  O   UNL A   1      32.190  28.158  22.595  1.00  0.00    -0.268 OA
ATOM     15  C   UNL A   1      33.961  25.115  22.619  1.00  0.00     0.036 A 
BRANCH  12  16
ATOM     16  C   UNL A   1      33.341  22.906  23.648  1.00  0.00     0.031 C 
ATOM     17  C   UNL A   1      32.382  21.967  23.585  1.00  0.00     0.010 C 
BRANCH  17  18
ATOM     18  C   UNL A   1      32.610  20.522  23.586  1.00  0.00    -0.025 A 
ATOM     19  C   UNL A   1      33.489  19.997  24.542  1.00  0.00     0.012 A 
ATOM     20  C   UNL A   1      32.059  19.671  22.628  1.00  0.00     0.012 A 
ATOM     21  C   UNL A   1      33.773  18.632  24.568  1.00  0.00     0.047 A 
ATOM     22  C   UNL A   1      32.358  18.302  22.647  1.00  0.00     0.047 A 
ATOM     23  C   UNL A   1      33.194  17.773  23.633  1.00  0.00     0.118 A 
BRANCH  23  24
ATOM     24  O   UNL A   1      33.522  16.455  23.793  1.00  0.00    -0.497 OA
ATOM     25  C   UNL A   1      33.096  15.840  25.002  1.00  0.00     0.278 C 
ENDBRANCH  23  24
ENDBRANCH  17  18
ENDBRANCH  12  16
ENDBRANCH   5   9
ENDBRANCH   3   5
ENDBRANCH   2   3
ENDBRANCH   1   2
BRANCH   1  26
ATOM     26  C   UNL A   1      31.599  30.751  26.719  1.00  0.00     0.275 C 
BRANCH  26  27
ATOM     27  O   UNL A   1      32.948  31.164  26.469  1.00  0.00    -0.458 OA
BRANCH  27  28
ATOM     28  C   UNL A   1      33.477  32.087  27.309  1.00  0.00     0.338 C 
ATOM     29  O   UNL A   1      32.968  33.144  27.634  1.00  0.00    -0.246 OA
BRANCH  28  30
ATOM     30  C   UNL A   1      34.797  31.595  27.788  1.00  0.00     0.060 A 
ATOM     31  C   UNL A   1      34.988  30.239  28.035  1.00  0.00     0.016 A 
ATOM     32  C   UNL A   1      35.816  32.491  28.114  1.00  0.00     0.016 A 
ATOM     33  C   UNL A   1      36.112  29.807  28.738  1.00  0.00     0.010 A 
ATOM     34  C   UNL A   1      37.011  32.023  28.695  1.00  0.00     0.010 A 
ATOM     35  C   UNL A   1      37.159  30.677  29.079  1.00  0.00    -0.014 A 
BRANCH  35  36
ATOM     36  C   UNL A   1      38.326  30.182  29.900  1.00  0.00     0.031 A 
ATOM     37  C   UNL A   1      38.472  30.564  31.363  1.00  0.00     0.074 A 
ATOM     38  C   UNL A   1      39.230  29.310  29.393  1.00  0.00     0.049 A 
ATOM     39  N   UNL A   1      39.502  30.409  32.161  1.00  0.00    -0.248 NA
ATOM     40  C   UNL A   1      37.321  31.212  32.009  1.00  0.00     0.031 C 
ATOM     41  C   UNL A   1      39.232  28.780  28.030  1.00  0.00     0.029 A 
ATOM     42  N   UNL A   1      40.306  28.677  29.980  1.00  0.00    -0.354 N 
ATOM     43  C   UNL A   1      39.155  31.016  33.367  1.00  0.00     0.074 A 
ATOM     44  C   UNL A   1      37.816  31.535  33.196  1.00  0.00     0.031 C 
ATOM     45  C   UNL A   1      40.162  27.823  27.921  1.00  0.00     0.029 A 
ATOM     46  C   UNL A   1      40.958  27.797  29.141  1.00  0.00     0.049 A 
ATOM     47  H   UNL A   1      40.584  28.839  30.910  1.00  0.00     0.167 HD
ATOM     48  C   UNL A   1      39.885  31.134  34.507  1.00  0.00     0.034 A 
ATOM     49  C   UNL A   1      42.108  27.104  29.280  1.00  0.00     0.034 A 
ATOM     50  C   UNL A   1      41.190  30.545  34.706  1.00  0.00     0.049 A 
ATOM     51  C   UNL A   1      42.922  27.286  30.535  1.00  0.00     0.074 A 
ATOM     52  C   UNL A   1      42.015  30.631  35.817  1.00  0.00     0.029 A 
ATOM     53  N   UNL A   1      41.851  29.736  33.793  1.00  0.00    -0.354 N 
ATOM     54  N   UNL A   1      42.648  27.999  31.601  1.00  0.00    -0.248 NA
ATOM     55  C   UNL A   1      44.219  26.599  30.585  1.00  0.00     0.031 C 
ATOM     56  C   UNL A   1      43.191  29.918  35.556  1.00  0.00     0.029 A 
ATOM     57  C   UNL A   1      43.073  29.326  34.312  1.00  0.00     0.049 A 
ATOM     58  H   UNL A   1      41.504  29.488  32.905  1.00  0.00     0.167 HD
ATOM     59  C   UNL A   1      43.748  27.854  32.443  1.00  0.00     0.074 A 
ATOM     60  C   UNL A   1      44.660  26.942  31.785  1.00  0.00     0.031 C 
ATOM     61  C   UNL A   1      43.993  28.439  33.643  1.00  0.00     0.034 A 
BRANCH  48  62
ATOM     62  C   UNL A   1      39.320  31.988  35.620  1.00  0.00     0.023 A 
ATOM     63  C   UNL A   1      38.622  31.443  36.711  1.00  0.00     0.031 A 
ATOM     64  C   UNL A   1      39.501  33.384  35.587  1.00  0.00     0.131 A 
ATOM     65  C   UNL A   1      38.090  32.291  37.696  1.00  0.00     0.055 A 
ATOM     66  C   UNL A   1      39.034  34.215  36.608  1.00  0.00     0.041 A 
ATOM     67  F   UNL A   1      40.143  33.965  34.562  1.00  0.00    -0.206 F 
ATOM     68  C   UNL A   1      38.314  33.671  37.665  1.00  0.00     0.022 A 
BRANCH  65  69
ATOM     69  S   UNL A   1      37.003  31.581  38.962  1.00  0.00     0.124 S 
ATOM     70  O   UNL A   1      37.817  31.731  40.166  1.00  0.00    -0.237 OA
ATOM     71  O   UNL A   1      35.824  32.435  38.879  1.00  0.00    -0.237 OA
ATOM     72  O   UNL A   1      36.809  30.203  38.516  1.00  0.00    -0.744 OA
ENDBRANCH  65  69
ENDBRANCH  48  62
BRANCH  49  73
ATOM     73  C   UNL A   1      42.646  26.282  28.150  1.00  0.00     0.023 A 
ATOM     74  C   UNL A   1      42.267  24.941  27.969  1.00  0.00     0.031 A 
ATOM     75  C   UNL A   1      43.612  26.814  27.274  1.00  0.00     0.131 A 
ATOM     76  C   UNL A   1      42.879  24.172  26.963  1.00  0.00     0.055 A 
ATOM     77  C   UNL A   1      44.155  26.071  26.227  1.00  0.00     0.041 A 
ATOM     78  F   UNL A   1      44.037  28.080  27.415  1.00  0.00    -0.206 F 
ATOM     79  C   UNL A   1      43.801  24.736  26.077  1.00  0.00     0.022 A 
BRANCH  76  80
ATOM     80  S   UNL A   1      42.561  22.385  26.909  1.00  0.00     0.124 S 
ATOM     81  O   UNL A   1      42.781  22.001  28.298  1.00  0.00    -0.237 OA
ATOM     82  O   UNL A   1      41.182  22.332  26.437  1.00  0.00    -0.237 OA
ATOM     83  O   UNL A   1      43.559  21.892  25.961  1.00  0.00    -0.744 OA
ENDBRANCH  76  80
ENDBRANCH  49  73
BRANCH  61  84
ATOM     84  C   UNL A   1      45.295  28.079  34.319  1.00  0.00     0.023 A 
ATOM     85  C   UNL A   1      45.346  27.118  35.347  1.00  0.00     0.031 A 
ATOM     86  C   UNL A   1      46.484  28.750  33.984  1.00  0.00     0.131 A 
ATOM     87  C   UNL A   1      46.540  26.914  36.055  1.00  0.00     0.055 A 
ATOM     88  C   UNL A   1      47.685  28.493  34.648  1.00  0.00     0.041 A 
ATOM     89  F   UNL A   1      46.495  29.679  33.015  1.00  0.00    -0.206 F 
ATOM     90  C   UNL A   1      47.713  27.585  35.703  1.00  0.00     0.022 A 
BRANCH  87  91
ATOM     91  S   UNL A   1      46.505  25.856  37.530  1.00  0.00     0.124 S 
ATOM     92  O   UNL A   1      47.869  25.988  38.031  1.00  0.00    -0.237 OA
ATOM     93  O   UNL A   1      45.465  26.484  38.338  1.00  0.00    -0.237 OA
ATOM     94  O   UNL A   1      46.164  24.538  36.998  1.00  0.00    -0.744 OA
ENDBRANCH  87  91
ENDBRANCH  61  84
ENDBRANCH  35  36
ENDBRANCH  28  30
ENDBRANCH  27  28
ENDBRANCH  26  27
ENDBRANCH   1  26
TORSDOF 20
ENDMDL
MODEL 3
REMARK VINA RESULT:     -11.3      1.747      7.486
REMARK SMILES CCC[C@@H](C(=O)OCCOC(=O)c1ccc(-c2c3nc(c(-c4cc(S(=O)(=O)[O-])ccc4F)c4ccc([nH]4)c(-c4cc(S(=O)(=O)[O-])ccc4F)c4nc(c(-c5cc(S(=O)(=O)[O-])ccc5F)c5ccc2[nH]5)C=C4)C=C3)cc1)n1nc(/C=C/c2ccc(OC)cc2)ccc1=O
REMARK SMILES IDX 8 1 7 2 5 3 6 4 4 5 3 6 2 7 1 8 76 9 77 10 91 11 78 12 90 13
REMARK SMILES IDX 92 14 89 15 79 16 80 17 81 18 82 19 88 20 83 21 87 22 84 23
REMARK SMILES IDX 85 24 86 25 9 26 10 27 11 28 12 29 13 30 14 31 75 32 15 33
REMARK SMILES IDX 74 34 16 35 17 36 18 37 68 38 19 39 73 40 67 41 69 42 20 43
REMARK SMILES IDX 72 44 66 45 65 46 21 48 53 49 33 50 52 51 34 52 37 53 51 54
REMARK SMILES IDX 70 55 35 56 36 57 50 59 71 60 38 61 22 62 23 63 31 64 24 65
REMARK SMILES IDX 30 66 32 67 29 68 25 69 26 70 27 71 28 72 54 73 55 74 63 75
REMARK SMILES IDX 56 76 62 77 64 78 61 79 57 80 58 81 59 82 60 83 39 84 40 85
REMARK SMILES IDX 48 86 41 87 47 88 49 89 46 90 42 91 43 92 44 93 45 94
REMARK H PARENT 69 47 37 58
REMARK Flexibility Score: inf
ROOT
ATOM      1  C   UNL A   1      31.756  29.004  27.013  1.00  0.00     0.274 C 
ENDROOT
BRANCH   1   2
ATOM      2  O   UNL A   1      31.820  28.189  25.822  1.00  0.00    -0.460 OA
BRANCH   2   3
ATOM      3  C   UNL A   1      31.114  27.023  25.801  1.00  0.00     0.331 C 
ATOM      4  O   UNL A   1      30.971  26.302  26.784  1.00  0.00    -0.250 OA
BRANCH   3   5
ATOM      5  C   UNL A   1      30.610  26.664  24.387  1.00  0.00     0.221 C 
BRANCH   5   6
ATOM      6  C   UNL A   1      29.123  26.242  24.265  1.00  0.00     0.039 C 
BRANCH   6   7
ATOM      7  C   UNL A   1      28.124  27.226  23.652  1.00  0.00    -0.001 C 
ATOM      8  C   UNL A   1      28.749  28.449  23.017  1.00  0.00     0.004 C 
ENDBRANCH   6   7
ENDBRANCH   5   6
BRANCH   5   9
ATOM      9  N   UNL A   1      31.482  25.619  23.803  1.00  0.00    -0.215 N 
ATOM     10  N   UNL A   1      31.469  24.352  24.391  1.00  0.00    -0.169 NA
ATOM     11  C   UNL A   1      32.293  25.954  22.725  1.00  0.00     0.267 A 
ATOM     12  C   UNL A   1      32.301  23.466  23.921  1.00  0.00     0.084 A 
ATOM     13  C   UNL A   1      33.295  24.963  22.321  1.00  0.00     0.075 A 
ATOM     14  O   UNL A   1      32.252  27.029  22.131  1.00  0.00    -0.268 OA
ATOM     15  C   UNL A   1      33.335  23.770  22.904  1.00  0.00     0.036 A 
BRANCH  12  16
ATOM     16  C   UNL A   1      32.309  22.059  24.433  1.00  0.00     0.031 C 
ATOM     17  C   UNL A   1      32.465  21.010  23.606  1.00  0.00     0.010 C 
BRANCH  17  18
ATOM     18  C   UNL A   1      32.630  19.618  24.024  1.00  0.00    -0.025 A 
ATOM     19  C   UNL A   1      32.847  19.363  25.385  1.00  0.00     0.012 A 
ATOM     20  C   UNL A   1      32.663  18.558  23.119  1.00  0.00     0.012 A 
ATOM     21  C   UNL A   1      33.047  18.059  25.836  1.00  0.00     0.047 A 
ATOM     22  C   UNL A   1      32.880  17.250  23.575  1.00  0.00     0.047 A 
ATOM     23  C   UNL A   1      33.045  16.993  24.937  1.00  0.00     0.118 A 
BRANCH  23  24
ATOM     24  O   UNL A   1      33.211  15.764  25.514  1.00  0.00    -0.497 OA
ATOM     25  C   UNL A   1      32.038  14.976  25.670  1.00  0.00     0.278 C 
ENDBRANCH  23  24
ENDBRANCH  17  18
ENDBRANCH  12  16
ENDBRANCH   5   9
ENDBRANCH   3   5
ENDBRANCH   2   3
ENDBRANCH   1   2
BRANCH   1  26
ATOM     26  C   UNL A   1      31.793  30.482  26.631  1.00  0.00     0.275 C 
BRANCH  26  27
ATOM     27  O   UNL A   1      33.169  30.861  26.496  1.00  0.00    -0.458 OA
BRANCH  27  28
ATOM     28  C   UNL A   1      33.642  31.787  27.364  1.00  0.00     0.338 C 
ATOM     29  O   UNL A   1      33.094  32.826  27.682  1.00  0.00    -0.246 OA
BRANCH  28  30
ATOM     30  C   UNL A   1      34.956  31.324  27.886  1.00  0.00     0.060 A 
ATOM     31  C   UNL A   1      35.154  29.979  28.183  1.00  0.00     0.016 A 
ATOM     32  C   UNL A   1      35.960  32.239  28.202  1.00  0.00     0.016 A 
ATOM     33  C   UNL A   1      36.267  29.581  28.922  1.00  0.00     0.010 A 
ATOM     34  C   UNL A   1      37.147  31.802  28.823  1.00  0.00     0.010 A 
ATOM     35  C   UNL A   1      37.299  30.471  29.255  1.00  0.00    -0.014 A 
BRANCH  35  36
ATOM     36  C   UNL A   1      38.453  30.015  30.115  1.00  0.00     0.031 A 
ATOM     37  C   UNL A   1      38.527  30.384  31.587  1.00  0.00     0.074 A 
ATOM     38  C   UNL A   1      39.412  29.187  29.634  1.00  0.00     0.049 A 
ATOM     39  N   UNL A   1      39.531  30.262  32.422  1.00  0.00    -0.248 NA
ATOM     40  C   UNL A   1      37.326  30.976  32.195  1.00  0.00     0.031 C 
ATOM     41  C   UNL A   1      39.488  28.674  28.266  1.00  0.00     0.029 A 
ATOM     42  N   UNL A   1      40.490  28.591  30.256  1.00  0.00    -0.354 N 
ATOM     43  C   UNL A   1      39.113  30.839  33.620  1.00  0.00     0.074 A 
ATOM     44  C   UNL A   1      37.760  31.304  33.403  1.00  0.00     0.031 C 
ATOM     45  C   UNL A   1      40.461  27.757  28.184  1.00  0.00     0.029 A 
ATOM     46  C   UNL A   1      41.210  27.749  29.433  1.00  0.00     0.049 A 
ATOM     47  H   UNL A   1      40.725  28.753  31.198  1.00  0.00     0.167 HD
ATOM     48  C   UNL A   1      39.793  30.974  34.789  1.00  0.00     0.034 A 
ATOM     49  C   UNL A   1      42.382  27.103  29.610  1.00  0.00     0.034 A 
ATOM     50  C   UNL A   1      41.113  30.437  35.032  1.00  0.00     0.049 A 
ATOM     51  C   UNL A   1      43.138  27.303  30.897  1.00  0.00     0.074 A 
ATOM     52  C   UNL A   1      41.890  30.542  36.175  1.00  0.00     0.029 A 
ATOM     53  N   UNL A   1      41.842  29.666  34.137  1.00  0.00    -0.354 N 
ATOM     54  N   UNL A   1      42.794  27.991  31.960  1.00  0.00    -0.248 NA
ATOM     55  C   UNL A   1      44.459  26.669  30.990  1.00  0.00     0.031 C 
ATOM     56  C   UNL A   1      43.104  29.882  35.952  1.00  0.00     0.029 A 
ATOM     57  C   UNL A   1      43.058  29.300  34.699  1.00  0.00     0.049 A 
ATOM     58  H   UNL A   1      41.540  29.416  33.234  1.00  0.00     0.167 HD
ATOM     59  C   UNL A   1      43.866  27.881  32.842  1.00  0.00     0.074 A 
ATOM     60  C   UNL A   1      44.839  27.015  32.210  1.00  0.00     0.031 C 
ATOM     61  C   UNL A   1      44.040  28.461  34.056  1.00  0.00     0.034 A 
BRANCH  48  62
ATOM     62  C   UNL A   1      39.150  31.789  35.888  1.00  0.00     0.023 A 
ATOM     63  C   UNL A   1      38.424  31.204  36.939  1.00  0.00     0.031 A 
ATOM     64  C   UNL A   1      39.285  33.191  35.884  1.00  0.00     0.131 A 
ATOM     65  C   UNL A   1      37.821  32.017  37.911  1.00  0.00     0.055 A 
ATOM     66  C   UNL A   1      38.746  33.990  36.895  1.00  0.00     0.041 A 
ATOM     67  F   UNL A   1      39.952  33.810  34.898  1.00  0.00    -0.206 F 
ATOM     68  C   UNL A   1      37.998  33.404  37.911  1.00  0.00     0.022 A 
BRANCH  65  69
ATOM     69  S   UNL A   1      36.703  31.251  39.117  1.00  0.00     0.124 S 
ATOM     70  O   UNL A   1      35.628  32.239  39.190  1.00  0.00    -0.237 OA
ATOM     71  O   UNL A   1      36.365  29.987  38.473  1.00  0.00    -0.237 OA
ATOM     72  O   UNL A   1      37.521  31.139  40.322  1.00  0.00    -0.744 OA
ENDBRANCH  65  69
ENDBRANCH  48  62
BRANCH  49  73
ATOM     73  C   UNL A   1      42.996  26.317  28.492  1.00  0.00     0.023 A 
ATOM     74  C   UNL A   1      44.034  26.843  27.706  1.00  0.00     0.031 A 
ATOM     75  C   UNL A   1      42.491  25.048  28.149  1.00  0.00     0.131 A 
ATOM     76  C   UNL A   1      44.505  26.119  26.597  1.00  0.00     0.055 A 
ATOM     77  C   UNL A   1      43.018  24.299  27.098  1.00  0.00     0.041 A 
ATOM     78  F   UNL A   1      41.478  24.505  28.844  1.00  0.00    -0.206 F 
ATOM     79  C   UNL A   1      44.021  24.841  26.304  1.00  0.00     0.022 A 
BRANCH  76  80
ATOM     80  S   UNL A   1      45.665  26.921  25.454  1.00  0.00     0.124 S 
ATOM     81  O   UNL A   1      46.643  27.492  26.372  1.00  0.00    -0.237 OA
ATOM     82  O   UNL A   1      46.123  25.800  24.640  1.00  0.00    -0.237 OA
ATOM     83  O   UNL A   1      44.830  27.894  24.751  1.00  0.00    -0.744 OA
ENDBRANCH  76  80
ENDBRANCH  49  73
BRANCH  61  84
ATOM     84  C   UNL A   1      45.328  28.147  34.779  1.00  0.00     0.023 A 
ATOM     85  C   UNL A   1      46.474  28.949  34.620  1.00  0.00     0.031 A 
ATOM     86  C   UNL A   1      45.435  26.997  35.581  1.00  0.00     0.131 A 
ATOM     87  C   UNL A   1      47.694  28.548  35.186  1.00  0.00     0.055 A 
ATOM     88  C   UNL A   1      46.636  26.639  36.196  1.00  0.00     0.041 A 
ATOM     89  F   UNL A   1      44.378  26.191  35.765  1.00  0.00    -0.206 F 
ATOM     90  C   UNL A   1      47.779  27.406  35.984  1.00  0.00     0.022 A 
BRANCH  87  91
ATOM     91  S   UNL A   1      49.197  29.469  34.753  1.00  0.00     0.124 S 
ATOM     92  O   UNL A   1      48.728  30.325  33.669  1.00  0.00    -0.237 OA
ATOM     93  O   UNL A   1      49.521  30.143  36.006  1.00  0.00    -0.237 OA
ATOM     94  O   UNL A   1      50.137  28.421  34.354  1.00  0.00    -0.744 OA
ENDBRANCH  87  91
ENDBRANCH  61  84
ENDBRANCH  35  36
ENDBRANCH  28  30
ENDBRANCH  27  28
ENDBRANCH  26  27
ENDBRANCH   1  26
TORSDOF 20
ENDMDL
