MODEL 1
REMARK VINA RESULT:     -11.4      0.000      0.000
REMARK SMILES CN(CC(C)(C)O)S(=O)(=O)c1cc(Cl)cc(C(=O)OCCOC(=O)c2ccc(-c3c4nc(c(-c5cc(S(=O)(=O)[O-])ccc5F)c5ccc([nH]5)c(-c5cc(S(=O)(=O)[O-])ccc5F)c5nc(c(-c6cc(S(=O)(=O)[O-])ccc6F)c6ccc3[nH]6)C=C5)C=C4)cc2)c1Cl
REMARK SMILES IDX 20 1 19 2 17 3 18 4 16 5 11 6 12 7 88 8 13 9 89 10 14 11
REMARK SMILES IDX 15 12 8 13 9 14 10 15 2 16 1 17 3 18 4 19 5 20 6 21 7 22
REMARK SMILES IDX 21 24 22 25 23 26 24 27 25 28 26 29 87 30 27 31 86 32 28 33
REMARK SMILES IDX 29 34 30 35 80 36 31 37 85 38 79 39 81 40 32 41 84 42 78 43
REMARK SMILES IDX 77 44 33 46 65 47 45 48 64 49 46 50 49 51 63 52 82 53 47 54
REMARK SMILES IDX 48 55 62 57 83 58 50 59 34 60 35 61 43 62 36 63 42 64 44 65
REMARK SMILES IDX 41 66 37 67 38 68 39 69 40 70 66 71 67 72 75 73 68 74 74 75
REMARK SMILES IDX 76 76 73 77 69 78 70 79 71 80 72 81 51 82 52 83 60 84 53 85
REMARK SMILES IDX 59 86 61 87 58 88 54 89 55 90 56 91 57 92
REMARK H PARENT 7 23 81 45 49 56
REMARK Flexibility Score: inf
ROOT
ATOM      1  C   UNL A   1      31.568  29.265  24.885  1.00  0.00     0.275 C 
ENDROOT
BRANCH   1   2
ATOM      2  O   UNL A   1      31.279  28.011  25.534  1.00  0.00    -0.458 OA
BRANCH   2   3
ATOM      3  C   UNL A   1      30.719  27.019  24.809  1.00  0.00     0.339 C 
ATOM      4  O   UNL A   1      30.006  27.156  23.834  1.00  0.00    -0.246 OA
BRANCH   3   5
ATOM      5  C   UNL A   1      31.136  25.677  25.309  1.00  0.00     0.081 A 
ATOM      6  C   UNL A   1      32.818  24.031  25.872  1.00  0.00     0.103 A 
ATOM      7  C   UNL A   1      31.846  23.288  26.566  1.00  0.00     0.044 A 
ATOM      8  C   UNL A   1      32.429  25.155  25.128  1.00  0.00     0.075 A 
ATOM      9  C   UNL A   1      30.533  23.737  26.621  1.00  0.00     0.043 A 
ATOM     10  Cl  UNL A   1      33.453  25.857  23.933  1.00  0.00    -0.082 Cl
ATOM     11  Cl  UNL A   1      29.325  22.780  27.377  1.00  0.00    -0.084 Cl
ATOM     12  C   UNL A   1      30.197  24.967  26.075  1.00  0.00     0.037 A 
BRANCH   6  13
ATOM     13  S   UNL A   1      34.502  23.445  25.957  1.00  0.00     0.244 S 
ATOM     14  O   UNL A   1      34.677  22.720  27.194  1.00  0.00    -0.207 OA
ATOM     15  O   UNL A   1      35.346  24.594  25.696  1.00  0.00    -0.207 OA
BRANCH  13  16
ATOM     16  N   UNL A   1      34.742  22.397  24.629  1.00  0.00    -0.198 NA
ATOM     17  C   UNL A   1      35.555  22.961  23.528  1.00  0.00     0.124 C 
BRANCH  16  18
ATOM     18  C   UNL A   1      34.907  20.923  24.761  1.00  0.00     0.136 C 
BRANCH  18  19
ATOM     19  C   UNL A   1      33.639  20.028  24.941  1.00  0.00     0.073 C 
ATOM     20  C   UNL A   1      32.352  20.443  24.226  1.00  0.00     0.043 C 
ATOM     21  C   UNL A   1      34.016  18.589  24.540  1.00  0.00     0.043 C 
BRANCH  19  22
ATOM     22  O   UNL A   1      33.315  19.981  26.347  1.00  0.00    -0.389 OA
ATOM     23  H   UNL A   1      33.419  20.866  26.733  1.00  0.00     0.211 HD
ENDBRANCH  19  22
ENDBRANCH  18  19
ENDBRANCH  16  18
ENDBRANCH  13  16
ENDBRANCH   6  13
ENDBRANCH   3   5
ENDBRANCH   2   3
ENDBRANCH   1   2
BRANCH   1  24
ATOM     24  C   UNL A   1      31.777  30.345  25.945  1.00  0.00     0.275 C 
BRANCH  24  25
ATOM     25  O   UNL A   1      33.109  30.234  26.476  1.00  0.00    -0.458 OA
BRANCH  25  26
ATOM     26  C   UNL A   1      33.532  31.327  27.151  1.00  0.00     0.338 C 
ATOM     27  O   UNL A   1      32.876  32.304  27.475  1.00  0.00    -0.246 OA
BRANCH  26  28
ATOM     28  C   UNL A   1      34.884  31.079  27.655  1.00  0.00     0.060 A 
ATOM     29  C   UNL A   1      35.185  29.775  28.028  1.00  0.00     0.016 A 
ATOM     30  C   UNL A   1      35.783  32.108  27.901  1.00  0.00     0.016 A 
ATOM     31  C   UNL A   1      36.334  29.492  28.750  1.00  0.00     0.010 A 
ATOM     32  C   UNL A   1      36.993  31.806  28.536  1.00  0.00     0.010 A 
ATOM     33  C   UNL A   1      37.265  30.501  29.001  1.00  0.00    -0.014 A 
BRANCH  33  34
ATOM     34  C   UNL A   1      38.482  30.206  29.806  1.00  0.00     0.031 A 
ATOM     35  C   UNL A   1      39.537  29.292  29.243  1.00  0.00     0.074 A 
ATOM     36  C   UNL A   1      38.657  30.767  31.020  1.00  0.00     0.049 A 
ATOM     37  N   UNL A   1      40.547  28.719  29.843  1.00  0.00    -0.248 NA
ATOM     38  C   UNL A   1      39.421  28.961  27.814  1.00  0.00     0.031 C 
ATOM     39  C   UNL A   1      37.756  31.739  31.646  1.00  0.00     0.029 A 
ATOM     40  N   UNL A   1      39.656  30.604  31.948  1.00  0.00    -0.354 N 
ATOM     41  C   UNL A   1      41.150  27.912  28.884  1.00  0.00     0.074 A 
ATOM     42  C   UNL A   1      40.377  28.056  27.668  1.00  0.00     0.031 C 
ATOM     43  C   UNL A   1      38.259  32.108  32.832  1.00  0.00     0.029 A 
ATOM     44  C   UNL A   1      39.448  31.315  33.109  1.00  0.00     0.049 A 
ATOM     45  H   UNL A   1      40.445  30.035  31.798  1.00  0.00     0.167 HD
ATOM     46  C   UNL A   1      42.246  27.123  29.013  1.00  0.00     0.034 A 
ATOM     47  C   UNL A   1      40.097  31.282  34.289  1.00  0.00     0.034 A 
ATOM     48  C   UNL A   1      43.017  27.031  30.231  1.00  0.00     0.049 A 
ATOM     49  C   UNL A   1      41.259  30.335  34.440  1.00  0.00     0.074 A 
ATOM     50  C   UNL A   1      44.147  26.273  30.482  1.00  0.00     0.029 A 
ATOM     51  N   UNL A   1      42.741  27.727  31.402  1.00  0.00    -0.354 N 
ATOM     52  N   UNL A   1      41.777  29.516  33.554  1.00  0.00    -0.248 NA
ATOM     53  C   UNL A   1      41.915  30.298  35.753  1.00  0.00     0.031 C 
ATOM     54  C   UNL A   1      44.505  26.449  31.823  1.00  0.00     0.029 A 
ATOM     55  C   UNL A   1      43.657  27.390  32.386  1.00  0.00     0.049 A 
ATOM     56  H   UNL A   1      42.001  28.367  31.517  1.00  0.00     0.167 HD
ATOM     57  C   UNL A   1      42.840  28.886  34.196  1.00  0.00     0.074 A 
ATOM     58  C   UNL A   1      42.896  29.435  35.536  1.00  0.00     0.031 C 
ATOM     59  C   UNL A   1      43.693  27.942  33.721  1.00  0.00     0.034 A 
BRANCH  46  60
ATOM     60  C   UNL A   1      42.623  26.249  27.839  1.00  0.00     0.023 A 
ATOM     61  C   UNL A   1      42.036  24.989  27.620  1.00  0.00     0.031 A 
ATOM     62  C   UNL A   1      43.623  26.668  26.944  1.00  0.00     0.131 A 
ATOM     63  C   UNL A   1      42.511  24.166  26.587  1.00  0.00     0.055 A 
ATOM     64  C   UNL A   1      44.027  25.882  25.864  1.00  0.00     0.041 A 
ATOM     65  F   UNL A   1      44.242  27.849  27.113  1.00  0.00    -0.206 F 
ATOM     66  C   UNL A   1      43.483  24.614  25.690  1.00  0.00     0.022 A 
BRANCH  63  67
ATOM     67  S   UNL A   1      41.960  22.438  26.535  1.00  0.00     0.124 S 
ATOM     68  O   UNL A   1      42.430  22.020  25.215  1.00  0.00    -0.237 OA
ATOM     69  O   UNL A   1      42.652  21.851  27.676  1.00  0.00    -0.237 OA
ATOM     70  O   UNL A   1      40.508  22.537  26.668  1.00  0.00    -0.744 OA
ENDBRANCH  63  67
ENDBRANCH  46  60
BRANCH  47  71
ATOM     71  C   UNL A   1      39.620  32.104  35.440  1.00  0.00     0.023 A 
ATOM     72  C   UNL A   1      40.122  33.395  35.667  1.00  0.00     0.031 A 
ATOM     73  C   UNL A   1      38.681  31.594  36.357  1.00  0.00     0.131 A 
ATOM     74  C   UNL A   1      39.715  34.115  36.801  1.00  0.00     0.055 A 
ATOM     75  C   UNL A   1      38.228  32.341  37.447  1.00  0.00     0.041 A 
ATOM     76  F   UNL A   1      38.173  30.362  36.198  1.00  0.00    -0.206 F 
ATOM     77  C   UNL A   1      38.757  33.605  37.681  1.00  0.00     0.022 A 
BRANCH  74  78
ATOM     78  S   UNL A   1      40.529  35.693  37.166  1.00  0.00     0.124 S 
ATOM     79  O   UNL A   1      40.442  35.741  38.621  1.00  0.00    -0.237 OA
ATOM     80  O   UNL A   1      41.861  35.483  36.609  1.00  0.00    -0.237 OA
ATOM     81  O   UNL A   1      39.706  36.672  36.459  1.00  0.00    -0.744 OA
ENDBRANCH  74  78
ENDBRANCH  47  71
BRANCH  59  82
ATOM     82  C   UNL A   1      44.796  27.492  34.648  1.00  0.00     0.023 A 
ATOM     83  C   UNL A   1      44.700  26.306  35.396  1.00  0.00     0.031 A 
ATOM     84  C   UNL A   1      45.955  28.276  34.794  1.00  0.00     0.131 A 
ATOM     85  C   UNL A   1      45.717  25.971  36.303  1.00  0.00     0.055 A 
ATOM     86  C   UNL A   1      46.995  27.899  35.645  1.00  0.00     0.041 A 
ATOM     87  F   UNL A   1      46.097  29.422  34.109  1.00  0.00    -0.206 F 
ATOM     88  C   UNL A   1      46.872  26.748  36.416  1.00  0.00     0.022 A 
BRANCH  85  89
ATOM     89  S   UNL A   1      45.459  24.561  37.414  1.00  0.00     0.124 S 
ATOM     90  O   UNL A   1      46.823  24.249  37.829  1.00  0.00    -0.237 OA
ATOM     91  O   UNL A   1      44.594  25.128  38.444  1.00  0.00    -0.237 OA
ATOM     92  O   UNL A   1      44.827  23.559  36.557  1.00  0.00    -0.744 OA
ENDBRANCH  85  89
ENDBRANCH  59  82
ENDBRANCH  33  34
ENDBRANCH  26  28
ENDBRANCH  25  26
ENDBRANCH  24  25
ENDBRANCH   1  24
TORSDOF 19
ENDMDL
MODEL 2
REMARK VINA RESULT:     -11.2      1.468      1.714
REMARK SMILES CN(CC(C)(C)O)S(=O)(=O)c1cc(Cl)cc(C(=O)OCCOC(=O)c2ccc(-c3c4nc(c(-c5cc(S(=O)(=O)[O-])ccc5F)c5ccc([nH]5)c(-c5cc(S(=O)(=O)[O-])ccc5F)c5nc(c(-c6cc(S(=O)(=O)[O-])ccc6F)c6ccc3[nH]6)C=C5)C=C4)cc2)c1Cl
REMARK SMILES IDX 20 1 19 2 17 3 18 4 16 5 11 6 12 7 88 8 13 9 89 10 14 11
REMARK SMILES IDX 15 12 8 13 9 14 10 15 2 16 1 17 3 18 4 19 5 20 6 21 7 22
REMARK SMILES IDX 21 24 22 25 23 26 24 27 25 28 26 29 87 30 27 31 86 32 28 33
REMARK SMILES IDX 29 34 30 35 80 36 31 37 85 38 79 39 81 40 32 41 84 42 78 43
REMARK SMILES IDX 77 44 33 46 65 47 45 48 64 49 46 50 49 51 63 52 82 53 47 54
REMARK SMILES IDX 48 55 62 57 83 58 50 59 34 60 35 61 43 62 36 63 42 64 44 65
REMARK SMILES IDX 41 66 37 67 38 68 39 69 40 70 66 71 67 72 75 73 68 74 74 75
REMARK SMILES IDX 76 76 73 77 69 78 70 79 71 80 72 81 51 82 52 83 60 84 53 85
REMARK SMILES IDX 59 86 61 87 58 88 54 89 55 90 56 91 57 92
REMARK H PARENT 7 23 81 45 49 56
REMARK Flexibility Score: inf
ROOT
ATOM      1  C   UNL A   1      31.434  28.825  24.748  1.00  0.00     0.275 C 
ENDROOT
BRANCH   1   2
ATOM      2  O   UNL A   1      31.711  27.483  25.193  1.00  0.00    -0.458 OA
BRANCH   2   3
ATOM      3  C   UNL A   1      31.173  26.449  24.511  1.00  0.00     0.339 C 
ATOM      4  O   UNL A   1      30.580  26.518  23.451  1.00  0.00    -0.246 OA
BRANCH   3   5
ATOM      5  C   UNL A   1      31.450  25.148  25.185  1.00  0.00     0.081 A 
ATOM      6  C   UNL A   1      32.958  23.458  26.036  1.00  0.00     0.103 A 
ATOM      7  C   UNL A   1      31.892  22.878  26.748  1.00  0.00     0.044 A 
ATOM      8  C   UNL A   1      32.703  24.511  25.146  1.00  0.00     0.075 A 
ATOM      9  C   UNL A   1      30.619  23.428  26.668  1.00  0.00     0.043 A 
ATOM     10  Cl  UNL A   1      33.845  24.987  23.947  1.00  0.00    -0.082 Cl
ATOM     11  Cl  UNL A   1      29.297  22.662  27.451  1.00  0.00    -0.084 Cl
ATOM     12  C   UNL A   1      30.416  24.607  25.965  1.00  0.00     0.037 A 
BRANCH   6  13
ATOM     13  S   UNL A   1      34.581  22.759  26.294  1.00  0.00     0.244 S 
ATOM     14  O   UNL A   1      34.543  21.927  27.474  1.00  0.00    -0.207 OA
ATOM     15  O   UNL A   1      35.512  23.869  26.250  1.00  0.00    -0.207 OA
BRANCH  13  16
ATOM     16  N   UNL A   1      34.946  21.808  24.922  1.00  0.00    -0.198 NA
ATOM     17  C   UNL A   1      36.035  22.337  24.069  1.00  0.00     0.124 C 
BRANCH  16  18
ATOM     18  C   UNL A   1      34.886  20.321  24.910  1.00  0.00     0.136 C 
BRANCH  18  19
ATOM     19  C   UNL A   1      33.491  19.616  24.923  1.00  0.00     0.073 C 
ATOM     20  C   UNL A   1      32.336  20.281  24.172  1.00  0.00     0.043 C 
ATOM     21  C   UNL A   1      33.685  18.176  24.410  1.00  0.00     0.043 C 
BRANCH  19  22
ATOM     22  O   UNL A   1      33.057  19.499  26.295  1.00  0.00    -0.389 OA
ATOM     23  H   UNL A   1      32.763  20.366  26.616  1.00  0.00     0.211 HD
ENDBRANCH  19  22
ENDBRANCH  18  19
ENDBRANCH  16  18
ENDBRANCH  13  16
ENDBRANCH   6  13
ENDBRANCH   3   5
ENDBRANCH   2   3
ENDBRANCH   1   2
BRANCH   1  24
ATOM     24  C   UNL A   1      31.555  29.784  25.932  1.00  0.00     0.275 C 
BRANCH  24  25
ATOM     25  O   UNL A   1      32.933  29.865  26.335  1.00  0.00    -0.458 OA
BRANCH  25  26
ATOM     26  C   UNL A   1      33.271  31.031  26.931  1.00  0.00     0.338 C 
ATOM     27  O   UNL A   1      32.541  31.974  27.193  1.00  0.00    -0.246 OA
BRANCH  26  28
ATOM     28  C   UNL A   1      34.639  30.925  27.439  1.00  0.00     0.060 A 
ATOM     29  C   UNL A   1      35.170  29.644  27.549  1.00  0.00     0.016 A 
ATOM     30  C   UNL A   1      35.332  32.020  27.938  1.00  0.00     0.016 A 
ATOM     31  C   UNL A   1      36.343  29.422  28.253  1.00  0.00     0.010 A 
ATOM     32  C   UNL A   1      36.570  31.808  28.556  1.00  0.00     0.010 A 
ATOM     33  C   UNL A   1      37.070  30.503  28.754  1.00  0.00    -0.014 A 
BRANCH  33  34
ATOM     34  C   UNL A   1      38.312  30.263  29.540  1.00  0.00     0.031 A 
ATOM     35  C   UNL A   1      39.404  29.410  28.954  1.00  0.00     0.074 A 
ATOM     36  C   UNL A   1      38.475  30.822  30.757  1.00  0.00     0.049 A 
ATOM     37  N   UNL A   1      40.450  28.883  29.536  1.00  0.00    -0.248 NA
ATOM     38  C   UNL A   1      39.285  29.086  27.524  1.00  0.00     0.031 C 
ATOM     39  C   UNL A   1      37.533  31.741  31.404  1.00  0.00     0.029 A 
ATOM     40  N   UNL A   1      39.493  30.702  31.670  1.00  0.00    -0.354 N 
ATOM     41  C   UNL A   1      41.080  28.117  28.561  1.00  0.00     0.074 A 
ATOM     42  C   UNL A   1      40.284  28.232  27.357  1.00  0.00     0.031 C 
ATOM     43  C   UNL A   1      38.033  32.125  32.587  1.00  0.00     0.029 A 
ATOM     44  C   UNL A   1      39.264  31.391  32.840  1.00  0.00     0.049 A 
ATOM     45  H   UNL A   1      40.308  30.175  31.504  1.00  0.00     0.167 HD
ATOM     46  C   UNL A   1      42.217  27.384  28.669  1.00  0.00     0.034 A 
ATOM     47  C   UNL A   1      39.931  31.381  34.012  1.00  0.00     0.034 A 
ATOM     48  C   UNL A   1      43.008  27.321  29.875  1.00  0.00     0.049 A 
ATOM     49  C   UNL A   1      41.141  30.493  34.139  1.00  0.00     0.074 A 
ATOM     50  C   UNL A   1      44.178  26.620  30.104  1.00  0.00     0.029 A 
ATOM     51  N   UNL A   1      42.713  27.991  31.057  1.00  0.00    -0.354 N 
ATOM     52  N   UNL A   1      41.689  29.709  33.238  1.00  0.00    -0.248 NA
ATOM     53  C   UNL A   1      41.815  30.478  35.442  1.00  0.00     0.031 C 
ATOM     54  C   UNL A   1      44.545  26.802  31.442  1.00  0.00     0.029 A 
ATOM     55  C   UNL A   1      43.658  27.693  32.025  1.00  0.00     0.049 A 
ATOM     56  H   UNL A   1      41.942  28.592  31.188  1.00  0.00     0.167 HD
ATOM     57  C   UNL A   1      42.791  29.129  33.859  1.00  0.00     0.074 A 
ATOM     58  C   UNL A   1      42.837  29.669  35.204  1.00  0.00     0.031 C 
ATOM     59  C   UNL A   1      43.684  28.234  33.365  1.00  0.00     0.034 A 
BRANCH  46  60
ATOM     60  C   UNL A   1      42.622  26.540  27.481  1.00  0.00     0.023 A 
ATOM     61  C   UNL A   1      42.156  25.226  27.298  1.00  0.00     0.031 A 
ATOM     62  C   UNL A   1      43.529  27.050  26.535  1.00  0.00     0.131 A 
ATOM     63  C   UNL A   1      42.660  24.445  26.247  1.00  0.00     0.055 A 
ATOM     64  C   UNL A   1      43.956  26.298  25.440  1.00  0.00     0.041 A 
ATOM     65  F   UNL A   1      44.032  28.289  26.667  1.00  0.00    -0.206 F 
ATOM     66  C   UNL A   1      43.536  24.980  25.300  1.00  0.00     0.022 A 
BRANCH  63  67
ATOM     67  S   UNL A   1      42.286  22.669  26.231  1.00  0.00     0.124 S 
ATOM     68  O   UNL A   1      43.001  22.207  27.418  1.00  0.00    -0.237 OA
ATOM     69  O   UNL A   1      40.830  22.653  26.313  1.00  0.00    -0.237 OA
ATOM     70  O   UNL A   1      42.844  22.213  24.959  1.00  0.00    -0.744 OA
ENDBRANCH  63  67
ENDBRANCH  46  60
BRANCH  47  71
ATOM     71  C   UNL A   1      39.428  32.168  35.177  1.00  0.00     0.023 A 
ATOM     72  C   UNL A   1      39.848  33.488  35.396  1.00  0.00     0.031 A 
ATOM     73  C   UNL A   1      38.547  31.594  36.114  1.00  0.00     0.131 A 
ATOM     74  C   UNL A   1      39.422  34.177  36.542  1.00  0.00     0.055 A 
ATOM     75  C   UNL A   1      38.072  32.307  37.216  1.00  0.00     0.041 A 
ATOM     76  F   UNL A   1      38.117  30.332  35.962  1.00  0.00    -0.206 F 
ATOM     77  C   UNL A   1      38.521  33.603  37.442  1.00  0.00     0.022 A 
BRANCH  74  78
ATOM     78  S   UNL A   1      40.139  35.805  36.894  1.00  0.00     0.124 S 
ATOM     79  O   UNL A   1      39.575  36.099  38.206  1.00  0.00    -0.237 OA
ATOM     80  O   UNL A   1      41.569  35.521  36.858  1.00  0.00    -0.237 OA
ATOM     81  O   UNL A   1      39.643  36.638  35.801  1.00  0.00    -0.744 OA
ENDBRANCH  74  78
ENDBRANCH  47  71
BRANCH  59  82
ATOM     82  C   UNL A   1      44.821  27.833  34.273  1.00  0.00     0.023 A 
ATOM     83  C   UNL A   1      46.034  28.543  34.302  1.00  0.00     0.031 A 
ATOM     84  C   UNL A   1      44.690  26.711  35.110  1.00  0.00     0.131 A 
ATOM     85  C   UNL A   1      47.090  28.085  35.105  1.00  0.00     0.055 A 
ATOM     86  C   UNL A   1      45.719  26.303  35.960  1.00  0.00     0.041 A 
ATOM     87  F   UNL A   1      43.556  25.992  35.118  1.00  0.00    -0.206 F 
ATOM     88  C   UNL A   1      46.933  26.983  35.949  1.00  0.00     0.022 A 
BRANCH  85  89
ATOM     89  S   UNL A   1      48.710  28.886  34.949  1.00  0.00     0.124 S 
ATOM     90  O   UNL A   1      49.366  28.485  36.189  1.00  0.00    -0.237 OA
ATOM     91  O   UNL A   1      49.238  28.288  33.726  1.00  0.00    -0.237 OA
ATOM     92  O   UNL A   1      48.383  30.307  34.852  1.00  0.00    -0.744 OA
ENDBRANCH  85  89
ENDBRANCH  59  82
ENDBRANCH  33  34
ENDBRANCH  26  28
ENDBRANCH  25  26
ENDBRANCH  24  25
ENDBRANCH   1  24
TORSDOF 19
ENDMDL
MODEL 3
REMARK VINA RESULT:     -11.2      1.659      2.070
REMARK SMILES CN(CC(C)(C)O)S(=O)(=O)c1cc(Cl)cc(C(=O)OCCOC(=O)c2ccc(-c3c4nc(c(-c5cc(S(=O)(=O)[O-])ccc5F)c5ccc([nH]5)c(-c5cc(S(=O)(=O)[O-])ccc5F)c5nc(c(-c6cc(S(=O)(=O)[O-])ccc6F)c6ccc3[nH]6)C=C5)C=C4)cc2)c1Cl
REMARK SMILES IDX 20 1 19 2 17 3 18 4 16 5 11 6 12 7 88 8 13 9 89 10 14 11
REMARK SMILES IDX 15 12 8 13 9 14 10 15 2 16 1 17 3 18 4 19 5 20 6 21 7 22
REMARK SMILES IDX 21 24 22 25 23 26 24 27 25 28 26 29 87 30 27 31 86 32 28 33
REMARK SMILES IDX 29 34 30 35 80 36 31 37 85 38 79 39 81 40 32 41 84 42 78 43
REMARK SMILES IDX 77 44 33 46 65 47 45 48 64 49 46 50 49 51 63 52 82 53 47 54
REMARK SMILES IDX 48 55 62 57 83 58 50 59 34 60 35 61 43 62 36 63 42 64 44 65
REMARK SMILES IDX 41 66 37 67 38 68 39 69 40 70 66 71 67 72 75 73 68 74 74 75
REMARK SMILES IDX 76 76 73 77 69 78 70 79 71 80 72 81 51 82 52 83 60 84 53 85
REMARK SMILES IDX 59 86 61 87 58 88 54 89 55 90 56 91 57 92
REMARK H PARENT 7 23 81 45 49 56
REMARK Flexibility Score: inf
ROOT
ATOM      1  C   UNL A   1      31.776  28.362  27.541  1.00  0.00     0.275 C 
ENDROOT
BRANCH   1   2
ATOM      2  O   UNL A   1      31.663  27.484  26.405  1.00  0.00    -0.458 OA
BRANCH   2   3
ATOM      3  C   UNL A   1      32.680  26.640  26.133  1.00  0.00     0.339 C 
ATOM      4  O   UNL A   1      33.866  26.900  26.194  1.00  0.00    -0.246 OA
BRANCH   3   5
ATOM      5  C   UNL A   1      32.181  25.274  25.799  1.00  0.00     0.081 A 
ATOM      6  C   UNL A   1      32.385  23.136  24.684  1.00  0.00     0.103 A 
ATOM      7  C   UNL A   1      31.356  22.625  25.496  1.00  0.00     0.044 A 
ATOM      8  C   UNL A   1      32.700  24.501  24.744  1.00  0.00     0.075 A 
ATOM      9  C   UNL A   1      30.746  23.438  26.443  1.00  0.00     0.043 A 
ATOM     10  Cl  UNL A   1      33.625  25.279  23.517  1.00  0.00    -0.082 Cl
ATOM     11  Cl  UNL A   1      29.421  22.847  27.360  1.00  0.00    -0.084 Cl
ATOM     12  C   UNL A   1      31.214  24.725  26.657  1.00  0.00     0.037 A 
BRANCH   6  13
ATOM     13  S   UNL A   1      33.195  21.988  23.582  1.00  0.00     0.244 S 
ATOM     14  O   UNL A   1      34.166  22.712  22.795  1.00  0.00    -0.207 OA
ATOM     15  O   UNL A   1      32.139  21.268  22.899  1.00  0.00    -0.207 OA
BRANCH  13  16
ATOM     16  N   UNL A   1      33.984  20.824  24.552  1.00  0.00    -0.198 NA
ATOM     17  C   UNL A   1      35.099  21.348  25.373  1.00  0.00     0.124 C 
BRANCH  16  18
ATOM     18  C   UNL A   1      33.284  19.683  25.204  1.00  0.00     0.136 C 
BRANCH  18  19
ATOM     19  C   UNL A   1      33.356  18.269  24.545  1.00  0.00     0.073 C 
ATOM     20  C   UNL A   1      34.736  17.671  24.262  1.00  0.00     0.043 C 
ATOM     21  C   UNL A   1      32.539  17.298  25.420  1.00  0.00     0.043 C 
BRANCH  19  22
ATOM     22  O   UNL A   1      32.680  18.328  23.271  1.00  0.00    -0.389 OA
ATOM     23  H   UNL A   1      33.107  17.716  22.650  1.00  0.00     0.211 HD
ENDBRANCH  19  22
ENDBRANCH  18  19
ENDBRANCH  16  18
ENDBRANCH  13  16
ENDBRANCH   6  13
ENDBRANCH   3   5
ENDBRANCH   2   3
ENDBRANCH   1   2
BRANCH   1  24
ATOM     24  C   UNL A   1      31.785  29.813  27.060  1.00  0.00     0.275 C 
BRANCH  24  25
ATOM     25  O   UNL A   1      33.120  30.169  26.661  1.00  0.00    -0.458 OA
BRANCH  25  26
ATOM     26  C   UNL A   1      33.603  31.279  27.264  1.00  0.00     0.338 C 
ATOM     27  O   UNL A   1      32.986  32.280  27.591  1.00  0.00    -0.246 OA
BRANCH  26  28
ATOM     28  C   UNL A   1      34.981  31.025  27.690  1.00  0.00     0.060 A 
ATOM     29  C   UNL A   1      35.318  29.706  27.968  1.00  0.00     0.016 A 
ATOM     30  C   UNL A   1      35.874  32.053  27.959  1.00  0.00     0.016 A 
ATOM     31  C   UNL A   1      36.504  29.400  28.618  1.00  0.00     0.010 A 
ATOM     32  C   UNL A   1      37.117  31.734  28.519  1.00  0.00     0.010 A 
ATOM     33  C   UNL A   1      37.430  30.409  28.889  1.00  0.00    -0.014 A 
BRANCH  33  34
ATOM     34  C   UNL A   1      38.687  30.087  29.618  1.00  0.00     0.031 A 
ATOM     35  C   UNL A   1      39.675  29.133  29.002  1.00  0.00     0.074 A 
ATOM     36  C   UNL A   1      38.958  30.659  30.809  1.00  0.00     0.049 A 
ATOM     37  N   UNL A   1      40.704  28.537  29.546  1.00  0.00    -0.248 NA
ATOM     38  C   UNL A   1      39.456  28.786  27.589  1.00  0.00     0.031 C 
ATOM     39  C   UNL A   1      38.128  31.666  31.477  1.00  0.00     0.029 A 
ATOM     40  N   UNL A   1      40.009  30.478  31.674  1.00  0.00    -0.354 N 
ATOM     41  C   UNL A   1      41.219  27.698  28.562  1.00  0.00     0.074 A 
ATOM     42  C   UNL A   1      40.373  27.850  27.397  1.00  0.00     0.031 C 
ATOM     43  C   UNL A   1      38.718  32.036  32.623  1.00  0.00     0.029 A 
ATOM     44  C   UNL A   1      39.898  31.210  32.834  1.00  0.00     0.049 A 
ATOM     45  H   UNL A   1      40.769  29.882  31.482  1.00  0.00     0.167 HD
ATOM     46  C   UNL A   1      42.297  26.878  28.633  1.00  0.00     0.034 A 
ATOM     47  C   UNL A   1      40.622  31.174  33.971  1.00  0.00     0.034 A 
ATOM     48  C   UNL A   1      43.142  26.779  29.800  1.00  0.00     0.049 A 
ATOM     49  C   UNL A   1      41.762  30.193  34.061  1.00  0.00     0.074 A 
ATOM     50  C   UNL A   1      44.263  25.990  29.988  1.00  0.00     0.029 A 
ATOM     51  N   UNL A   1      42.964  27.499  30.975  1.00  0.00    -0.354 N 
ATOM     52  N   UNL A   1      42.197  29.346  33.156  1.00  0.00    -0.248 NA
ATOM     53  C   UNL A   1      42.500  30.154  35.329  1.00  0.00     0.031 C 
ATOM     54  C   UNL A   1      44.712  26.173  31.301  1.00  0.00     0.029 A 
ATOM     55  C   UNL A   1      43.932  27.147  31.903  1.00  0.00     0.049 A 
ATOM     56  H   UNL A   1      42.252  28.163  31.128  1.00  0.00     0.167 HD
ATOM     57  C   UNL A   1      43.280  28.692  33.738  1.00  0.00     0.074 A 
ATOM     58  C   UNL A   1      43.439  29.258  35.063  1.00  0.00     0.031 C 
ATOM     59  C   UNL A   1      44.071  27.716  33.224  1.00  0.00     0.034 A 
BRANCH  46  60
ATOM     60  C   UNL A   1      42.570  25.976  27.450  1.00  0.00     0.023 A 
ATOM     61  C   UNL A   1      42.046  24.674  27.361  1.00  0.00     0.031 A 
ATOM     62  C   UNL A   1      43.410  26.416  26.411  1.00  0.00     0.131 A 
ATOM     63  C   UNL A   1      42.433  23.836  26.303  1.00  0.00     0.055 A 
ATOM     64  C   UNL A   1      43.716  25.608  25.315  1.00  0.00     0.041 A 
ATOM     65  F   UNL A   1      43.964  27.640  26.450  1.00  0.00    -0.206 F 
ATOM     66  C   UNL A   1      43.241  24.303  25.264  1.00  0.00     0.022 A 
BRANCH  63  67
ATOM     67  S   UNL A   1      41.998  22.076  26.390  1.00  0.00     0.124 S 
ATOM     68  O   UNL A   1      40.553  22.119  26.178  1.00  0.00    -0.237 OA
ATOM     69  O   UNL A   1      42.787  21.503  25.307  1.00  0.00    -0.237 OA
ATOM     70  O   UNL A   1      42.411  21.688  27.737  1.00  0.00    -0.744 OA
ENDBRANCH  63  67
ENDBRANCH  46  60
BRANCH  47  71
ATOM     71  C   UNL A   1      40.246  32.026  35.137  1.00  0.00     0.023 A 
ATOM     72  C   UNL A   1      39.305  31.589  36.082  1.00  0.00     0.031 A 
ATOM     73  C   UNL A   1      40.795  33.312  35.304  1.00  0.00     0.131 A 
ATOM     74  C   UNL A   1      38.911  32.442  37.124  1.00  0.00     0.055 A 
ATOM     75  C   UNL A   1      40.450  34.130  36.381  1.00  0.00     0.041 A 
ATOM     76  F   UNL A   1      41.693  33.789  34.428  1.00  0.00    -0.206 F 
ATOM     77  C   UNL A   1      39.492  33.701  37.292  1.00  0.00     0.022 A 
BRANCH  74  78
ATOM     78  S   UNL A   1      37.553  31.920  38.207  1.00  0.00     0.124 S 
ATOM     79  O   UNL A   1      36.527  32.907  37.891  1.00  0.00    -0.237 OA
ATOM     80  O   UNL A   1      37.300  30.560  37.743  1.00  0.00    -0.237 OA
ATOM     81  O   UNL A   1      38.127  32.024  39.547  1.00  0.00    -0.744 OA
ENDBRANCH  74  78
ENDBRANCH  47  71
BRANCH  59  82
ATOM     82  C   UNL A   1      45.218  27.245  34.085  1.00  0.00     0.023 A 
ATOM     83  C   UNL A   1      45.097  26.137  34.941  1.00  0.00     0.031 A 
ATOM     84  C   UNL A   1      46.446  27.929  34.056  1.00  0.00     0.131 A 
ATOM     85  C   UNL A   1      46.166  25.785  35.780  1.00  0.00     0.055 A 
ATOM     86  C   UNL A   1      47.529  27.530  34.840  1.00  0.00     0.041 A 
ATOM     87  F   UNL A   1      46.615  28.998  33.261  1.00  0.00    -0.206 F 
ATOM     88  C   UNL A   1      47.387  26.461  35.719  1.00  0.00     0.022 A 
BRANCH  85  89
ATOM     89  S   UNL A   1      45.901  24.499  37.032  1.00  0.00     0.124 S 
ATOM     90  O   UNL A   1      45.287  25.256  38.117  1.00  0.00    -0.237 OA
ATOM     91  O   UNL A   1      45.028  23.560  36.335  1.00  0.00    -0.237 OA
ATOM     92  O   UNL A   1      47.249  24.005  37.305  1.00  0.00    -0.744 OA
ENDBRANCH  85  89
ENDBRANCH  59  82
ENDBRANCH  33  34
ENDBRANCH  26  28
ENDBRANCH  25  26
ENDBRANCH  24  25
ENDBRANCH   1  24
TORSDOF 19
ENDMDL
