MODEL 1
REMARK VINA RESULT:     -12.0      0.000      0.000
REMARK SMILES CC1CC[NH+](CC(=O)N[C@H](Cc2cccc(F)c2)C(=O)OCCOC(=O)c2ccc(-c3c4nc(c(-c5cc(S(=O)(=O)[O-])ccc5F)c5ccc([nH]5)c(-c5cc(S(=O)(=O)[O-])ccc5F)c5nc(c(-c6cc(S(=O)(=O)[O-])ccc6F)c6ccc3[nH]6)C=C5)C=C4)cc2)CC1
REMARK SMILES IDX 22 1 21 2 19 3 20 4 10 5 9 6 7 7 8 8 6 10 5 11 1 12 2 13
REMARK SMILES IDX 3 14 91 15 4 16 90 17 11 19 12 20 13 21 18 22 14 23 16 24
REMARK SMILES IDX 15 25 17 26 23 27 24 28 25 29 26 30 27 31 28 32 89 33 29 34
REMARK SMILES IDX 88 35 30 36 31 37 32 38 82 39 33 40 87 41 81 42 83 43 34 44
REMARK SMILES IDX 86 45 80 46 79 47 35 49 67 50 47 51 66 52 48 53 51 54 65 55
REMARK SMILES IDX 84 56 49 57 50 58 64 60 85 61 52 62 36 63 37 64 45 65 38 66
REMARK SMILES IDX 44 67 46 68 43 69 39 70 40 71 41 72 42 73 68 74 69 75 77 76
REMARK SMILES IDX 70 77 76 78 78 79 75 80 71 81 72 82 73 83 74 84 53 85 54 86
REMARK SMILES IDX 62 87 55 88 61 89 63 90 60 91 56 92 57 93 58 94 59 95
REMARK H PARENT 9 9 5 18 83 48 51 59
REMARK Flexibility Score: inf
ROOT
ATOM      1  C   UNL A   1      34.553  21.249  24.971  1.00  0.00     0.274 C 
ENDROOT
BRANCH   1   2
ATOM      2  O   UNL A   1      34.466  22.688  24.935  1.00  0.00    -0.461 OA
BRANCH   2   3
ATOM      3  C   UNL A   1      33.488  23.205  24.148  1.00  0.00     0.329 C 
ATOM      4  O   UNL A   1      32.802  22.529  23.385  1.00  0.00    -0.250 OA
BRANCH   3   5
ATOM      5  C   UNL A   1      33.349  24.739  24.232  1.00  0.00     0.196 C 
BRANCH   5   6
ATOM      6  N   UNL A   1      33.651  25.253  22.879  1.00  0.00    -0.338 N 
ATOM      7  C   UNL A   1      32.826  25.656  21.865  1.00  0.00     0.275 C 
ATOM      8  O   UNL A   1      33.330  25.729  20.740  1.00  0.00    -0.268 OA
ATOM      9  H   UNL A   1      34.612  25.314  22.671  1.00  0.00     0.164 HD
BRANCH   7  10
ATOM     10  C   UNL A   1      31.396  26.120  22.135  1.00  0.00     0.363 C 
BRANCH  10  11
ATOM     11  N   UNL A   1      31.158  27.098  23.198  1.00  0.00    -0.327 N 
ATOM     12  C   UNL A   1      27.936  29.785  22.218  1.00  0.00     0.008 C 
ATOM     13  C   UNL A   1      29.066  29.154  23.030  1.00  0.00    -0.003 C 
ATOM     14  C   UNL A   1      30.407  29.315  22.303  1.00  0.00     0.065 C 
ATOM     15  C   UNL A   1      28.753  27.683  23.302  1.00  0.00     0.065 C 
ATOM     16  C   UNL A   1      31.521  28.481  22.929  1.00  0.00     0.262 C 
ATOM     17  C   UNL A   1      29.928  26.971  23.961  1.00  0.00     0.262 C 
ATOM     18  H   UNL A   1      31.879  26.770  23.841  1.00  0.00     0.348 HD
ENDBRANCH  10  11
ENDBRANCH   7  10
ENDBRANCH   5   6
BRANCH   5  19
ATOM     19  C   UNL A   1      34.140  25.413  25.375  1.00  0.00     0.072 C 
BRANCH  19  20
ATOM     20  C   UNL A   1      33.504  26.723  25.801  1.00  0.00    -0.042 A 
ATOM     21  C   UNL A   1      34.148  27.941  25.516  1.00  0.00     0.004 A 
ATOM     22  C   UNL A   1      32.338  26.743  26.576  1.00  0.00     0.043 A 
ATOM     23  C   UNL A   1      33.691  29.139  26.071  1.00  0.00     0.003 A 
ATOM     24  C   UNL A   1      31.894  27.945  27.128  1.00  0.00     0.123 A 
ATOM     25  C   UNL A   1      32.570  29.137  26.898  1.00  0.00     0.039 A 
ATOM     26  F   UNL A   1      30.826  27.938  27.937  1.00  0.00    -0.207 F 
ENDBRANCH  19  20
ENDBRANCH   5  19
ENDBRANCH   3   5
ENDBRANCH   2   3
ENDBRANCH   1   2
BRANCH   1  27
ATOM     27  C   UNL A   1      36.007  20.766  24.983  1.00  0.00     0.275 C 
BRANCH  27  28
ATOM     28  O   UNL A   1      36.946  21.840  25.182  1.00  0.00    -0.458 OA
BRANCH  28  29
ATOM     29  C   UNL A   1      38.165  21.458  25.622  1.00  0.00     0.338 C 
ATOM     30  O   UNL A   1      38.705  20.374  25.447  1.00  0.00    -0.246 OA
BRANCH  29  31
ATOM     31  C   UNL A   1      38.848  22.580  26.276  1.00  0.00     0.060 A 
ATOM     32  C   UNL A   1      38.367  23.867  26.039  1.00  0.00     0.016 A 
ATOM     33  C   UNL A   1      40.028  22.383  26.993  1.00  0.00     0.016 A 
ATOM     34  C   UNL A   1      39.086  24.971  26.493  1.00  0.00     0.010 A 
ATOM     35  C   UNL A   1      40.732  23.495  27.474  1.00  0.00     0.010 A 
ATOM     36  C   UNL A   1      40.277  24.799  27.211  1.00  0.00    -0.014 A 
BRANCH  36  37
ATOM     37  C   UNL A   1      41.073  25.986  27.625  1.00  0.00     0.031 A 
ATOM     38  C   UNL A   1      40.454  27.034  28.509  1.00  0.00     0.074 A 
ATOM     39  C   UNL A   1      42.361  26.110  27.251  1.00  0.00     0.049 A 
ATOM     40  N   UNL A   1      40.929  28.198  28.871  1.00  0.00    -0.248 NA
ATOM     41  C   UNL A   1      39.124  26.729  29.054  1.00  0.00     0.031 C 
ATOM     42  C   UNL A   1      43.112  25.131  26.464  1.00  0.00     0.029 A 
ATOM     43  N   UNL A   1      43.271  27.108  27.498  1.00  0.00    -0.354 N 
ATOM     44  C   UNL A   1      39.946  28.779  29.665  1.00  0.00     0.074 A 
ATOM     45  C   UNL A   1      38.843  27.842  29.717  1.00  0.00     0.031 C 
ATOM     46  C   UNL A   1      44.373  25.565  26.313  1.00  0.00     0.029 A 
ATOM     47  C   UNL A   1      44.504  26.882  26.934  1.00  0.00     0.049 A 
ATOM     48  H   UNL A   1      43.060  27.909  28.028  1.00  0.00     0.167 HD
ATOM     49  C   UNL A   1      39.963  29.983  30.290  1.00  0.00     0.034 A 
ATOM     50  C   UNL A   1      45.604  27.658  26.888  1.00  0.00     0.034 A 
ATOM     51  C   UNL A   1      41.073  30.902  30.251  1.00  0.00     0.049 A 
ATOM     52  C   UNL A   1      45.573  29.027  27.511  1.00  0.00     0.074 A 
ATOM     53  C   UNL A   1      41.180  32.150  30.841  1.00  0.00     0.029 A 
ATOM     54  N   UNL A   1      42.272  30.673  29.590  1.00  0.00    -0.354 N 
ATOM     55  N   UNL A   1      44.596  29.611  28.164  1.00  0.00    -0.248 NA
ATOM     56  C   UNL A   1      46.781  29.851  27.367  1.00  0.00     0.031 C 
ATOM     57  C   UNL A   1      42.422  32.696  30.496  1.00  0.00     0.029 A 
ATOM     58  C   UNL A   1      43.113  31.764  29.739  1.00  0.00     0.049 A 
ATOM     59  H   UNL A   1      42.492  29.856  29.088  1.00  0.00     0.167 HD
ATOM     60  C   UNL A   1      45.074  30.870  28.513  1.00  0.00     0.074 A 
ATOM     61  C   UNL A   1      46.428  30.960  28.004  1.00  0.00     0.031 C 
ATOM     62  C   UNL A   1      44.449  31.858  29.199  1.00  0.00     0.034 A 
BRANCH  49  63
ATOM     63  C   UNL A   1      38.712  30.396  31.020  1.00  0.00     0.023 A 
ATOM     64  C   UNL A   1      37.656  31.054  30.368  1.00  0.00     0.031 A 
ATOM     65  C   UNL A   1      38.586  30.144  32.398  1.00  0.00     0.131 A 
ATOM     66  C   UNL A   1      36.546  31.491  31.107  1.00  0.00     0.055 A 
ATOM     67  C   UNL A   1      37.449  30.520  33.114  1.00  0.00     0.041 A 
ATOM     68  F   UNL A   1      39.574  29.536  33.073  1.00  0.00    -0.206 F 
ATOM     69  C   UNL A   1      36.425  31.209  32.471  1.00  0.00     0.022 A 
BRANCH  66  70
ATOM     70  S   UNL A   1      35.313  32.537  30.286  1.00  0.00     0.124 S 
ATOM     71  O   UNL A   1      34.338  32.735  31.355  1.00  0.00    -0.237 OA
ATOM     72  O   UNL A   1      36.094  33.710  29.908  1.00  0.00    -0.237 OA
ATOM     73  O   UNL A   1      34.849  31.711  29.173  1.00  0.00    -0.744 OA
ENDBRANCH  66  70
ENDBRANCH  49  63
BRANCH  50  74
ATOM     74  C   UNL A   1      46.811  27.179  26.163  1.00  0.00     0.023 A 
ATOM     75  C   UNL A   1      47.058  27.562  24.837  1.00  0.00     0.031 A 
ATOM     76  C   UNL A   1      47.742  26.341  26.802  1.00  0.00     0.131 A 
ATOM     77  C   UNL A   1      48.213  27.099  24.186  1.00  0.00     0.055 A 
ATOM     78  C   UNL A   1      48.903  25.909  26.161  1.00  0.00     0.041 A 
ATOM     79  F   UNL A   1      47.545  25.955  28.073  1.00  0.00    -0.206 F 
ATOM     80  C   UNL A   1      49.142  26.288  24.844  1.00  0.00     0.022 A 
BRANCH  77  81
ATOM     81  S   UNL A   1      48.494  27.576  22.458  1.00  0.00     0.124 S 
ATOM     82  O   UNL A   1      49.742  28.325  22.558  1.00  0.00    -0.237 OA
ATOM     83  O   UNL A   1      48.572  26.282  21.789  1.00  0.00    -0.237 OA
ATOM     84  O   UNL A   1      47.312  28.370  22.130  1.00  0.00    -0.744 OA
ENDBRANCH  77  81
ENDBRANCH  50  74
BRANCH  62  85
ATOM     85  C   UNL A   1      45.227  33.120  29.457  1.00  0.00     0.023 A 
ATOM     86  C   UNL A   1      45.144  34.224  28.592  1.00  0.00     0.031 A 
ATOM     87  C   UNL A   1      46.035  33.228  30.602  1.00  0.00     0.131 A 
ATOM     88  C   UNL A   1      45.879  35.385  28.874  1.00  0.00     0.055 A 
ATOM     89  C   UNL A   1      46.735  34.398  30.897  1.00  0.00     0.041 A 
ATOM     90  F   UNL A   1      46.143  32.201  31.459  1.00  0.00    -0.206 F 
ATOM     91  C   UNL A   1      46.662  35.484  30.028  1.00  0.00     0.022 A 
BRANCH  88  92
ATOM     92  S   UNL A   1      45.819  36.768  27.701  1.00  0.00     0.124 S 
ATOM     93  O   UNL A   1      45.078  36.187  26.587  1.00  0.00    -0.237 OA
ATOM     94  O   UNL A   1      45.123  37.800  28.462  1.00  0.00    -0.237 OA
ATOM     95  O   UNL A   1      47.229  37.049  27.430  1.00  0.00    -0.744 OA
ENDBRANCH  88  92
ENDBRANCH  62  85
ENDBRANCH  36  37
ENDBRANCH  29  31
ENDBRANCH  28  29
ENDBRANCH  27  28
ENDBRANCH   1  27
TORSDOF 19
ENDMDL
MODEL 2
REMARK VINA RESULT:     -11.8      4.947      9.948
REMARK SMILES CC1CC[NH+](CC(=O)N[C@H](Cc2cccc(F)c2)C(=O)OCCOC(=O)c2ccc(-c3c4nc(c(-c5cc(S(=O)(=O)[O-])ccc5F)c5ccc([nH]5)c(-c5cc(S(=O)(=O)[O-])ccc5F)c5nc(c(-c6cc(S(=O)(=O)[O-])ccc6F)c6ccc3[nH]6)C=C5)C=C4)cc2)CC1
REMARK SMILES IDX 22 1 21 2 19 3 20 4 10 5 9 6 7 7 8 8 6 10 5 11 1 12 2 13
REMARK SMILES IDX 3 14 91 15 4 16 90 17 11 19 12 20 13 21 18 22 14 23 16 24
REMARK SMILES IDX 15 25 17 26 23 27 24 28 25 29 26 30 27 31 28 32 89 33 29 34
REMARK SMILES IDX 88 35 30 36 31 37 32 38 82 39 33 40 87 41 81 42 83 43 34 44
REMARK SMILES IDX 86 45 80 46 79 47 35 49 67 50 47 51 66 52 48 53 51 54 65 55
REMARK SMILES IDX 84 56 49 57 50 58 64 60 85 61 52 62 36 63 37 64 45 65 38 66
REMARK SMILES IDX 44 67 46 68 43 69 39 70 40 71 41 72 42 73 68 74 69 75 77 76
REMARK SMILES IDX 70 77 76 78 78 79 75 80 71 81 72 82 73 83 74 84 53 85 54 86
REMARK SMILES IDX 62 87 55 88 61 89 63 90 60 91 56 92 57 93 58 94 59 95
REMARK H PARENT 9 9 5 18 83 48 51 59
REMARK Flexibility Score: inf
ROOT
ATOM      1  C   UNL A   1      32.357  28.261  25.352  1.00  0.00     0.274 C 
ENDROOT
BRANCH   1   2
ATOM      2  O   UNL A   1      33.616  28.452  24.672  1.00  0.00    -0.461 OA
BRANCH   2   3
ATOM      3  C   UNL A   1      33.559  28.480  23.315  1.00  0.00     0.329 C 
ATOM      4  O   UNL A   1      34.499  28.825  22.604  1.00  0.00    -0.250 OA
BRANCH   3   5
ATOM      5  C   UNL A   1      32.181  28.110  22.730  1.00  0.00     0.196 C 
BRANCH   5   6
ATOM      6  N   UNL A   1      32.436  27.079  21.702  1.00  0.00    -0.338 N 
ATOM      7  C   UNL A   1      32.830  25.774  21.816  1.00  0.00     0.275 C 
ATOM      8  O   UNL A   1      33.278  25.242  20.795  1.00  0.00    -0.268 OA
ATOM      9  H   UNL A   1      32.300  27.384  20.775  1.00  0.00     0.164 HD
BRANCH   7  10
ATOM     10  C   UNL A   1      32.601  24.980  23.100  1.00  0.00     0.363 C 
BRANCH  10  11
ATOM     11  N   UNL A   1      33.717  24.801  24.031  1.00  0.00    -0.327 N 
ATOM     12  C   UNL A   1      33.801  20.828  25.694  1.00  0.00     0.008 C 
ATOM     13  C   UNL A   1      34.229  22.271  25.435  1.00  0.00    -0.003 C 
ATOM     14  C   UNL A   1      33.148  23.248  25.914  1.00  0.00     0.065 C 
ATOM     15  C   UNL A   1      34.535  22.464  23.949  1.00  0.00     0.065 C 
ATOM     16  C   UNL A   1      33.396  24.679  25.445  1.00  0.00     0.262 C 
ATOM     17  C   UNL A   1      34.801  23.927  23.617  1.00  0.00     0.262 C 
ATOM     18  H   UNL A   1      34.111  25.738  23.944  1.00  0.00     0.348 HD
ENDBRANCH  10  11
ENDBRANCH   7  10
ENDBRANCH   5   6
BRANCH   5  19
ATOM     19  C   UNL A   1      31.323  29.304  22.254  1.00  0.00     0.072 C 
BRANCH  19  20
ATOM     20  C   UNL A   1      29.843  29.056  22.482  1.00  0.00    -0.042 A 
ATOM     21  C   UNL A   1      28.906  30.055  22.160  1.00  0.00     0.004 A 
ATOM     22  C   UNL A   1      29.393  27.891  23.117  1.00  0.00     0.043 A 
ATOM     23  C   UNL A   1      27.569  29.934  22.546  1.00  0.00     0.003 A 
ATOM     24  C   UNL A   1      28.057  27.785  23.502  1.00  0.00     0.123 A 
ATOM     25  C   UNL A   1      27.148  28.802  23.239  1.00  0.00     0.039 A 
ATOM     26  F   UNL A   1      27.658  26.702  24.183  1.00  0.00    -0.207 F 
ENDBRANCH  19  20
ENDBRANCH   5  19
ENDBRANCH   3   5
ENDBRANCH   2   3
ENDBRANCH   1   2
BRANCH   1  27
ATOM     27  C   UNL A   1      31.747  29.591  25.805  1.00  0.00     0.275 C 
BRANCH  27  28
ATOM     28  O   UNL A   1      32.194  29.989  27.115  1.00  0.00    -0.458 OA
BRANCH  28  29
ATOM     29  C   UNL A   1      32.894  31.143  27.154  1.00  0.00     0.338 C 
ATOM     30  O   UNL A   1      32.486  32.263  26.873  1.00  0.00    -0.246 OA
BRANCH  29  31
ATOM     31  C   UNL A   1      34.237  30.911  27.699  1.00  0.00     0.060 A 
ATOM     32  C   UNL A   1      34.635  29.593  27.918  1.00  0.00     0.016 A 
ATOM     33  C   UNL A   1      35.035  31.975  28.121  1.00  0.00     0.016 A 
ATOM     34  C   UNL A   1      35.825  29.331  28.594  1.00  0.00     0.010 A 
ATOM     35  C   UNL A   1      36.245  31.706  28.773  1.00  0.00     0.010 A 
ATOM     36  C   UNL A   1      36.641  30.382  29.033  1.00  0.00    -0.014 A 
BRANCH  36  37
ATOM     37  C   UNL A   1      37.870  30.090  29.819  1.00  0.00     0.031 A 
ATOM     38  C   UNL A   1      38.960  29.244  29.221  1.00  0.00     0.074 A 
ATOM     39  C   UNL A   1      38.036  30.614  31.048  1.00  0.00     0.049 A 
ATOM     40  N   UNL A   1      40.042  28.767  29.782  1.00  0.00    -0.248 NA
ATOM     41  C   UNL A   1      38.809  28.888  27.803  1.00  0.00     0.031 C 
ATOM     42  C   UNL A   1      37.098  31.517  31.718  1.00  0.00     0.029 A 
ATOM     43  N   UNL A   1      39.063  30.473  31.948  1.00  0.00    -0.354 N 
ATOM     44  C   UNL A   1      40.689  28.031  28.797  1.00  0.00     0.074 A 
ATOM     45  C   UNL A   1      39.868  28.114  27.605  1.00  0.00     0.031 C 
ATOM     46  C   UNL A   1      37.605  31.867  32.911  1.00  0.00     0.029 A 
ATOM     47  C   UNL A   1      38.869  31.165  33.120  1.00  0.00     0.049 A 
ATOM     48  H   UNL A   1      39.864  29.929  31.771  1.00  0.00     0.167 HD
ATOM     49  C   UNL A   1      41.858  27.348  28.878  1.00  0.00     0.034 A 
ATOM     50  C   UNL A   1      39.602  31.202  34.250  1.00  0.00     0.034 A 
ATOM     51  C   UNL A   1      42.681  27.286  30.060  1.00  0.00     0.049 A 
ATOM     52  C   UNL A   1      40.850  30.367  34.352  1.00  0.00     0.074 A 
ATOM     53  C   UNL A   1      43.876  26.610  30.245  1.00  0.00     0.029 A 
ATOM     54  N   UNL A   1      42.400  27.928  31.258  1.00  0.00    -0.354 N 
ATOM     55  N   UNL A   1      41.393  29.585  33.450  1.00  0.00    -0.248 NA
ATOM     56  C   UNL A   1      41.567  30.399  35.635  1.00  0.00     0.031 C 
ATOM     57  C   UNL A   1      44.290  26.803  31.568  1.00  0.00     0.029 A 
ATOM     58  C   UNL A   1      43.385  27.645  32.192  1.00  0.00     0.049 A 
ATOM     59  H   UNL A   1      41.615  28.499  31.422  1.00  0.00     0.167 HD
ATOM     60  C   UNL A   1      42.518  29.035  34.053  1.00  0.00     0.074 A 
ATOM     61  C   UNL A   1      42.581  29.578  35.395  1.00  0.00     0.031 C 
ATOM     62  C   UNL A   1      43.421  28.165  33.538  1.00  0.00     0.034 A 
BRANCH  49  63
ATOM     63  C   UNL A   1      42.281  26.562  27.665  1.00  0.00     0.023 A 
ATOM     64  C   UNL A   1      41.933  25.212  27.497  1.00  0.00     0.031 A 
ATOM     65  C   UNL A   1      43.067  27.172  26.670  1.00  0.00     0.131 A 
ATOM     66  C   UNL A   1      42.418  24.499  26.390  1.00  0.00     0.055 A 
ATOM     67  C   UNL A   1      43.489  26.477  25.537  1.00  0.00     0.041 A 
ATOM     68  F   UNL A   1      43.445  28.455  26.791  1.00  0.00    -0.206 F 
ATOM     69  C   UNL A   1      43.175  25.128  25.397  1.00  0.00     0.022 A 
BRANCH  66  70
ATOM     70  S   UNL A   1      42.144  22.708  26.322  1.00  0.00     0.124 S 
ATOM     71  O   UNL A   1      40.695  22.626  26.488  1.00  0.00    -0.237 OA
ATOM     72  O   UNL A   1      42.656  22.360  25.001  1.00  0.00    -0.237 OA
ATOM     73  O   UNL A   1      42.924  22.198  27.448  1.00  0.00    -0.744 OA
ENDBRANCH  66  70
ENDBRANCH  49  63
BRANCH  50  74
ATOM     74  C   UNL A   1      39.132  32.013  35.404  1.00  0.00     0.023 A 
ATOM     75  C   UNL A   1      38.412  31.428  36.455  1.00  0.00     0.031 A 
ATOM     76  C   UNL A   1      39.417  33.389  35.472  1.00  0.00     0.131 A 
ATOM     77  C   UNL A   1      37.992  32.222  37.534  1.00  0.00     0.055 A 
ATOM     78  C   UNL A   1      39.025  34.167  36.561  1.00  0.00     0.041 A 
ATOM     79  F   UNL A   1      40.108  33.987  34.489  1.00  0.00    -0.206 F 
ATOM     80  C   UNL A   1      38.306  33.583  37.600  1.00  0.00     0.022 A 
BRANCH  77  81
ATOM     81  S   UNL A   1      37.028  31.453  38.865  1.00  0.00     0.124 S 
ATOM     82  O   UNL A   1      37.920  31.618  40.008  1.00  0.00    -0.237 OA
ATOM     83  O   UNL A   1      35.814  32.260  38.874  1.00  0.00    -0.237 OA
ATOM     84  O   UNL A   1      36.852  30.077  38.402  1.00  0.00    -0.744 OA
ENDBRANCH  77  81
ENDBRANCH  50  74
BRANCH  62  85
ATOM     85  C   UNL A   1      44.569  27.754  34.422  1.00  0.00     0.023 A 
ATOM     86  C   UNL A   1      44.519  26.580  35.191  1.00  0.00     0.031 A 
ATOM     87  C   UNL A   1      45.737  28.534  34.467  1.00  0.00     0.131 A 
ATOM     88  C   UNL A   1      45.614  26.229  35.995  1.00  0.00     0.055 A 
ATOM     89  C   UNL A   1      46.837  28.161  35.239  1.00  0.00     0.041 A 
ATOM     90  F   UNL A   1      45.831  29.663  33.747  1.00  0.00    -0.206 F 
ATOM     91  C   UNL A   1      46.778  27.004  36.012  1.00  0.00     0.022 A 
BRANCH  88  92
ATOM     92  S   UNL A   1      45.498  24.751  37.041  1.00  0.00     0.124 S 
ATOM     93  O   UNL A   1      44.071  24.451  36.981  1.00  0.00    -0.237 OA
ATOM     94  O   UNL A   1      46.376  23.808  36.357  1.00  0.00    -0.237 OA
ATOM     95  O   UNL A   1      45.982  25.212  38.341  1.00  0.00    -0.744 OA
ENDBRANCH  88  92
ENDBRANCH  62  85
ENDBRANCH  36  37
ENDBRANCH  29  31
ENDBRANCH  28  29
ENDBRANCH  27  28
ENDBRANCH   1  27
TORSDOF 19
ENDMDL
MODEL 3
REMARK VINA RESULT:     -11.8      5.118     10.190
REMARK SMILES CC1CC[NH+](CC(=O)N[C@H](Cc2cccc(F)c2)C(=O)OCCOC(=O)c2ccc(-c3c4nc(c(-c5cc(S(=O)(=O)[O-])ccc5F)c5ccc([nH]5)c(-c5cc(S(=O)(=O)[O-])ccc5F)c5nc(c(-c6cc(S(=O)(=O)[O-])ccc6F)c6ccc3[nH]6)C=C5)C=C4)cc2)CC1
REMARK SMILES IDX 22 1 21 2 19 3 20 4 10 5 9 6 7 7 8 8 6 10 5 11 1 12 2 13
REMARK SMILES IDX 3 14 91 15 4 16 90 17 11 19 12 20 13 21 18 22 14 23 16 24
REMARK SMILES IDX 15 25 17 26 23 27 24 28 25 29 26 30 27 31 28 32 89 33 29 34
REMARK SMILES IDX 88 35 30 36 31 37 32 38 82 39 33 40 87 41 81 42 83 43 34 44
REMARK SMILES IDX 86 45 80 46 79 47 35 49 67 50 47 51 66 52 48 53 51 54 65 55
REMARK SMILES IDX 84 56 49 57 50 58 64 60 85 61 52 62 36 63 37 64 45 65 38 66
REMARK SMILES IDX 44 67 46 68 43 69 39 70 40 71 41 72 42 73 68 74 69 75 77 76
REMARK SMILES IDX 70 77 76 78 78 79 75 80 71 81 72 82 73 83 74 84 53 85 54 86
REMARK SMILES IDX 62 87 55 88 61 89 63 90 60 91 56 92 57 93 58 94 59 95
REMARK H PARENT 9 9 5 18 83 48 51 59
REMARK Flexibility Score: inf
ROOT
ATOM      1  C   UNL A   1      31.680  28.508  24.899  1.00  0.00     0.274 C 
ENDROOT
BRANCH   1   2
ATOM      2  O   UNL A   1      31.724  27.233  25.573  1.00  0.00    -0.461 OA
BRANCH   2   3
ATOM      3  C   UNL A   1      31.706  26.136  24.771  1.00  0.00     0.329 C 
ATOM      4  O   UNL A   1      30.964  26.018  23.800  1.00  0.00    -0.250 OA
BRANCH   3   5
ATOM      5  C   UNL A   1      32.651  25.004  25.223  1.00  0.00     0.196 C 
BRANCH   5   6
ATOM      6  N   UNL A   1      32.017  24.390  26.409  1.00  0.00    -0.338 N 
ATOM      7  C   UNL A   1      31.235  23.274  26.534  1.00  0.00     0.275 C 
ATOM      8  O   UNL A   1      30.579  23.175  27.575  1.00  0.00    -0.268 OA
ATOM      9  H   UNL A   1      32.185  24.866  27.254  1.00  0.00     0.164 HD
BRANCH   7  10
ATOM     10  C   UNL A   1      31.278  22.149  25.502  1.00  0.00     0.363 C 
BRANCH  10  11
ATOM     11  N   UNL A   1      32.572  21.744  24.949  1.00  0.00    -0.327 N 
ATOM     12  C   UNL A   1      32.659  17.550  23.967  1.00  0.00     0.008 C 
ATOM     13  C   UNL A   1      33.153  18.988  24.110  1.00  0.00    -0.003 C 
ATOM     14  C   UNL A   1      33.191  19.401  25.587  1.00  0.00     0.065 C 
ATOM     15  C   UNL A   1      32.266  19.928  23.292  1.00  0.00     0.065 C 
ATOM     16  C   UNL A   1      33.419  20.898  25.776  1.00  0.00     0.262 C 
ATOM     17  C   UNL A   1      32.616  21.390  23.541  1.00  0.00     0.262 C 
ATOM     18  H   UNL A   1      33.021  22.659  24.985  1.00  0.00     0.348 HD
ENDBRANCH  10  11
ENDBRANCH   7  10
ENDBRANCH   5   6
BRANCH   5  19
ATOM     19  C   UNL A   1      34.128  25.413  25.414  1.00  0.00     0.072 C 
BRANCH  19  20
ATOM     20  C   UNL A   1      35.071  24.259  25.127  1.00  0.00    -0.042 A 
ATOM     21  C   UNL A   1      35.776  23.650  26.181  1.00  0.00     0.004 A 
ATOM     22  C   UNL A   1      35.344  23.857  23.813  1.00  0.00     0.043 A 
ATOM     23  C   UNL A   1      36.795  22.729  25.922  1.00  0.00     0.003 A 
ATOM     24  C   UNL A   1      36.367  22.942  23.568  1.00  0.00     0.123 A 
ATOM     25  C   UNL A   1      37.106  22.390  24.608  1.00  0.00     0.039 A 
ATOM     26  F   UNL A   1      36.675  22.630  22.302  1.00  0.00    -0.207 F 
ENDBRANCH  19  20
ENDBRANCH   5  19
ENDBRANCH   3   5
ENDBRANCH   2   3
ENDBRANCH   1   2
BRANCH   1  27
ATOM     27  C   UNL A   1      31.762  29.677  25.886  1.00  0.00     0.275 C 
BRANCH  27  28
ATOM     28  O   UNL A   1      33.042  30.335  25.862  1.00  0.00    -0.458 OA
BRANCH  28  29
ATOM     29  C   UNL A   1      33.261  31.196  26.879  1.00  0.00     0.338 C 
ATOM     30  O   UNL A   1      32.475  32.019  27.331  1.00  0.00    -0.246 OA
BRANCH  29  31
ATOM     31  C   UNL A   1      34.575  30.950  27.484  1.00  0.00     0.060 A 
ATOM     32  C   UNL A   1      34.919  29.635  27.791  1.00  0.00     0.016 A 
ATOM     33  C   UNL A   1      35.396  32.010  27.874  1.00  0.00     0.016 A 
ATOM     34  C   UNL A   1      36.076  29.372  28.523  1.00  0.00     0.010 A 
ATOM     35  C   UNL A   1      36.573  31.739  28.584  1.00  0.00     0.010 A 
ATOM     36  C   UNL A   1      36.913  30.419  28.931  1.00  0.00    -0.014 A 
BRANCH  36  37
ATOM     37  C   UNL A   1      38.103  30.132  29.776  1.00  0.00     0.031 A 
ATOM     38  C   UNL A   1      39.238  29.314  29.221  1.00  0.00     0.074 A 
ATOM     39  C   UNL A   1      38.197  30.637  31.021  1.00  0.00     0.049 A 
ATOM     40  N   UNL A   1      40.296  28.844  29.830  1.00  0.00    -0.248 NA
ATOM     41  C   UNL A   1      39.167  28.981  27.791  1.00  0.00     0.031 C 
ATOM     42  C   UNL A   1      37.210  31.512  31.656  1.00  0.00     0.029 A 
ATOM     43  N   UNL A   1      39.177  30.495  31.971  1.00  0.00    -0.354 N 
ATOM     44  C   UNL A   1      41.006  28.135  28.868  1.00  0.00     0.074 A 
ATOM     45  C   UNL A   1      40.247  28.228  27.636  1.00  0.00     0.031 C 
ATOM     46  C   UNL A   1      37.648  31.849  32.879  1.00  0.00     0.029 A 
ATOM     47  C   UNL A   1      38.911  31.162  33.143  1.00  0.00     0.049 A 
ATOM     48  H   UNL A   1      39.995  29.967  31.826  1.00  0.00     0.167 HD
ATOM     49  C   UNL A   1      42.180  27.469  28.999  1.00  0.00     0.034 A 
ATOM     50  C   UNL A   1      39.583  31.191  34.310  1.00  0.00     0.034 A 
ATOM     51  C   UNL A   1      42.940  27.399  30.221  1.00  0.00     0.049 A 
ATOM     52  C   UNL A   1      40.837  30.373  34.464  1.00  0.00     0.074 A 
ATOM     53  C   UNL A   1      44.135  26.739  30.457  1.00  0.00     0.029 A 
ATOM     54  N   UNL A   1      42.586  28.015  31.414  1.00  0.00    -0.354 N 
ATOM     55  N   UNL A   1      41.439  29.616  33.577  1.00  0.00    -0.248 NA
ATOM     56  C   UNL A   1      41.485  30.393  35.782  1.00  0.00     0.031 C 
ATOM     57  C   UNL A   1      44.476  26.913  31.804  1.00  0.00     0.029 A 
ATOM     58  C   UNL A   1      43.526  27.731  32.393  1.00  0.00     0.049 A 
ATOM     59  H   UNL A   1      41.785  28.570  31.546  1.00  0.00     0.167 HD
ATOM     60  C   UNL A   1      42.540  29.073  34.230  1.00  0.00     0.074 A 
ATOM     61  C   UNL A   1      42.524  29.592  35.583  1.00  0.00     0.031 C 
ATOM     62  C   UNL A   1      43.483  28.226  33.748  1.00  0.00     0.034 A 
BRANCH  49  63
ATOM     63  C   UNL A   1      42.679  26.712  27.796  1.00  0.00     0.023 A 
ATOM     64  C   UNL A   1      42.438  25.338  27.633  1.00  0.00     0.031 A 
ATOM     65  C   UNL A   1      43.428  27.376  26.808  1.00  0.00     0.131 A 
ATOM     66  C   UNL A   1      42.992  24.659  26.537  1.00  0.00     0.055 A 
ATOM     67  C   UNL A   1      43.917  26.709  25.684  1.00  0.00     0.041 A 
ATOM     68  F   UNL A   1      43.704  28.685  26.925  1.00  0.00    -0.206 F 
ATOM     69  C   UNL A   1      43.711  25.340  25.550  1.00  0.00     0.022 A 
BRANCH  66  70
ATOM     70  S   UNL A   1      42.859  22.852  26.477  1.00  0.00     0.124 S 
ATOM     71  O   UNL A   1      44.230  22.447  26.778  1.00  0.00    -0.237 OA
ATOM     72  O   UNL A   1      41.869  22.573  27.511  1.00  0.00    -0.237 OA
ATOM     73  O   UNL A   1      42.423  22.585  25.108  1.00  0.00    -0.744 OA
ENDBRANCH  66  70
ENDBRANCH  49  63
BRANCH  50  74
ATOM     74  C   UNL A   1      39.039  31.974  35.451  1.00  0.00     0.023 A 
ATOM     75  C   UNL A   1      38.351  31.345  36.498  1.00  0.00     0.031 A 
ATOM     76  C   UNL A   1      39.222  33.367  35.512  1.00  0.00     0.131 A 
ATOM     77  C   UNL A   1      37.860  32.114  37.565  1.00  0.00     0.055 A 
ATOM     78  C   UNL A   1      38.760  34.122  36.590  1.00  0.00     0.041 A 
ATOM     79  F   UNL A   1      39.880  34.007  34.533  1.00  0.00    -0.206 F 
ATOM     80  C   UNL A   1      38.072  33.495  37.624  1.00  0.00     0.022 A 
BRANCH  77  81
ATOM     81  S   UNL A   1      36.938  31.285  38.891  1.00  0.00     0.124 S 
ATOM     82  O   UNL A   1      37.860  31.412  40.014  1.00  0.00    -0.237 OA
ATOM     83  O   UNL A   1      35.719  32.083  38.965  1.00  0.00    -0.237 OA
ATOM     84  O   UNL A   1      36.758  29.928  38.378  1.00  0.00    -0.744 OA
ENDBRANCH  77  81
ENDBRANCH  50  74
BRANCH  62  85
ATOM     85  C   UNL A   1      44.589  27.817  34.684  1.00  0.00     0.023 A 
ATOM     86  C   UNL A   1      44.512  26.636  35.440  1.00  0.00     0.031 A 
ATOM     87  C   UNL A   1      45.747  28.606  34.793  1.00  0.00     0.131 A 
ATOM     88  C   UNL A   1      45.569  26.287  36.295  1.00  0.00     0.055 A 
ATOM     89  C   UNL A   1      46.811  28.235  35.615  1.00  0.00     0.041 A 
ATOM     90  F   UNL A   1      45.867  29.741  34.087  1.00  0.00    -0.206 F 
ATOM     91  C   UNL A   1      46.724  27.072  36.375  1.00  0.00     0.022 A 
BRANCH  88  92
ATOM     92  S   UNL A   1      45.414  24.800  37.321  1.00  0.00     0.124 S 
ATOM     93  O   UNL A   1      44.917  23.820  36.361  1.00  0.00    -0.237 OA
ATOM     94  O   UNL A   1      46.779  24.595  37.792  1.00  0.00    -0.237 OA
ATOM     95  O   UNL A   1      44.459  25.195  38.356  1.00  0.00    -0.744 OA
ENDBRANCH  88  92
ENDBRANCH  62  85
ENDBRANCH  36  37
ENDBRANCH  29  31
ENDBRANCH  28  29
ENDBRANCH  27  28
ENDBRANCH   1  27
TORSDOF 19
ENDMDL
