MODEL 1
REMARK VINA RESULT:     -12.8      0.000      0.000
REMARK SMILES C[C@H](NC(=O)CCN1C(=O)/C(=C/c2ccc([N+](=O)[O-])cc2)SC1=S)C(=O)OCCOC(=O)c1ccc(-c2c3nc(c(-c4cc(S(=O)(=O)[O-])ccc4F)c4ccc([nH]4)c(-c4cc(S(=O)(=O)[O-])ccc4F)c4nc(c(-c5cc(S(=O)(=O)[O-])ccc5F)c5ccc2[nH]5)C=C4)C=C3)cc1
REMARK SMILES IDX 27 1 25 2 26 3 2 4 1 5 3 6 4 7 5 9 6 10 7 11 8 12 9 13 23 14
REMARK SMILES IDX 10 15 11 16 22 17 24 18 12 19 13 20 14 21 21 22 15 23 20 24
REMARK SMILES IDX 16 25 17 26 18 27 19 28 28 29 29 30 30 31 31 32 32 33 33 34
REMARK SMILES IDX 34 35 95 36 35 37 94 38 36 39 37 40 38 41 88 42 39 43 93 44
REMARK SMILES IDX 87 45 89 46 40 47 92 48 86 49 85 50 41 52 73 53 53 54 72 55
REMARK SMILES IDX 54 56 57 57 71 58 90 59 55 60 56 61 70 63 91 64 58 65 42 66
REMARK SMILES IDX 43 67 51 68 44 69 50 70 52 71 49 72 45 73 46 74 47 75 48 76
REMARK SMILES IDX 74 77 75 78 83 79 76 80 82 81 84 82 81 83 77 84 78 85 79 86
REMARK SMILES IDX 80 87 59 88 60 89 68 90 61 91 67 92 69 93 66 94 62 95 63 96
REMARK SMILES IDX 64 97 65 98
REMARK H PARENT 3 8 89 51 57 62
REMARK Flexibility Score: inf
ROOT
ATOM      1  O   UNL A   1      31.850  29.795  26.937  1.00  0.00    -0.461 OA
ENDROOT
BRANCH   1   2
ATOM      2  C   UNL A   1      31.402  27.932  26.847  1.00  0.00     0.328 C 
ATOM      3  O   UNL A   1      31.803  27.083  27.671  1.00  0.00    -0.250 OA
BRANCH   2   4
ATOM      4  C   UNL A   1      30.458  27.160  25.568  1.00  0.00     0.189 C 
ATOM      5  C   UNL A   1      30.656  25.639  25.692  1.00  0.00     0.043 C 
BRANCH   4   6
ATOM      6  N   UNL A   1      30.266  27.443  24.124  1.00  0.00    -0.343 N 
ATOM      7  C   UNL A   1      31.135  27.878  23.173  1.00  0.00     0.222 C 
ATOM      8  H   UNL A   1      29.350  27.289  23.799  1.00  0.00     0.164 HD
ATOM      9  O   UNL A   1      30.793  27.945  21.995  1.00  0.00    -0.275 OA
BRANCH   7  10
ATOM     10  C   UNL A   1      32.476  28.367  23.620  1.00  0.00     0.122 C 
BRANCH  10  11
ATOM     11  C   UNL A   1      33.543  27.575  22.891  1.00  0.00     0.137 C 
BRANCH  11  12
ATOM     12  N   UNL A   1      33.388  26.144  23.070  1.00  0.00    -0.292 N 
ATOM     13  C   UNL A   1      33.859  25.310  24.647  1.00  0.00     0.266 C 
ATOM     14  C   UNL A   1      32.969  25.120  21.667  1.00  0.00     0.148 C 
ATOM     15  O   UNL A   1      34.288  25.906  25.618  1.00  0.00    -0.268 OA
ATOM     16  C   UNL A   1      33.635  23.310  24.394  1.00  0.00     0.081 C 
ATOM     17  S   UNL A   1      33.131  22.878  22.217  1.00  0.00    -0.054 SA
ATOM     18  S   UNL A   1      32.480  25.568  20.133  1.00  0.00    -0.052 S 
ATOM     19  C   UNL A   1      34.059  22.260  25.118  1.00  0.00     0.029 C 
BRANCH  19  20
ATOM     20  C   UNL A   1      34.041  20.788  25.049  1.00  0.00    -0.024 A 
ATOM     21  C   UNL A   1      32.796  20.224  25.386  1.00  0.00     0.015 A 
ATOM     22  C   UNL A   1      35.072  19.910  24.720  1.00  0.00     0.015 A 
ATOM     23  C   UNL A   1      32.525  18.864  25.299  1.00  0.00     0.086 A 
ATOM     24  C   UNL A   1      34.823  18.527  24.625  1.00  0.00     0.086 A 
ATOM     25  C   UNL A   1      33.543  18.016  24.892  1.00  0.00     0.269 A 
BRANCH  25  26
ATOM     26  N   UNL A   1      33.260  16.585  24.757  1.00  0.00     0.062 N 
ATOM     27  O   UNL A   1      32.308  16.123  25.399  1.00  0.00    -0.258 OA
ATOM     28  O   UNL A   1      34.015  15.918  24.034  1.00  0.00    -0.258 OA
ENDBRANCH  25  26
ENDBRANCH  19  20
ENDBRANCH  11  12
ENDBRANCH  10  11
ENDBRANCH   7  10
ENDBRANCH   4   6
ENDBRANCH   2   4
ENDBRANCH   1   2
BRANCH   1  29
ATOM     29  C   UNL A   1      31.646  31.480  26.609  1.00  0.00     0.274 C 
BRANCH  29  30
ATOM     30  C   UNL A   1      32.696  32.638  26.960  1.00  0.00     0.275 C 
BRANCH  30  31
ATOM     31  O   UNL A   1      32.168  33.787  27.692  1.00  0.00    -0.458 OA
BRANCH  31  32
ATOM     32  C   UNL A   1      33.029  34.584  28.420  1.00  0.00     0.338 C 
ATOM     33  O   UNL A   1      32.850  35.759  28.687  1.00  0.00    -0.246 OA
BRANCH  32  34
ATOM     34  C   UNL A   1      34.210  33.774  28.916  1.00  0.00     0.060 A 
ATOM     35  C   UNL A   1      35.535  34.122  28.579  1.00  0.00     0.016 A 
ATOM     36  C   UNL A   1      34.031  32.710  29.801  1.00  0.00     0.016 A 
ATOM     37  C   UNL A   1      36.651  33.495  29.175  1.00  0.00     0.010 A 
ATOM     38  C   UNL A   1      35.154  32.056  30.372  1.00  0.00     0.010 A 
ATOM     39  C   UNL A   1      36.484  32.449  30.087  1.00  0.00    -0.014 A 
BRANCH  39  40
ATOM     40  C   UNL A   1      37.670  31.668  30.601  1.00  0.00     0.031 A 
ATOM     41  C   UNL A   1      38.172  31.975  31.994  1.00  0.00     0.074 A 
ATOM     42  C   UNL A   1      38.295  30.684  29.910  1.00  0.00     0.049 A 
ATOM     43  N   UNL A   1      39.200  31.486  32.644  1.00  0.00    -0.248 NA
ATOM     44  C   UNL A   1      37.405  32.976  32.748  1.00  0.00     0.031 C 
ATOM     45  C   UNL A   1      37.930  30.202  28.579  1.00  0.00     0.029 A 
ATOM     46  N   UNL A   1      39.392  29.905  30.240  1.00  0.00    -0.354 N 
ATOM     47  C   UNL A   1      39.200  32.118  33.884  1.00  0.00     0.074 A 
ATOM     48  C   UNL A   1      38.111  33.073  33.863  1.00  0.00     0.031 C 
ATOM     49  C   UNL A   1      38.794  29.240  28.198  1.00  0.00     0.029 A 
ATOM     50  C   UNL A   1      39.788  29.026  29.250  1.00  0.00     0.049 A 
ATOM     51  H   UNL A   1      39.850  29.973  31.108  1.00  0.00     0.167 HD
ATOM     52  C   UNL A   1      40.001  31.915  34.961  1.00  0.00     0.034 A 
ATOM     53  C   UNL A   1      40.824  28.155  29.186  1.00  0.00     0.034 A 
ATOM     54  C   UNL A   1      41.093  30.976  35.010  1.00  0.00     0.049 A 
ATOM     55  C   UNL A   1      41.768  28.010  30.366  1.00  0.00     0.074 A 
ATOM     56  C   UNL A   1      41.962  30.722  36.059  1.00  0.00     0.029 A 
ATOM     57  N   UNL A   1      41.473  30.135  33.975  1.00  0.00    -0.354 N 
ATOM     58  N   UNL A   1      41.739  28.617  31.531  1.00  0.00    -0.248 NA
ATOM     59  C   UNL A   1      42.874  27.048  30.228  1.00  0.00     0.031 C 
ATOM     60  C   UNL A   1      42.902  29.775  35.639  1.00  0.00     0.029 A 
ATOM     61  C   UNL A   1      42.576  29.381  34.353  1.00  0.00     0.049 A 
ATOM     62  H   UNL A   1      41.028  30.082  33.099  1.00  0.00     0.167 HD
ATOM     63  C   UNL A   1      42.798  28.080  32.267  1.00  0.00     0.074 A 
ATOM     64  C   UNL A   1      43.427  27.084  31.429  1.00  0.00     0.031 C 
ATOM     65  C   UNL A   1      43.212  28.385  33.524  1.00  0.00     0.034 A 
BRANCH  52  66
ATOM     66  C   UNL A   1      39.727  32.763  36.178  1.00  0.00     0.023 A 
ATOM     67  C   UNL A   1      38.904  32.301  37.220  1.00  0.00     0.031 A 
ATOM     68  C   UNL A   1      40.252  34.062  36.277  1.00  0.00     0.131 A 
ATOM     69  C   UNL A   1      38.563  33.159  38.274  1.00  0.00     0.055 A 
ATOM     70  C   UNL A   1      39.980  34.882  37.374  1.00  0.00     0.041 A 
ATOM     71  F   UNL A   1      41.027  34.563  35.302  1.00  0.00    -0.206 F 
ATOM     72  C   UNL A   1      39.117  34.438  38.372  1.00  0.00     0.022 A 
BRANCH  69  73
ATOM     73  S   UNL A   1      37.271  32.633  39.431  1.00  0.00     0.124 S 
ATOM     74  O   UNL A   1      37.711  31.281  39.766  1.00  0.00    -0.237 OA
ATOM     75  O   UNL A   1      37.378  33.622  40.496  1.00  0.00    -0.237 OA
ATOM     76  O   UNL A   1      36.048  32.704  38.632  1.00  0.00    -0.744 OA
ENDBRANCH  69  73
ENDBRANCH  52  66
BRANCH  53  77
ATOM     77  C   UNL A   1      41.095  27.353  27.944  1.00  0.00     0.023 A 
ATOM     78  C   UNL A   1      40.811  25.976  27.878  1.00  0.00     0.031 A 
ATOM     79  C   UNL A   1      41.774  27.930  26.855  1.00  0.00     0.131 A 
ATOM     80  C   UNL A   1      41.262  25.213  26.786  1.00  0.00     0.055 A 
ATOM     81  C   UNL A   1      42.168  27.178  25.744  1.00  0.00     0.041 A 
ATOM     82  F   UNL A   1      42.081  29.237  26.862  1.00  0.00    -0.206 F 
ATOM     83  C   UNL A   1      41.929  25.808  25.713  1.00  0.00     0.022 A 
BRANCH  80  84
ATOM     84  S   UNL A   1      41.074  23.406  26.840  1.00  0.00     0.124 S 
ATOM     85  O   UNL A   1      39.648  23.248  26.576  1.00  0.00    -0.237 OA
ATOM     86  O   UNL A   1      41.975  22.977  25.776  1.00  0.00    -0.237 OA
ATOM     87  O   UNL A   1      41.501  23.058  28.194  1.00  0.00    -0.744 OA
ENDBRANCH  80  84
ENDBRANCH  53  77
BRANCH  65  88
ATOM     88  C   UNL A   1      44.371  27.595  34.093  1.00  0.00     0.023 A 
ATOM     89  C   UNL A   1      44.175  26.441  34.875  1.00  0.00     0.031 A 
ATOM     90  C   UNL A   1      45.695  28.014  33.867  1.00  0.00     0.131 A 
ATOM     91  C   UNL A   1      45.275  25.788  35.453  1.00  0.00     0.055 A 
ATOM     92  C   UNL A   1      46.790  27.323  34.393  1.00  0.00     0.041 A 
ATOM     93  F   UNL A   1      45.950  29.107  33.130  1.00  0.00    -0.206 F 
ATOM     94  C   UNL A   1      46.583  26.212  35.204  1.00  0.00     0.022 A 
BRANCH  91  95
ATOM     95  S   UNL A   1      44.971  24.436  36.626  1.00  0.00     0.124 S 
ATOM     96  O   UNL A   1      46.145  24.511  37.489  1.00  0.00    -0.237 OA
ATOM     97  O   UNL A   1      43.705  24.830  37.235  1.00  0.00    -0.237 OA
ATOM     98  O   UNL A   1      44.905  23.249  35.773  1.00  0.00    -0.744 OA
ENDBRANCH  91  95
ENDBRANCH  65  88
ENDBRANCH  39  40
ENDBRANCH  32  34
ENDBRANCH  31  32
ENDBRANCH  30  31
ENDBRANCH  29  30
ENDBRANCH   1  29
TORSDOF 20
ENDMDL
MODEL 2
REMARK VINA RESULT:     -12.3      2.473      7.812
REMARK SMILES C[C@H](NC(=O)CCN1C(=O)/C(=C/c2ccc([N+](=O)[O-])cc2)SC1=S)C(=O)OCCOC(=O)c1ccc(-c2c3nc(c(-c4cc(S(=O)(=O)[O-])ccc4F)c4ccc([nH]4)c(-c4cc(S(=O)(=O)[O-])ccc4F)c4nc(c(-c5cc(S(=O)(=O)[O-])ccc5F)c5ccc2[nH]5)C=C4)C=C3)cc1
REMARK SMILES IDX 27 1 25 2 26 3 2 4 1 5 3 6 4 7 5 9 6 10 7 11 8 12 9 13 23 14
REMARK SMILES IDX 10 15 11 16 22 17 24 18 12 19 13 20 14 21 21 22 15 23 20 24
REMARK SMILES IDX 16 25 17 26 18 27 19 28 28 29 29 30 30 31 31 32 32 33 33 34
REMARK SMILES IDX 34 35 95 36 35 37 94 38 36 39 37 40 38 41 88 42 39 43 93 44
REMARK SMILES IDX 87 45 89 46 40 47 92 48 86 49 85 50 41 52 73 53 53 54 72 55
REMARK SMILES IDX 54 56 57 57 71 58 90 59 55 60 56 61 70 63 91 64 58 65 42 66
REMARK SMILES IDX 43 67 51 68 44 69 50 70 52 71 49 72 45 73 46 74 47 75 48 76
REMARK SMILES IDX 74 77 75 78 83 79 76 80 82 81 84 82 81 83 77 84 78 85 79 86
REMARK SMILES IDX 80 87 59 88 60 89 68 90 61 91 67 92 69 93 66 94 62 95 63 96
REMARK SMILES IDX 64 97 65 98
REMARK H PARENT 3 8 89 51 57 62
REMARK Flexibility Score: inf
ROOT
ATOM      1  O   UNL A   1      32.053  30.040  26.545  1.00  0.00    -0.461 OA
ENDROOT
BRANCH   1   2
ATOM      2  C   UNL A   1      31.965  28.599  25.282  1.00  0.00     0.328 C 
ATOM      3  O   UNL A   1      32.219  27.410  25.568  1.00  0.00    -0.250 OA
BRANCH   2   4
ATOM      4  C   UNL A   1      31.611  28.760  23.557  1.00  0.00     0.189 C 
ATOM      5  C   UNL A   1      30.202  29.363  23.423  1.00  0.00     0.043 C 
BRANCH   4   6
ATOM      6  N   UNL A   1      31.802  27.871  22.385  1.00  0.00    -0.343 N 
ATOM      7  C   UNL A   1      31.271  26.655  22.087  1.00  0.00     0.222 C 
ATOM      8  H   UNL A   1      32.420  28.223  21.705  1.00  0.00     0.164 HD
ATOM      9  O   UNL A   1      31.480  26.130  20.996  1.00  0.00    -0.275 OA
BRANCH   7  10
ATOM     10  C   UNL A   1      30.518  25.936  23.162  1.00  0.00     0.122 C 
BRANCH  10  11
ATOM     11  C   UNL A   1      30.823  24.456  23.054  1.00  0.00     0.137 C 
BRANCH  11  12
ATOM     12  N   UNL A   1      32.061  24.097  23.720  1.00  0.00    -0.292 N 
ATOM     13  C   UNL A   1      33.618  23.806  22.775  1.00  0.00     0.266 C 
ATOM     14  C   UNL A   1      32.039  23.682  25.458  1.00  0.00     0.148 C 
ATOM     15  O   UNL A   1      33.702  23.927  21.567  1.00  0.00    -0.268 OA
ATOM     16  C   UNL A   1      35.037  23.170  24.078  1.00  0.00     0.081 C 
ATOM     17  S   UNL A   1      34.089  22.839  26.121  1.00  0.00    -0.054 SA
ATOM     18  S   UNL A   1      30.808  23.854  26.576  1.00  0.00    -0.052 S 
ATOM     19  C   UNL A   1      36.238  22.599  23.890  1.00  0.00     0.029 C 
BRANCH  19  20
ATOM     20  C   UNL A   1      37.335  22.034  24.696  1.00  0.00    -0.024 A 
ATOM     21  C   UNL A   1      37.507  20.648  24.522  1.00  0.00     0.015 A 
ATOM     22  C   UNL A   1      38.185  22.675  25.596  1.00  0.00     0.015 A 
ATOM     23  C   UNL A   1      38.537  19.926  25.110  1.00  0.00     0.086 A 
ATOM     24  C   UNL A   1      39.238  21.965  26.206  1.00  0.00     0.086 A 
ATOM     25  C   UNL A   1      39.422  20.599  25.938  1.00  0.00     0.269 A 
BRANCH  25  26
ATOM     26  N   UNL A   1      40.537  19.858  26.533  1.00  0.00     0.062 N 
ATOM     27  O   UNL A   1      40.834  20.110  27.709  1.00  0.00    -0.258 OA
ATOM     28  O   UNL A   1      41.135  19.048  25.811  1.00  0.00    -0.258 OA
ENDBRANCH  25  26
ENDBRANCH  19  20
ENDBRANCH  11  12
ENDBRANCH  10  11
ENDBRANCH   7  10
ENDBRANCH   4   6
ENDBRANCH   2   4
ENDBRANCH   1   2
BRANCH   1  29
ATOM     29  C   UNL A   1      32.133  31.694  27.043  1.00  0.00     0.274 C 
BRANCH  29  30
ATOM     30  C   UNL A   1      33.443  32.453  27.566  1.00  0.00     0.275 C 
BRANCH  30  31
ATOM     31  O   UNL A   1      33.352  33.907  27.658  1.00  0.00    -0.458 OA
BRANCH  31  32
ATOM     32  C   UNL A   1      33.357  34.512  28.900  1.00  0.00     0.338 C 
ATOM     33  O   UNL A   1      32.500  35.268  29.322  1.00  0.00    -0.246 OA
BRANCH  32  34
ATOM     34  C   UNL A   1      34.550  34.047  29.711  1.00  0.00     0.060 A 
ATOM     35  C   UNL A   1      34.402  33.157  30.794  1.00  0.00     0.016 A 
ATOM     36  C   UNL A   1      35.848  34.413  29.353  1.00  0.00     0.016 A 
ATOM     37  C   UNL A   1      35.512  32.572  31.443  1.00  0.00     0.010 A 
ATOM     38  C   UNL A   1      36.964  33.852  30.030  1.00  0.00     0.010 A 
ATOM     39  C   UNL A   1      36.817  32.906  31.073  1.00  0.00    -0.014 A 
BRANCH  39  40
ATOM     40  C   UNL A   1      38.002  32.411  31.868  1.00  0.00     0.031 A 
ATOM     41  C   UNL A   1      38.944  31.433  31.203  1.00  0.00     0.074 A 
ATOM     42  C   UNL A   1      38.298  32.812  33.128  1.00  0.00     0.049 A 
ATOM     43  N   UNL A   1      39.998  30.822  31.685  1.00  0.00    -0.248 NA
ATOM     44  C   UNL A   1      38.646  31.102  29.803  1.00  0.00     0.031 C 
ATOM     45  C   UNL A   1      37.549  33.787  33.919  1.00  0.00     0.029 A 
ATOM     46  N   UNL A   1      39.325  32.436  33.977  1.00  0.00    -0.354 N 
ATOM     47  C   UNL A   1      40.490  30.036  30.646  1.00  0.00     0.074 A 
ATOM     48  C   UNL A   1      39.575  30.200  29.535  1.00  0.00     0.031 C 
ATOM     49  C   UNL A   1      38.118  33.910  35.134  1.00  0.00     0.029 A 
ATOM     50  C   UNL A   1      39.278  33.023  35.227  1.00  0.00     0.049 A 
ATOM     51  H   UNL A   1      40.030  31.803  33.712  1.00  0.00     0.167 HD
ATOM     52  C   UNL A   1      41.610  29.271  30.592  1.00  0.00     0.034 A 
ATOM     53  C   UNL A   1      40.064  32.870  36.321  1.00  0.00     0.034 A 
ATOM     54  C   UNL A   1      42.536  29.087  31.681  1.00  0.00     0.049 A 
ATOM     55  C   UNL A   1      41.259  31.934  36.272  1.00  0.00     0.074 A 
ATOM     56  C   UNL A   1      43.686  28.314  31.710  1.00  0.00     0.029 A 
ATOM     57  N   UNL A   1      42.427  29.675  32.932  1.00  0.00    -0.354 N 
ATOM     58  N   UNL A   1      41.704  31.209  35.271  1.00  0.00    -0.248 NA
ATOM     59  C   UNL A   1      42.068  31.813  37.496  1.00  0.00     0.031 C 
ATOM     60  C   UNL A   1      44.237  28.386  32.994  1.00  0.00     0.029 A 
ATOM     61  C   UNL A   1      43.474  29.264  33.745  1.00  0.00     0.049 A 
ATOM     62  H   UNL A   1      41.710  30.291  33.205  1.00  0.00     0.167 HD
ATOM     63  C   UNL A   1      42.860  30.580  35.740  1.00  0.00     0.074 A 
ATOM     64  C   UNL A   1      43.058  31.031  37.099  1.00  0.00     0.031 C 
ATOM     65  C   UNL A   1      43.681  29.707  35.103  1.00  0.00     0.034 A 
BRANCH  52  66
ATOM     66  C   UNL A   1      41.873  28.548  29.294  1.00  0.00     0.023 A 
ATOM     67  C   UNL A   1      41.541  27.191  29.134  1.00  0.00     0.031 A 
ATOM     68  C   UNL A   1      42.503  29.206  28.224  1.00  0.00     0.131 A 
ATOM     69  C   UNL A   1      41.914  26.514  27.965  1.00  0.00     0.055 A 
ATOM     70  C   UNL A   1      42.794  28.547  27.028  1.00  0.00     0.041 A 
ATOM     71  F   UNL A   1      42.860  30.495  28.329  1.00  0.00    -0.206 F 
ATOM     72  C   UNL A   1      42.515  27.189  26.900  1.00  0.00     0.022 A 
BRANCH  69  73
ATOM     73  S   UNL A   1      41.740  24.710  27.921  1.00  0.00     0.124 S 
ATOM     74  O   UNL A   1      42.171  24.409  26.557  1.00  0.00    -0.237 OA
ATOM     75  O   UNL A   1      42.639  24.279  28.984  1.00  0.00    -0.237 OA
ATOM     76  O   UNL A   1      40.317  24.498  28.180  1.00  0.00    -0.744 OA
ENDBRANCH  69  73
ENDBRANCH  52  66
BRANCH  53  77
ATOM     77  C   UNL A   1      39.752  33.573  37.612  1.00  0.00     0.023 A 
ATOM     78  C   UNL A   1      38.908  32.999  38.581  1.00  0.00     0.031 A 
ATOM     79  C   UNL A   1      40.188  34.893  37.829  1.00  0.00     0.131 A 
ATOM     80  C   UNL A   1      38.472  33.762  39.679  1.00  0.00     0.055 A 
ATOM     81  C   UNL A   1      39.799  35.627  38.953  1.00  0.00     0.041 A 
ATOM     82  F   UNL A   1      40.988  35.498  36.937  1.00  0.00    -0.206 F 
ATOM     83  C   UNL A   1      38.921  35.069  39.878  1.00  0.00     0.022 A 
BRANCH  80  84
ATOM     84  S   UNL A   1      37.209  33.065  40.785  1.00  0.00     0.124 S 
ATOM     85  O   UNL A   1      37.862  31.848  41.252  1.00  0.00    -0.237 OA
ATOM     86  O   UNL A   1      37.053  34.129  41.772  1.00  0.00    -0.237 OA
ATOM     87  O   UNL A   1      36.060  32.860  39.906  1.00  0.00    -0.744 OA
ENDBRANCH  80  84
ENDBRANCH  53  77
BRANCH  65  88
ATOM     88  C   UNL A   1      44.904  29.220  35.850  1.00  0.00     0.023 A 
ATOM     89  C   UNL A   1      44.831  28.197  36.814  1.00  0.00     0.031 A 
ATOM     90  C   UNL A   1      46.163  29.801  35.609  1.00  0.00     0.131 A 
ATOM     91  C   UNL A   1      45.975  27.835  37.544  1.00  0.00     0.055 A 
ATOM     92  C   UNL A   1      47.310  29.393  36.294  1.00  0.00     0.041 A 
ATOM     93  F   UNL A   1      46.300  30.782  34.702  1.00  0.00    -0.206 F 
ATOM     94  C   UNL A   1      47.218  28.416  37.279  1.00  0.00     0.022 A 
BRANCH  91  95
ATOM     95  S   UNL A   1      45.799  26.667  38.923  1.00  0.00     0.124 S 
ATOM     96  O   UNL A   1      45.236  25.495  38.261  1.00  0.00    -0.237 OA
ATOM     97  O   UNL A   1      47.172  26.534  39.397  1.00  0.00    -0.237 OA
ATOM     98  O   UNL A   1      44.891  27.355  39.842  1.00  0.00    -0.744 OA
ENDBRANCH  91  95
ENDBRANCH  65  88
ENDBRANCH  39  40
ENDBRANCH  32  34
ENDBRANCH  31  32
ENDBRANCH  30  31
ENDBRANCH  29  30
ENDBRANCH   1  29
TORSDOF 20
ENDMDL
MODEL 3
REMARK VINA RESULT:     -11.5      3.755      4.515
REMARK SMILES C[C@H](NC(=O)CCN1C(=O)/C(=C/c2ccc([N+](=O)[O-])cc2)SC1=S)C(=O)OCCOC(=O)c1ccc(-c2c3nc(c(-c4cc(S(=O)(=O)[O-])ccc4F)c4ccc([nH]4)c(-c4cc(S(=O)(=O)[O-])ccc4F)c4nc(c(-c5cc(S(=O)(=O)[O-])ccc5F)c5ccc2[nH]5)C=C4)C=C3)cc1
REMARK SMILES IDX 27 1 25 2 26 3 2 4 1 5 3 6 4 7 5 9 6 10 7 11 8 12 9 13 23 14
REMARK SMILES IDX 10 15 11 16 22 17 24 18 12 19 13 20 14 21 21 22 15 23 20 24
REMARK SMILES IDX 16 25 17 26 18 27 19 28 28 29 29 30 30 31 31 32 32 33 33 34
REMARK SMILES IDX 34 35 95 36 35 37 94 38 36 39 37 40 38 41 88 42 39 43 93 44
REMARK SMILES IDX 87 45 89 46 40 47 92 48 86 49 85 50 41 52 73 53 53 54 72 55
REMARK SMILES IDX 54 56 57 57 71 58 90 59 55 60 56 61 70 63 91 64 58 65 42 66
REMARK SMILES IDX 43 67 51 68 44 69 50 70 52 71 49 72 45 73 46 74 47 75 48 76
REMARK SMILES IDX 74 77 75 78 83 79 76 80 82 81 84 82 81 83 77 84 78 85 79 86
REMARK SMILES IDX 80 87 59 88 60 89 68 90 61 91 67 92 69 93 66 94 62 95 63 96
REMARK SMILES IDX 64 97 65 98
REMARK H PARENT 3 8 89 51 57 62
REMARK Flexibility Score: inf
ROOT
ATOM      1  O   UNL A   1      32.131  30.103  26.760  1.00  0.00    -0.461 OA
ENDROOT
BRANCH   1   2
ATOM      2  C   UNL A   1      31.674  28.744  25.484  1.00  0.00     0.328 C 
ATOM      3  O   UNL A   1      31.611  27.528  25.761  1.00  0.00    -0.250 OA
BRANCH   2   4
ATOM      4  C   UNL A   1      31.376  29.006  23.762  1.00  0.00     0.189 C 
ATOM      5  C   UNL A   1      30.008  29.696  23.624  1.00  0.00     0.043 C 
BRANCH   4   6
ATOM      6  N   UNL A   1      31.547  28.163  22.553  1.00  0.00    -0.343 N 
ATOM      7  C   UNL A   1      31.117  26.904  22.271  1.00  0.00     0.222 C 
ATOM      8  H   UNL A   1      32.061  28.589  21.830  1.00  0.00     0.164 HD
ATOM      9  O   UNL A   1      31.276  26.424  21.152  1.00  0.00    -0.275 OA
BRANCH   7  10
ATOM     10  C   UNL A   1      30.543  26.092  23.389  1.00  0.00     0.122 C 
BRANCH  10  11
ATOM     11  C   UNL A   1      30.854  24.632  23.130  1.00  0.00     0.137 C 
BRANCH  11  12
ATOM     12  N   UNL A   1      32.046  24.188  23.828  1.00  0.00    -0.292 N 
ATOM     13  C   UNL A   1      33.724  24.360  23.080  1.00  0.00     0.266 C 
ATOM     14  C   UNL A   1      31.885  23.230  25.328  1.00  0.00     0.148 C 
ATOM     15  O   UNL A   1      33.925  24.874  21.996  1.00  0.00    -0.268 OA
ATOM     16  C   UNL A   1      35.059  23.465  24.317  1.00  0.00     0.081 C 
ATOM     17  S   UNL A   1      33.941  22.404  25.993  1.00  0.00    -0.054 SA
ATOM     18  S   UNL A   1      30.525  22.919  26.248  1.00  0.00    -0.052 S 
ATOM     19  C   UNL A   1      36.339  23.096  24.141  1.00  0.00     0.029 C 
BRANCH  19  20
ATOM     20  C   UNL A   1      37.404  22.400  24.886  1.00  0.00    -0.024 A 
ATOM     21  C   UNL A   1      37.471  21.020  24.615  1.00  0.00     0.015 A 
ATOM     22  C   UNL A   1      38.312  22.915  25.809  1.00  0.00     0.015 A 
ATOM     23  C   UNL A   1      38.455  20.188  25.133  1.00  0.00     0.086 A 
ATOM     24  C   UNL A   1      39.319  22.091  26.349  1.00  0.00     0.086 A 
ATOM     25  C   UNL A   1      39.399  20.737  25.987  1.00  0.00     0.269 A 
BRANCH  25  26
ATOM     26  N   UNL A   1      40.465  19.879  26.508  1.00  0.00     0.062 N 
ATOM     27  O   UNL A   1      40.994  19.078  25.727  1.00  0.00    -0.258 OA
ATOM     28  O   UNL A   1      40.749  19.986  27.710  1.00  0.00    -0.258 OA
ENDBRANCH  25  26
ENDBRANCH  19  20
ENDBRANCH  11  12
ENDBRANCH  10  11
ENDBRANCH   7  10
ENDBRANCH   4   6
ENDBRANCH   2   4
ENDBRANCH   1   2
BRANCH   1  29
ATOM     29  C   UNL A   1      32.793  31.612  27.282  1.00  0.00     0.274 C 
BRANCH  29  30
ATOM     30  C   UNL A   1      34.232  31.822  27.956  1.00  0.00     0.275 C 
BRANCH  30  31
ATOM     31  O   UNL A   1      34.392  33.023  28.771  1.00  0.00    -0.458 OA
BRANCH  31  32
ATOM     32  C   UNL A   1      34.725  32.901  30.106  1.00  0.00     0.338 C 
ATOM     33  O   UNL A   1      34.027  33.244  31.043  1.00  0.00    -0.246 OA
BRANCH  32  34
ATOM     34  C   UNL A   1      36.062  32.203  30.257  1.00  0.00     0.060 A 
ATOM     35  C   UNL A   1      37.235  32.727  29.676  1.00  0.00     0.016 A 
ATOM     36  C   UNL A   1      36.192  31.067  31.057  1.00  0.00     0.016 A 
ATOM     37  C   UNL A   1      38.514  32.196  29.956  1.00  0.00     0.010 A 
ATOM     38  C   UNL A   1      37.475  30.512  31.309  1.00  0.00     0.010 A 
ATOM     39  C   UNL A   1      38.661  31.077  30.781  1.00  0.00    -0.014 A 
BRANCH  39  40
ATOM     40  C   UNL A   1      40.003  30.408  30.952  1.00  0.00     0.031 A 
ATOM     41  C   UNL A   1      40.833  30.778  32.161  1.00  0.00     0.074 A 
ATOM     42  C   UNL A   1      40.502  29.469  30.111  1.00  0.00     0.049 A 
ATOM     43  N   UNL A   1      42.035  30.389  32.508  1.00  0.00    -0.248 NA
ATOM     44  C   UNL A   1      40.213  31.722  33.101  1.00  0.00     0.031 C 
ATOM     45  C   UNL A   1      39.836  28.937  28.924  1.00  0.00     0.029 A 
ATOM     46  N   UNL A   1      41.710  28.791  30.129  1.00  0.00    -0.354 N 
ATOM     47  C   UNL A   1      42.314  31.038  33.707  1.00  0.00     0.074 A 
ATOM     48  C   UNL A   1      41.181  31.897  33.986  1.00  0.00     0.031 C 
ATOM     49  C   UNL A   1      40.645  28.045  28.318  1.00  0.00     0.029 A 
ATOM     50  C   UNL A   1      41.900  27.933  29.063  1.00  0.00     0.049 A 
ATOM     51  H   UNL A   1      42.377  28.912  30.842  1.00  0.00     0.167 HD
ATOM     52  C   UNL A   1      43.388  30.920  34.527  1.00  0.00     0.034 A 
ATOM     53  C   UNL A   1      42.952  27.151  28.716  1.00  0.00     0.034 A 
ATOM     54  C   UNL A   1      44.530  30.078  34.275  1.00  0.00     0.049 A 
ATOM     55  C   UNL A   1      44.186  27.106  29.599  1.00  0.00     0.074 A 
ATOM     56  C   UNL A   1      45.667  29.915  35.050  1.00  0.00     0.029 A 
ATOM     57  N   UNL A   1      44.689  29.256  33.170  1.00  0.00    -0.354 N 
ATOM     58  N   UNL A   1      44.419  27.726  30.733  1.00  0.00    -0.248 NA
ATOM     59  C   UNL A   1      45.293  26.238  29.162  1.00  0.00     0.031 C 
ATOM     60  C   UNL A   1      46.537  29.044  34.387  1.00  0.00     0.029 A 
ATOM     61  C   UNL A   1      45.913  28.604  33.232  1.00  0.00     0.049 A 
ATOM     62  H   UNL A   1      44.031  29.152  32.445  1.00  0.00     0.167 HD
ATOM     63  C   UNL A   1      45.678  27.292  31.154  1.00  0.00     0.074 A 
ATOM     64  C   UNL A   1      46.143  26.341  30.171  1.00  0.00     0.031 C 
ATOM     65  C   UNL A   1      46.386  27.652  32.256  1.00  0.00     0.034 A 
BRANCH  52  66
ATOM     66  C   UNL A   1      43.378  31.762  35.780  1.00  0.00     0.023 A 
ATOM     67  C   UNL A   1      43.942  33.050  35.798  1.00  0.00     0.031 A 
ATOM     68  C   UNL A   1      42.844  31.256  36.976  1.00  0.00     0.131 A 
ATOM     69  C   UNL A   1      44.034  33.755  37.006  1.00  0.00     0.055 A 
ATOM     70  C   UNL A   1      42.860  32.000  38.158  1.00  0.00     0.041 A 
ATOM     71  F   UNL A   1      42.312  30.025  37.022  1.00  0.00    -0.206 F 
ATOM     72  C   UNL A   1      43.473  33.250  38.181  1.00  0.00     0.022 A 
BRANCH  69  73
ATOM     73  S   UNL A   1      45.029  35.269  37.047  1.00  0.00     0.124 S 
ATOM     74  O   UNL A   1      44.010  36.281  37.315  1.00  0.00    -0.237 OA
ATOM     75  O   UNL A   1      45.966  35.003  38.132  1.00  0.00    -0.237 OA
ATOM     76  O   UNL A   1      45.620  35.327  35.711  1.00  0.00    -0.744 OA
ENDBRANCH  69  73
ENDBRANCH  52  66
BRANCH  53  77
ATOM     77  C   UNL A   1      42.948  26.355  27.442  1.00  0.00     0.023 A 
ATOM     78  C   UNL A   1      42.988  24.948  27.450  1.00  0.00     0.031 A 
ATOM     79  C   UNL A   1      43.044  27.001  26.196  1.00  0.00     0.131 A 
ATOM     80  C   UNL A   1      43.191  24.240  26.252  1.00  0.00     0.055 A 
ATOM     81  C   UNL A   1      43.186  26.290  25.001  1.00  0.00     0.041 A 
ATOM     82  F   UNL A   1      43.020  28.341  26.123  1.00  0.00    -0.206 F 
ATOM     83  C   UNL A   1      43.278  24.902  25.025  1.00  0.00     0.022 A 
BRANCH  80  84
ATOM     84  S   UNL A   1      43.462  22.445  26.328  1.00  0.00     0.124 S 
ATOM     85  O   UNL A   1      42.703  21.981  25.172  1.00  0.00    -0.237 OA
ATOM     86  O   UNL A   1      44.914  22.354  26.221  1.00  0.00    -0.237 OA
ATOM     87  O   UNL A   1      42.910  22.070  27.629  1.00  0.00    -0.744 OA
ENDBRANCH  80  84
ENDBRANCH  53  77
BRANCH  65  88
ATOM     88  C   UNL A   1      47.719  26.973  32.487  1.00  0.00     0.023 A 
ATOM     89  C   UNL A   1      48.931  27.540  32.050  1.00  0.00     0.031 A 
ATOM     90  C   UNL A   1      47.778  25.726  33.137  1.00  0.00     0.131 A 
ATOM     91  C   UNL A   1      50.136  26.836  32.210  1.00  0.00     0.055 A 
ATOM     92  C   UNL A   1      48.987  25.059  33.350  1.00  0.00     0.041 A 
ATOM     93  F   UNL A   1      46.658  25.132  33.577  1.00  0.00    -0.206 F 
ATOM     94  C   UNL A   1      50.173  25.605  32.871  1.00  0.00     0.022 A 
BRANCH  91  95
ATOM     95  S   UNL A   1      51.643  27.498  31.447  1.00  0.00     0.124 S 
ATOM     96  O   UNL A   1      51.695  26.766  30.186  1.00  0.00    -0.237 OA
ATOM     97  O   UNL A   1      51.342  28.923  31.346  1.00  0.00    -0.237 OA
ATOM     98  O   UNL A   1      52.694  27.155  32.405  1.00  0.00    -0.744 OA
ENDBRANCH  91  95
ENDBRANCH  65  88
ENDBRANCH  39  40
ENDBRANCH  32  34
ENDBRANCH  31  32
ENDBRANCH  30  31
ENDBRANCH  29  30
ENDBRANCH   1  29
TORSDOF 20
ENDMDL
