MODEL 1
REMARK VINA RESULT:     -10.5      0.000      0.000
REMARK SMILES CN(C)c1cccc2c(S(=O)(=O)N[C@H](CO)C(=O)OCCOC(=O)c3ccc(-c4c5nc(c(-c6cc(S(=O)(=O)[O-])ccc6F)c6ccc([nH]6)c(-c6cc(S(=O)(=O)[O-])ccc6F)c6nc(c(-c7cc(S(=O)(=O)[O-])ccc7F)c7ccc4[nH]7)C=C6)C=C5)cc3)cccc12
REMARK SMILES IDX 20 1 19 2 17 3 18 4 14 5 13 6 10 8 11 9 12 10 9 11 4 12 5 13
REMARK SMILES IDX 91 14 6 15 8 16 90 17 7 18 89 19 88 20 2 21 1 22 3 23 15 24
REMARK SMILES IDX 16 25 21 27 22 28 23 29 24 30 25 31 26 32 87 33 27 34 86 35
REMARK SMILES IDX 28 36 29 37 30 38 80 39 31 40 85 41 79 42 81 43 32 44 84 45
REMARK SMILES IDX 78 46 77 47 33 49 65 50 45 51 64 52 46 53 49 54 63 55 82 56
REMARK SMILES IDX 47 57 48 58 62 60 83 61 50 62 34 63 35 64 43 65 36 66 42 67
REMARK SMILES IDX 44 68 41 69 37 70 38 71 39 72 40 73 66 74 67 75 75 76 68 77
REMARK SMILES IDX 74 78 76 79 73 80 69 81 70 82 71 83 72 84 51 85 52 86 60 87
REMARK SMILES IDX 53 88 59 89 61 90 58 91 54 92 55 93 56 94 57 95
REMARK H PARENT 13 7 16 26 81 48 49 59
REMARK Flexibility Score: inf
ROOT
ATOM      1  C   UNL A   1      36.940  20.919  24.512  1.00  0.00     0.274 C 
ENDROOT
BRANCH   1   2
ATOM      2  O   UNL A   1      35.831  20.591  25.374  1.00  0.00    -0.461 OA
BRANCH   2   3
ATOM      3  C   UNL A   1      35.090  19.530  24.957  1.00  0.00     0.326 C 
ATOM      4  O   UNL A   1      35.577  18.457  24.626  1.00  0.00    -0.250 OA
BRANCH   3   5
ATOM      5  C   UNL A   1      33.600  19.795  24.901  1.00  0.00     0.205 C 
BRANCH   5   6
ATOM      6  N   UNL A   1      33.103  20.955  25.660  1.00  0.00    -0.194 NA
ATOM      7  H   UNL A   1      32.695  20.571  26.512  1.00  0.00     0.142 HD
BRANCH   6   8
ATOM      8  S   UNL A   1      31.996  22.053  25.091  1.00  0.00     0.242 S 
ATOM      9  O   UNL A   1      30.822  21.933  25.950  1.00  0.00    -0.207 OA
ATOM     10  O   UNL A   1      31.902  21.828  23.674  1.00  0.00    -0.207 OA
BRANCH   8  11
ATOM     11  C   UNL A   1      32.629  23.708  25.309  1.00  0.00     0.090 A 
ATOM     12  C   UNL A   1      31.994  27.298  24.407  1.00  0.00     0.044 A 
ATOM     13  C   UNL A   1      30.615  27.259  24.150  1.00  0.00     0.026 A 
ATOM     14  C   UNL A   1      32.628  26.114  24.903  1.00  0.00     0.006 A 
ATOM     15  C   UNL A   1      29.869  26.110  24.373  1.00  0.00     0.003 A 
ATOM     16  C   UNL A   1      31.898  24.893  25.019  1.00  0.00     0.004 A 
ATOM     17  C   UNL A   1      33.987  26.121  25.295  1.00  0.00     0.011 A 
ATOM     18  C   UNL A   1      30.500  24.950  24.810  1.00  0.00     0.010 A 
ATOM     19  C   UNL A   1      34.660  24.969  25.684  1.00  0.00     0.002 A 
ATOM     20  C   UNL A   1      33.992  23.758  25.655  1.00  0.00     0.022 A 
BRANCH  12  21
ATOM     21  N   UNL A   1      32.736  28.466  24.119  1.00  0.00    -0.377 N 
ATOM     22  C   UNL A   1      32.729  29.545  25.105  1.00  0.00     0.143 C 
ATOM     23  C   UNL A   1      32.654  28.899  22.720  1.00  0.00     0.143 C 
ENDBRANCH  12  21
ENDBRANCH   8  11
ENDBRANCH   6   8
ENDBRANCH   5   6
BRANCH   5  24
ATOM     24  C   UNL A   1      32.735  18.545  25.122  1.00  0.00     0.188 C 
BRANCH  24  25
ATOM     25  O   UNL A   1      32.557  18.195  26.490  1.00  0.00    -0.394 OA
ATOM     26  H   UNL A   1      33.398  18.302  26.963  1.00  0.00     0.210 HD
ENDBRANCH  24  25
ENDBRANCH   5  24
ENDBRANCH   3   5
ENDBRANCH   2   3
ENDBRANCH   1   2
BRANCH   1  27
ATOM     27  C   UNL A   1      37.487  22.334  24.756  1.00  0.00     0.275 C 
BRANCH  27  28
ATOM     28  O   UNL A   1      37.782  22.589  26.143  1.00  0.00    -0.458 OA
BRANCH  28  29
ATOM     29  C   UNL A   1      39.099  22.736  26.438  1.00  0.00     0.338 C 
ATOM     30  O   UNL A   1      39.988  21.944  26.164  1.00  0.00    -0.246 OA
BRANCH  29  31
ATOM     31  C   UNL A   1      39.373  24.086  26.979  1.00  0.00     0.060 A 
ATOM     32  C   UNL A   1      39.946  25.030  26.114  1.00  0.00     0.016 A 
ATOM     33  C   UNL A   1      39.116  24.420  28.310  1.00  0.00     0.016 A 
ATOM     34  C   UNL A   1      40.278  26.302  26.575  1.00  0.00     0.010 A 
ATOM     35  C   UNL A   1      39.474  25.687  28.781  1.00  0.00     0.010 A 
ATOM     36  C   UNL A   1      40.076  26.623  27.921  1.00  0.00    -0.014 A 
BRANCH  36  37
ATOM     37  C   UNL A   1      40.642  27.875  28.473  1.00  0.00     0.031 A 
ATOM     38  C   UNL A   1      39.698  28.915  28.999  1.00  0.00     0.074 A 
ATOM     39  C   UNL A   1      41.970  28.081  28.498  1.00  0.00     0.049 A 
ATOM     40  N   UNL A   1      39.948  30.127  29.419  1.00  0.00    -0.248 NA
ATOM     41  C   UNL A   1      38.280  28.532  29.059  1.00  0.00     0.031 C 
ATOM     42  C   UNL A   1      42.979  27.110  28.076  1.00  0.00     0.029 A 
ATOM     43  N   UNL A   1      42.695  29.180  28.878  1.00  0.00    -0.354 N 
ATOM     44  C   UNL A   1      38.718  30.655  29.795  1.00  0.00     0.074 A 
ATOM     45  C   UNL A   1      37.723  29.636  29.530  1.00  0.00     0.031 C 
ATOM     46  C   UNL A   1      44.196  27.671  28.190  1.00  0.00     0.029 A 
ATOM     47  C   UNL A   1      44.045  29.052  28.649  1.00  0.00     0.049 A 
ATOM     48  H   UNL A   1      42.290  29.984  29.276  1.00  0.00     0.167 HD
ATOM     49  C   UNL A   1      38.444  31.878  30.312  1.00  0.00     0.034 A 
ATOM     50  C   UNL A   1      45.033  29.962  28.755  1.00  0.00     0.034 A 
ATOM     51  C   UNL A   1      39.441  32.897  30.524  1.00  0.00     0.049 A 
ATOM     52  C   UNL A   1      44.693  31.359  29.217  1.00  0.00     0.074 A 
ATOM     53  C   UNL A   1      39.278  34.182  31.009  1.00  0.00     0.029 A 
ATOM     54  N   UNL A   1      40.794  32.747  30.245  1.00  0.00    -0.354 N 
ATOM     55  N   UNL A   1      43.524  31.857  29.549  1.00  0.00    -0.248 NA
ATOM     56  C   UNL A   1      45.805  32.314  29.317  1.00  0.00     0.031 C 
ATOM     57  C   UNL A   1      40.520  34.828  30.967  1.00  0.00     0.029 A 
ATOM     58  C   UNL A   1      41.471  33.925  30.519  1.00  0.00     0.049 A 
ATOM     59  H   UNL A   1      41.211  31.924  29.902  1.00  0.00     0.167 HD
ATOM     60  C   UNL A   1      43.766  33.176  29.924  1.00  0.00     0.074 A 
ATOM     61  C   UNL A   1      45.191  33.394  29.779  1.00  0.00     0.031 C 
ATOM     62  C   UNL A   1      42.893  34.120  30.360  1.00  0.00     0.034 A 
BRANCH  49  63
ATOM     63  C   UNL A   1      36.998  32.182  30.604  1.00  0.00     0.023 A 
ATOM     64  C   UNL A   1      36.150  32.731  29.625  1.00  0.00     0.031 A 
ATOM     65  C   UNL A   1      36.480  31.996  31.898  1.00  0.00     0.131 A 
ATOM     66  C   UNL A   1      34.856  33.145  29.974  1.00  0.00     0.055 A 
ATOM     67  C   UNL A   1      35.167  32.342  32.219  1.00  0.00     0.041 A 
ATOM     68  F   UNL A   1      37.252  31.503  32.878  1.00  0.00    -0.206 F 
ATOM     69  C   UNL A   1      34.351  32.936  31.259  1.00  0.00     0.022 A 
BRANCH  66  70
ATOM     70  S   UNL A   1      33.898  34.103  28.767  1.00  0.00     0.124 S 
ATOM     71  O   UNL A   1      34.886  35.079  28.313  1.00  0.00    -0.237 OA
ATOM     72  O   UNL A   1      33.510  33.088  27.796  1.00  0.00    -0.237 OA
ATOM     73  O   UNL A   1      32.805  34.659  29.562  1.00  0.00    -0.744 OA
ENDBRANCH  66  70
ENDBRANCH  49  63
BRANCH  50  74
ATOM     74  C   UNL A   1      46.424  29.613  28.353  1.00  0.00     0.023 A 
ATOM     75  C   UNL A   1      47.331  29.057  29.268  1.00  0.00     0.031 A 
ATOM     76  C   UNL A   1      46.879  29.878  27.047  1.00  0.00     0.131 A 
ATOM     77  C   UNL A   1      48.658  28.818  28.876  1.00  0.00     0.055 A 
ATOM     78  C   UNL A   1      48.189  29.599  26.651  1.00  0.00     0.041 A 
ATOM     79  F   UNL A   1      46.050  30.406  26.133  1.00  0.00    -0.206 F 
ATOM     80  C   UNL A   1      49.090  29.076  27.572  1.00  0.00     0.022 A 
BRANCH  77  81
ATOM     81  S   UNL A   1      49.837  28.226  30.120  1.00  0.00     0.124 S 
ATOM     82  O   UNL A   1      50.119  26.876  29.645  1.00  0.00    -0.237 OA
ATOM     83  O   UNL A   1      50.924  29.192  29.992  1.00  0.00    -0.237 OA
ATOM     84  O   UNL A   1      49.082  28.304  31.369  1.00  0.00    -0.744 OA
ENDBRANCH  77  81
ENDBRANCH  50  74
BRANCH  62  85
ATOM     85  C   UNL A   1      43.472  35.453  30.761  1.00  0.00     0.023 A 
ATOM     86  C   UNL A   1      43.557  36.527  29.859  1.00  0.00     0.031 A 
ATOM     87  C   UNL A   1      43.942  35.645  32.072  1.00  0.00     0.131 A 
ATOM     88  C   UNL A   1      44.142  37.735  30.269  1.00  0.00     0.055 A 
ATOM     89  C   UNL A   1      44.480  36.864  32.487  1.00  0.00     0.041 A 
ATOM     90  F   UNL A   1      43.883  34.650  32.971  1.00  0.00    -0.206 F 
ATOM     91  C   UNL A   1      44.590  37.914  31.581  1.00  0.00     0.022 A 
BRANCH  88  92
ATOM     92  S   UNL A   1      44.366  39.056  29.046  1.00  0.00     0.124 S 
ATOM     93  O   UNL A   1      45.281  38.435  28.093  1.00  0.00    -0.237 OA
ATOM     94  O   UNL A   1      43.004  39.277  28.571  1.00  0.00    -0.237 OA
ATOM     95  O   UNL A   1      44.935  40.153  29.826  1.00  0.00    -0.744 OA
ENDBRANCH  88  92
ENDBRANCH  62  85
ENDBRANCH  36  37
ENDBRANCH  29  31
ENDBRANCH  28  29
ENDBRANCH  27  28
ENDBRANCH   1  27
TORSDOF 20
ENDMDL
MODEL 2
REMARK VINA RESULT:     -10.2      2.204      7.819
REMARK SMILES CN(C)c1cccc2c(S(=O)(=O)N[C@H](CO)C(=O)OCCOC(=O)c3ccc(-c4c5nc(c(-c6cc(S(=O)(=O)[O-])ccc6F)c6ccc([nH]6)c(-c6cc(S(=O)(=O)[O-])ccc6F)c6nc(c(-c7cc(S(=O)(=O)[O-])ccc7F)c7ccc4[nH]7)C=C6)C=C5)cc3)cccc12
REMARK SMILES IDX 20 1 19 2 17 3 18 4 14 5 13 6 10 8 11 9 12 10 9 11 4 12 5 13
REMARK SMILES IDX 91 14 6 15 8 16 90 17 7 18 89 19 88 20 2 21 1 22 3 23 15 24
REMARK SMILES IDX 16 25 21 27 22 28 23 29 24 30 25 31 26 32 87 33 27 34 86 35
REMARK SMILES IDX 28 36 29 37 30 38 80 39 31 40 85 41 79 42 81 43 32 44 84 45
REMARK SMILES IDX 78 46 77 47 33 49 65 50 45 51 64 52 46 53 49 54 63 55 82 56
REMARK SMILES IDX 47 57 48 58 62 60 83 61 50 62 34 63 35 64 43 65 36 66 42 67
REMARK SMILES IDX 44 68 41 69 37 70 38 71 39 72 40 73 66 74 67 75 75 76 68 77
REMARK SMILES IDX 74 78 76 79 73 80 69 81 70 82 71 83 72 84 51 85 52 86 60 87
REMARK SMILES IDX 53 88 59 89 61 90 58 91 54 92 55 93 56 94 57 95
REMARK H PARENT 13 7 16 26 81 48 49 59
REMARK Flexibility Score: inf
ROOT
ATOM      1  C   UNL A   1      36.191  22.809  24.666  1.00  0.00     0.274 C 
ENDROOT
BRANCH   1   2
ATOM      2  O   UNL A   1      35.461  22.054  25.654  1.00  0.00    -0.461 OA
BRANCH   2   3
ATOM      3  C   UNL A   1      35.076  20.816  25.245  1.00  0.00     0.326 C 
ATOM      4  O   UNL A   1      35.867  19.930  24.943  1.00  0.00    -0.250 OA
BRANCH   3   5
ATOM      5  C   UNL A   1      33.577  20.626  25.156  1.00  0.00     0.205 C 
BRANCH   5   6
ATOM      6  N   UNL A   1      32.744  21.548  25.947  1.00  0.00    -0.194 NA
ATOM      7  H   UNL A   1      32.291  20.970  26.654  1.00  0.00     0.142 HD
BRANCH   6   8
ATOM      8  S   UNL A   1      31.543  22.510  25.323  1.00  0.00     0.242 S 
ATOM      9  O   UNL A   1      30.360  22.271  26.142  1.00  0.00    -0.207 OA
ATOM     10  O   UNL A   1      31.527  22.259  23.907  1.00  0.00    -0.207 OA
BRANCH   8  11
ATOM     11  C   UNL A   1      31.982  24.228  25.535  1.00  0.00     0.090 A 
ATOM     12  C   UNL A   1      31.196  27.690  24.314  1.00  0.00     0.044 A 
ATOM     13  C   UNL A   1      29.890  27.505  23.836  1.00  0.00     0.026 A 
ATOM     14  C   UNL A   1      31.838  26.600  24.983  1.00  0.00     0.006 A 
ATOM     15  C   UNL A   1      29.221  26.301  24.006  1.00  0.00     0.003 A 
ATOM     16  C   UNL A   1      31.209  25.320  25.054  1.00  0.00     0.004 A 
ATOM     17  C   UNL A   1      33.105  26.758  25.591  1.00  0.00     0.011 A 
ATOM     18  C   UNL A   1      29.868  25.230  24.614  1.00  0.00     0.010 A 
ATOM     19  C   UNL A   1      33.800  25.697  26.159  1.00  0.00     0.002 A 
ATOM     20  C   UNL A   1      33.256  24.427  26.097  1.00  0.00     0.022 A 
BRANCH  12  21
ATOM     21  N   UNL A   1      31.870  28.910  24.078  1.00  0.00    -0.377 N 
ATOM     22  C   UNL A   1      31.627  30.019  24.999  1.00  0.00     0.143 C 
ATOM     23  C   UNL A   1      31.958  29.283  22.663  1.00  0.00     0.143 C 
ENDBRANCH  12  21
ENDBRANCH   8  11
ENDBRANCH   6   8
ENDBRANCH   5   6
BRANCH   5  24
ATOM     24  C   UNL A   1      33.121  19.166  25.300  1.00  0.00     0.188 C 
BRANCH  24  25
ATOM     25  O   UNL A   1      32.925  18.749  26.646  1.00  0.00    -0.394 OA
ATOM     26  H   UNL A   1      32.104  18.235  26.709  1.00  0.00     0.210 HD
ENDBRANCH  24  25
ENDBRANCH   5  24
ENDBRANCH   3   5
ENDBRANCH   2   3
ENDBRANCH   1   2
BRANCH   1  27
ATOM     27  C   UNL A   1      37.713  22.638  24.788  1.00  0.00     0.275 C 
BRANCH  27  28
ATOM     28  O   UNL A   1      38.142  22.397  26.142  1.00  0.00    -0.458 OA
BRANCH  28  29
ATOM     29  C   UNL A   1      39.441  22.693  26.400  1.00  0.00     0.338 C 
ATOM     30  O   UNL A   1      40.406  22.002  26.107  1.00  0.00    -0.246 OA
BRANCH  29  31
ATOM     31  C   UNL A   1      39.577  24.071  26.923  1.00  0.00     0.060 A 
ATOM     32  C   UNL A   1      40.139  25.037  26.076  1.00  0.00     0.016 A 
ATOM     33  C   UNL A   1      39.201  24.412  28.224  1.00  0.00     0.016 A 
ATOM     34  C   UNL A   1      40.343  26.340  26.526  1.00  0.00     0.010 A 
ATOM     35  C   UNL A   1      39.431  25.712  28.686  1.00  0.00     0.010 A 
ATOM     36  C   UNL A   1      40.023  26.672  27.846  1.00  0.00    -0.014 A 
BRANCH  36  37
ATOM     37  C   UNL A   1      40.454  27.974  28.403  1.00  0.00     0.031 A 
ATOM     38  C   UNL A   1      41.923  28.232  28.565  1.00  0.00     0.074 A 
ATOM     39  C   UNL A   1      39.553  28.904  28.762  1.00  0.00     0.049 A 
ATOM     40  N   UNL A   1      42.532  29.239  29.133  1.00  0.00    -0.248 NA
ATOM     41  C   UNL A   1      42.825  27.212  28.009  1.00  0.00     0.031 C 
ATOM     42  C   UNL A   1      38.107  28.786  28.584  1.00  0.00     0.029 A 
ATOM     43  N   UNL A   1      39.721  30.123  29.368  1.00  0.00    -0.354 N 
ATOM     44  C   UNL A   1      43.891  28.977  29.003  1.00  0.00     0.074 A 
ATOM     45  C   UNL A   1      44.012  27.705  28.323  1.00  0.00     0.031 C 
ATOM     46  C   UNL A   1      37.514  29.877  29.102  1.00  0.00     0.029 A 
ATOM     47  C   UNL A   1      38.537  30.745  29.685  1.00  0.00     0.049 A 
ATOM     48  H   UNL A   1      40.604  30.515  29.557  1.00  0.00     0.167 HD
ATOM     49  C   UNL A   1      44.941  29.729  29.416  1.00  0.00     0.034 A 
ATOM     50  C   UNL A   1      38.309  31.861  30.404  1.00  0.00     0.034 A 
ATOM     51  C   UNL A   1      44.801  30.970  30.135  1.00  0.00     0.049 A 
ATOM     52  C   UNL A   1      39.487  32.624  30.962  1.00  0.00     0.074 A 
ATOM     53  C   UNL A   1      45.789  31.800  30.633  1.00  0.00     0.029 A 
ATOM     54  N   UNL A   1      43.586  31.553  30.474  1.00  0.00    -0.354 N 
ATOM     55  N   UNL A   1      40.768  32.357  30.855  1.00  0.00    -0.248 NA
ATOM     56  C   UNL A   1      39.187  33.835  31.738  1.00  0.00     0.031 C 
ATOM     57  C   UNL A   1      45.173  32.852  31.323  1.00  0.00     0.029 A 
ATOM     58  C   UNL A   1      43.799  32.714  31.200  1.00  0.00     0.049 A 
ATOM     59  H   UNL A   1      42.702  31.192  30.235  1.00  0.00     0.167 HD
ATOM     60  C   UNL A   1      41.427  33.384  31.526  1.00  0.00     0.074 A 
ATOM     61  C   UNL A   1      40.402  34.274  32.032  1.00  0.00     0.031 C 
ATOM     62  C   UNL A   1      42.759  33.582  31.700  1.00  0.00     0.034 A 
BRANCH  49  63
ATOM     63  C   UNL A   1      46.317  29.173  29.156  1.00  0.00     0.023 A 
ATOM     64  C   UNL A   1      46.869  29.149  27.863  1.00  0.00     0.031 A 
ATOM     65  C   UNL A   1      47.054  28.587  30.200  1.00  0.00     0.131 A 
ATOM     66  C   UNL A   1      48.083  28.486  27.633  1.00  0.00     0.055 A 
ATOM     67  C   UNL A   1      48.298  27.994  29.977  1.00  0.00     0.041 A 
ATOM     68  F   UNL A   1      46.564  28.556  31.449  1.00  0.00    -0.206 F 
ATOM     69  C   UNL A   1      48.812  27.926  28.685  1.00  0.00     0.022 A 
BRANCH  66  70
ATOM     70  S   UNL A   1      48.619  28.229  25.919  1.00  0.00     0.124 S 
ATOM     71  O   UNL A   1      47.490  28.777  25.171  1.00  0.00    -0.237 OA
ATOM     72  O   UNL A   1      49.858  28.995  25.858  1.00  0.00    -0.237 OA
ATOM     73  O   UNL A   1      48.775  26.779  25.823  1.00  0.00    -0.744 OA
ENDBRANCH  66  70
ENDBRANCH  49  63
BRANCH  50  74
ATOM     74  C   UNL A   1      36.915  32.293  30.703  1.00  0.00     0.023 A 
ATOM     75  C   UNL A   1      36.113  32.900  29.724  1.00  0.00     0.031 A 
ATOM     76  C   UNL A   1      36.381  32.144  31.996  1.00  0.00     0.131 A 
ATOM     77  C   UNL A   1      34.834  33.369  30.063  1.00  0.00     0.055 A 
ATOM     78  C   UNL A   1      35.093  32.575  32.318  1.00  0.00     0.041 A 
ATOM     79  F   UNL A   1      37.107  31.567  32.968  1.00  0.00    -0.206 F 
ATOM     80  C   UNL A   1      34.315  33.202  31.350  1.00  0.00     0.022 A 
BRANCH  77  81
ATOM     81  S   UNL A   1      33.878  34.267  28.811  1.00  0.00     0.124 S 
ATOM     82  O   UNL A   1      32.763  34.781  29.599  1.00  0.00    -0.237 OA
ATOM     83  O   UNL A   1      34.845  35.256  28.344  1.00  0.00    -0.237 OA
ATOM     84  O   UNL A   1      33.531  33.231  27.840  1.00  0.00    -0.744 OA
ENDBRANCH  77  81
ENDBRANCH  50  74
BRANCH  62  85
ATOM     85  C   UNL A   1      43.175  34.838  32.422  1.00  0.00     0.023 A 
ATOM     86  C   UNL A   1      43.266  34.893  33.823  1.00  0.00     0.031 A 
ATOM     87  C   UNL A   1      43.486  35.997  31.688  1.00  0.00     0.131 A 
ATOM     88  C   UNL A   1      43.618  36.098  34.451  1.00  0.00     0.055 A 
ATOM     89  C   UNL A   1      43.880  37.179  32.316  1.00  0.00     0.041 A 
ATOM     90  F   UNL A   1      43.414  35.995  30.348  1.00  0.00    -0.206 F 
ATOM     91  C   UNL A   1      43.939  37.236  33.705  1.00  0.00     0.022 A 
BRANCH  88  92
ATOM     92  S   UNL A   1      43.592  36.179  36.263  1.00  0.00     0.124 S 
ATOM     93  O   UNL A   1      42.309  35.558  36.576  1.00  0.00    -0.237 OA
ATOM     94  O   UNL A   1      44.778  35.411  36.627  1.00  0.00    -0.237 OA
ATOM     95  O   UNL A   1      43.673  37.611  36.544  1.00  0.00    -0.744 OA
ENDBRANCH  88  92
ENDBRANCH  62  85
ENDBRANCH  36  37
ENDBRANCH  29  31
ENDBRANCH  28  29
ENDBRANCH  27  28
ENDBRANCH   1  27
TORSDOF 20
ENDMDL
MODEL 3
REMARK VINA RESULT:     -10.1      5.622      9.189
REMARK SMILES CN(C)c1cccc2c(S(=O)(=O)N[C@H](CO)C(=O)OCCOC(=O)c3ccc(-c4c5nc(c(-c6cc(S(=O)(=O)[O-])ccc6F)c6ccc([nH]6)c(-c6cc(S(=O)(=O)[O-])ccc6F)c6nc(c(-c7cc(S(=O)(=O)[O-])ccc7F)c7ccc4[nH]7)C=C6)C=C5)cc3)cccc12
REMARK SMILES IDX 20 1 19 2 17 3 18 4 14 5 13 6 10 8 11 9 12 10 9 11 4 12 5 13
REMARK SMILES IDX 91 14 6 15 8 16 90 17 7 18 89 19 88 20 2 21 1 22 3 23 15 24
REMARK SMILES IDX 16 25 21 27 22 28 23 29 24 30 25 31 26 32 87 33 27 34 86 35
REMARK SMILES IDX 28 36 29 37 30 38 80 39 31 40 85 41 79 42 81 43 32 44 84 45
REMARK SMILES IDX 78 46 77 47 33 49 65 50 45 51 64 52 46 53 49 54 63 55 82 56
REMARK SMILES IDX 47 57 48 58 62 60 83 61 50 62 34 63 35 64 43 65 36 66 42 67
REMARK SMILES IDX 44 68 41 69 37 70 38 71 39 72 40 73 66 74 67 75 75 76 68 77
REMARK SMILES IDX 74 78 76 79 73 80 69 81 70 82 71 83 72 84 51 85 52 86 60 87
REMARK SMILES IDX 53 88 59 89 61 90 58 91 54 92 55 93 56 94 57 95
REMARK H PARENT 13 7 16 26 81 48 49 59
REMARK Flexibility Score: inf
ROOT
ATOM      1  C   UNL A   1      46.004  23.196  25.906  1.00  0.00     0.274 C 
ENDROOT
BRANCH   1   2
ATOM      2  O   UNL A   1      46.104  21.918  25.246  1.00  0.00    -0.461 OA
BRANCH   2   3
ATOM      3  C   UNL A   1      44.994  21.555  24.550  1.00  0.00     0.326 C 
ATOM      4  O   UNL A   1      44.588  22.161  23.567  1.00  0.00    -0.250 OA
BRANCH   3   5
ATOM      5  C   UNL A   1      44.272  20.349  25.113  1.00  0.00     0.205 C 
BRANCH   5   6
ATOM      6  N   UNL A   1      43.637  20.512  26.432  1.00  0.00    -0.194 NA
ATOM      7  H   UNL A   1      43.662  19.589  26.864  1.00  0.00     0.142 HD
BRANCH   6   8
ATOM      8  S   UNL A   1      42.094  21.074  26.676  1.00  0.00     0.242 S 
ATOM      9  O   UNL A   1      41.415  20.069  27.487  1.00  0.00    -0.207 OA
ATOM     10  O   UNL A   1      41.594  21.441  25.379  1.00  0.00    -0.207 OA
BRANCH   8  11
ATOM     11  C   UNL A   1      42.151  22.572  27.648  1.00  0.00     0.090 A 
ATOM     12  C   UNL A   1      40.491  25.909  28.103  1.00  0.00     0.044 A 
ATOM     13  C   UNL A   1      39.221  25.640  27.568  1.00  0.00     0.026 A 
ATOM     14  C   UNL A   1      41.423  24.829  28.220  1.00  0.00     0.006 A 
ATOM     15  C   UNL A   1      38.861  24.362  27.165  1.00  0.00     0.003 A 
ATOM     16  C   UNL A   1      41.109  23.539  27.696  1.00  0.00     0.004 A 
ATOM     17  C   UNL A   1      42.672  25.006  28.859  1.00  0.00     0.011 A 
ATOM     18  C   UNL A   1      39.788  23.327  27.237  1.00  0.00     0.010 A 
ATOM     19  C   UNL A   1      43.640  24.009  28.901  1.00  0.00     0.002 A 
ATOM     20  C   UNL A   1      43.394  22.807  28.263  1.00  0.00     0.022 A 
BRANCH  12  21
ATOM     21  N   UNL A   1      40.846  27.231  28.454  1.00  0.00    -0.377 N 
ATOM     22  C   UNL A   1      40.584  27.672  29.823  1.00  0.00     0.143 C 
ATOM     23  C   UNL A   1      40.564  28.225  27.414  1.00  0.00     0.143 C 
ENDBRANCH  12  21
ENDBRANCH   8  11
ENDBRANCH   6   8
ENDBRANCH   5   6
BRANCH   5  24
ATOM     24  C   UNL A   1      45.069  19.039  25.011  1.00  0.00     0.188 C 
BRANCH  24  25
ATOM     25  O   UNL A   1      44.899  18.168  26.125  1.00  0.00    -0.394 OA
ATOM     26  H   UNL A   1      45.407  17.355  25.979  1.00  0.00     0.210 HD
ENDBRANCH  24  25
ENDBRANCH   5  24
ENDBRANCH   3   5
ENDBRANCH   2   3
ENDBRANCH   1   2
BRANCH   1  27
ATOM     27  C   UNL A   1      46.818  24.295  25.207  1.00  0.00     0.275 C 
BRANCH  27  28
ATOM     28  O   UNL A   1      45.989  25.298  24.588  1.00  0.00    -0.458 OA
BRANCH  28  29
ATOM     29  C   UNL A   1      46.420  26.577  24.733  1.00  0.00     0.338 C 
ATOM     30  O   UNL A   1      46.979  27.246  23.876  1.00  0.00    -0.246 OA
BRANCH  29  31
ATOM     31  C   UNL A   1      45.960  27.149  26.017  1.00  0.00     0.060 A 
ATOM     32  C   UNL A   1      44.577  27.264  26.221  1.00  0.00     0.016 A 
ATOM     33  C   UNL A   1      46.852  27.603  26.991  1.00  0.00     0.016 A 
ATOM     34  C   UNL A   1      44.079  27.844  27.386  1.00  0.00     0.010 A 
ATOM     35  C   UNL A   1      46.354  28.209  28.148  1.00  0.00     0.010 A 
ATOM     36  C   UNL A   1      44.968  28.352  28.338  1.00  0.00    -0.014 A 
BRANCH  36  37
ATOM     37  C   UNL A   1      44.458  29.178  29.456  1.00  0.00     0.031 A 
ATOM     38  C   UNL A   1      44.147  28.504  30.760  1.00  0.00     0.074 A 
ATOM     39  C   UNL A   1      44.271  30.501  29.308  1.00  0.00     0.049 A 
ATOM     40  N   UNL A   1      43.585  28.992  31.834  1.00  0.00    -0.248 NA
ATOM     41  C   UNL A   1      44.523  27.086  30.862  1.00  0.00     0.031 C 
ATOM     42  C   UNL A   1      44.605  31.267  28.109  1.00  0.00     0.029 A 
ATOM     43  N   UNL A   1      43.738  31.428  30.166  1.00  0.00    -0.354 N 
ATOM     44  C   UNL A   1      43.539  27.942  32.743  1.00  0.00     0.074 A 
ATOM     45  C   UNL A   1      44.109  26.786  32.082  1.00  0.00     0.031 C 
ATOM     46  C   UNL A   1      44.238  32.548  28.296  1.00  0.00     0.029 A 
ATOM     47  C   UNL A   1      43.604  32.677  29.607  1.00  0.00     0.049 A 
ATOM     48  H   UNL A   1      43.477  31.220  31.092  1.00  0.00     0.167 HD
ATOM     49  C   UNL A   1      43.062  27.942  34.012  1.00  0.00     0.034 A 
ATOM     50  C   UNL A   1      42.996  33.780  30.086  1.00  0.00     0.034 A 
ATOM     51  C   UNL A   1      42.454  29.089  34.637  1.00  0.00     0.049 A 
ATOM     52  C   UNL A   1      42.362  33.729  31.455  1.00  0.00     0.074 A 
ATOM     53  C   UNL A   1      41.905  29.198  35.902  1.00  0.00     0.029 A 
ATOM     54  N   UNL A   1      42.298  30.329  34.029  1.00  0.00    -0.354 N 
ATOM     55  N   UNL A   1      42.302  32.725  32.300  1.00  0.00    -0.248 NA
ATOM     56  C   UNL A   1      41.712  34.957  31.933  1.00  0.00     0.031 C 
ATOM     57  C   UNL A   1      41.367  30.484  36.038  1.00  0.00     0.029 A 
ATOM     58  C   UNL A   1      41.637  31.199  34.881  1.00  0.00     0.049 A 
ATOM     59  H   UNL A   1      42.612  30.556  33.124  1.00  0.00     0.167 HD
ATOM     60  C   UNL A   1      41.634  33.211  33.421  1.00  0.00     0.074 A 
ATOM     61  C   UNL A   1      41.313  34.597  33.145  1.00  0.00     0.031 C 
ATOM     62  C   UNL A   1      41.322  32.575  34.580  1.00  0.00     0.034 A 
BRANCH  49  63
ATOM     63  C   UNL A   1      43.122  26.634  34.759  1.00  0.00     0.023 A 
ATOM     64  C   UNL A   1      44.339  26.113  35.233  1.00  0.00     0.031 A 
ATOM     65  C   UNL A   1      41.961  25.862  34.931  1.00  0.00     0.131 A 
ATOM     66  C   UNL A   1      44.380  24.824  35.785  1.00  0.00     0.055 A 
ATOM     67  C   UNL A   1      41.996  24.611  35.549  1.00  0.00     0.041 A 
ATOM     68  F   UNL A   1      40.777  26.297  34.474  1.00  0.00    -0.206 F 
ATOM     69  C   UNL A   1      43.214  24.077  35.965  1.00  0.00     0.022 A 
BRANCH  66  70
ATOM     70  S   UNL A   1      45.998  24.076  36.120  1.00  0.00     0.124 S 
ATOM     71  O   UNL A   1      45.617  22.831  36.783  1.00  0.00    -0.237 OA
ATOM     72  O   UNL A   1      46.566  23.941  34.784  1.00  0.00    -0.237 OA
ATOM     73  O   UNL A   1      46.656  25.055  36.983  1.00  0.00    -0.744 OA
ENDBRANCH  66  70
ENDBRANCH  49  63
BRANCH  50  74
ATOM     74  C   UNL A   1      42.891  35.006  29.247  1.00  0.00     0.023 A 
ATOM     75  C   UNL A   1      43.986  35.866  29.069  1.00  0.00     0.031 A 
ATOM     76  C   UNL A   1      41.669  35.358  28.645  1.00  0.00     0.131 A 
ATOM     77  C   UNL A   1      43.827  37.055  28.340  1.00  0.00     0.055 A 
ATOM     78  C   UNL A   1      41.528  36.521  27.884  1.00  0.00     0.041 A 
ATOM     79  F   UNL A   1      40.592  34.567  28.781  1.00  0.00    -0.206 F 
ATOM     80  C   UNL A   1      42.609  37.383  27.739  1.00  0.00     0.022 A 
BRANCH  77  81
ATOM     81  S   UNL A   1      45.224  38.208  28.244  1.00  0.00     0.124 S 
ATOM     82  O   UNL A   1      44.649  39.310  27.481  1.00  0.00    -0.237 OA
ATOM     83  O   UNL A   1      45.494  38.474  29.654  1.00  0.00    -0.237 OA
ATOM     84  O   UNL A   1      46.254  37.437  27.550  1.00  0.00    -0.744 OA
ENDBRANCH  77  81
ENDBRANCH  50  74
BRANCH  62  85
ATOM     85  C   UNL A   1      40.648  33.396  35.649  1.00  0.00     0.023 A 
ATOM     86  C   UNL A   1      41.383  34.177  36.559  1.00  0.00     0.031 A 
ATOM     87  C   UNL A   1      39.246  33.394  35.754  1.00  0.00     0.131 A 
ATOM     88  C   UNL A   1      40.711  34.892  37.562  1.00  0.00     0.055 A 
ATOM     89  C   UNL A   1      38.582  34.144  36.725  1.00  0.00     0.041 A 
ATOM     90  F   UNL A   1      38.500  32.665  34.910  1.00  0.00    -0.206 F 
ATOM     91  C   UNL A   1      39.316  34.891  37.642  1.00  0.00     0.022 A 
BRANCH  88  92
ATOM     92  S   UNL A   1      41.690  35.778  38.806  1.00  0.00     0.124 S 
ATOM     93  O   UNL A   1      43.055  35.531  38.350  1.00  0.00    -0.237 OA
ATOM     94  O   UNL A   1      41.209  37.148  38.667  1.00  0.00    -0.237 OA
ATOM     95  O   UNL A   1      41.328  35.120  40.060  1.00  0.00    -0.744 OA
ENDBRANCH  88  92
ENDBRANCH  62  85
ENDBRANCH  36  37
ENDBRANCH  29  31
ENDBRANCH  28  29
ENDBRANCH  27  28
ENDBRANCH   1  27
TORSDOF 20
ENDMDL
