MODEL 1
REMARK VINA RESULT:     -11.4      0.000      0.000
REMARK SMILES Cc1ccc(CNC(=O)NC[C@@H]2CC[C@@H](C(=O)OCCOC(=O)c3ccc(-c4c5nc(c(-c6cc(S(=O)(=O)[O-])ccc6F)c6ccc([nH]6)c(-c6cc(S(=O)(=O)[O-])ccc6F)c6nc(c(-c7cc(S(=O)(=O)[O-])ccc7F)c7ccc4[nH]7)C=C6)C=C5)cc3)O2)cn1
REMARK SMILES IDX 19 1 18 2 16 3 17 4 15 5 12 6 13 7 87 8 14 9 11 10 10 11
REMARK SMILES IDX 7 12 8 13 9 15 6 17 5 18 1 19 2 20 3 21 89 22 4 23 88 24
REMARK SMILES IDX 20 25 21 26 22 27 23 28 24 29 25 30 86 31 26 32 85 33 27 34
REMARK SMILES IDX 28 35 29 36 79 37 30 38 84 39 78 40 80 41 31 42 83 43 77 44
REMARK SMILES IDX 76 45 32 47 64 48 44 49 63 50 45 51 48 52 62 53 81 54 46 55
REMARK SMILES IDX 47 56 61 58 82 59 49 60 33 61 34 62 42 63 35 64 41 65 43 66
REMARK SMILES IDX 40 67 36 68 37 69 38 70 39 71 65 72 66 73 74 74 67 75 73 76
REMARK SMILES IDX 75 77 72 78 68 79 69 80 70 81 71 82 50 83 51 84 59 85 52 86
REMARK SMILES IDX 58 87 60 88 57 89 53 90 54 91 55 92 56 93
REMARK H PARENT 7 14 10 16 80 46 48 57
REMARK Flexibility Score: inf
ROOT
ATOM      1  C   UNL A   1      35.794  20.281  25.036  1.00  0.00     0.274 C 
ENDROOT
BRANCH   1   2
ATOM      2  O   UNL A   1      34.932  21.299  24.499  1.00  0.00    -0.460 OA
BRANCH   2   3
ATOM      3  C   UNL A   1      33.594  21.076  24.632  1.00  0.00     0.335 C 
ATOM      4  O   UNL A   1      33.083  19.968  24.760  1.00  0.00    -0.249 OA
BRANCH   3   5
ATOM      5  C   UNL A   1      32.821  22.393  24.744  1.00  0.00     0.228 C 
ATOM      6  C   UNL A   1      30.897  23.589  24.202  1.00  0.00     0.138 C 
ATOM      7  C   UNL A   1      31.083  23.616  25.714  1.00  0.00     0.037 C 
ATOM      8  O   UNL A   1      31.958  22.762  23.663  1.00  0.00    -0.361 OA
ATOM      9  C   UNL A   1      31.920  22.393  25.967  1.00  0.00     0.047 C 
BRANCH   6  10
ATOM     10  C   UNL A   1      30.945  24.986  23.561  1.00  0.00     0.149 C 
BRANCH  10  11
ATOM     11  N   UNL A   1      31.688  24.977  22.310  1.00  0.00    -0.336 N 
ATOM     12  N   UNL A   1      33.909  25.583  22.847  1.00  0.00    -0.334 N 
ATOM     13  C   UNL A   1      32.950  25.261  21.973  1.00  0.00     0.315 C 
ATOM     14  H   UNL A   1      34.769  25.768  22.405  1.00  0.00     0.165 HD
ATOM     15  O   UNL A   1      33.256  25.218  20.780  1.00  0.00    -0.249 OA
ATOM     16  H   UNL A   1      31.141  24.699  21.542  1.00  0.00     0.165 HD
BRANCH  12  17
ATOM     17  C   UNL A   1      33.989  25.727  24.285  1.00  0.00     0.155 C 
BRANCH  17  18
ATOM     18  C   UNL A   1      33.394  27.009  24.796  1.00  0.00    -0.010 A 
ATOM     19  C   UNL A   1      31.820  30.709  26.220  1.00  0.00     0.066 C 
ATOM     20  C   UNL A   1      32.364  29.395  25.749  1.00  0.00     0.037 A 
ATOM     21  C   UNL A   1      32.201  28.239  26.504  1.00  0.00     0.024 A 
ATOM     22  N   UNL A   1      33.026  29.398  24.569  1.00  0.00    -0.261 NA
ATOM     23  C   UNL A   1      32.723  27.040  26.022  1.00  0.00     0.009 A 
ATOM     24  C   UNL A   1      33.533  28.221  24.130  1.00  0.00     0.116 A 
ENDBRANCH  17  18
ENDBRANCH  12  17
ENDBRANCH  10  11
ENDBRANCH   6  10
ENDBRANCH   3   5
ENDBRANCH   2   3
ENDBRANCH   1   2
BRANCH   1  25
ATOM     25  C   UNL A   1      37.271  20.617  24.792  1.00  0.00     0.275 C 
BRANCH  25  26
ATOM     26  O   UNL A   1      37.776  21.587  25.730  1.00  0.00    -0.458 OA
BRANCH  26  27
ATOM     27  C   UNL A   1      39.018  21.338  26.209  1.00  0.00     0.338 C 
ATOM     28  O   UNL A   1      39.628  20.280  26.143  1.00  0.00    -0.246 OA
BRANCH  27  29
ATOM     29  C   UNL A   1      39.634  22.580  26.710  1.00  0.00     0.060 A 
ATOM     30  C   UNL A   1      39.199  23.792  26.162  1.00  0.00     0.016 A 
ATOM     31  C   UNL A   1      40.663  22.565  27.654  1.00  0.00     0.016 A 
ATOM     32  C   UNL A   1      39.779  24.992  26.561  1.00  0.00     0.010 A 
ATOM     33  C   UNL A   1      41.250  23.772  28.051  1.00  0.00     0.010 A 
ATOM     34  C   UNL A   1      40.813  24.992  27.505  1.00  0.00    -0.014 A 
BRANCH  34  35
ATOM     35  C   UNL A   1      41.453  26.274  27.889  1.00  0.00     0.031 A 
ATOM     36  C   UNL A   1      40.659  27.317  28.621  1.00  0.00     0.074 A 
ATOM     37  C   UNL A   1      42.750  26.484  27.598  1.00  0.00     0.049 A 
ATOM     38  N   UNL A   1      41.012  28.522  28.984  1.00  0.00    -0.248 NA
ATOM     39  C   UNL A   1      39.284  26.952  28.991  1.00  0.00     0.031 C 
ATOM     40  C   UNL A   1      43.630  25.522  26.933  1.00  0.00     0.029 A 
ATOM     41  N   UNL A   1      43.554  27.574  27.819  1.00  0.00    -0.354 N 
ATOM     42  C   UNL A   1      39.902  29.070  29.616  1.00  0.00     0.074 A 
ATOM     43  C   UNL A   1      38.856  28.069  29.563  1.00  0.00     0.031 C 
ATOM     44  C   UNL A   1      44.849  26.068  26.793  1.00  0.00     0.029 A 
ATOM     45  C   UNL A   1      44.824  27.433  27.309  1.00  0.00     0.049 A 
ATOM     46  H   UNL A   1      43.251  28.380  28.296  1.00  0.00     0.167 HD
ATOM     47  C   UNL A   1      39.771  30.294  30.187  1.00  0.00     0.034 A 
ATOM     48  C   UNL A   1      45.838  28.319  27.232  1.00  0.00     0.034 A 
ATOM     49  C   UNL A   1      40.825  31.280  30.223  1.00  0.00     0.049 A 
ATOM     50  C   UNL A   1      45.639  29.703  27.797  1.00  0.00     0.074 A 
ATOM     51  C   UNL A   1      40.808  32.540  30.794  1.00  0.00     0.029 A 
ATOM     52  N   UNL A   1      42.082  31.122  29.653  1.00  0.00    -0.354 N 
ATOM     53  N   UNL A   1      44.584  30.208  28.394  1.00  0.00    -0.248 NA
ATOM     54  C   UNL A   1      46.769  30.634  27.678  1.00  0.00     0.031 C 
ATOM     55  C   UNL A   1      42.025  33.169  30.510  1.00  0.00     0.029 A 
ATOM     56  C   UNL A   1      42.833  32.276  29.825  1.00  0.00     0.049 A 
ATOM     57  H   UNL A   1      42.395  30.310  29.193  1.00  0.00     0.167 HD
ATOM     58  C   UNL A   1      44.931  31.511  28.738  1.00  0.00     0.074 A 
ATOM     59  C   UNL A   1      46.298  31.706  28.300  1.00  0.00     0.031 C 
ATOM     60  C   UNL A   1      44.190  32.461  29.363  1.00  0.00     0.034 A 
BRANCH  47  61
ATOM     61  C   UNL A   1      38.421  30.651  30.759  1.00  0.00     0.023 A 
ATOM     62  C   UNL A   1      37.444  31.318  30.000  1.00  0.00     0.031 A 
ATOM     63  C   UNL A   1      38.117  30.338  32.096  1.00  0.00     0.131 A 
ATOM     64  C   UNL A   1      36.238  31.708  30.601  1.00  0.00     0.055 A 
ATOM     65  C   UNL A   1      36.886  30.665  32.667  1.00  0.00     0.041 A 
ATOM     66  F   UNL A   1      39.019  29.720  32.875  1.00  0.00    -0.206 F 
ATOM     67  C   UNL A   1      35.943  31.366  31.923  1.00  0.00     0.022 A 
BRANCH  64  68
ATOM     68  S   UNL A   1      35.113  32.785  29.671  1.00  0.00     0.124 S 
ATOM     69  O   UNL A   1      34.212  33.251  30.724  1.00  0.00    -0.237 OA
ATOM     70  O   UNL A   1      36.018  33.784  29.117  1.00  0.00    -0.237 OA
ATOM     71  O   UNL A   1      34.503  31.885  28.695  1.00  0.00    -0.744 OA
ENDBRANCH  64  68
ENDBRANCH  47  61
BRANCH  48  72
ATOM     72  C   UNL A   1      47.107  27.952  26.541  1.00  0.00     0.023 A 
ATOM     73  C   UNL A   1      47.234  28.055  25.148  1.00  0.00     0.031 A 
ATOM     74  C   UNL A   1      48.199  27.443  27.268  1.00  0.00     0.131 A 
ATOM     75  C   UNL A   1      48.412  27.619  24.520  1.00  0.00     0.055 A 
ATOM     76  C   UNL A   1      49.387  27.060  26.645  1.00  0.00     0.041 A 
ATOM     77  F   UNL A   1      48.129  27.321  28.603  1.00  0.00    -0.206 F 
ATOM     78  C   UNL A   1      49.494  27.134  25.260  1.00  0.00     0.022 A 
BRANCH  75  79
ATOM     79  S   UNL A   1      48.481  27.617  22.707  1.00  0.00     0.124 S 
ATOM     80  O   UNL A   1      47.257  28.329  22.361  1.00  0.00    -0.237 OA
ATOM     81  O   UNL A   1      49.731  28.326  22.452  1.00  0.00    -0.237 OA
ATOM     82  O   UNL A   1      48.494  26.195  22.369  1.00  0.00    -0.744 OA
ENDBRANCH  75  79
ENDBRANCH  48  72
BRANCH  60  83
ATOM     83  C   UNL A   1      44.864  33.782  29.636  1.00  0.00     0.023 A 
ATOM     84  C   UNL A   1      44.846  34.828  28.697  1.00  0.00     0.031 A 
ATOM     85  C   UNL A   1      45.545  33.992  30.849  1.00  0.00     0.131 A 
ATOM     86  C   UNL A   1      45.542  36.018  28.963  1.00  0.00     0.055 A 
ATOM     87  C   UNL A   1      46.186  35.199  31.132  1.00  0.00     0.041 A 
ATOM     88  F   UNL A   1      45.595  33.026  31.781  1.00  0.00    -0.206 F 
ATOM     89  C   UNL A   1      46.197  36.216  30.181  1.00  0.00     0.022 A 
BRANCH  86  90
ATOM     90  S   UNL A   1      45.647  37.276  27.661  1.00  0.00     0.124 S 
ATOM     91  O   UNL A   1      44.242  37.604  27.442  1.00  0.00    -0.237 OA
ATOM     92  O   UNL A   1      46.453  38.315  28.293  1.00  0.00    -0.237 OA
ATOM     93  O   UNL A   1      46.299  36.573  26.557  1.00  0.00    -0.744 OA
ENDBRANCH  86  90
ENDBRANCH  60  83
ENDBRANCH  34  35
ENDBRANCH  27  29
ENDBRANCH  26  27
ENDBRANCH  25  26
ENDBRANCH   1  25
TORSDOF 18
ENDMDL
MODEL 2
REMARK VINA RESULT:     -11.4      5.197     10.309
REMARK SMILES Cc1ccc(CNC(=O)NC[C@@H]2CC[C@@H](C(=O)OCCOC(=O)c3ccc(-c4c5nc(c(-c6cc(S(=O)(=O)[O-])ccc6F)c6ccc([nH]6)c(-c6cc(S(=O)(=O)[O-])ccc6F)c6nc(c(-c7cc(S(=O)(=O)[O-])ccc7F)c7ccc4[nH]7)C=C6)C=C5)cc3)O2)cn1
REMARK SMILES IDX 19 1 18 2 16 3 17 4 15 5 12 6 13 7 87 8 14 9 11 10 10 11
REMARK SMILES IDX 7 12 8 13 9 15 6 17 5 18 1 19 2 20 3 21 89 22 4 23 88 24
REMARK SMILES IDX 20 25 21 26 22 27 23 28 24 29 25 30 86 31 26 32 85 33 27 34
REMARK SMILES IDX 28 35 29 36 79 37 30 38 84 39 78 40 80 41 31 42 83 43 77 44
REMARK SMILES IDX 76 45 32 47 64 48 44 49 63 50 45 51 48 52 62 53 81 54 46 55
REMARK SMILES IDX 47 56 61 58 82 59 49 60 33 61 34 62 42 63 35 64 41 65 43 66
REMARK SMILES IDX 40 67 36 68 37 69 38 70 39 71 65 72 66 73 74 74 67 75 73 76
REMARK SMILES IDX 75 77 72 78 68 79 69 80 70 81 71 82 50 83 51 84 59 85 52 86
REMARK SMILES IDX 58 87 60 88 57 89 53 90 54 91 55 92 56 93
REMARK H PARENT 7 14 10 16 80 46 48 57
REMARK Flexibility Score: inf
ROOT
ATOM      1  C   UNL A   1      32.611  28.697  25.005  1.00  0.00     0.274 C 
ENDROOT
BRANCH   1   2
ATOM      2  O   UNL A   1      31.530  27.770  24.798  1.00  0.00    -0.460 OA
BRANCH   2   3
ATOM      3  C   UNL A   1      31.365  26.826  25.766  1.00  0.00     0.335 C 
ATOM      4  O   UNL A   1      31.035  27.064  26.923  1.00  0.00    -0.249 OA
BRANCH   3   5
ATOM      5  C   UNL A   1      31.509  25.413  25.191  1.00  0.00     0.228 C 
ATOM      6  C   UNL A   1      30.712  23.225  25.144  1.00  0.00     0.138 C 
ATOM      7  C   UNL A   1      30.750  23.765  23.720  1.00  0.00     0.037 C 
ATOM      8  O   UNL A   1      31.125  24.308  26.015  1.00  0.00    -0.361 OA
ATOM      9  C   UNL A   1      30.682  25.253  23.928  1.00  0.00     0.047 C 
BRANCH   6  10
ATOM     10  C   UNL A   1      31.628  22.006  25.354  1.00  0.00     0.149 C 
BRANCH  10  11
ATOM     11  N   UNL A   1      32.621  22.254  26.388  1.00  0.00    -0.336 N 
ATOM     12  N   UNL A   1      34.478  20.883  25.877  1.00  0.00    -0.334 N 
ATOM     13  C   UNL A   1      33.835  21.761  26.653  1.00  0.00     0.315 C 
ATOM     14  H   UNL A   1      35.356  20.632  26.245  1.00  0.00     0.165 HD
ATOM     15  O   UNL A   1      34.407  22.144  27.676  1.00  0.00    -0.249 OA
ATOM     16  H   UNL A   1      32.336  22.937  27.037  1.00  0.00     0.165 HD
BRANCH  12  17
ATOM     17  C   UNL A   1      34.196  20.212  24.626  1.00  0.00     0.155 C 
BRANCH  17  18
ATOM     18  C   UNL A   1      33.801  18.771  24.792  1.00  0.00    -0.010 A 
ATOM     19  C   UNL A   1      32.625  14.713  25.376  1.00  0.00     0.066 C 
ATOM     20  C   UNL A   1      33.070  16.128  25.166  1.00  0.00     0.037 A 
ATOM     21  C   UNL A   1      34.366  16.419  24.759  1.00  0.00     0.024 A 
ATOM     22  N   UNL A   1      32.154  17.095  25.402  1.00  0.00    -0.261 NA
ATOM     23  C   UNL A   1      34.732  17.752  24.574  1.00  0.00     0.009 A 
ATOM     24  C   UNL A   1      32.539  18.382  25.225  1.00  0.00     0.116 A 
ENDBRANCH  17  18
ENDBRANCH  12  17
ENDBRANCH  10  11
ENDBRANCH   6  10
ENDBRANCH   3   5
ENDBRANCH   2   3
ENDBRANCH   1   2
BRANCH   1  25
ATOM     25  C   UNL A   1      32.094  30.054  25.500  1.00  0.00     0.275 C 
BRANCH  25  26
ATOM     26  O   UNL A   1      32.404  30.287  26.887  1.00  0.00    -0.458 OA
BRANCH  26  27
ATOM     27  C   UNL A   1      33.049  31.448  27.151  1.00  0.00     0.338 C 
ATOM     28  O   UNL A   1      32.599  32.578  27.022  1.00  0.00    -0.246 OA
BRANCH  27  29
ATOM     29  C   UNL A   1      34.358  31.180  27.774  1.00  0.00     0.060 A 
ATOM     30  C   UNL A   1      34.621  29.875  28.202  1.00  0.00     0.016 A 
ATOM     31  C   UNL A   1      35.291  32.195  27.993  1.00  0.00     0.016 A 
ATOM     32  C   UNL A   1      35.820  29.575  28.842  1.00  0.00     0.010 A 
ATOM     33  C   UNL A   1      36.495  31.893  28.642  1.00  0.00     0.010 A 
ATOM     34  C   UNL A   1      36.765  30.582  29.072  1.00  0.00    -0.014 A 
BRANCH  34  35
ATOM     35  C   UNL A   1      38.020  30.258  29.793  1.00  0.00     0.031 A 
ATOM     36  C   UNL A   1      39.006  29.301  29.188  1.00  0.00     0.074 A 
ATOM     37  C   UNL A   1      38.277  30.842  30.978  1.00  0.00     0.049 A 
ATOM     38  N   UNL A   1      40.122  28.837  29.685  1.00  0.00    -0.248 NA
ATOM     39  C   UNL A   1      38.689  28.799  27.843  1.00  0.00     0.031 C 
ATOM     40  C   UNL A   1      37.413  31.823  31.637  1.00  0.00     0.029 A 
ATOM     41  N   UNL A   1      39.334  30.695  31.840  1.00  0.00    -0.354 N 
ATOM     42  C   UNL A   1      40.640  27.978  28.723  1.00  0.00     0.074 A 
ATOM     43  C   UNL A   1      39.699  27.970  27.622  1.00  0.00     0.031 C 
ATOM     44  C   UNL A   1      37.972  32.183  32.804  1.00  0.00     0.029 A 
ATOM     45  C   UNL A   1      39.203  31.423  33.000  1.00  0.00     0.049 A 
ATOM     46  H   UNL A   1      40.112  30.123  31.648  1.00  0.00     0.167 HD
ATOM     47  C   UNL A   1      41.794  27.266  28.758  1.00  0.00     0.034 A 
ATOM     48  C   UNL A   1      39.968  31.444  34.111  1.00  0.00     0.034 A 
ATOM     49  C   UNL A   1      42.716  27.285  29.869  1.00  0.00     0.049 A 
ATOM     50  C   UNL A   1      41.201  30.577  34.160  1.00  0.00     0.074 A 
ATOM     51  C   UNL A   1      43.923  26.620  29.999  1.00  0.00     0.029 A 
ATOM     52  N   UNL A   1      42.527  27.993  31.049  1.00  0.00    -0.354 N 
ATOM     53  N   UNL A   1      41.681  29.770  33.242  1.00  0.00    -0.248 NA
ATOM     54  C   UNL A   1      41.994  30.625  35.395  1.00  0.00     0.031 C 
ATOM     55  C   UNL A   1      44.427  26.872  31.281  1.00  0.00     0.029 A 
ATOM     56  C   UNL A   1      43.574  27.752  31.925  1.00  0.00     0.049 A 
ATOM     57  H   UNL A   1      41.760  28.583  31.236  1.00  0.00     0.167 HD
ATOM     58  C   UNL A   1      42.844  29.229  33.783  1.00  0.00     0.074 A 
ATOM     59  C   UNL A   1      43.002  29.816  35.098  1.00  0.00     0.031 C 
ATOM     60  C   UNL A   1      43.706  28.331  33.242  1.00  0.00     0.034 A 
BRANCH  47  61
ATOM     61  C   UNL A   1      42.086  26.362  27.586  1.00  0.00     0.023 A 
ATOM     62  C   UNL A   1      41.671  25.020  27.559  1.00  0.00     0.031 A 
ATOM     63  C   UNL A   1      42.815  26.848  26.485  1.00  0.00     0.131 A 
ATOM     64  C   UNL A   1      42.042  24.194  26.487  1.00  0.00     0.055 A 
ATOM     65  C   UNL A   1      43.119  26.041  25.388  1.00  0.00     0.041 A 
ATOM     66  F   UNL A   1      43.256  28.116  26.464  1.00  0.00    -0.206 F 
ATOM     67  C   UNL A   1      42.744  24.701  25.391  1.00  0.00     0.022 A 
BRANCH  64  68
ATOM     68  S   UNL A   1      41.711  22.414  26.607  1.00  0.00     0.124 S 
ATOM     69  O   UNL A   1      42.433  22.061  27.827  1.00  0.00    -0.237 OA
ATOM     70  O   UNL A   1      40.256  22.369  26.689  1.00  0.00    -0.237 OA
ATOM     71  O   UNL A   1      42.284  21.875  25.375  1.00  0.00    -0.744 OA
ENDBRANCH  64  68
ENDBRANCH  47  61
BRANCH  48  72
ATOM     72  C   UNL A   1      39.561  32.260  35.290  1.00  0.00     0.023 A 
ATOM     73  C   UNL A   1      38.804  31.706  36.333  1.00  0.00     0.031 A 
ATOM     74  C   UNL A   1      39.887  33.627  35.364  1.00  0.00     0.131 A 
ATOM     75  C   UNL A   1      38.364  32.524  37.386  1.00  0.00     0.055 A 
ATOM     76  C   UNL A   1      39.492  34.424  36.438  1.00  0.00     0.041 A 
ATOM     77  F   UNL A   1      40.608  34.206  34.391  1.00  0.00    -0.206 F 
ATOM     78  C   UNL A   1      38.713  33.875  37.453  1.00  0.00     0.022 A 
BRANCH  75  79
ATOM     79  S   UNL A   1      37.253  31.814  38.632  1.00  0.00     0.124 S 
ATOM     80  O   UNL A   1      38.056  31.923  39.844  1.00  0.00    -0.237 OA
ATOM     81  O   UNL A   1      36.096  32.700  38.546  1.00  0.00    -0.237 OA
ATOM     82  O   UNL A   1      37.028  30.452  38.152  1.00  0.00    -0.744 OA
ENDBRANCH  75  79
ENDBRANCH  48  72
BRANCH  60  83
ATOM     83  C   UNL A   1      44.913  27.962  34.068  1.00  0.00     0.023 A 
ATOM     84  C   UNL A   1      44.900  26.864  34.946  1.00  0.00     0.031 A 
ATOM     85  C   UNL A   1      46.089  28.729  33.985  1.00  0.00     0.131 A 
ATOM     86  C   UNL A   1      46.022  26.595  35.745  1.00  0.00     0.055 A 
ATOM     87  C   UNL A   1      47.222  28.422  34.740  1.00  0.00     0.041 A 
ATOM     88  F   UNL A   1      46.156  29.790  33.164  1.00  0.00    -0.206 F 
ATOM     89  C   UNL A   1      47.187  27.356  35.635  1.00  0.00     0.022 A 
BRANCH  86  90
ATOM     90  S   UNL A   1      45.910  25.281  36.991  1.00  0.00     0.124 S 
ATOM     91  O   UNL A   1      44.543  25.440  37.476  1.00  0.00    -0.237 OA
ATOM     92  O   UNL A   1      46.172  24.080  36.206  1.00  0.00    -0.237 OA
ATOM     93  O   UNL A   1      46.954  25.632  37.953  1.00  0.00    -0.744 OA
ENDBRANCH  86  90
ENDBRANCH  60  83
ENDBRANCH  34  35
ENDBRANCH  27  29
ENDBRANCH  26  27
ENDBRANCH  25  26
ENDBRANCH   1  25
TORSDOF 18
ENDMDL
MODEL 3
REMARK VINA RESULT:     -11.3      0.920      7.562
REMARK SMILES Cc1ccc(CNC(=O)NC[C@@H]2CC[C@@H](C(=O)OCCOC(=O)c3ccc(-c4c5nc(c(-c6cc(S(=O)(=O)[O-])ccc6F)c6ccc([nH]6)c(-c6cc(S(=O)(=O)[O-])ccc6F)c6nc(c(-c7cc(S(=O)(=O)[O-])ccc7F)c7ccc4[nH]7)C=C6)C=C5)cc3)O2)cn1
REMARK SMILES IDX 19 1 18 2 16 3 17 4 15 5 12 6 13 7 87 8 14 9 11 10 10 11
REMARK SMILES IDX 7 12 8 13 9 15 6 17 5 18 1 19 2 20 3 21 89 22 4 23 88 24
REMARK SMILES IDX 20 25 21 26 22 27 23 28 24 29 25 30 86 31 26 32 85 33 27 34
REMARK SMILES IDX 28 35 29 36 79 37 30 38 84 39 78 40 80 41 31 42 83 43 77 44
REMARK SMILES IDX 76 45 32 47 64 48 44 49 63 50 45 51 48 52 62 53 81 54 46 55
REMARK SMILES IDX 47 56 61 58 82 59 49 60 33 61 34 62 42 63 35 64 41 65 43 66
REMARK SMILES IDX 40 67 36 68 37 69 38 70 39 71 65 72 66 73 74 74 67 75 73 76
REMARK SMILES IDX 75 77 72 78 68 79 69 80 70 81 71 82 50 83 51 84 59 85 52 86
REMARK SMILES IDX 58 87 60 88 57 89 53 90 54 91 55 92 56 93
REMARK H PARENT 7 14 10 16 80 46 48 57
REMARK Flexibility Score: inf
ROOT
ATOM      1  C   UNL A   1      35.533  20.517  25.101  1.00  0.00     0.274 C 
ENDROOT
BRANCH   1   2
ATOM      2  O   UNL A   1      35.228  21.863  24.696  1.00  0.00    -0.460 OA
BRANCH   2   3
ATOM      3  C   UNL A   1      34.775  22.690  25.679  1.00  0.00     0.335 C 
ATOM      4  O   UNL A   1      35.388  22.949  26.709  1.00  0.00    -0.249 OA
BRANCH   3   5
ATOM      5  C   UNL A   1      33.464  23.368  25.271  1.00  0.00     0.228 C 
ATOM      6  C   UNL A   1      31.389  23.162  24.232  1.00  0.00     0.138 C 
ATOM      7  C   UNL A   1      31.181  23.697  25.644  1.00  0.00     0.037 C 
ATOM      8  O   UNL A   1      32.809  22.912  24.083  1.00  0.00    -0.361 OA
ATOM      9  C   UNL A   1      32.416  23.226  26.362  1.00  0.00     0.047 C 
BRANCH   6  10
ATOM     10  C   UNL A   1      30.910  24.134  23.140  1.00  0.00     0.149 C 
BRANCH  10  11
ATOM     11  N   UNL A   1      31.979  24.463  22.210  1.00  0.00    -0.336 N 
ATOM     12  N   UNL A   1      31.730  26.754  21.684  1.00  0.00    -0.334 N 
ATOM     13  C   UNL A   1      32.331  25.568  21.546  1.00  0.00     0.315 C 
ATOM     14  H   UNL A   1      32.125  27.443  21.103  1.00  0.00     0.165 HD
ATOM     15  O   UNL A   1      33.277  25.497  20.759  1.00  0.00    -0.249 OA
ATOM     16  H   UNL A   1      32.576  23.702  22.028  1.00  0.00     0.165 HD
BRANCH  12  17
ATOM     17  C   UNL A   1      30.637  27.270  22.481  1.00  0.00     0.155 C 
BRANCH  17  18
ATOM     18  C   UNL A   1      31.081  27.956  23.742  1.00  0.00    -0.010 A 
ATOM     19  C   UNL A   1      32.402  29.995  27.248  1.00  0.00     0.066 C 
ATOM     20  C   UNL A   1      31.952  29.250  26.028  1.00  0.00     0.037 A 
ATOM     21  C   UNL A   1      32.121  27.875  25.925  1.00  0.00     0.024 A 
ATOM     22  N   UNL A   1      31.391  29.984  25.040  1.00  0.00    -0.261 NA
ATOM     23  C   UNL A   1      31.684  27.226  24.771  1.00  0.00     0.009 A 
ATOM     24  C   UNL A   1      30.984  29.330  23.925  1.00  0.00     0.116 A 
ENDBRANCH  17  18
ENDBRANCH  12  17
ENDBRANCH  10  11
ENDBRANCH   6  10
ENDBRANCH   3   5
ENDBRANCH   2   3
ENDBRANCH   1   2
BRANCH   1  25
ATOM     25  C   UNL A   1      37.034  20.225  24.979  1.00  0.00     0.275 C 
BRANCH  25  26
ATOM     26  O   UNL A   1      37.843  21.383  25.265  1.00  0.00    -0.458 OA
BRANCH  26  27
ATOM     27  C   UNL A   1      38.904  21.164  26.078  1.00  0.00     0.338 C 
ATOM     28  O   UNL A   1      39.405  20.082  26.349  1.00  0.00    -0.246 OA
BRANCH  27  29
ATOM     29  C   UNL A   1      39.500  22.444  26.502  1.00  0.00     0.060 A 
ATOM     30  C   UNL A   1      38.898  23.624  26.053  1.00  0.00     0.016 A 
ATOM     31  C   UNL A   1      40.662  22.496  27.273  1.00  0.00     0.016 A 
ATOM     32  C   UNL A   1      39.447  24.861  26.381  1.00  0.00     0.010 A 
ATOM     33  C   UNL A   1      41.216  23.740  27.598  1.00  0.00     0.010 A 
ATOM     34  C   UNL A   1      40.613  24.929  27.152  1.00  0.00    -0.014 A 
BRANCH  34  35
ATOM     35  C   UNL A   1      41.212  26.252  27.457  1.00  0.00     0.031 A 
ATOM     36  C   UNL A   1      42.611  26.561  27.008  1.00  0.00     0.074 A 
ATOM     37  C   UNL A   1      40.487  27.175  28.116  1.00  0.00     0.049 A 
ATOM     38  N   UNL A   1      43.335  27.626  27.233  1.00  0.00    -0.248 NA
ATOM     39  C   UNL A   1      43.282  25.532  26.201  1.00  0.00     0.031 C 
ATOM     40  C   UNL A   1      39.102  26.999  28.556  1.00  0.00     0.029 A 
ATOM     41  N   UNL A   1      40.813  28.440  28.534  1.00  0.00    -0.354 N 
ATOM     42  C   UNL A   1      44.555  27.396  26.607  1.00  0.00     0.074 A 
ATOM     43  C   UNL A   1      44.476  26.076  26.013  1.00  0.00     0.031 C 
ATOM     44  C   UNL A   1      38.701  28.113  29.190  1.00  0.00     0.029 A 
ATOM     45  C   UNL A   1      39.812  29.059  29.247  1.00  0.00     0.049 A 
ATOM     46  H   UNL A   1      41.680  28.865  28.343  1.00  0.00     0.167 HD
ATOM     47  C   UNL A   1      45.636  28.212  26.534  1.00  0.00     0.034 A 
ATOM     48  C   UNL A   1      39.806  30.236  29.904  1.00  0.00     0.034 A 
ATOM     49  C   UNL A   1      45.695  29.522  27.138  1.00  0.00     0.049 A 
ATOM     50  C   UNL A   1      41.051  31.088  29.881  1.00  0.00     0.074 A 
ATOM     51  C   UNL A   1      46.731  30.439  27.107  1.00  0.00     0.029 A 
ATOM     52  N   UNL A   1      44.682  30.096  27.896  1.00  0.00    -0.354 N 
ATOM     53  N   UNL A   1      42.197  30.859  29.283  1.00  0.00    -0.248 NA
ATOM     54  C   UNL A   1      40.999  32.355  30.621  1.00  0.00     0.031 C 
ATOM     55  C   UNL A   1      46.372  31.535  27.901  1.00  0.00     0.029 A 
ATOM     56  C   UNL A   1      45.083  31.337  28.368  1.00  0.00     0.049 A 
ATOM     57  H   UNL A   1      43.806  29.682  28.071  1.00  0.00     0.167 HD
ATOM     58  C   UNL A   1      42.997  31.965  29.560  1.00  0.00     0.074 A 
ATOM     59  C   UNL A   1      42.194  32.866  30.362  1.00  0.00     0.031 C 
ATOM     60  C   UNL A   1      44.276  32.215  29.184  1.00  0.00     0.034 A 
BRANCH  47  61
ATOM     61  C   UNL A   1      46.859  27.680  25.829  1.00  0.00     0.023 A 
ATOM     62  C   UNL A   1      47.143  27.997  24.490  1.00  0.00     0.031 A 
ATOM     63  C   UNL A   1      47.744  26.820  26.505  1.00  0.00     0.131 A 
ATOM     64  C   UNL A   1      48.244  27.407  23.850  1.00  0.00     0.055 A 
ATOM     65  C   UNL A   1      48.878  26.294  25.884  1.00  0.00     0.041 A 
ATOM     66  F   UNL A   1      47.513  26.465  27.779  1.00  0.00    -0.206 F 
ATOM     67  C   UNL A   1      49.127  26.576  24.544  1.00  0.00     0.022 A 
BRANCH  64  68
ATOM     68  S   UNL A   1      48.433  27.636  22.060  1.00  0.00     0.124 S 
ATOM     69  O   UNL A   1      47.145  28.223  21.700  1.00  0.00    -0.237 OA
ATOM     70  O   UNL A   1      49.586  28.524  21.975  1.00  0.00    -0.237 OA
ATOM     71  O   UNL A   1      48.652  26.279  21.562  1.00  0.00    -0.744 OA
ENDBRANCH  64  68
ENDBRANCH  47  61
BRANCH  48  72
ATOM     72  C   UNL A   1      38.611  30.653  30.691  1.00  0.00     0.023 A 
ATOM     73  C   UNL A   1      37.558  31.365  30.096  1.00  0.00     0.031 A 
ATOM     74  C   UNL A   1      38.530  30.383  32.070  1.00  0.00     0.131 A 
ATOM     75  C   UNL A   1      36.488  31.818  30.885  1.00  0.00     0.055 A 
ATOM     76  C   UNL A   1      37.439  30.790  32.839  1.00  0.00     0.041 A 
ATOM     77  F   UNL A   1      39.511  29.708  32.688  1.00  0.00    -0.206 F 
ATOM     78  C   UNL A   1      36.415  31.524  32.249  1.00  0.00     0.022 A 
BRANCH  75  79
ATOM     79  S   UNL A   1      35.228  32.872  30.116  1.00  0.00     0.124 S 
ATOM     80  O   UNL A   1      34.615  31.956  29.162  1.00  0.00    -0.237 OA
ATOM     81  O   UNL A   1      34.407  33.247  31.264  1.00  0.00    -0.237 OA
ATOM     82  O   UNL A   1      36.006  33.960  29.528  1.00  0.00    -0.744 OA
ENDBRANCH  75  79
ENDBRANCH  48  72
BRANCH  60  83
ATOM     83  C   UNL A   1      44.867  33.535  29.612  1.00  0.00     0.023 A 
ATOM     84  C   UNL A   1      44.766  34.685  28.809  1.00  0.00     0.031 A 
ATOM     85  C   UNL A   1      45.553  33.640  30.835  1.00  0.00     0.131 A 
ATOM     86  C   UNL A   1      45.387  35.876  29.214  1.00  0.00     0.055 A 
ATOM     87  C   UNL A   1      46.120  34.843  31.259  1.00  0.00     0.041 A 
ATOM     88  F   UNL A   1      45.682  32.572  31.640  1.00  0.00    -0.206 F 
ATOM     89  C   UNL A   1      46.048  35.967  30.441  1.00  0.00     0.022 A 
BRANCH  86  90
ATOM     90  S   UNL A   1      45.388  37.289  28.076  1.00  0.00     0.124 S 
ATOM     91  O   UNL A   1      46.813  37.466  27.813  1.00  0.00    -0.237 OA
ATOM     92  O   UNL A   1      44.591  36.794  26.960  1.00  0.00    -0.237 OA
ATOM     93  O   UNL A   1      44.765  38.357  28.856  1.00  0.00    -0.744 OA
ENDBRANCH  86  90
ENDBRANCH  60  83
ENDBRANCH  34  35
ENDBRANCH  27  29
ENDBRANCH  26  27
ENDBRANCH  25  26
ENDBRANCH   1  25
TORSDOF 18
ENDMDL
