MODEL 1
REMARK VINA RESULT:      -9.9      0.000      0.000
REMARK SMILES C=C(C)C(=O)OCC[C@@H](C(C)=O)C(=O)OCCOC(=O)c1ccc(-c2c3nc(c(-c4cc(S(=O)(=O)[O-])ccc4F)c4ccc([nH]4)c(-c4cc(S(=O)(=O)[O-])ccc4F)c4nc(c(-c5cc(S(=O)(=O)[O-])ccc5F)c5ccc2[nH]5)C=C4)C=C3)cc1
REMARK SMILES IDX 16 1 15 2 13 3 14 4 9 5 8 6 7 7 6 8 4 9 5 10 2 11 1 12 3 13
REMARK SMILES IDX 10 14 11 15 12 16 17 17 18 18 19 19 20 20 21 21 22 22 83 23
REMARK SMILES IDX 23 24 82 25 24 26 25 27 26 28 76 29 27 30 81 31 75 32 77 33
REMARK SMILES IDX 28 34 80 35 74 36 73 37 29 39 61 40 41 41 60 42 42 43 45 44
REMARK SMILES IDX 59 45 78 46 43 47 44 48 58 50 79 51 46 52 30 53 31 54 39 55
REMARK SMILES IDX 32 56 38 57 40 58 37 59 33 60 34 61 35 62 36 63 62 64 63 65
REMARK SMILES IDX 71 66 64 67 70 68 72 69 69 70 65 71 66 72 67 73 68 74 47 75
REMARK SMILES IDX 48 76 56 77 49 78 55 79 57 80 54 81 50 82 51 83 52 84 53 85
REMARK H PARENT 77 38 45 49
REMARK Flexibility Score: inf
ROOT
ATOM      1  C   UNL A   1      35.599  22.757  25.918  1.00  0.00     0.274 C 
ENDROOT
BRANCH   1   2
ATOM      2  O   UNL A   1      34.427  22.472  26.706  1.00  0.00    -0.462 OA
BRANCH   2   3
ATOM      3  C   UNL A   1      33.267  23.018  26.253  1.00  0.00     0.316 C 
ATOM      4  O   UNL A   1      32.322  23.333  26.966  1.00  0.00    -0.251 OA
BRANCH   3   5
ATOM      5  C   UNL A   1      33.206  23.105  24.747  1.00  0.00     0.169 C 
BRANCH   5   6
ATOM      6  C   UNL A   1      32.325  22.004  24.136  1.00  0.00     0.065 C 
BRANCH   6   7
ATOM      7  C   UNL A   1      32.214  20.751  25.008  1.00  0.00     0.234 C 
BRANCH   7   8
ATOM      8  O   UNL A   1      33.148  19.740  24.583  1.00  0.00    -0.462 OA
BRANCH   8   9
ATOM      9  C   UNL A   1      32.745  18.449  24.680  1.00  0.00     0.333 C 
ATOM     10  O   UNL A   1      32.153  17.960  25.630  1.00  0.00    -0.247 OA
BRANCH   9  11
ATOM     11  C   UNL A   1      33.078  17.719  23.429  1.00  0.00     0.027 C 
ATOM     12  C   UNL A   1      32.464  18.102  22.296  1.00  0.00     0.020 C 
ATOM     13  C   UNL A   1      34.045  16.577  23.487  1.00  0.00     0.051 C 
ENDBRANCH   9  11
ENDBRANCH   8   9
ENDBRANCH   7   8
ENDBRANCH   6   7
ENDBRANCH   5   6
BRANCH   5  14
ATOM     14  C   UNL A   1      32.793  24.502  24.312  1.00  0.00     0.144 C 
ATOM     15  C   UNL A   1      33.698  25.644  24.710  1.00  0.00     0.088 C 
ATOM     16  O   UNL A   1      31.778  24.715  23.646  1.00  0.00    -0.299 OA
ENDBRANCH   5  14
ENDBRANCH   3   5
ENDBRANCH   2   3
ENDBRANCH   1   2
BRANCH   1  17
ATOM     17  C   UNL A   1      36.492  21.527  25.742  1.00  0.00     0.275 C 
BRANCH  17  18
ATOM     18  O   UNL A   1      37.778  21.877  25.201  1.00  0.00    -0.458 OA
BRANCH  18  19
ATOM     19  C   UNL A   1      38.837  21.538  25.975  1.00  0.00     0.338 C 
ATOM     20  O   UNL A   1      39.311  20.427  26.128  1.00  0.00    -0.246 OA
BRANCH  19  21
ATOM     21  C   UNL A   1      39.426  22.754  26.552  1.00  0.00     0.060 A 
ATOM     22  C   UNL A   1      39.044  23.994  26.034  1.00  0.00     0.016 A 
ATOM     23  C   UNL A   1      40.408  22.669  27.539  1.00  0.00     0.016 A 
ATOM     24  C   UNL A   1      39.649  25.157  26.502  1.00  0.00     0.010 A 
ATOM     25  C   UNL A   1      41.009  23.842  28.010  1.00  0.00     0.010 A 
ATOM     26  C   UNL A   1      40.640  25.094  27.486  1.00  0.00    -0.014 A 
BRANCH  26  27
ATOM     27  C   UNL A   1      41.326  26.333  27.931  1.00  0.00     0.031 A 
ATOM     28  C   UNL A   1      40.556  27.385  28.677  1.00  0.00     0.074 A 
ATOM     29  C   UNL A   1      42.637  26.509  27.676  1.00  0.00     0.049 A 
ATOM     30  N   UNL A   1      40.924  28.589  29.029  1.00  0.00    -0.248 NA
ATOM     31  C   UNL A   1      39.187  27.029  29.076  1.00  0.00     0.031 C 
ATOM     32  C   UNL A   1      43.507  25.530  27.021  1.00  0.00     0.029 A 
ATOM     33  N   UNL A   1      43.462  27.576  27.927  1.00  0.00    -0.354 N 
ATOM     34  C   UNL A   1      39.824  29.150  29.670  1.00  0.00     0.074 A 
ATOM     35  C   UNL A   1      38.772  28.155  29.642  1.00  0.00     0.031 C 
ATOM     36  C   UNL A   1      44.741  26.048  26.912  1.00  0.00     0.029 A 
ATOM     37  C   UNL A   1      44.735  27.414  27.428  1.00  0.00     0.049 A 
ATOM     38  H   UNL A   1      43.173  28.379  28.416  1.00  0.00     0.167 HD
ATOM     39  C   UNL A   1      39.708  30.382  30.226  1.00  0.00     0.034 A 
ATOM     40  C   UNL A   1      45.761  28.283  27.350  1.00  0.00     0.034 A 
ATOM     41  C   UNL A   1      40.769  31.359  30.247  1.00  0.00     0.049 A 
ATOM     42  C   UNL A   1      45.578  29.681  27.888  1.00  0.00     0.074 A 
ATOM     43  C   UNL A   1      40.764  32.629  30.796  1.00  0.00     0.029 A 
ATOM     44  N   UNL A   1      42.026  31.179  29.681  1.00  0.00    -0.354 N 
ATOM     45  N   UNL A   1      44.524  30.212  28.463  1.00  0.00    -0.248 NA
ATOM     46  C   UNL A   1      46.718  30.596  27.755  1.00  0.00     0.031 C 
ATOM     47  C   UNL A   1      41.989  33.240  30.507  1.00  0.00     0.029 A 
ATOM     48  C   UNL A   1      42.788  32.328  29.839  1.00  0.00     0.049 A 
ATOM     49  H   UNL A   1      42.331  30.358  29.234  1.00  0.00     0.167 HD
ATOM     50  C   UNL A   1      44.884  31.519  28.778  1.00  0.00     0.074 A 
ATOM     51  C   UNL A   1      46.254  31.691  28.342  1.00  0.00     0.031 C 
ATOM     52  C   UNL A   1      44.148  32.490  29.379  1.00  0.00     0.034 A 
BRANCH  39  53
ATOM     53  C   UNL A   1      38.362  30.757  30.798  1.00  0.00     0.023 A 
ATOM     54  C   UNL A   1      37.379  31.399  30.026  1.00  0.00     0.031 A 
ATOM     55  C   UNL A   1      38.073  30.495  32.149  1.00  0.00     0.131 A 
ATOM     56  C   UNL A   1      36.181  31.817  30.627  1.00  0.00     0.055 A 
ATOM     57  C   UNL A   1      36.850  30.848  32.722  1.00  0.00     0.041 A 
ATOM     58  F   UNL A   1      38.982  29.905  32.940  1.00  0.00    -0.206 F 
ATOM     59  C   UNL A   1      35.901  31.527  31.964  1.00  0.00     0.022 A 
BRANCH  56  60
ATOM     60  S   UNL A   1      35.056  32.873  29.673  1.00  0.00     0.124 S 
ATOM     61  O   UNL A   1      34.191  33.409  30.722  1.00  0.00    -0.237 OA
ATOM     62  O   UNL A   1      35.969  33.824  29.051  1.00  0.00    -0.237 OA
ATOM     63  O   UNL A   1      34.405  31.940  28.756  1.00  0.00    -0.744 OA
ENDBRANCH  56  60
ENDBRANCH  39  53
BRANCH  40  64
ATOM     64  C   UNL A   1      47.029  27.890  26.672  1.00  0.00     0.023 A 
ATOM     65  C   UNL A   1      47.162  27.959  25.277  1.00  0.00     0.031 A 
ATOM     66  C   UNL A   1      48.118  27.397  27.415  1.00  0.00     0.131 A 
ATOM     67  C   UNL A   1      48.343  27.512  24.665  1.00  0.00     0.055 A 
ATOM     68  C   UNL A   1      49.308  27.000  26.806  1.00  0.00     0.041 A 
ATOM     69  F   UNL A   1      48.042  27.305  28.752  1.00  0.00    -0.206 F 
ATOM     70  C   UNL A   1      49.422  27.046  25.420  1.00  0.00     0.022 A 
BRANCH  67  71
ATOM     71  S   UNL A   1      48.423  27.475  22.853  1.00  0.00     0.124 S 
ATOM     72  O   UNL A   1      47.212  28.201  22.487  1.00  0.00    -0.237 OA
ATOM     73  O   UNL A   1      49.685  28.159  22.592  1.00  0.00    -0.237 OA
ATOM     74  O   UNL A   1      48.415  26.048  22.540  1.00  0.00    -0.744 OA
ENDBRANCH  67  71
ENDBRANCH  40  64
BRANCH  52  75
ATOM     75  C   UNL A   1      44.833  33.810  29.628  1.00  0.00     0.023 A 
ATOM     76  C   UNL A   1      45.553  34.058  30.811  1.00  0.00     0.031 A 
ATOM     77  C   UNL A   1      44.755  34.838  28.672  1.00  0.00     0.131 A 
ATOM     78  C   UNL A   1      46.129  35.319  31.026  1.00  0.00     0.055 A 
ATOM     79  C   UNL A   1      45.375  36.073  28.869  1.00  0.00     0.041 A 
ATOM     80  F   UNL A   1      44.078  34.656  27.527  1.00  0.00    -0.206 F 
ATOM     81  C   UNL A   1      46.057  36.322  30.056  1.00  0.00     0.022 A 
BRANCH  78  82
ATOM     82  S   UNL A   1      46.915  35.657  32.625  1.00  0.00     0.124 S 
ATOM     83  O   UNL A   1      48.098  34.804  32.568  1.00  0.00    -0.237 OA
ATOM     84  O   UNL A   1      47.162  37.094  32.557  1.00  0.00    -0.237 OA
ATOM     85  O   UNL A   1      45.903  35.250  33.599  1.00  0.00    -0.744 OA
ENDBRANCH  78  82
ENDBRANCH  52  75
ENDBRANCH  26  27
ENDBRANCH  19  21
ENDBRANCH  18  19
ENDBRANCH  17  18
ENDBRANCH   1  17
TORSDOF 20
ENDMDL
MODEL 2
REMARK VINA RESULT:      -9.7      2.302      3.584
REMARK SMILES C=C(C)C(=O)OCC[C@@H](C(C)=O)C(=O)OCCOC(=O)c1ccc(-c2c3nc(c(-c4cc(S(=O)(=O)[O-])ccc4F)c4ccc([nH]4)c(-c4cc(S(=O)(=O)[O-])ccc4F)c4nc(c(-c5cc(S(=O)(=O)[O-])ccc5F)c5ccc2[nH]5)C=C4)C=C3)cc1
REMARK SMILES IDX 16 1 15 2 13 3 14 4 9 5 8 6 7 7 6 8 4 9 5 10 2 11 1 12 3 13
REMARK SMILES IDX 10 14 11 15 12 16 17 17 18 18 19 19 20 20 21 21 22 22 83 23
REMARK SMILES IDX 23 24 82 25 24 26 25 27 26 28 76 29 27 30 81 31 75 32 77 33
REMARK SMILES IDX 28 34 80 35 74 36 73 37 29 39 61 40 41 41 60 42 42 43 45 44
REMARK SMILES IDX 59 45 78 46 43 47 44 48 58 50 79 51 46 52 30 53 31 54 39 55
REMARK SMILES IDX 32 56 38 57 40 58 37 59 33 60 34 61 35 62 36 63 62 64 63 65
REMARK SMILES IDX 71 66 64 67 70 68 72 69 69 70 65 71 66 72 67 73 68 74 47 75
REMARK SMILES IDX 48 76 56 77 49 78 55 79 57 80 54 81 50 82 51 83 52 84 53 85
REMARK H PARENT 77 38 45 49
REMARK Flexibility Score: inf
ROOT
ATOM      1  C   UNL A   1      35.383  22.661  24.367  1.00  0.00     0.274 C 
ENDROOT
BRANCH   1   2
ATOM      2  O   UNL A   1      35.250  23.322  23.093  1.00  0.00    -0.462 OA
BRANCH   2   3
ATOM      3  C   UNL A   1      33.978  23.609  22.710  1.00  0.00     0.316 C 
ATOM      4  O   UNL A   1      33.536  23.436  21.581  1.00  0.00    -0.251 OA
BRANCH   3   5
ATOM      5  C   UNL A   1      33.171  24.274  23.799  1.00  0.00     0.169 C 
BRANCH   5   6
ATOM      6  C   UNL A   1      33.881  25.509  24.378  1.00  0.00     0.065 C 
BRANCH   6   7
ATOM      7  C   UNL A   1      33.495  25.816  25.827  1.00  0.00     0.234 C 
BRANCH   7   8
ATOM      8  O   UNL A   1      33.198  27.214  25.999  1.00  0.00    -0.462 OA
BRANCH   8   9
ATOM      9  C   UNL A   1      31.905  27.546  26.238  1.00  0.00     0.333 C 
ATOM     10  O   UNL A   1      31.057  26.805  26.710  1.00  0.00    -0.247 OA
BRANCH   9  11
ATOM     11  C   UNL A   1      31.677  28.975  25.894  1.00  0.00     0.027 C 
ATOM     12  C   UNL A   1      31.100  29.252  24.713  1.00  0.00     0.020 C 
ATOM     13  C   UNL A   1      32.128  30.034  26.850  1.00  0.00     0.051 C 
ENDBRANCH   9  11
ENDBRANCH   8   9
ENDBRANCH   7   8
ENDBRANCH   6   7
ENDBRANCH   5   6
BRANCH   5  14
ATOM     14  C   UNL A   1      31.765  24.578  23.309  1.00  0.00     0.144 C 
ATOM     15  C   UNL A   1      31.591  25.786  22.418  1.00  0.00     0.088 C 
ATOM     16  O   UNL A   1      30.796  23.873  23.597  1.00  0.00    -0.299 OA
ENDBRANCH   5  14
ENDBRANCH   3   5
ENDBRANCH   2   3
ENDBRANCH   1   2
BRANCH   1  17
ATOM     17  C   UNL A   1      36.557  21.680  24.391  1.00  0.00     0.275 C 
BRANCH  17  18
ATOM     18  O   UNL A   1      37.068  21.493  25.722  1.00  0.00    -0.458 OA
BRANCH  18  19
ATOM     19  C   UNL A   1      38.393  21.224  25.795  1.00  0.00     0.338 C 
ATOM     20  O   UNL A   1      38.963  20.221  25.405  1.00  0.00    -0.246 OA
BRANCH  19  21
ATOM     21  C   UNL A   1      39.098  22.395  26.336  1.00  0.00     0.060 A 
ATOM     22  C   UNL A   1      38.637  23.669  25.997  1.00  0.00     0.016 A 
ATOM     23  C   UNL A   1      40.252  22.238  27.105  1.00  0.00     0.016 A 
ATOM     24  C   UNL A   1      39.335  24.795  26.425  1.00  0.00     0.010 A 
ATOM     25  C   UNL A   1      40.947  23.373  27.537  1.00  0.00     0.010 A 
ATOM     26  C   UNL A   1      40.498  24.660  27.191  1.00  0.00    -0.014 A 
BRANCH  26  27
ATOM     27  C   UNL A   1      41.272  25.863  27.586  1.00  0.00     0.031 A 
ATOM     28  C   UNL A   1      40.625  26.922  28.433  1.00  0.00     0.074 A 
ATOM     29  C   UNL A   1      42.554  26.001  27.196  1.00  0.00     0.049 A 
ATOM     30  N   UNL A   1      41.071  28.103  28.769  1.00  0.00    -0.248 NA
ATOM     31  C   UNL A   1      39.293  26.603  28.968  1.00  0.00     0.031 C 
ATOM     32  C   UNL A   1      43.313  25.011  26.431  1.00  0.00     0.029 A 
ATOM     33  N   UNL A   1      43.439  27.033  27.380  1.00  0.00    -0.354 N 
ATOM     34  C   UNL A   1      40.067  28.685  29.536  1.00  0.00     0.074 A 
ATOM     35  C   UNL A   1      38.982  27.727  29.599  1.00  0.00     0.031 C 
ATOM     36  C   UNL A   1      44.546  25.489  26.201  1.00  0.00     0.029 A 
ATOM     37  C   UNL A   1      44.645  26.841  26.744  1.00  0.00     0.049 A 
ATOM     38  H   UNL A   1      43.233  27.833  27.915  1.00  0.00     0.167 HD
ATOM     39  C   UNL A   1      40.055  29.905  30.128  1.00  0.00     0.034 A 
ATOM     40  C   UNL A   1      45.688  27.676  26.575  1.00  0.00     0.034 A 
ATOM     41  C   UNL A   1      41.147  30.845  30.055  1.00  0.00     0.049 A 
ATOM     42  C   UNL A   1      45.614  29.065  27.160  1.00  0.00     0.074 A 
ATOM     43  C   UNL A   1      41.246  32.101  30.630  1.00  0.00     0.029 A 
ATOM     44  N   UNL A   1      42.330  30.638  29.355  1.00  0.00    -0.354 N 
ATOM     45  N   UNL A   1      44.647  29.617  27.856  1.00  0.00    -0.248 NA
ATOM     46  C   UNL A   1      46.766  29.945  26.926  1.00  0.00     0.031 C 
ATOM     47  C   UNL A   1      42.456  32.677  30.225  1.00  0.00     0.029 A 
ATOM     48  C   UNL A   1      43.146  31.755  29.455  1.00  0.00     0.049 A 
ATOM     49  H   UNL A   1      42.555  29.818  28.860  1.00  0.00     0.167 HD
ATOM     50  C   UNL A   1      45.086  30.903  28.159  1.00  0.00     0.074 A 
ATOM     51  C   UNL A   1      46.407  31.039  27.582  1.00  0.00     0.031 C 
ATOM     52  C   UNL A   1      44.454  31.883  28.856  1.00  0.00     0.034 A 
BRANCH  39  53
ATOM     53  C   UNL A   1      38.792  30.312  30.848  1.00  0.00     0.023 A 
ATOM     54  C   UNL A   1      37.711  30.906  30.176  1.00  0.00     0.031 A 
ATOM     55  C   UNL A   1      38.684  30.129  32.238  1.00  0.00     0.131 A 
ATOM     56  C   UNL A   1      36.598  31.357  30.903  1.00  0.00     0.055 A 
ATOM     57  C   UNL A   1      37.544  30.512  32.946  1.00  0.00     0.041 A 
ATOM     58  F   UNL A   1      39.695  29.587  32.937  1.00  0.00    -0.206 F 
ATOM     59  C   UNL A   1      36.497  31.145  32.280  1.00  0.00     0.022 A 
BRANCH  56  60
ATOM     60  S   UNL A   1      35.348  32.353  30.046  1.00  0.00     0.124 S 
ATOM     61  O   UNL A   1      34.381  32.599  31.113  1.00  0.00    -0.237 OA
ATOM     62  O   UNL A   1      36.118  33.510  29.603  1.00  0.00    -0.237 OA
ATOM     63  O   UNL A   1      34.878  31.471  28.980  1.00  0.00    -0.744 OA
ENDBRANCH  56  60
ENDBRANCH  39  53
BRANCH  40  64
ATOM     64  C   UNL A   1      46.862  27.258  25.758  1.00  0.00     0.023 A 
ATOM     65  C   UNL A   1      47.039  27.723  24.446  1.00  0.00     0.031 A 
ATOM     66  C   UNL A   1      47.805  26.347  26.268  1.00  0.00     0.131 A 
ATOM     67  C   UNL A   1      48.115  27.251  23.678  1.00  0.00     0.055 A 
ATOM     68  C   UNL A   1      48.901  25.920  25.519  1.00  0.00     0.041 A 
ATOM     69  F   UNL A   1      47.680  25.868  27.517  1.00  0.00    -0.206 F 
ATOM     70  C   UNL A   1      49.055  26.365  24.209  1.00  0.00     0.022 A 
BRANCH  67  71
ATOM     71  S   UNL A   1      48.230  27.756  21.939  1.00  0.00     0.124 S 
ATOM     72  O   UNL A   1      46.909  28.332  21.710  1.00  0.00    -0.237 OA
ATOM     73  O   UNL A   1      49.343  28.698  21.970  1.00  0.00    -0.237 OA
ATOM     74  O   UNL A   1      48.496  26.503  21.237  1.00  0.00    -0.744 OA
ENDBRANCH  67  71
ENDBRANCH  40  64
BRANCH  52  75
ATOM     75  C   UNL A   1      45.209  33.172  29.059  1.00  0.00     0.023 A 
ATOM     76  C   UNL A   1      45.104  34.241  28.151  1.00  0.00     0.031 A 
ATOM     77  C   UNL A   1      46.054  33.329  30.171  1.00  0.00     0.131 A 
ATOM     78  C   UNL A   1      45.866  35.403  28.349  1.00  0.00     0.055 A 
ATOM     79  C   UNL A   1      46.770  34.507  30.391  1.00  0.00     0.041 A 
ATOM     80  F   UNL A   1      46.194  32.338  31.067  1.00  0.00    -0.206 F 
ATOM     81  C   UNL A   1      46.686  35.547  29.471  1.00  0.00     0.022 A 
BRANCH  78  82
ATOM     82  S   UNL A   1      45.827  36.698  27.080  1.00  0.00     0.124 S 
ATOM     83  O   UNL A   1      46.292  35.979  25.898  1.00  0.00    -0.237 OA
ATOM     84  O   UNL A   1      44.422  37.092  27.076  1.00  0.00    -0.237 OA
ATOM     85  O   UNL A   1      46.751  37.710  27.594  1.00  0.00    -0.744 OA
ENDBRANCH  78  82
ENDBRANCH  52  75
ENDBRANCH  26  27
ENDBRANCH  19  21
ENDBRANCH  18  19
ENDBRANCH  17  18
ENDBRANCH   1  17
TORSDOF 20
ENDMDL
MODEL 3
REMARK VINA RESULT:      -9.7      3.907      9.691
REMARK SMILES C=C(C)C(=O)OCC[C@@H](C(C)=O)C(=O)OCCOC(=O)c1ccc(-c2c3nc(c(-c4cc(S(=O)(=O)[O-])ccc4F)c4ccc([nH]4)c(-c4cc(S(=O)(=O)[O-])ccc4F)c4nc(c(-c5cc(S(=O)(=O)[O-])ccc5F)c5ccc2[nH]5)C=C4)C=C3)cc1
REMARK SMILES IDX 16 1 15 2 13 3 14 4 9 5 8 6 7 7 6 8 4 9 5 10 2 11 1 12 3 13
REMARK SMILES IDX 10 14 11 15 12 16 17 17 18 18 19 19 20 20 21 21 22 22 83 23
REMARK SMILES IDX 23 24 82 25 24 26 25 27 26 28 76 29 27 30 81 31 75 32 77 33
REMARK SMILES IDX 28 34 80 35 74 36 73 37 29 39 61 40 41 41 60 42 42 43 45 44
REMARK SMILES IDX 59 45 78 46 43 47 44 48 58 50 79 51 46 52 30 53 31 54 39 55
REMARK SMILES IDX 32 56 38 57 40 58 37 59 33 60 34 61 35 62 36 63 62 64 63 65
REMARK SMILES IDX 71 66 64 67 70 68 72 69 69 70 65 71 66 72 67 73 68 74 47 75
REMARK SMILES IDX 48 76 56 77 49 78 55 79 57 80 54 81 50 82 51 83 52 84 53 85
REMARK H PARENT 77 38 45 49
REMARK Flexibility Score: inf
ROOT
ATOM      1  C   UNL A   1      42.214  21.504  26.525  1.00  0.00     0.274 C 
ENDROOT
BRANCH   1   2
ATOM      2  O   UNL A   1      42.516  22.727  25.826  1.00  0.00    -0.462 OA
BRANCH   2   3
ATOM      3  C   UNL A   1      43.288  23.616  26.504  1.00  0.00     0.316 C 
ATOM      4  O   UNL A   1      43.009  24.083  27.603  1.00  0.00    -0.251 OA
BRANCH   3   5
ATOM      5  C   UNL A   1      44.494  24.070  25.717  1.00  0.00     0.169 C 
BRANCH   5   6
ATOM      6  C   UNL A   1      44.869  23.079  24.604  1.00  0.00     0.065 C 
BRANCH   6   7
ATOM      7  C   UNL A   1      46.205  22.369  24.838  1.00  0.00     0.234 C 
BRANCH   7   8
ATOM      8  O   UNL A   1      46.010  21.103  25.496  1.00  0.00    -0.462 OA
BRANCH   8   9
ATOM      9  C   UNL A   1      46.349  19.988  24.801  1.00  0.00     0.333 C 
ATOM     10  O   UNL A   1      47.487  19.583  24.621  1.00  0.00    -0.247 OA
BRANCH   9  11
ATOM     11  C   UNL A   1      45.122  19.289  24.335  1.00  0.00     0.027 C 
ATOM     12  C   UNL A   1      44.962  19.118  23.012  1.00  0.00     0.020 C 
ATOM     13  C   UNL A   1      44.112  18.843  25.345  1.00  0.00     0.051 C 
ENDBRANCH   9  11
ENDBRANCH   8   9
ENDBRANCH   7   8
ENDBRANCH   6   7
ENDBRANCH   5   6
BRANCH   5  14
ATOM     14  C   UNL A   1      44.291  25.486  25.203  1.00  0.00     0.144 C 
ATOM     15  C   UNL A   1      45.507  26.380  25.144  1.00  0.00     0.088 C 
ATOM     16  O   UNL A   1      43.193  25.903  24.827  1.00  0.00    -0.299 OA
ENDBRANCH   5  14
ENDBRANCH   3   5
ENDBRANCH   2   3
ENDBRANCH   1   2
BRANCH   1  17
ATOM     17  C   UNL A   1      40.732  21.134  26.432  1.00  0.00     0.275 C 
BRANCH  17  18
ATOM     18  O   UNL A   1      39.917  21.995  27.244  1.00  0.00    -0.458 OA
BRANCH  18  19
ATOM     19  C   UNL A   1      39.160  22.884  26.556  1.00  0.00     0.338 C 
ATOM     20  O   UNL A   1      38.315  22.635  25.716  1.00  0.00    -0.246 OA
BRANCH  19  21
ATOM     21  C   UNL A   1      39.432  24.240  27.052  1.00  0.00     0.060 A 
ATOM     22  C   UNL A   1      39.986  25.175  26.174  1.00  0.00     0.016 A 
ATOM     23  C   UNL A   1      39.221  24.563  28.393  1.00  0.00     0.016 A 
ATOM     24  C   UNL A   1      40.335  26.441  26.638  1.00  0.00     0.010 A 
ATOM     25  C   UNL A   1      39.567  25.838  28.853  1.00  0.00     0.010 A 
ATOM     26  C   UNL A   1      40.136  26.783  27.980  1.00  0.00    -0.014 A 
BRANCH  26  27
ATOM     27  C   UNL A   1      40.572  28.111  28.481  1.00  0.00     0.031 A 
ATOM     28  C   UNL A   1      42.036  28.437  28.552  1.00  0.00     0.074 A 
ATOM     29  C   UNL A   1      39.657  29.024  28.859  1.00  0.00     0.049 A 
ATOM     30  N   UNL A   1      42.631  29.473  29.083  1.00  0.00    -0.248 NA
ATOM     31  C   UNL A   1      42.952  27.460  27.945  1.00  0.00     0.031 C 
ATOM     32  C   UNL A   1      38.207  28.850  28.771  1.00  0.00     0.029 A 
ATOM     33  N   UNL A   1      39.813  30.274  29.403  1.00  0.00    -0.354 N 
ATOM     34  C   UNL A   1      43.993  29.265  28.900  1.00  0.00     0.074 A 
ATOM     35  C   UNL A   1      44.134  27.993  28.220  1.00  0.00     0.031 C 
ATOM     36  C   UNL A   1      37.606  29.948  29.256  1.00  0.00     0.029 A 
ATOM     37  C   UNL A   1      38.623  30.874  29.747  1.00  0.00     0.049 A 
ATOM     38  H   UNL A   1      40.689  30.700  29.535  1.00  0.00     0.167 HD
ATOM     39  C   UNL A   1      45.028  30.063  29.267  1.00  0.00     0.034 A 
ATOM     40  C   UNL A   1      38.381  32.014  30.424  1.00  0.00     0.034 A 
ATOM     41  C   UNL A   1      44.867  31.328  29.940  1.00  0.00     0.049 A 
ATOM     42  C   UNL A   1      39.548  32.838  30.908  1.00  0.00     0.074 A 
ATOM     43  C   UNL A   1      45.844  32.223  30.344  1.00  0.00     0.029 A 
ATOM     44  N   UNL A   1      43.648  31.877  30.322  1.00  0.00    -0.354 N 
ATOM     45  N   UNL A   1      40.834  32.616  30.757  1.00  0.00    -0.248 NA
ATOM     46  C   UNL A   1      39.230  34.057  31.663  1.00  0.00     0.031 C 
ATOM     47  C   UNL A   1      45.223  33.276  31.025  1.00  0.00     0.029 A 
ATOM     48  C   UNL A   1      43.853  33.078  30.986  1.00  0.00     0.049 A 
ATOM     49  H   UNL A   1      42.769  31.473  30.147  1.00  0.00     0.167 HD
ATOM     50  C   UNL A   1      41.477  33.681  31.382  1.00  0.00     0.074 A 
ATOM     51  C   UNL A   1      40.439  34.549  31.899  1.00  0.00     0.031 C 
ATOM     52  C   UNL A   1      42.806  33.923  31.514  1.00  0.00     0.034 A 
BRANCH  39  53
ATOM     53  C   UNL A   1      46.423  29.551  29.002  1.00  0.00     0.023 A 
ATOM     54  C   UNL A   1      47.117  28.766  29.938  1.00  0.00     0.031 A 
ATOM     55  C   UNL A   1      47.080  29.883  27.804  1.00  0.00     0.131 A 
ATOM     56  C   UNL A   1      48.449  28.397  29.690  1.00  0.00     0.055 A 
ATOM     57  C   UNL A   1      48.378  29.451  27.531  1.00  0.00     0.041 A 
ATOM     58  F   UNL A   1      46.474  30.649  26.882  1.00  0.00    -0.206 F 
ATOM     59  C   UNL A   1      49.077  28.715  28.484  1.00  0.00     0.022 A 
BRANCH  56  60
ATOM     60  S   UNL A   1      49.395  27.618  31.027  1.00  0.00     0.124 S 
ATOM     61  O   UNL A   1      48.594  26.428  31.304  1.00  0.00    -0.237 OA
ATOM     62  O   UNL A   1      50.691  27.384  30.400  1.00  0.00    -0.237 OA
ATOM     63  O   UNL A   1      49.387  28.626  32.086  1.00  0.00    -0.744 OA
ENDBRANCH  56  60
ENDBRANCH  39  53
BRANCH  40  64
ATOM     64  C   UNL A   1      36.983  32.410  30.753  1.00  0.00     0.023 A 
ATOM     65  C   UNL A   1      36.145  32.997  29.791  1.00  0.00     0.031 A 
ATOM     66  C   UNL A   1      36.475  32.242  32.055  1.00  0.00     0.131 A 
ATOM     67  C   UNL A   1      34.859  33.426  30.154  1.00  0.00     0.055 A 
ATOM     68  C   UNL A   1      35.179  32.623  32.397  1.00  0.00     0.041 A 
ATOM     69  F   UNL A   1      37.236  31.689  33.013  1.00  0.00    -0.206 F 
ATOM     70  C   UNL A   1      34.365  33.230  31.446  1.00  0.00     0.022 A 
BRANCH  67  71
ATOM     71  S   UNL A   1      33.861  34.316  28.928  1.00  0.00     0.124 S 
ATOM     72  O   UNL A   1      32.774  34.835  29.751  1.00  0.00    -0.237 OA
ATOM     73  O   UNL A   1      34.811  35.302  28.424  1.00  0.00    -0.237 OA
ATOM     74  O   UNL A   1      33.483  33.275  27.976  1.00  0.00    -0.744 OA
ENDBRANCH  67  71
ENDBRANCH  40  64
BRANCH  52  75
ATOM     75  C   UNL A   1      43.203  35.197  32.215  1.00  0.00     0.023 A 
ATOM     76  C   UNL A   1      43.483  36.377  31.502  1.00  0.00     0.031 A 
ATOM     77  C   UNL A   1      43.314  35.228  33.616  1.00  0.00     0.131 A 
ATOM     78  C   UNL A   1      43.901  37.526  32.191  1.00  0.00     0.055 A 
ATOM     79  C   UNL A   1      43.680  36.389  34.299  1.00  0.00     0.041 A 
ATOM     80  F   UNL A   1      43.062  34.129  34.346  1.00  0.00    -0.206 F 
ATOM     81  C   UNL A   1      43.987  37.542  33.585  1.00  0.00     0.022 A 
BRANCH  78  82
ATOM     82  S   UNL A   1      44.403  38.982  31.233  1.00  0.00     0.124 S 
ATOM     83  O   UNL A   1      44.013  40.076  32.117  1.00  0.00    -0.237 OA
ATOM     84  O   UNL A   1      45.838  38.773  31.071  1.00  0.00    -0.237 OA
ATOM     85  O   UNL A   1      43.620  38.870  30.002  1.00  0.00    -0.744 OA
ENDBRANCH  78  82
ENDBRANCH  52  75
ENDBRANCH  26  27
ENDBRANCH  19  21
ENDBRANCH  18  19
ENDBRANCH  17  18
ENDBRANCH   1  17
TORSDOF 20
ENDMDL
