MODEL 1
REMARK VINA RESULT:     -11.4      0.000      0.000
REMARK SMILES O=C(NCCC1=CCCCC1)C1=C(C(=O)OCCOC(=O)c2ccc(-c3c4nc(c(-c5cc(S(=O)(=O)[O-])ccc5F)c5ccc([nH]5)c(-c5cc(S(=O)(=O)[O-])ccc5F)c5nc(c(-c6cc(S(=O)(=O)[O-])ccc6F)c6ccc3[nH]6)C=C5)C=C4)cc2)CCCC1
REMARK SMILES IDX 17 1 16 2 14 3 15 4 13 5 12 6 88 7 85 8 87 9 86 10 2 11 1 12
REMARK SMILES IDX 3 13 4 15 5 16 6 17 7 18 11 19 8 20 10 21 9 22 18 23 19 24
REMARK SMILES IDX 20 25 21 26 22 27 23 28 84 29 24 30 83 31 25 32 26 33 27 34
REMARK SMILES IDX 77 35 28 36 82 37 76 38 78 39 29 40 81 41 75 42 74 43 30 45
REMARK SMILES IDX 62 46 42 47 61 48 43 49 46 50 60 51 79 52 44 53 45 54 59 56
REMARK SMILES IDX 80 57 47 58 31 59 32 60 40 61 33 62 39 63 41 64 38 65 34 66
REMARK SMILES IDX 35 67 36 68 37 69 63 70 64 71 72 72 65 73 71 74 73 75 70 76
REMARK SMILES IDX 66 77 67 78 68 79 69 80 48 81 49 82 57 83 50 84 56 85 58 86
REMARK SMILES IDX 55 87 51 88 52 89 53 90 54 91
REMARK H PARENT 3 14 78 44 46 55
REMARK Flexibility Score: inf
ROOT
ATOM      1  C   UNL A   1      35.380  20.765  25.451  1.00  0.00     0.275 C 
ENDROOT
BRANCH   1   2
ATOM      2  O   UNL A   1      35.525  21.903  26.325  1.00  0.00    -0.459 OA
BRANCH   2   3
ATOM      3  C   UNL A   1      34.392  22.607  26.564  1.00  0.00     0.334 C 
ATOM      4  O   UNL A   1      33.831  22.719  27.644  1.00  0.00    -0.247 OA
BRANCH   3   5
ATOM      5  C   UNL A   1      33.864  23.249  25.335  1.00  0.00     0.046 C 
ATOM      6  C   UNL A   1      32.690  22.902  24.772  1.00  0.00     0.027 C 
ATOM      7  C   UNL A   1      32.198  23.523  23.484  1.00  0.00     0.042 C 
ATOM      8  C   UNL A   1      34.681  24.410  24.819  1.00  0.00     0.044 C 
ATOM      9  C   UNL A   1      33.208  24.453  22.807  1.00  0.00     0.005 C 
ATOM     10  C   UNL A   1      33.928  25.307  23.839  1.00  0.00     0.005 C 
BRANCH   6  11
ATOM     11  C   UNL A   1      31.765  21.875  25.326  1.00  0.00     0.247 C 
ATOM     12  O   UNL A   1      31.763  20.732  24.879  1.00  0.00    -0.270 OA
ATOM     13  N   UNL A   1      30.834  22.237  26.254  1.00  0.00    -0.352 N 
ATOM     14  H   UNL A   1      30.186  21.534  26.489  1.00  0.00     0.163 HD
BRANCH  13  15
ATOM     15  C   UNL A   1      30.648  23.500  26.952  1.00  0.00     0.120 C 
BRANCH  15  16
ATOM     16  C   UNL A   1      29.807  24.520  26.184  1.00  0.00     0.052 C 
BRANCH  16  17
ATOM     17  C   UNL A   1      30.504  25.785  25.706  1.00  0.00    -0.072 C 
ATOM     18  C   UNL A   1      31.497  26.307  26.452  1.00  0.00    -0.028 C 
ATOM     19  C   UNL A   1      30.028  26.480  24.448  1.00  0.00     0.031 C 
ATOM     20  C   UNL A   1      32.187  27.604  26.153  1.00  0.00     0.027 C 
ATOM     21  C   UNL A   1      30.994  27.557  23.943  1.00  0.00     0.005 C 
ATOM     22  C   UNL A   1      31.478  28.437  25.086  1.00  0.00     0.004 C 
ENDBRANCH  16  17
ENDBRANCH  15  16
ENDBRANCH  13  15
ENDBRANCH   6  11
ENDBRANCH   3   5
ENDBRANCH   2   3
ENDBRANCH   1   2
BRANCH   1  23
ATOM     23  C   UNL A   1      36.722  20.293  24.901  1.00  0.00     0.275 C 
BRANCH  23  24
ATOM     24  O   UNL A   1      37.717  21.309  25.099  1.00  0.00    -0.458 OA
BRANCH  24  25
ATOM     25  C   UNL A   1      38.827  20.913  25.763  1.00  0.00     0.338 C 
ATOM     26  O   UNL A   1      39.329  19.805  25.783  1.00  0.00    -0.246 OA
BRANCH  25  27
ATOM     27  C   UNL A   1      39.423  22.083  26.423  1.00  0.00     0.060 A 
ATOM     28  C   UNL A   1      38.944  23.341  26.071  1.00  0.00     0.016 A 
ATOM     29  C   UNL A   1      40.514  21.957  27.275  1.00  0.00     0.016 A 
ATOM     30  C   UNL A   1      39.580  24.493  26.512  1.00  0.00     0.010 A 
ATOM     31  C   UNL A   1      41.122  23.116  27.771  1.00  0.00     0.010 A 
ATOM     32  C   UNL A   1      40.676  24.391  27.371  1.00  0.00    -0.014 A 
BRANCH  32  33
ATOM     33  C   UNL A   1      41.418  25.615  27.761  1.00  0.00     0.031 A 
ATOM     34  C   UNL A   1      40.713  26.663  28.573  1.00  0.00     0.074 A 
ATOM     35  C   UNL A   1      42.715  25.766  27.434  1.00  0.00     0.049 A 
ATOM     36  N   UNL A   1      41.078  27.887  28.847  1.00  0.00    -0.248 NA
ATOM     37  C   UNL A   1      39.412  26.279  29.144  1.00  0.00     0.031 C 
ATOM     38  C   UNL A   1      43.534  24.770  26.739  1.00  0.00     0.029 A 
ATOM     39  N   UNL A   1      43.574  26.815  27.642  1.00  0.00    -0.354 N 
ATOM     40  C   UNL A   1      40.028  28.440  29.574  1.00  0.00     0.074 A 
ATOM     41  C   UNL A   1      39.013  27.414  29.696  1.00  0.00     0.031 C 
ATOM     42  C   UNL A   1      44.778  25.252  26.588  1.00  0.00     0.029 A 
ATOM     43  C   UNL A   1      44.821  26.620  27.093  1.00  0.00     0.049 A 
ATOM     44  H   UNL A   1      43.323  27.627  28.138  1.00  0.00     0.167 HD
ATOM     45  C   UNL A   1      39.924  29.694  30.078  1.00  0.00     0.034 A 
ATOM     46  C   UNL A   1      45.856  27.471  26.958  1.00  0.00     0.034 A 
ATOM     47  C   UNL A   1      40.968  30.684  29.963  1.00  0.00     0.049 A 
ATOM     48  C   UNL A   1      45.696  28.881  27.465  1.00  0.00     0.074 A 
ATOM     49  C   UNL A   1      40.975  31.993  30.412  1.00  0.00     0.029 A 
ATOM     50  N   UNL A   1      42.201  30.467  29.357  1.00  0.00    -0.354 N 
ATOM     51  N   UNL A   1      44.663  29.432  28.062  1.00  0.00    -0.248 NA
ATOM     52  C   UNL A   1      46.831  29.789  27.262  1.00  0.00     0.031 C 
ATOM     53  C   UNL A   1      42.189  32.580  30.032  1.00  0.00     0.029 A 
ATOM     54  C   UNL A   1      42.966  31.620  29.402  1.00  0.00     0.049 A 
ATOM     55  H   UNL A   1      42.487  29.615  28.954  1.00  0.00     0.167 HD
ATOM     56  C   UNL A   1      45.027  30.750  28.312  1.00  0.00     0.074 A 
ATOM     57  C   UNL A   1      46.385  30.903  27.824  1.00  0.00     0.031 C 
ATOM     58  C   UNL A   1      44.310  31.748  28.889  1.00  0.00     0.034 A 
BRANCH  45  59
ATOM     59  C   UNL A   1      38.610  30.074  30.716  1.00  0.00     0.023 A 
ATOM     60  C   UNL A   1      37.598  30.746  30.008  1.00  0.00     0.031 A 
ATOM     61  C   UNL A   1      38.395  29.811  32.082  1.00  0.00     0.131 A 
ATOM     62  C   UNL A   1      36.454  31.198  30.685  1.00  0.00     0.055 A 
ATOM     63  C   UNL A   1      37.220  30.196  32.730  1.00  0.00     0.041 A 
ATOM     64  F   UNL A   1      39.335  29.196  32.815  1.00  0.00    -0.206 F 
ATOM     65  C   UNL A   1      36.247  30.908  32.035  1.00  0.00     0.022 A 
BRANCH  62  66
ATOM     66  S   UNL A   1      35.306  32.298  29.810  1.00  0.00     0.124 S 
ATOM     67  O   UNL A   1      34.827  31.431  28.736  1.00  0.00    -0.237 OA
ATOM     68  O   UNL A   1      34.334  32.628  30.846  1.00  0.00    -0.237 OA
ATOM     69  O   UNL A   1      36.156  33.405  29.375  1.00  0.00    -0.744 OA
ENDBRANCH  62  66
ENDBRANCH  45  59
BRANCH  46  70
ATOM     70  C   UNL A   1      47.092  27.048  26.238  1.00  0.00     0.023 A 
ATOM     71  C   UNL A   1      48.138  26.394  26.907  1.00  0.00     0.031 A 
ATOM     72  C   UNL A   1      47.257  27.325  24.867  1.00  0.00     0.131 A 
ATOM     73  C   UNL A   1      49.314  26.065  26.212  1.00  0.00     0.055 A 
ATOM     74  C   UNL A   1      48.405  26.950  24.170  1.00  0.00     0.041 A 
ATOM     75  F   UNL A   1      46.289  27.953  24.180  1.00  0.00    -0.206 F 
ATOM     76  C   UNL A   1      49.448  26.325  24.846  1.00  0.00     0.022 A 
BRANCH  73  77
ATOM     77  S   UNL A   1      50.701  25.350  27.136  1.00  0.00     0.124 S 
ATOM     78  O   UNL A   1      50.055  24.248  27.839  1.00  0.00    -0.237 OA
ATOM     79  O   UNL A   1      51.620  24.979  26.065  1.00  0.00    -0.237 OA
ATOM     80  O   UNL A   1      51.150  26.454  27.984  1.00  0.00    -0.744 OA
ENDBRANCH  73  77
ENDBRANCH  46  70
BRANCH  58  81
ATOM     81  C   UNL A   1      45.005  33.075  29.042  1.00  0.00     0.023 A 
ATOM     82  C   UNL A   1      45.702  33.408  30.216  1.00  0.00     0.031 A 
ATOM     83  C   UNL A   1      44.950  34.025  28.008  1.00  0.00     0.131 A 
ATOM     84  C   UNL A   1      46.271  34.683  30.351  1.00  0.00     0.055 A 
ATOM     85  C   UNL A   1      45.564  35.273  28.126  1.00  0.00     0.041 A 
ATOM     86  F   UNL A   1      44.295  33.756  26.868  1.00  0.00    -0.206 F 
ATOM     87  C   UNL A   1      46.219  35.611  29.308  1.00  0.00     0.022 A 
BRANCH  84  88
ATOM     88  S   UNL A   1      47.010  35.143  31.942  1.00  0.00     0.124 S 
ATOM     89  O   UNL A   1      46.276  36.359  32.277  1.00  0.00    -0.237 OA
ATOM     90  O   UNL A   1      46.723  33.975  32.769  1.00  0.00    -0.237 OA
ATOM     91  O   UNL A   1      48.422  35.340  31.619  1.00  0.00    -0.744 OA
ENDBRANCH  84  88
ENDBRANCH  58  81
ENDBRANCH  32  33
ENDBRANCH  25  27
ENDBRANCH  24  25
ENDBRANCH  23  24
ENDBRANCH   1  23
TORSDOF 18
ENDMDL
MODEL 2
REMARK VINA RESULT:     -11.3      2.116      2.777
REMARK SMILES O=C(NCCC1=CCCCC1)C1=C(C(=O)OCCOC(=O)c2ccc(-c3c4nc(c(-c5cc(S(=O)(=O)[O-])ccc5F)c5ccc([nH]5)c(-c5cc(S(=O)(=O)[O-])ccc5F)c5nc(c(-c6cc(S(=O)(=O)[O-])ccc6F)c6ccc3[nH]6)C=C5)C=C4)cc2)CCCC1
REMARK SMILES IDX 17 1 16 2 14 3 15 4 13 5 12 6 88 7 85 8 87 9 86 10 2 11 1 12
REMARK SMILES IDX 3 13 4 15 5 16 6 17 7 18 11 19 8 20 10 21 9 22 18 23 19 24
REMARK SMILES IDX 20 25 21 26 22 27 23 28 84 29 24 30 83 31 25 32 26 33 27 34
REMARK SMILES IDX 77 35 28 36 82 37 76 38 78 39 29 40 81 41 75 42 74 43 30 45
REMARK SMILES IDX 62 46 42 47 61 48 43 49 46 50 60 51 79 52 44 53 45 54 59 56
REMARK SMILES IDX 80 57 47 58 31 59 32 60 40 61 33 62 39 63 41 64 38 65 34 66
REMARK SMILES IDX 35 67 36 68 37 69 63 70 64 71 72 72 65 73 71 74 73 75 70 76
REMARK SMILES IDX 66 77 67 78 68 79 69 80 48 81 49 82 57 83 50 84 56 85 58 86
REMARK SMILES IDX 55 87 51 88 52 89 53 90 54 91
REMARK H PARENT 3 14 78 44 46 55
REMARK Flexibility Score: inf
ROOT
ATOM      1  C   UNL A   1      35.319  21.730  26.074  1.00  0.00     0.275 C 
ENDROOT
BRANCH   1   2
ATOM      2  O   UNL A   1      34.223  22.310  25.339  1.00  0.00    -0.459 OA
BRANCH   2   3
ATOM      3  C   UNL A   1      34.201  23.664  25.290  1.00  0.00     0.334 C 
ATOM      4  O   UNL A   1      35.176  24.400  25.329  1.00  0.00    -0.247 OA
BRANCH   3   5
ATOM      5  C   UNL A   1      32.819  24.196  25.192  1.00  0.00     0.046 C 
ATOM      6  C   UNL A   1      32.236  24.513  24.019  1.00  0.00     0.027 C 
ATOM      7  C   UNL A   1      30.851  25.113  23.943  1.00  0.00     0.042 C 
ATOM      8  C   UNL A   1      32.059  24.246  26.497  1.00  0.00     0.044 C 
ATOM      9  C   UNL A   1      30.241  25.465  25.302  1.00  0.00     0.005 C 
ATOM     10  C   UNL A   1      30.548  24.382  26.325  1.00  0.00     0.005 C 
BRANCH   6  11
ATOM     11  C   UNL A   1      32.878  24.334  22.688  1.00  0.00     0.247 C 
ATOM     12  O   UNL A   1      33.080  23.209  22.240  1.00  0.00    -0.270 OA
ATOM     13  N   UNL A   1      33.351  25.422  22.015  1.00  0.00    -0.352 N 
ATOM     14  H   UNL A   1      33.863  25.216  21.199  1.00  0.00     0.163 HD
BRANCH  13  15
ATOM     15  C   UNL A   1      33.219  26.839  22.315  1.00  0.00     0.120 C 
BRANCH  15  16
ATOM     16  C   UNL A   1      34.022  27.298  23.533  1.00  0.00     0.052 C 
BRANCH  16  17
ATOM     17  C   UNL A   1      33.251  27.930  24.682  1.00  0.00    -0.072 C 
ATOM     18  C   UNL A   1      32.277  28.820  24.407  1.00  0.00    -0.028 C 
ATOM     19  C   UNL A   1      33.634  27.613  26.112  1.00  0.00     0.031 C 
ATOM     20  C   UNL A   1      31.521  29.595  25.444  1.00  0.00     0.027 C 
ATOM     21  C   UNL A   1      32.601  28.088  27.140  1.00  0.00     0.005 C 
ATOM     22  C   UNL A   1      32.141  29.507  26.838  1.00  0.00     0.004 C 
ENDBRANCH  16  17
ENDBRANCH  15  16
ENDBRANCH  13  15
ENDBRANCH   6  11
ENDBRANCH   3   5
ENDBRANCH   2   3
ENDBRANCH   1   2
BRANCH   1  23
ATOM     23  C   UNL A   1      36.288  20.984  25.162  1.00  0.00     0.275 C 
BRANCH  23  24
ATOM     24  O   UNL A   1      37.497  21.743  25.007  1.00  0.00    -0.458 OA
BRANCH  24  25
ATOM     25  C   UNL A   1      38.560  21.292  25.710  1.00  0.00     0.338 C 
ATOM     26  O   UNL A   1      39.005  20.160  25.746  1.00  0.00    -0.246 OA
BRANCH  25  27
ATOM     27  C   UNL A   1      39.191  22.430  26.392  1.00  0.00     0.060 A 
ATOM     28  C   UNL A   1      38.737  23.708  26.080  1.00  0.00     0.016 A 
ATOM     29  C   UNL A   1      40.290  22.258  27.226  1.00  0.00     0.016 A 
ATOM     30  C   UNL A   1      39.404  24.833  26.542  1.00  0.00     0.010 A 
ATOM     31  C   UNL A   1      40.930  23.389  27.745  1.00  0.00     0.010 A 
ATOM     32  C   UNL A   1      40.508  24.684  27.384  1.00  0.00    -0.014 A 
BRANCH  32  33
ATOM     33  C   UNL A   1      41.282  25.881  27.795  1.00  0.00     0.031 A 
ATOM     34  C   UNL A   1      40.609  26.926  28.638  1.00  0.00     0.074 A 
ATOM     35  C   UNL A   1      42.580  26.008  27.461  1.00  0.00     0.049 A 
ATOM     36  N   UNL A   1      41.006  28.135  28.937  1.00  0.00    -0.248 NA
ATOM     37  C   UNL A   1      39.304  26.560  29.210  1.00  0.00     0.031 C 
ATOM     38  C   UNL A   1      43.369  25.010  26.737  1.00  0.00     0.029 A 
ATOM     39  N   UNL A   1      43.466  27.031  27.687  1.00  0.00    -0.354 N 
ATOM     40  C   UNL A   1      39.975  28.695  29.685  1.00  0.00     0.074 A 
ATOM     41  C   UNL A   1      38.937  27.691  29.792  1.00  0.00     0.031 C 
ATOM     42  C   UNL A   1      44.623  25.465  26.587  1.00  0.00     0.029 A 
ATOM     43  C   UNL A   1      44.703  26.819  27.123  1.00  0.00     0.049 A 
ATOM     44  H   UNL A   1      43.238  27.837  28.204  1.00  0.00     0.167 HD
ATOM     45  C   UNL A   1      39.905  29.939  30.220  1.00  0.00     0.034 A 
ATOM     46  C   UNL A   1      45.758  27.649  27.000  1.00  0.00     0.034 A 
ATOM     47  C   UNL A   1      40.972  30.906  30.119  1.00  0.00     0.049 A 
ATOM     48  C   UNL A   1      45.635  29.050  27.540  1.00  0.00     0.074 A 
ATOM     49  C   UNL A   1      41.014  32.203  30.598  1.00  0.00     0.029 A 
ATOM     50  N   UNL A   1      42.194  30.674  29.497  1.00  0.00    -0.354 N 
ATOM     51  N   UNL A   1      44.621  29.611  28.158  1.00  0.00    -0.248 NA
ATOM     52  C   UNL A   1      46.791  29.935  27.349  1.00  0.00     0.031 C 
ATOM     53  C   UNL A   1      42.238  32.770  30.221  1.00  0.00     0.029 A 
ATOM     54  C   UNL A   1      42.987  31.807  29.563  1.00  0.00     0.049 A 
ATOM     55  H   UNL A   1      42.457  29.825  29.072  1.00  0.00     0.167 HD
ATOM     56  C   UNL A   1      45.018  30.913  28.436  1.00  0.00     0.074 A 
ATOM     57  C   UNL A   1      46.375  31.046  27.940  1.00  0.00     0.031 C 
ATOM     58  C   UNL A   1      44.330  31.915  29.042  1.00  0.00     0.034 A 
BRANCH  45  59
ATOM     59  C   UNL A   1      38.606  30.335  30.877  1.00  0.00     0.023 A 
ATOM     60  C   UNL A   1      37.567  30.964  30.169  1.00  0.00     0.031 A 
ATOM     61  C   UNL A   1      38.432  30.134  32.259  1.00  0.00     0.131 A 
ATOM     62  C   UNL A   1      36.438  31.436  30.856  1.00  0.00     0.055 A 
ATOM     63  C   UNL A   1      37.272  30.536  32.923  1.00  0.00     0.041 A 
ATOM     64  F   UNL A   1      39.399  29.562  32.993  1.00  0.00    -0.206 F 
ATOM     65  C   UNL A   1      36.272  31.206  32.225  1.00  0.00     0.022 A 
BRANCH  62  66
ATOM     66  S   UNL A   1      35.253  32.483  29.966  1.00  0.00     0.124 S 
ATOM     67  O   UNL A   1      34.232  32.707  30.986  1.00  0.00    -0.237 OA
ATOM     68  O   UNL A   1      36.063  33.640  29.606  1.00  0.00    -0.237 OA
ATOM     69  O   UNL A   1      34.830  31.645  28.845  1.00  0.00    -0.744 OA
ENDBRANCH  62  66
ENDBRANCH  45  59
BRANCH  46  70
ATOM     70  C   UNL A   1      46.977  27.213  26.259  1.00  0.00     0.023 A 
ATOM     71  C   UNL A   1      47.185  27.574  24.919  1.00  0.00     0.031 A 
ATOM     72  C   UNL A   1      47.942  26.396  26.879  1.00  0.00     0.131 A 
ATOM     73  C   UNL A   1      48.314  27.096  24.233  1.00  0.00     0.055 A 
ATOM     74  C   UNL A   1      49.088  25.967  26.209  1.00  0.00     0.041 A 
ATOM     75  F   UNL A   1      47.791  26.018  28.159  1.00  0.00    -0.206 F 
ATOM     76  C   UNL A   1      49.273  26.308  24.873  1.00  0.00     0.022 A 
BRANCH  73  77
ATOM     77  S   UNL A   1      48.478  27.462  22.464  1.00  0.00     0.124 S 
ATOM     78  O   UNL A   1      48.569  26.125  21.890  1.00  0.00    -0.237 OA
ATOM     79  O   UNL A   1      47.248  28.197  22.191  1.00  0.00    -0.237 OA
ATOM     80  O   UNL A   1      49.703  28.257  22.394  1.00  0.00    -0.744 OA
ENDBRANCH  73  77
ENDBRANCH  46  70
BRANCH  58  81
ATOM     81  C   UNL A   1      45.058  33.221  29.220  1.00  0.00     0.023 A 
ATOM     82  C   UNL A   1      44.863  34.296  28.336  1.00  0.00     0.031 A 
ATOM     83  C   UNL A   1      45.976  33.381  30.272  1.00  0.00     0.131 A 
ATOM     84  C   UNL A   1      45.618  35.469  28.489  1.00  0.00     0.055 A 
ATOM     85  C   UNL A   1      46.684  34.569  30.452  1.00  0.00     0.041 A 
ATOM     86  F   UNL A   1      46.199  32.382  31.141  1.00  0.00    -0.206 F 
ATOM     87  C   UNL A   1      46.516  35.617  29.550  1.00  0.00     0.022 A 
BRANCH  84  88
ATOM     88  S   UNL A   1      45.471  36.769  27.234  1.00  0.00     0.124 S 
ATOM     89  O   UNL A   1      45.402  37.975  28.052  1.00  0.00    -0.237 OA
ATOM     90  O   UNL A   1      46.694  36.593  26.457  1.00  0.00    -0.237 OA
ATOM     91  O   UNL A   1      44.238  36.426  26.528  1.00  0.00    -0.744 OA
ENDBRANCH  84  88
ENDBRANCH  58  81
ENDBRANCH  32  33
ENDBRANCH  25  27
ENDBRANCH  24  25
ENDBRANCH  23  24
ENDBRANCH   1  23
TORSDOF 18
ENDMDL
MODEL 3
REMARK VINA RESULT:     -11.3      4.863      9.713
REMARK SMILES O=C(NCCC1=CCCCC1)C1=C(C(=O)OCCOC(=O)c2ccc(-c3c4nc(c(-c5cc(S(=O)(=O)[O-])ccc5F)c5ccc([nH]5)c(-c5cc(S(=O)(=O)[O-])ccc5F)c5nc(c(-c6cc(S(=O)(=O)[O-])ccc6F)c6ccc3[nH]6)C=C5)C=C4)cc2)CCCC1
REMARK SMILES IDX 17 1 16 2 14 3 15 4 13 5 12 6 88 7 85 8 87 9 86 10 2 11 1 12
REMARK SMILES IDX 3 13 4 15 5 16 6 17 7 18 11 19 8 20 10 21 9 22 18 23 19 24
REMARK SMILES IDX 20 25 21 26 22 27 23 28 84 29 24 30 83 31 25 32 26 33 27 34
REMARK SMILES IDX 77 35 28 36 82 37 76 38 78 39 29 40 81 41 75 42 74 43 30 45
REMARK SMILES IDX 62 46 42 47 61 48 43 49 46 50 60 51 79 52 44 53 45 54 59 56
REMARK SMILES IDX 80 57 47 58 31 59 32 60 40 61 33 62 39 63 41 64 38 65 34 66
REMARK SMILES IDX 35 67 36 68 37 69 63 70 64 71 72 72 65 73 71 74 73 75 70 76
REMARK SMILES IDX 66 77 67 78 68 79 69 80 48 81 49 82 57 83 50 84 56 85 58 86
REMARK SMILES IDX 55 87 51 88 52 89 53 90 54 91
REMARK H PARENT 3 14 78 44 46 55
REMARK Flexibility Score: inf
ROOT
ATOM      1  C   UNL A   1      31.347  29.689  24.442  1.00  0.00     0.275 C 
ENDROOT
BRANCH   1   2
ATOM      2  O   UNL A   1      32.436  28.763  24.254  1.00  0.00    -0.459 OA
BRANCH   2   3
ATOM      3  C   UNL A   1      32.101  27.565  23.717  1.00  0.00     0.334 C 
ATOM      4  O   UNL A   1      31.176  27.358  22.945  1.00  0.00    -0.247 OA
BRANCH   3   5
ATOM      5  C   UNL A   1      32.994  26.476  24.183  1.00  0.00     0.046 C 
ATOM      6  C   UNL A   1      32.992  26.016  25.450  1.00  0.00     0.027 C 
ATOM      7  C   UNL A   1      33.952  24.949  25.923  1.00  0.00     0.042 C 
ATOM      8  C   UNL A   1      33.829  25.829  23.103  1.00  0.00     0.044 C 
ATOM      9  C   UNL A   1      35.013  24.555  24.891  1.00  0.00     0.005 C 
ATOM     10  C   UNL A   1      34.404  24.471  23.500  1.00  0.00     0.005 C 
BRANCH   6  11
ATOM     11  C   UNL A   1      32.077  26.506  26.518  1.00  0.00     0.247 C 
ATOM     12  O   UNL A   1      32.428  27.408  27.273  1.00  0.00    -0.270 OA
ATOM     13  N   UNL A   1      30.890  25.870  26.733  1.00  0.00    -0.352 N 
ATOM     14  H   UNL A   1      30.393  26.176  27.526  1.00  0.00     0.163 HD
BRANCH  13  15
ATOM     15  C   UNL A   1      30.244  24.810  25.975  1.00  0.00     0.120 C 
BRANCH  15  16
ATOM     16  C   UNL A   1      30.737  23.405  26.320  1.00  0.00     0.052 C 
BRANCH  16  17
ATOM     17  C   UNL A   1      31.420  22.611  25.217  1.00  0.00    -0.072 C 
ATOM     18  C   UNL A   1      31.264  23.002  23.937  1.00  0.00    -0.028 C 
ATOM     19  C   UNL A   1      32.197  21.357  25.558  1.00  0.00     0.031 C 
ATOM     20  C   UNL A   1      31.788  22.246  22.752  1.00  0.00     0.027 C 
ATOM     21  C   UNL A   1      33.055  20.837  24.401  1.00  0.00     0.005 C 
ATOM     22  C   UNL A   1      32.272  20.839  23.096  1.00  0.00     0.004 C 
ENDBRANCH  16  17
ENDBRANCH  15  16
ENDBRANCH  13  15
ENDBRANCH   6  11
ENDBRANCH   3   5
ENDBRANCH   2   3
ENDBRANCH   1   2
BRANCH   1  23
ATOM     23  C   UNL A   1      31.446  30.425  25.775  1.00  0.00     0.275 C 
BRANCH  23  24
ATOM     24  O   UNL A   1      32.795  30.370  26.265  1.00  0.00    -0.458 OA
BRANCH  24  25
ATOM     25  C   UNL A   1      33.177  31.417  27.031  1.00  0.00     0.338 C 
ATOM     26  O   UNL A   1      32.523  32.395  27.338  1.00  0.00    -0.246 OA
BRANCH  25  27
ATOM     27  C   UNL A   1      34.531  31.157  27.541  1.00  0.00     0.060 A 
ATOM     28  C   UNL A   1      34.861  29.846  27.871  1.00  0.00     0.016 A 
ATOM     29  C   UNL A   1      35.417  32.195  27.809  1.00  0.00     0.016 A 
ATOM     30  C   UNL A   1      36.049  29.555  28.526  1.00  0.00     0.010 A 
ATOM     31  C   UNL A   1      36.643  31.898  28.414  1.00  0.00     0.010 A 
ATOM     32  C   UNL A   1      36.954  30.580  28.803  1.00  0.00    -0.014 A 
BRANCH  32  33
ATOM     33  C   UNL A   1      38.176  30.286  29.592  1.00  0.00     0.031 A 
ATOM     34  C   UNL A   1      39.207  29.360  29.015  1.00  0.00     0.074 A 
ATOM     35  C   UNL A   1      38.381  30.876  30.785  1.00  0.00     0.049 A 
ATOM     36  N   UNL A   1      40.234  28.796  29.594  1.00  0.00    -0.248 NA
ATOM     37  C   UNL A   1      39.049  29.014  27.594  1.00  0.00     0.031 C 
ATOM     38  C   UNL A   1      37.502  31.873  31.399  1.00  0.00     0.029 A 
ATOM     39  N   UNL A   1      39.395  30.722  31.696  1.00  0.00    -0.354 N 
ATOM     40  C   UNL A   1      40.813  27.983  28.625  1.00  0.00     0.074 A 
ATOM     41  C   UNL A   1      40.021  28.130  27.422  1.00  0.00     0.031 C 
ATOM     42  C   UNL A   1      38.019  32.249  32.579  1.00  0.00     0.029 A 
ATOM     43  C   UNL A   1      39.215  31.457  32.846  1.00  0.00     0.049 A 
ATOM     44  H   UNL A   1      40.176  30.143  31.541  1.00  0.00     0.167 HD
ATOM     45  C   UNL A   1      41.901  27.181  28.741  1.00  0.00     0.034 A 
ATOM     46  C   UNL A   1      39.902  31.443  34.005  1.00  0.00     0.034 A 
ATOM     47  C   UNL A   1      42.686  27.081  29.947  1.00  0.00     0.049 A 
ATOM     48  C   UNL A   1      41.066  30.496  34.138  1.00  0.00     0.074 A 
ATOM     49  C   UNL A   1      43.794  26.291  30.197  1.00  0.00     0.029 A 
ATOM     50  N   UNL A   1      42.445  27.804  31.110  1.00  0.00    -0.354 N 
ATOM     51  N   UNL A   1      41.550  29.654  33.253  1.00  0.00    -0.248 NA
ATOM     52  C   UNL A   1      41.763  30.482  35.429  1.00  0.00     0.031 C 
ATOM     53  C   UNL A   1      44.190  26.498  31.524  1.00  0.00     0.029 A 
ATOM     54  C   UNL A   1      43.370  27.465  32.084  1.00  0.00     0.049 A 
ATOM     55  H   UNL A   1      41.722  28.463  31.224  1.00  0.00     0.167 HD
ATOM     56  C   UNL A   1      42.614  29.015  33.879  1.00  0.00     0.074 A 
ATOM     57  C   UNL A   1      42.715  29.587  35.208  1.00  0.00     0.031 C 
ATOM     58  C   UNL A   1      43.434  28.040  33.408  1.00  0.00     0.034 A 
BRANCH  45  59
ATOM     59  C   UNL A   1      42.237  26.301  27.562  1.00  0.00     0.023 A 
ATOM     60  C   UNL A   1      41.788  24.973  27.465  1.00  0.00     0.031 A 
ATOM     61  C   UNL A   1      43.079  26.787  26.545  1.00  0.00     0.131 A 
ATOM     62  C   UNL A   1      42.243  24.156  26.418  1.00  0.00     0.055 A 
ATOM     63  C   UNL A   1      43.465  25.992  25.465  1.00  0.00     0.041 A 
ATOM     64  F   UNL A   1      43.560  28.039  26.596  1.00  0.00    -0.206 F 
ATOM     65  C   UNL A   1      43.061  24.662  25.405  1.00  0.00     0.022 A 
BRANCH  62  66
ATOM     66  S   UNL A   1      41.871  22.380  26.476  1.00  0.00     0.124 S 
ATOM     67  O   UNL A   1      40.424  22.376  26.282  1.00  0.00    -0.237 OA
ATOM     68  O   UNL A   1      42.666  21.855  25.373  1.00  0.00    -0.237 OA
ATOM     69  O   UNL A   1      42.315  21.981  27.811  1.00  0.00    -0.744 OA
ENDBRANCH  62  66
ENDBRANCH  45  59
BRANCH  46  70
ATOM     70  C   UNL A   1      39.456  32.280  35.156  1.00  0.00     0.023 A 
ATOM     71  C   UNL A   1      38.733  31.725  36.224  1.00  0.00     0.031 A 
ATOM     72  C   UNL A   1      39.720  33.663  35.187  1.00  0.00     0.131 A 
ATOM     73  C   UNL A   1      38.275  32.553  37.262  1.00  0.00     0.055 A 
ATOM     74  C   UNL A   1      39.307  34.471  36.246  1.00  0.00     0.041 A 
ATOM     75  F   UNL A   1      40.404  34.246  34.189  1.00  0.00    -0.206 F 
ATOM     76  C   UNL A   1      38.570  33.918  37.288  1.00  0.00     0.022 A 
BRANCH  73  77
ATOM     77  S   UNL A   1      37.223  31.831  38.552  1.00  0.00     0.124 S 
ATOM     78  O   UNL A   1      36.055  32.702  38.506  1.00  0.00    -0.237 OA
ATOM     79  O   UNL A   1      37.031  30.471  38.060  1.00  0.00    -0.237 OA
ATOM     80  O   UNL A   1      38.040  31.944  39.760  1.00  0.00    -0.744 OA
ENDBRANCH  73  77
ENDBRANCH  46  70
BRANCH  58  81
ATOM     81  C   UNL A   1      44.521  27.568  34.336  1.00  0.00     0.023 A 
ATOM     82  C   UNL A   1      44.332  26.466  35.187  1.00  0.00     0.031 A 
ATOM     83  C   UNL A   1      45.752  28.245  34.385  1.00  0.00     0.131 A 
ATOM     84  C   UNL A   1      45.341  26.104  36.093  1.00  0.00     0.055 A 
ATOM     85  C   UNL A   1      46.772  27.848  35.250  1.00  0.00     0.041 A 
ATOM     86  F   UNL A   1      45.980  29.305  33.594  1.00  0.00    -0.206 F 
ATOM     87  C   UNL A   1      46.565  26.779  36.118  1.00  0.00     0.022 A 
BRANCH  84  88
ATOM     88  S   UNL A   1      45.001  24.791  37.296  1.00  0.00     0.124 S 
ATOM     89  O   UNL A   1      43.604  24.478  37.017  1.00  0.00    -0.237 OA
ATOM     90  O   UNL A   1      45.972  23.766  36.924  1.00  0.00    -0.237 OA
ATOM     91  O   UNL A   1      45.247  25.435  38.585  1.00  0.00    -0.744 OA
ENDBRANCH  84  88
ENDBRANCH  58  81
ENDBRANCH  32  33
ENDBRANCH  25  27
ENDBRANCH  24  25
ENDBRANCH  23  24
ENDBRANCH   1  23
TORSDOF 18
ENDMDL
