MODEL 1
REMARK VINA RESULT:     -10.8      0.000      0.000
REMARK SMILES CCOc1cc(N2CCOCC2)ccc1[C@H]([NH3+])C(=O)OCCOC(=O)c1ccc(-c2c3nc(c(-c4cc(S(=O)(=O)[O-])ccc4F)c4ccc([nH]4)c(-c4cc(S(=O)(=O)[O-])ccc4F)c4nc(c(-c5cc(S(=O)(=O)[O-])ccc5F)c5ccc2[nH]5)C=C4)C=C3)cc1
REMARK SMILES IDX 21 1 20 2 18 3 19 4 16 5 15 6 4 7 5 8 6 9 14 10 13 11 3 12
REMARK SMILES IDX 2 13 1 14 7 15 8 16 12 17 9 18 11 19 10 20 17 21 22 25 23 26
REMARK SMILES IDX 24 27 25 28 26 29 27 30 88 31 28 32 87 33 29 34 30 35 31 36
REMARK SMILES IDX 81 37 32 38 86 39 80 40 82 41 33 42 85 43 79 44 78 45 34 47
REMARK SMILES IDX 66 48 46 49 65 50 47 51 50 52 64 53 83 54 48 55 49 56 63 58
REMARK SMILES IDX 84 59 51 60 35 61 36 62 44 63 37 64 43 65 45 66 42 67 38 68
REMARK SMILES IDX 39 69 40 70 41 71 67 72 68 73 76 74 69 75 75 76 77 77 74 78
REMARK SMILES IDX 70 79 71 80 72 81 73 82 52 83 53 84 61 85 54 86 60 87 62 88
REMARK SMILES IDX 59 89 55 90 56 91 57 92 58 93
REMARK H PARENT 17 22 17 23 17 24 82 46 50 57
REMARK Flexibility Score: inf
ROOT
ATOM      1  C   UNL A   1      36.891  21.253  24.824  1.00  0.00     0.274 C 
ENDROOT
BRANCH   1   2
ATOM      2  O   UNL A   1      35.957  21.698  25.820  1.00  0.00    -0.457 OA
BRANCH   2   3
ATOM      3  C   UNL A   1      34.661  21.788  25.389  1.00  0.00     0.370 C 
ATOM      4  O   UNL A   1      34.267  21.316  24.328  1.00  0.00    -0.245 OA
BRANCH   3   5
ATOM      5  C   UNL A   1      33.743  22.470  26.440  1.00  0.00     0.326 C 
BRANCH   5   6
ATOM      6  C   UNL A   1      33.529  23.937  26.129  1.00  0.00     0.063 A 
ATOM      7  C   UNL A   1      32.354  24.599  26.518  1.00  0.00     0.131 A 
ATOM      8  C   UNL A   1      31.999  25.811  25.924  1.00  0.00     0.072 A 
ATOM      9  C   UNL A   1      32.830  26.394  24.963  1.00  0.00     0.040 A 
ATOM     10  C   UNL A   1      34.459  24.647  25.359  1.00  0.00     0.016 A 
ATOM     11  C   UNL A   1      34.108  25.862  24.781  1.00  0.00     0.027 A 
BRANCH   7  12
ATOM     12  O   UNL A   1      31.410  23.948  27.266  1.00  0.00    -0.493 OA
BRANCH  12  13
ATOM     13  C   UNL A   1      30.194  23.650  26.570  1.00  0.00     0.226 C 
ATOM     14  C   UNL A   1      29.391  22.575  27.285  1.00  0.00     0.049 C 
ENDBRANCH  12  13
ENDBRANCH   7  12
BRANCH   9  15
ATOM     15  N   UNL A   1      32.334  27.352  24.105  1.00  0.00    -0.367 N 
ATOM     16  C   UNL A   1      31.125  28.090  24.486  1.00  0.00     0.145 C 
ATOM     17  C   UNL A   1      32.676  27.369  22.689  1.00  0.00     0.145 C 
ATOM     18  C   UNL A   1      29.955  27.693  23.579  1.00  0.00     0.181 C 
ATOM     19  C   UNL A   1      31.430  27.003  21.862  1.00  0.00     0.181 C 
ATOM     20  O   UNL A   1      30.297  27.837  22.188  1.00  0.00    -0.378 OA
ENDBRANCH   9  15
ENDBRANCH   5   6
BRANCH   5  21
ATOM     21  N   UNL A   1      34.264  22.223  27.819  1.00  0.00    -0.342 N 
ATOM     22  H   UNL A   1      34.625  21.271  27.880  1.00  0.00     0.345 HD
ATOM     23  H   UNL A   1      33.509  22.344  28.495  1.00  0.00     0.345 HD
ATOM     24  H   UNL A   1      35.012  22.885  28.023  1.00  0.00     0.345 HD
ENDBRANCH   5  21
ENDBRANCH   3   5
ENDBRANCH   2   3
ENDBRANCH   1   2
BRANCH   1  25
ATOM     25  C   UNL A   1      38.056  20.462  25.439  1.00  0.00     0.275 C 
BRANCH  25  26
ATOM     26  O   UNL A   1      39.289  21.209  25.491  1.00  0.00    -0.458 OA
BRANCH  26  27
ATOM     27  C   UNL A   1      39.949  21.170  26.677  1.00  0.00     0.338 C 
ATOM     28  O   UNL A   1      40.331  20.160  27.254  1.00  0.00    -0.246 OA
BRANCH  27  29
ATOM     29  C   UNL A   1      40.339  22.532  27.105  1.00  0.00     0.060 A 
ATOM     30  C   UNL A   1      39.743  23.618  26.452  1.00  0.00     0.016 A 
ATOM     31  C   UNL A   1      41.289  22.761  28.102  1.00  0.00     0.016 A 
ATOM     32  C   UNL A   1      40.050  24.928  26.814  1.00  0.00     0.010 A 
ATOM     33  C   UNL A   1      41.632  24.078  28.438  1.00  0.00     0.010 A 
ATOM     34  C   UNL A   1      41.011  25.167  27.798  1.00  0.00    -0.014 A 
BRANCH  34  35
ATOM     35  C   UNL A   1      41.445  26.561  28.060  1.00  0.00     0.031 A 
ATOM     36  C   UNL A   1      42.821  26.984  27.635  1.00  0.00     0.074 A 
ATOM     37  C   UNL A   1      40.605  27.449  28.619  1.00  0.00     0.049 A 
ATOM     38  N   UNL A   1      43.427  28.130  27.799  1.00  0.00    -0.248 NA
ATOM     39  C   UNL A   1      43.615  25.974  26.920  1.00  0.00     0.031 C 
ATOM     40  C   UNL A   1      39.213  27.182  28.979  1.00  0.00     0.029 A 
ATOM     41  N   UNL A   1      40.801  28.760  28.977  1.00  0.00    -0.354 N 
ATOM     42  C   UNL A   1      44.681  27.982  27.217  1.00  0.00     0.074 A 
ATOM     43  C   UNL A   1      44.750  26.625  26.716  1.00  0.00     0.031 C 
ATOM     44  C   UNL A   1      38.683  28.296  29.517  1.00  0.00     0.029 A 
ATOM     45  C   UNL A   1      39.709  29.336  29.583  1.00  0.00     0.049 A 
ATOM     46  H   UNL A   1      41.644  29.243  28.816  1.00  0.00     0.167 HD
ATOM     47  C   UNL A   1      45.681  28.893  27.119  1.00  0.00     0.034 A 
ATOM     48  C   UNL A   1      39.567  30.549  30.155  1.00  0.00     0.034 A 
ATOM     49  C   UNL A   1      45.601  30.232  27.653  1.00  0.00     0.049 A 
ATOM     50  C   UNL A   1      40.744  31.498  30.159  1.00  0.00     0.074 A 
ATOM     51  C   UNL A   1      46.555  31.234  27.612  1.00  0.00     0.029 A 
ATOM     52  N   UNL A   1      44.515  30.750  28.349  1.00  0.00    -0.354 N 
ATOM     53  N   UNL A   1      41.934  31.346  29.621  1.00  0.00    -0.248 NA
ATOM     54  C   UNL A   1      40.559  32.780  30.850  1.00  0.00     0.031 C 
ATOM     55  C   UNL A   1      46.084  32.319  28.361  1.00  0.00     0.029 A 
ATOM     56  C   UNL A   1      44.796  32.037  28.785  1.00  0.00     0.049 A 
ATOM     57  H   UNL A   1      43.669  30.273  28.509  1.00  0.00     0.167 HD
ATOM     58  C   UNL A   1      42.622  32.530  29.878  1.00  0.00     0.074 A 
ATOM     59  C   UNL A   1      41.712  33.386  30.611  1.00  0.00     0.031 C 
ATOM     60  C   UNL A   1      43.888  32.881  29.529  1.00  0.00     0.034 A 
BRANCH  47  61
ATOM     61  C   UNL A   1      46.973  28.429  26.489  1.00  0.00     0.023 A 
ATOM     62  C   UNL A   1      47.155  28.399  25.095  1.00  0.00     0.031 A 
ATOM     63  C   UNL A   1      48.019  27.952  27.299  1.00  0.00     0.131 A 
ATOM     64  C   UNL A   1      48.314  27.820  24.554  1.00  0.00     0.055 A 
ATOM     65  C   UNL A   1      49.207  27.462  26.756  1.00  0.00     0.041 A 
ATOM     66  F   UNL A   1      47.894  27.931  28.635  1.00  0.00    -0.206 F 
ATOM     67  C   UNL A   1      49.352  27.376  25.374  1.00  0.00     0.022 A 
BRANCH  64  68
ATOM     68  S   UNL A   1      48.364  27.490  22.770  1.00  0.00     0.124 S 
ATOM     69  O   UNL A   1      47.154  28.167  22.310  1.00  0.00    -0.237 OA
ATOM     70  O   UNL A   1      49.628  28.097  22.372  1.00  0.00    -0.237 OA
ATOM     71  O   UNL A   1      48.319  26.031  22.691  1.00  0.00    -0.744 OA
ENDBRANCH  64  68
ENDBRANCH  47  61
BRANCH  48  72
ATOM     72  C   UNL A   1      38.286  30.933  30.819  1.00  0.00     0.023 A 
ATOM     73  C   UNL A   1      37.377  31.801  30.194  1.00  0.00     0.031 A 
ATOM     74  C   UNL A   1      37.983  30.486  32.119  1.00  0.00     0.131 A 
ATOM     75  C   UNL A   1      36.230  32.228  30.883  1.00  0.00     0.055 A 
ATOM     76  C   UNL A   1      36.813  30.869  32.778  1.00  0.00     0.041 A 
ATOM     77  F   UNL A   1      38.822  29.664  32.768  1.00  0.00    -0.206 F 
ATOM     78  C   UNL A   1      35.935  31.756  32.164  1.00  0.00     0.022 A 
BRANCH  75  79
ATOM     79  S   UNL A   1      35.171  33.484  30.114  1.00  0.00     0.124 S 
ATOM     80  O   UNL A   1      36.042  34.006  29.067  1.00  0.00    -0.237 OA
ATOM     81  O   UNL A   1      34.034  32.688  29.665  1.00  0.00    -0.237 OA
ATOM     82  O   UNL A   1      34.888  34.408  31.210  1.00  0.00    -0.744 OA
ENDBRANCH  75  79
ENDBRANCH  48  72
BRANCH  60  83
ATOM     83  C   UNL A   1      44.345  34.277  29.890  1.00  0.00     0.023 A 
ATOM     84  C   UNL A   1      44.118  35.380  29.047  1.00  0.00     0.031 A 
ATOM     85  C   UNL A   1      45.024  34.505  31.101  1.00  0.00     0.131 A 
ATOM     86  C   UNL A   1      44.614  36.645  29.399  1.00  0.00     0.055 A 
ATOM     87  C   UNL A   1      45.454  35.778  31.479  1.00  0.00     0.041 A 
ATOM     88  F   UNL A   1      45.277  33.492  31.944  1.00  0.00    -0.206 F 
ATOM     89  C   UNL A   1      45.262  36.855  30.619  1.00  0.00     0.022 A 
BRANCH  86  90
ATOM     90  S   UNL A   1      44.491  37.999  28.197  1.00  0.00     0.124 S 
ATOM     91  O   UNL A   1      45.030  37.381  26.989  1.00  0.00    -0.237 OA
ATOM     92  O   UNL A   1      43.059  38.278  28.185  1.00  0.00    -0.237 OA
ATOM     93  O   UNL A   1      45.322  39.051  28.778  1.00  0.00    -0.744 OA
ENDBRANCH  86  90
ENDBRANCH  60  83
ENDBRANCH  34  35
ENDBRANCH  27  29
ENDBRANCH  26  27
ENDBRANCH  25  26
ENDBRANCH   1  25
TORSDOF 19
ENDMDL
MODEL 2
REMARK VINA RESULT:     -10.6      5.019      7.843
REMARK SMILES CCOc1cc(N2CCOCC2)ccc1[C@H]([NH3+])C(=O)OCCOC(=O)c1ccc(-c2c3nc(c(-c4cc(S(=O)(=O)[O-])ccc4F)c4ccc([nH]4)c(-c4cc(S(=O)(=O)[O-])ccc4F)c4nc(c(-c5cc(S(=O)(=O)[O-])ccc5F)c5ccc2[nH]5)C=C4)C=C3)cc1
REMARK SMILES IDX 21 1 20 2 18 3 19 4 16 5 15 6 4 7 5 8 6 9 14 10 13 11 3 12
REMARK SMILES IDX 2 13 1 14 7 15 8 16 12 17 9 18 11 19 10 20 17 21 22 25 23 26
REMARK SMILES IDX 24 27 25 28 26 29 27 30 88 31 28 32 87 33 29 34 30 35 31 36
REMARK SMILES IDX 81 37 32 38 86 39 80 40 82 41 33 42 85 43 79 44 78 45 34 47
REMARK SMILES IDX 66 48 46 49 65 50 47 51 50 52 64 53 83 54 48 55 49 56 63 58
REMARK SMILES IDX 84 59 51 60 35 61 36 62 44 63 37 64 43 65 45 66 42 67 38 68
REMARK SMILES IDX 39 69 40 70 41 71 67 72 68 73 76 74 69 75 75 76 77 77 74 78
REMARK SMILES IDX 70 79 71 80 72 81 73 82 52 83 53 84 61 85 54 86 60 87 62 88
REMARK SMILES IDX 59 89 55 90 56 91 57 92 58 93
REMARK H PARENT 17 22 17 23 17 24 82 46 50 57
REMARK Flexibility Score: inf
ROOT
ATOM      1  C   UNL A   1      31.028  29.729  24.912  1.00  0.00     0.274 C 
ENDROOT
BRANCH   1   2
ATOM      2  O   UNL A   1      30.997  28.499  24.171  1.00  0.00    -0.457 OA
BRANCH   2   3
ATOM      3  C   UNL A   1      30.696  27.390  24.914  1.00  0.00     0.370 C 
ATOM      4  O   UNL A   1      29.770  26.630  24.651  1.00  0.00    -0.245 OA
BRANCH   3   5
ATOM      5  C   UNL A   1      31.716  27.165  26.064  1.00  0.00     0.326 C 
BRANCH   5   6
ATOM      6  C   UNL A   1      32.499  25.883  25.875  1.00  0.00     0.063 A 
ATOM      7  C   UNL A   1      33.593  25.822  24.997  1.00  0.00     0.131 A 
ATOM      8  C   UNL A   1      34.069  24.588  24.548  1.00  0.00     0.072 A 
ATOM      9  C   UNL A   1      33.482  23.402  24.999  1.00  0.00     0.040 A 
ATOM     10  C   UNL A   1      32.091  24.698  26.499  1.00  0.00     0.016 A 
ATOM     11  C   UNL A   1      32.578  23.471  26.060  1.00  0.00     0.027 A 
BRANCH   7  12
ATOM     12  O   UNL A   1      34.029  26.951  24.357  1.00  0.00    -0.493 OA
BRANCH  12  13
ATOM     13  C   UNL A   1      33.842  26.943  22.936  1.00  0.00     0.226 C 
ATOM     14  C   UNL A   1      33.864  28.352  22.364  1.00  0.00     0.049 C 
ENDBRANCH  12  13
ENDBRANCH   7  12
BRANCH   9  15
ATOM     15  N   UNL A   1      33.661  22.229  24.297  1.00  0.00    -0.367 N 
ATOM     16  C   UNL A   1      33.295  22.186  22.878  1.00  0.00     0.145 C 
ATOM     17  C   UNL A   1      33.782  20.942  24.969  1.00  0.00     0.145 C 
ATOM     18  C   UNL A   1      32.071  21.285  22.675  1.00  0.00     0.181 C 
ATOM     19  C   UNL A   1      32.531  20.096  24.668  1.00  0.00     0.181 C 
ATOM     20  O   UNL A   1      32.278  19.982  23.252  1.00  0.00    -0.378 OA
ENDBRANCH   9  15
ENDBRANCH   5   6
BRANCH   5  21
ATOM     21  N   UNL A   1      31.029  27.255  27.388  1.00  0.00    -0.342 N 
ATOM     22  H   UNL A   1      30.417  26.447  27.509  1.00  0.00     0.345 HD
ATOM     23  H   UNL A   1      30.474  28.110  27.426  1.00  0.00     0.345 HD
ATOM     24  H   UNL A   1      31.726  27.269  28.132  1.00  0.00     0.345 HD
ENDBRANCH   5  21
ENDBRANCH   3   5
ENDBRANCH   2   3
ENDBRANCH   1   2
BRANCH   1  25
ATOM     25  C   UNL A   1      32.448  30.086  25.378  1.00  0.00     0.275 C 
BRANCH  25  26
ATOM     26  O   UNL A   1      32.555  30.252  26.807  1.00  0.00    -0.458 OA
BRANCH  26  27
ATOM     27  C   UNL A   1      33.153  31.398  27.220  1.00  0.00     0.338 C 
ATOM     28  O   UNL A   1      32.638  32.509  27.246  1.00  0.00    -0.246 OA
BRANCH  27  29
ATOM     29  C   UNL A   1      34.467  31.111  27.840  1.00  0.00     0.060 A 
ATOM     30  C   UNL A   1      34.700  29.809  28.301  1.00  0.00     0.016 A 
ATOM     31  C   UNL A   1      35.449  32.089  28.001  1.00  0.00     0.016 A 
ATOM     32  C   UNL A   1      35.919  29.463  28.880  1.00  0.00     0.010 A 
ATOM     33  C   UNL A   1      36.660  31.754  28.622  1.00  0.00     0.010 A 
ATOM     34  C   UNL A   1      36.902  30.438  29.060  1.00  0.00    -0.014 A 
BRANCH  34  35
ATOM     35  C   UNL A   1      38.128  30.095  29.821  1.00  0.00     0.031 A 
ATOM     36  C   UNL A   1      39.116  29.142  29.213  1.00  0.00     0.074 A 
ATOM     37  C   UNL A   1      38.382  30.667  31.010  1.00  0.00     0.049 A 
ATOM     38  N   UNL A   1      40.228  28.668  29.710  1.00  0.00    -0.248 NA
ATOM     39  C   UNL A   1      38.806  28.670  27.856  1.00  0.00     0.031 C 
ATOM     40  C   UNL A   1      37.549  31.683  31.653  1.00  0.00     0.029 A 
ATOM     41  N   UNL A   1      39.420  30.479  31.889  1.00  0.00    -0.354 N 
ATOM     42  C   UNL A   1      40.751  27.829  28.731  1.00  0.00     0.074 A 
ATOM     43  C   UNL A   1      39.819  27.850  27.623  1.00  0.00     0.031 C 
ATOM     44  C   UNL A   1      38.105  32.020  32.830  1.00  0.00     0.029 A 
ATOM     45  C   UNL A   1      39.305  31.212  33.046  1.00  0.00     0.049 A 
ATOM     46  H   UNL A   1      40.175  29.873  31.708  1.00  0.00     0.167 HD
ATOM     47  C   UNL A   1      41.899  27.107  28.763  1.00  0.00     0.034 A 
ATOM     48  C   UNL A   1      40.062  31.206  34.163  1.00  0.00     0.034 A 
ATOM     49  C   UNL A   1      42.798  27.079  29.891  1.00  0.00     0.049 A 
ATOM     50  C   UNL A   1      41.258  30.285  34.230  1.00  0.00     0.074 A 
ATOM     51  C   UNL A   1      43.985  26.380  30.029  1.00  0.00     0.029 A 
ATOM     52  N   UNL A   1      42.599  27.759  31.087  1.00  0.00    -0.354 N 
ATOM     53  N   UNL A   1      41.740  29.481  33.307  1.00  0.00    -0.248 NA
ATOM     54  C   UNL A   1      42.011  30.268  35.490  1.00  0.00     0.031 C 
ATOM     55  C   UNL A   1      44.452  26.562  31.336  1.00  0.00     0.029 A 
ATOM     56  C   UNL A   1      43.614  27.456  31.984  1.00  0.00     0.049 A 
ATOM     57  H   UNL A   1      41.848  28.367  31.271  1.00  0.00     0.167 HD
ATOM     58  C   UNL A   1      42.874  28.896  33.866  1.00  0.00     0.074 A 
ATOM     59  C   UNL A   1      43.007  29.443  35.200  1.00  0.00     0.031 C 
ATOM     60  C   UNL A   1      43.733  27.995  33.321  1.00  0.00     0.034 A 
BRANCH  47  61
ATOM     61  C   UNL A   1      42.185  26.223  27.572  1.00  0.00     0.023 A 
ATOM     62  C   UNL A   1      41.727  24.895  27.499  1.00  0.00     0.031 A 
ATOM     63  C   UNL A   1      42.983  26.701  26.517  1.00  0.00     0.131 A 
ATOM     64  C   UNL A   1      42.144  24.069  26.445  1.00  0.00     0.055 A 
ATOM     65  C   UNL A   1      43.318  25.900  25.424  1.00  0.00     0.041 A 
ATOM     66  F   UNL A   1      43.472  27.951  26.541  1.00  0.00    -0.206 F 
ATOM     67  C   UNL A   1      42.914  24.569  25.393  1.00  0.00     0.022 A 
BRANCH  64  68
ATOM     68  S   UNL A   1      41.819  22.287  26.561  1.00  0.00     0.124 S 
ATOM     69  O   UNL A   1      40.358  22.252  26.541  1.00  0.00    -0.237 OA
ATOM     70  O   UNL A   1      42.488  21.765  25.376  1.00  0.00    -0.237 OA
ATOM     71  O   UNL A   1      42.425  21.912  27.837  1.00  0.00    -0.744 OA
ENDBRANCH  64  68
ENDBRANCH  47  61
BRANCH  48  72
ATOM     72  C   UNL A   1      39.697  32.055  35.335  1.00  0.00     0.023 A 
ATOM     73  C   UNL A   1      38.890  31.554  36.370  1.00  0.00     0.031 A 
ATOM     74  C   UNL A   1      40.096  33.403  35.405  1.00  0.00     0.131 A 
ATOM     75  C   UNL A   1      38.476  32.404  37.408  1.00  0.00     0.055 A 
ATOM     76  C   UNL A   1      39.728  34.229  36.469  1.00  0.00     0.041 A 
ATOM     77  F   UNL A   1      40.858  33.937  34.437  1.00  0.00    -0.206 F 
ATOM     78  C   UNL A   1      38.902  33.733  37.472  1.00  0.00     0.022 A 
BRANCH  75  79
ATOM     79  S   UNL A   1      37.295  31.771  38.631  1.00  0.00     0.124 S 
ATOM     80  O   UNL A   1      38.064  31.875  39.866  1.00  0.00    -0.237 OA
ATOM     81  O   UNL A   1      36.181  32.702  38.488  1.00  0.00    -0.237 OA
ATOM     82  O   UNL A   1      37.029  30.409  38.173  1.00  0.00    -0.744 OA
ENDBRANCH  75  79
ENDBRANCH  48  72
BRANCH  60  83
ATOM     83  C   UNL A   1      44.929  27.585  34.151  1.00  0.00     0.023 A 
ATOM     84  C   UNL A   1      44.894  26.477  35.017  1.00  0.00     0.031 A 
ATOM     85  C   UNL A   1      46.125  28.323  34.075  1.00  0.00     0.131 A 
ATOM     86  C   UNL A   1      46.012  26.173  35.810  1.00  0.00     0.055 A 
ATOM     87  C   UNL A   1      47.256  27.974  34.814  1.00  0.00     0.041 A 
ATOM     88  F   UNL A   1      46.217  29.395  33.273  1.00  0.00    -0.206 F 
ATOM     89  C   UNL A   1      47.199  26.901  35.699  1.00  0.00     0.022 A 
BRANCH  86  90
ATOM     90  S   UNL A   1      45.865  24.872  37.067  1.00  0.00     0.124 S 
ATOM     91  O   UNL A   1      46.319  25.561  38.270  1.00  0.00    -0.237 OA
ATOM     92  O   UNL A   1      44.443  24.548  37.016  1.00  0.00    -0.237 OA
ATOM     93  O   UNL A   1      46.757  23.821  36.580  1.00  0.00    -0.744 OA
ENDBRANCH  86  90
ENDBRANCH  60  83
ENDBRANCH  34  35
ENDBRANCH  27  29
ENDBRANCH  26  27
ENDBRANCH  25  26
ENDBRANCH   1  25
TORSDOF 19
ENDMDL
MODEL 3
REMARK VINA RESULT:     -10.5      5.401     11.561
REMARK SMILES CCOc1cc(N2CCOCC2)ccc1[C@H]([NH3+])C(=O)OCCOC(=O)c1ccc(-c2c3nc(c(-c4cc(S(=O)(=O)[O-])ccc4F)c4ccc([nH]4)c(-c4cc(S(=O)(=O)[O-])ccc4F)c4nc(c(-c5cc(S(=O)(=O)[O-])ccc5F)c5ccc2[nH]5)C=C4)C=C3)cc1
REMARK SMILES IDX 21 1 20 2 18 3 19 4 16 5 15 6 4 7 5 8 6 9 14 10 13 11 3 12
REMARK SMILES IDX 2 13 1 14 7 15 8 16 12 17 9 18 11 19 10 20 17 21 22 25 23 26
REMARK SMILES IDX 24 27 25 28 26 29 27 30 88 31 28 32 87 33 29 34 30 35 31 36
REMARK SMILES IDX 81 37 32 38 86 39 80 40 82 41 33 42 85 43 79 44 78 45 34 47
REMARK SMILES IDX 66 48 46 49 65 50 47 51 50 52 64 53 83 54 48 55 49 56 63 58
REMARK SMILES IDX 84 59 51 60 35 61 36 62 44 63 37 64 43 65 45 66 42 67 38 68
REMARK SMILES IDX 39 69 40 70 41 71 67 72 68 73 76 74 69 75 75 76 77 77 74 78
REMARK SMILES IDX 70 79 71 80 72 81 73 82 52 83 53 84 61 85 54 86 60 87 62 88
REMARK SMILES IDX 59 89 55 90 56 91 57 92 58 93
REMARK H PARENT 17 22 17 23 17 24 82 46 50 57
REMARK Flexibility Score: inf
ROOT
ATOM      1  C   UNL A   1      34.136  34.580  28.964  1.00  0.00     0.274 C 
ENDROOT
BRANCH   1   2
ATOM      2  O   UNL A   1      33.320  34.483  30.143  1.00  0.00    -0.457 OA
BRANCH   2   3
ATOM      3  C   UNL A   1      33.952  34.828  31.306  1.00  0.00     0.370 C 
ATOM      4  O   UNL A   1      34.201  35.986  31.623  1.00  0.00    -0.245 OA
BRANCH   3   5
ATOM      5  C   UNL A   1      34.229  33.593  32.207  1.00  0.00     0.326 C 
BRANCH   5   6
ATOM      6  C   UNL A   1      35.385  33.839  33.154  1.00  0.00     0.063 A 
ATOM      7  C   UNL A   1      36.712  33.608  32.757  1.00  0.00     0.131 A 
ATOM      8  C   UNL A   1      37.720  33.476  33.714  1.00  0.00     0.072 A 
ATOM      9  C   UNL A   1      37.422  33.610  35.073  1.00  0.00     0.040 A 
ATOM     10  C   UNL A   1      35.152  34.212  34.483  1.00  0.00     0.016 A 
ATOM     11  C   UNL A   1      36.163  34.094  35.431  1.00  0.00     0.027 A 
BRANCH   7  12
ATOM     12  O   UNL A   1      36.993  33.235  31.470  1.00  0.00    -0.493 OA
BRANCH  12  13
ATOM     13  C   UNL A   1      37.882  34.115  30.773  1.00  0.00     0.226 C 
ATOM     14  C   UNL A   1      37.957  33.773  29.293  1.00  0.00     0.049 C 
ENDBRANCH  12  13
ENDBRANCH   7  12
BRANCH   9  15
ATOM     15  N   UNL A   1      38.286  33.113  36.025  1.00  0.00    -0.367 N 
ATOM     16  C   UNL A   1      38.177  31.704  36.417  1.00  0.00     0.145 C 
ATOM     17  C   UNL A   1      38.992  33.985  36.955  1.00  0.00     0.145 C 
ATOM     18  C   UNL A   1      37.661  31.593  37.856  1.00  0.00     0.181 C 
ATOM     19  C   UNL A   1      38.435  33.768  38.374  1.00  0.00     0.181 C 
ATOM     20  O   UNL A   1      38.459  32.378  38.761  1.00  0.00    -0.378 OA
ENDBRANCH   9  15
ENDBRANCH   5   6
BRANCH   5  21
ATOM     21  N   UNL A   1      34.397  32.369  31.367  1.00  0.00    -0.342 N 
ATOM     22  H   UNL A   1      33.642  32.320  30.682  1.00  0.00     0.345 HD
ATOM     23  H   UNL A   1      34.370  31.541  31.962  1.00  0.00     0.345 HD
ATOM     24  H   UNL A   1      35.294  32.409  30.883  1.00  0.00     0.345 HD
ENDBRANCH   5  21
ENDBRANCH   3   5
ENDBRANCH   2   3
ENDBRANCH   1   2
BRANCH   1  25
ATOM     25  C   UNL A   1      33.789  33.497  27.932  1.00  0.00     0.275 C 
BRANCH  25  26
ATOM     26  O   UNL A   1      34.889  32.608  27.645  1.00  0.00    -0.458 OA
BRANCH  26  27
ATOM     27  C   UNL A   1      34.669  31.297  27.916  1.00  0.00     0.338 C 
ATOM     28  O   UNL A   1      33.618  30.692  27.741  1.00  0.00    -0.246 OA
BRANCH  27  29
ATOM     29  C   UNL A   1      35.934  30.615  28.270  1.00  0.00     0.060 A 
ATOM     30  C   UNL A   1      35.956  29.847  29.442  1.00  0.00     0.016 A 
ATOM     31  C   UNL A   1      37.092  30.737  27.501  1.00  0.00     0.016 A 
ATOM     32  C   UNL A   1      37.107  29.164  29.828  1.00  0.00     0.010 A 
ATOM     33  C   UNL A   1      38.264  30.085  27.911  1.00  0.00     0.010 A 
ATOM     34  C   UNL A   1      38.276  29.293  29.074  1.00  0.00    -0.014 A 
BRANCH  34  35
ATOM     35  C   UNL A   1      39.533  28.694  29.583  1.00  0.00     0.031 A 
ATOM     36  C   UNL A   1      40.155  29.258  30.827  1.00  0.00     0.074 A 
ATOM     37  C   UNL A   1      40.082  27.628  28.974  1.00  0.00     0.049 A 
ATOM     38  N   UNL A   1      41.267  28.925  31.426  1.00  0.00    -0.248 NA
ATOM     39  C   UNL A   1      39.410  30.340  31.487  1.00  0.00     0.031 C 
ATOM     40  C   UNL A   1      39.515  26.931  27.820  1.00  0.00     0.029 A 
ATOM     41  N   UNL A   1      41.240  26.942  29.246  1.00  0.00    -0.354 N 
ATOM     42  C   UNL A   1      41.367  29.763  32.531  1.00  0.00     0.074 A 
ATOM     43  C   UNL A   1      40.208  30.631  32.503  1.00  0.00     0.031 C 
ATOM     44  C   UNL A   1      40.334  25.920  27.479  1.00  0.00     0.029 A 
ATOM     45  C   UNL A   1      41.504  25.929  28.356  1.00  0.00     0.049 A 
ATOM     46  H   UNL A   1      41.827  27.157  30.007  1.00  0.00     0.167 HD
ATOM     47  C   UNL A   1      42.341  29.804  33.475  1.00  0.00     0.034 A 
ATOM     48  C   UNL A   1      42.581  25.125  28.243  1.00  0.00     0.034 A 
ATOM     49  C   UNL A   1      43.502  28.949  33.467  1.00  0.00     0.049 A 
ATOM     50  C   UNL A   1      43.720  25.287  29.223  1.00  0.00     0.074 A 
ATOM     51  C   UNL A   1      44.549  28.909  34.372  1.00  0.00     0.029 A 
ATOM     52  N   UNL A   1      43.787  27.999  32.494  1.00  0.00    -0.354 N 
ATOM     53  N   UNL A   1      43.817  26.092  30.258  1.00  0.00    -0.248 NA
ATOM     54  C   UNL A   1      44.897  24.432  29.018  1.00  0.00     0.031 C 
ATOM     55  C   UNL A   1      45.507  28.006  33.896  1.00  0.00     0.029 A 
ATOM     56  C   UNL A   1      45.016  27.406  32.748  1.00  0.00     0.049 A 
ATOM     57  H   UNL A   1      43.202  27.778  31.733  1.00  0.00     0.167 HD
ATOM     58  C   UNL A   1      45.048  25.810  30.846  1.00  0.00     0.074 A 
ATOM     59  C   UNL A   1      45.653  24.758  30.056  1.00  0.00     0.031 C 
ATOM     60  C   UNL A   1      45.621  26.365  31.947  1.00  0.00     0.034 A 
BRANCH  47  61
ATOM     61  C   UNL A   1      42.222  30.874  34.535  1.00  0.00     0.023 A 
ATOM     62  C   UNL A   1      42.531  32.221  34.276  1.00  0.00     0.031 A 
ATOM     63  C   UNL A   1      41.851  30.526  35.846  1.00  0.00     0.131 A 
ATOM     64  C   UNL A   1      42.550  33.149  35.328  1.00  0.00     0.055 A 
ATOM     65  C   UNL A   1      41.782  31.473  36.870  1.00  0.00     0.041 A 
ATOM     66  F   UNL A   1      41.569  29.253  36.163  1.00  0.00    -0.206 F 
ATOM     67  C   UNL A   1      42.152  32.791  36.617  1.00  0.00     0.022 A 
BRANCH  64  68
ATOM     68  S   UNL A   1      43.276  34.784  35.026  1.00  0.00     0.124 S 
ATOM     69  O   UNL A   1      43.533  35.250  36.387  1.00  0.00    -0.237 OA
ATOM     70  O   UNL A   1      44.453  34.465  34.227  1.00  0.00    -0.237 OA
ATOM     71  O   UNL A   1      42.218  35.504  34.321  1.00  0.00    -0.744 OA
ENDBRANCH  64  68
ENDBRANCH  47  61
BRANCH  48  72
ATOM     72  C   UNL A   1      42.673  24.126  27.137  1.00  0.00     0.023 A 
ATOM     73  C   UNL A   1      42.054  22.870  27.242  1.00  0.00     0.031 A 
ATOM     74  C   UNL A   1      43.437  24.389  25.985  1.00  0.00     0.131 A 
ATOM     75  C   UNL A   1      42.242  21.910  26.234  1.00  0.00     0.055 A 
ATOM     76  C   UNL A   1      43.574  23.452  24.959  1.00  0.00     0.041 A 
ATOM     77  F   UNL A   1      44.060  25.570  25.838  1.00  0.00    -0.206 F 
ATOM     78  C   UNL A   1      42.985  22.198  25.087  1.00  0.00     0.022 A 
BRANCH  75  79
ATOM     79  S   UNL A   1      41.574  20.242  26.485  1.00  0.00     0.124 S 
ATOM     80  O   UNL A   1      42.074  19.920  27.816  1.00  0.00    -0.237 OA
ATOM     81  O   UNL A   1      40.137  20.473  26.376  1.00  0.00    -0.237 OA
ATOM     82  O   UNL A   1      42.163  19.472  25.392  1.00  0.00    -0.744 OA
ENDBRANCH  75  79
ENDBRANCH  48  72
BRANCH  60  83
ATOM     83  C   UNL A   1      46.951  25.802  32.395  1.00  0.00     0.023 A 
ATOM     84  C   UNL A   1      48.160  26.144  31.761  1.00  0.00     0.031 A 
ATOM     85  C   UNL A   1      47.008  24.904  33.476  1.00  0.00     0.131 A 
ATOM     86  C   UNL A   1      49.361  25.550  32.177  1.00  0.00     0.055 A 
ATOM     87  C   UNL A   1      48.215  24.369  33.931  1.00  0.00     0.041 A 
ATOM     88  F   UNL A   1      45.888  24.534  34.117  1.00  0.00    -0.206 F 
ATOM     89  C   UNL A   1      49.400  24.681  33.271  1.00  0.00     0.022 A 
BRANCH  86  90
ATOM     90  S   UNL A   1      50.866  25.846  31.207  1.00  0.00     0.124 S 
ATOM     91  O   UNL A   1      50.876  27.302  31.100  1.00  0.00    -0.237 OA
ATOM     92  O   UNL A   1      51.903  25.262  32.051  1.00  0.00    -0.237 OA
ATOM     93  O   UNL A   1      50.614  25.135  29.955  1.00  0.00    -0.744 OA
ENDBRANCH  86  90
ENDBRANCH  60  83
ENDBRANCH  34  35
ENDBRANCH  27  29
ENDBRANCH  26  27
ENDBRANCH  25  26
ENDBRANCH   1  25
TORSDOF 19
ENDMDL
