MODEL 1
REMARK VINA RESULT:     -10.8      0.000      0.000
REMARK SMILES CCc1cc([C@H]([NH3+])C(=O)OCCOC(=O)c2ccc(-c3c4nc(c(-c5cc(S(=O)(=O)[O-])ccc5F)c5ccc([nH]5)c(-c5cc(S(=O)(=O)[O-])ccc5F)c5nc(c(-c6cc(S(=O)(=O)[O-])ccc6F)c6ccc3[nH]6)C=C5)C=C4)cc2)cc(CC)c1N
REMARK SMILES IDX 12 1 11 2 10 3 8 4 9 5 6 6 5 7 3 8 4 9 83 10 80 11 79 12
REMARK SMILES IDX 2 13 1 14 84 15 81 18 82 19 7 20 13 24 14 25 15 26 16 27
REMARK SMILES IDX 17 28 78 29 18 30 77 31 19 32 20 33 21 34 71 35 22 36 76 37
REMARK SMILES IDX 70 38 72 39 23 40 75 41 69 42 68 43 24 45 56 46 36 47 55 48
REMARK SMILES IDX 37 49 40 50 54 51 73 52 38 53 39 54 53 56 74 57 41 58 25 59
REMARK SMILES IDX 26 60 34 61 27 62 33 63 35 64 32 65 28 66 29 67 30 68 31 69
REMARK SMILES IDX 57 70 58 71 66 72 59 73 65 74 67 75 64 76 60 77 61 78 62 79
REMARK SMILES IDX 63 80 42 81 43 82 51 83 44 84 50 85 52 86 49 87 45 88 46 89
REMARK SMILES IDX 47 90 48 91
REMARK H PARENT 84 16 84 17 7 21 7 22 7 23 72 44 40 55
REMARK Flexibility Score: inf
ROOT
ATOM      1  C   UNL A   1      36.559  20.471  25.035  1.00  0.00     0.275 C 
ENDROOT
BRANCH   1   2
ATOM      2  C   UNL A   1      35.051  20.741  25.081  1.00  0.00     0.274 C 
BRANCH   2   3
ATOM      3  O   UNL A   1      34.779  22.150  25.080  1.00  0.00    -0.457 OA
BRANCH   3   4
ATOM      4  C   UNL A   1      34.115  22.640  26.167  1.00  0.00     0.369 C 
ATOM      5  O   UNL A   1      34.487  22.489  27.327  1.00  0.00    -0.245 OA
BRANCH   4   6
ATOM      6  C   UNL A   1      32.848  23.432  25.782  1.00  0.00     0.323 C 
BRANCH   6   7
ATOM      7  C   UNL A   1      33.226  24.797  25.265  1.00  0.00     0.021 A 
ATOM      8  C   UNL A   1      33.725  27.154  25.700  1.00  0.00    -0.024 A 
ATOM      9  C   UNL A   1      33.485  25.844  26.153  1.00  0.00     0.016 A 
ATOM     10  C   UNL A   1      33.792  27.398  24.301  1.00  0.00     0.038 A 
ATOM     11  C   UNL A   1      33.491  26.350  23.398  1.00  0.00    -0.024 A 
ATOM     12  C   UNL A   1      33.208  25.070  23.899  1.00  0.00     0.016 A 
BRANCH   8  13
ATOM     13  C   UNL A   1      33.946  28.276  26.706  1.00  0.00     0.034 C 
ATOM     14  C   UNL A   1      32.727  29.107  27.104  1.00  0.00     0.009 C 
ENDBRANCH   8  13
BRANCH  10  15
ATOM     15  N   UNL A   1      34.010  28.695  23.834  1.00  0.00    -0.398 N 
ATOM     16  H   UNL A   1      34.553  29.324  24.363  1.00  0.00     0.156 HD
ATOM     17  H   UNL A   1      33.622  28.982  22.975  1.00  0.00     0.156 HD
ENDBRANCH  10  15
BRANCH  11  18
ATOM     18  C   UNL A   1      33.412  26.513  21.894  1.00  0.00     0.034 C 
ATOM     19  C   UNL A   1      32.138  25.919  21.302  1.00  0.00     0.009 C 
ENDBRANCH  11  18
ENDBRANCH   6   7
BRANCH   6  20
ATOM     20  N   UNL A   1      31.849  23.490  26.877  1.00  0.00    -0.342 N 
ATOM     21  H   UNL A   1      32.084  24.254  27.511  1.00  0.00     0.345 HD
ATOM     22  H   UNL A   1      31.855  22.609  27.390  1.00  0.00     0.345 HD
ATOM     23  H   UNL A   1      30.921  23.647  26.484  1.00  0.00     0.345 HD
ENDBRANCH   6  20
ENDBRANCH   4   6
ENDBRANCH   3   4
ENDBRANCH   2   3
ENDBRANCH   1   2
BRANCH   1  24
ATOM     24  O   UNL A   1      37.327  21.545  25.612  1.00  0.00    -0.458 OA
BRANCH  24  25
ATOM     25  C   UNL A   1      38.614  21.242  25.910  1.00  0.00     0.338 C 
ATOM     26  O   UNL A   1      39.198  20.196  25.671  1.00  0.00    -0.246 OA
BRANCH  25  27
ATOM     27  C   UNL A   1      39.306  22.435  26.426  1.00  0.00     0.060 A 
ATOM     28  C   UNL A   1      38.810  23.683  26.037  1.00  0.00     0.016 A 
ATOM     29  C   UNL A   1      40.455  22.349  27.211  1.00  0.00     0.016 A 
ATOM     30  C   UNL A   1      39.458  24.849  26.415  1.00  0.00     0.010 A 
ATOM     31  C   UNL A   1      41.109  23.525  27.595  1.00  0.00     0.010 A 
ATOM     32  C   UNL A   1      40.618  24.780  27.191  1.00  0.00    -0.014 A 
BRANCH  32  33
ATOM     33  C   UNL A   1      41.338  26.035  27.510  1.00  0.00     0.031 A 
ATOM     34  C   UNL A   1      40.671  27.074  28.363  1.00  0.00     0.074 A 
ATOM     35  C   UNL A   1      42.605  26.202  27.088  1.00  0.00     0.049 A 
ATOM     36  N   UNL A   1      41.100  28.259  28.712  1.00  0.00    -0.248 NA
ATOM     37  C   UNL A   1      39.343  26.731  28.893  1.00  0.00     0.031 C 
ATOM     38  C   UNL A   1      43.370  25.222  26.314  1.00  0.00     0.029 A 
ATOM     39  N   UNL A   1      43.475  27.248  27.256  1.00  0.00    -0.354 N 
ATOM     40  C   UNL A   1      40.088  28.814  29.487  1.00  0.00     0.074 A 
ATOM     41  C   UNL A   1      39.015  27.841  29.537  1.00  0.00     0.031 C 
ATOM     42  C   UNL A   1      44.597  25.714  26.078  1.00  0.00     0.029 A 
ATOM     43  C   UNL A   1      44.686  27.061  26.633  1.00  0.00     0.049 A 
ATOM     44  H   UNL A   1      43.253  28.056  27.773  1.00  0.00     0.167 HD
ATOM     45  C   UNL A   1      40.062  30.023  30.099  1.00  0.00     0.034 A 
ATOM     46  C   UNL A   1      45.733  27.898  26.495  1.00  0.00     0.034 A 
ATOM     47  C   UNL A   1      41.146  30.975  30.036  1.00  0.00     0.049 A 
ATOM     48  C   UNL A   1      45.649  29.268  27.118  1.00  0.00     0.074 A 
ATOM     49  C   UNL A   1      41.229  32.231  30.611  1.00  0.00     0.029 A 
ATOM     50  N   UNL A   1      42.337  30.776  29.348  1.00  0.00    -0.354 N 
ATOM     51  N   UNL A   1      44.672  29.797  27.819  1.00  0.00    -0.248 NA
ATOM     52  C   UNL A   1      46.805  30.152  26.929  1.00  0.00     0.031 C 
ATOM     53  C   UNL A   1      42.441  32.814  30.222  1.00  0.00     0.029 A 
ATOM     54  C   UNL A   1      43.147  31.895  29.461  1.00  0.00     0.049 A 
ATOM     55  H   UNL A   1      42.572  29.959  28.853  1.00  0.00     0.167 HD
ATOM     56  C   UNL A   1      45.107  31.072  28.172  1.00  0.00     0.074 A 
ATOM     57  C   UNL A   1      46.439  31.223  27.620  1.00  0.00     0.031 C 
ATOM     58  C   UNL A   1      44.466  32.030  28.888  1.00  0.00     0.034 A 
BRANCH  45  59
ATOM     59  C   UNL A   1      38.795  30.402  30.827  1.00  0.00     0.023 A 
ATOM     60  C   UNL A   1      37.712  31.011  30.170  1.00  0.00     0.031 A 
ATOM     61  C   UNL A   1      38.687  30.185  32.213  1.00  0.00     0.131 A 
ATOM     62  C   UNL A   1      36.601  31.447  30.909  1.00  0.00     0.055 A 
ATOM     63  C   UNL A   1      37.547  30.553  32.930  1.00  0.00     0.041 A 
ATOM     64  F   UNL A   1      39.699  29.629  32.898  1.00  0.00    -0.206 F 
ATOM     65  C   UNL A   1      36.501  31.201  32.281  1.00  0.00     0.022 A 
BRANCH  62  66
ATOM     66  S   UNL A   1      35.349  32.464  30.078  1.00  0.00     0.124 S 
ATOM     67  O   UNL A   1      34.338  32.601  31.124  1.00  0.00    -0.237 OA
ATOM     68  O   UNL A   1      36.093  33.673  29.747  1.00  0.00    -0.237 OA
ATOM     69  O   UNL A   1      34.945  31.647  28.936  1.00  0.00    -0.744 OA
ENDBRANCH  62  66
ENDBRANCH  45  59
BRANCH  46  70
ATOM     70  C   UNL A   1      46.920  27.492  25.691  1.00  0.00     0.023 A 
ATOM     71  C   UNL A   1      47.057  27.873  24.348  1.00  0.00     0.031 A 
ATOM     72  C   UNL A   1      47.923  26.680  26.253  1.00  0.00     0.131 A 
ATOM     73  C   UNL A   1      48.153  27.413  23.600  1.00  0.00     0.055 A 
ATOM     74  C   UNL A   1      49.036  26.268  25.520  1.00  0.00     0.041 A 
ATOM     75  F   UNL A   1      47.840  26.287  27.534  1.00  0.00    -0.206 F 
ATOM     76  C   UNL A   1      49.150  26.624  24.181  1.00  0.00     0.022 A 
BRANCH  73  77
ATOM     77  S   UNL A   1      48.221  27.799  21.829  1.00  0.00     0.124 S 
ATOM     78  O   UNL A   1      49.347  28.723  21.768  1.00  0.00    -0.237 OA
ATOM     79  O   UNL A   1      48.438  26.482  21.239  1.00  0.00    -0.237 OA
ATOM     80  O   UNL A   1      46.912  28.392  21.560  1.00  0.00    -0.744 OA
ENDBRANCH  73  77
ENDBRANCH  46  70
BRANCH  58  81
ATOM     81  C   UNL A   1      45.226  33.307  29.142  1.00  0.00     0.023 A 
ATOM     82  C   UNL A   1      45.139  34.405  28.267  1.00  0.00     0.031 A 
ATOM     83  C   UNL A   1      46.063  33.420  30.266  1.00  0.00     0.131 A 
ATOM     84  C   UNL A   1      45.917  35.548  28.502  1.00  0.00     0.055 A 
ATOM     85  C   UNL A   1      46.793  34.580  30.524  1.00  0.00     0.041 A 
ATOM     86  F   UNL A   1      46.184  32.401  31.131  1.00  0.00    -0.206 F 
ATOM     87  C   UNL A   1      46.732  35.648  29.632  1.00  0.00     0.022 A 
BRANCH  84  88
ATOM     88  S   UNL A   1      45.914  36.874  27.264  1.00  0.00     0.124 S 
ATOM     89  O   UNL A   1      44.489  37.033  26.993  1.00  0.00    -0.237 OA
ATOM     90  O   UNL A   1      46.554  37.972  27.980  1.00  0.00    -0.237 OA
ATOM     91  O   UNL A   1      46.695  36.314  26.162  1.00  0.00    -0.744 OA
ENDBRANCH  84  88
ENDBRANCH  58  81
ENDBRANCH  32  33
ENDBRANCH  25  27
ENDBRANCH  24  25
ENDBRANCH   1  24
TORSDOF 19
ENDMDL
MODEL 2
REMARK VINA RESULT:     -10.6      3.935      9.925
REMARK SMILES CCc1cc([C@H]([NH3+])C(=O)OCCOC(=O)c2ccc(-c3c4nc(c(-c5cc(S(=O)(=O)[O-])ccc5F)c5ccc([nH]5)c(-c5cc(S(=O)(=O)[O-])ccc5F)c5nc(c(-c6cc(S(=O)(=O)[O-])ccc6F)c6ccc3[nH]6)C=C5)C=C4)cc2)cc(CC)c1N
REMARK SMILES IDX 12 1 11 2 10 3 8 4 9 5 6 6 5 7 3 8 4 9 83 10 80 11 79 12
REMARK SMILES IDX 2 13 1 14 84 15 81 18 82 19 7 20 13 24 14 25 15 26 16 27
REMARK SMILES IDX 17 28 78 29 18 30 77 31 19 32 20 33 21 34 71 35 22 36 76 37
REMARK SMILES IDX 70 38 72 39 23 40 75 41 69 42 68 43 24 45 56 46 36 47 55 48
REMARK SMILES IDX 37 49 40 50 54 51 73 52 38 53 39 54 53 56 74 57 41 58 25 59
REMARK SMILES IDX 26 60 34 61 27 62 33 63 35 64 32 65 28 66 29 67 30 68 31 69
REMARK SMILES IDX 57 70 58 71 66 72 59 73 65 74 67 75 64 76 60 77 61 78 62 79
REMARK SMILES IDX 63 80 42 81 43 82 51 83 44 84 50 85 52 86 49 87 45 88 46 89
REMARK SMILES IDX 47 90 48 91
REMARK H PARENT 84 16 84 17 7 21 7 22 7 23 72 44 40 55
REMARK Flexibility Score: inf
ROOT
ATOM      1  C   UNL A   1      41.070  20.520  26.549  1.00  0.00     0.275 C 
ENDROOT
BRANCH   1   2
ATOM      2  C   UNL A   1      42.519  20.943  26.283  1.00  0.00     0.274 C 
BRANCH   2   3
ATOM      3  O   UNL A   1      42.596  21.846  25.170  1.00  0.00    -0.457 OA
BRANCH   3   4
ATOM      4  C   UNL A   1      43.468  22.889  25.295  1.00  0.00     0.369 C 
ATOM      5  O   UNL A   1      43.168  24.064  25.107  1.00  0.00    -0.245 OA
BRANCH   4   6
ATOM      6  C   UNL A   1      44.878  22.435  25.728  1.00  0.00     0.323 C 
BRANCH   6   7
ATOM      7  C   UNL A   1      45.416  23.357  26.794  1.00  0.00     0.021 A 
ATOM      8  C   UNL A   1      47.200  24.818  27.614  1.00  0.00    -0.024 A 
ATOM      9  C   UNL A   1      46.615  24.045  26.595  1.00  0.00     0.016 A 
ATOM     10  C   UNL A   1      46.507  24.972  28.846  1.00  0.00     0.038 A 
ATOM     11  C   UNL A   1      45.313  24.245  29.066  1.00  0.00    -0.024 A 
ATOM     12  C   UNL A   1      44.793  23.447  28.036  1.00  0.00     0.016 A 
BRANCH   8  13
ATOM     13  C   UNL A   1      48.537  25.505  27.372  1.00  0.00     0.034 C 
ATOM     14  C   UNL A   1      49.792  24.781  27.857  1.00  0.00     0.009 C 
ENDBRANCH   8  13
BRANCH  10  15
ATOM     15  N   UNL A   1      47.082  25.721  29.875  1.00  0.00    -0.398 N 
ATOM     16  H   UNL A   1      48.032  25.597  30.102  1.00  0.00     0.156 HD
ATOM     17  H   UNL A   1      46.537  26.374  30.373  1.00  0.00     0.156 HD
ENDBRANCH  10  15
BRANCH  11  18
ATOM     18  C   UNL A   1      44.548  24.233  30.375  1.00  0.00     0.034 C 
ATOM     19  C   UNL A   1      43.500  23.125  30.435  1.00  0.00     0.009 C 
ENDBRANCH  11  18
ENDBRANCH   6   7
BRANCH   6  20
ATOM     20  N   UNL A   1      45.809  22.275  24.585  1.00  0.00    -0.342 N 
ATOM     21  H   UNL A   1      46.421  23.090  24.529  1.00  0.00     0.345 HD
ATOM     22  H   UNL A   1      45.275  22.193  23.720  1.00  0.00     0.345 HD
ATOM     23  H   UNL A   1      46.371  21.435  24.717  1.00  0.00     0.345 HD
ENDBRANCH   6  20
ENDBRANCH   4   6
ENDBRANCH   3   4
ENDBRANCH   2   3
ENDBRANCH   1   2
BRANCH   1  24
ATOM     24  O   UNL A   1      40.355  21.479  27.353  1.00  0.00    -0.458 OA
BRANCH  24  25
ATOM     25  C   UNL A   1      39.633  22.393  26.659  1.00  0.00     0.338 C 
ATOM     26  O   UNL A   1      38.637  22.185  25.985  1.00  0.00    -0.246 OA
BRANCH  25  27
ATOM     27  C   UNL A   1      40.112  23.751  26.967  1.00  0.00     0.060 A 
ATOM     28  C   UNL A   1      40.769  23.939  28.186  1.00  0.00     0.016 A 
ATOM     29  C   UNL A   1      39.866  24.836  26.126  1.00  0.00     0.016 A 
ATOM     30  C   UNL A   1      41.175  25.205  28.581  1.00  0.00     0.010 A 
ATOM     31  C   UNL A   1      40.277  26.114  26.522  1.00  0.00     0.010 A 
ATOM     32  C   UNL A   1      40.925  26.305  27.756  1.00  0.00    -0.014 A 
BRANCH  32  33
ATOM     33  C   UNL A   1      41.293  27.657  28.239  1.00  0.00     0.031 A 
ATOM     34  C   UNL A   1      42.726  28.097  28.185  1.00  0.00     0.074 A 
ATOM     35  C   UNL A   1      40.330  28.499  28.658  1.00  0.00     0.049 A 
ATOM     36  N   UNL A   1      43.267  29.210  28.606  1.00  0.00    -0.248 NA
ATOM     37  C   UNL A   1      43.677  27.155  27.574  1.00  0.00     0.031 C 
ATOM     38  C   UNL A   1      38.898  28.194  28.683  1.00  0.00     0.029 A 
ATOM     39  N   UNL A   1      40.408  29.781  29.136  1.00  0.00    -0.354 N 
ATOM     40  C   UNL A   1      44.625  29.099  28.331  1.00  0.00     0.074 A 
ATOM     41  C   UNL A   1      44.826  27.798  27.726  1.00  0.00     0.031 C 
ATOM     42  C   UNL A   1      38.233  29.263  29.148  1.00  0.00     0.029 A 
ATOM     43  C   UNL A   1      39.191  30.304  29.506  1.00  0.00     0.049 A 
ATOM     44  H   UNL A   1      41.254  30.280  29.207  1.00  0.00     0.167 HD
ATOM     45  C   UNL A   1      45.609  30.002  28.563  1.00  0.00     0.034 A 
ATOM     46  C   UNL A   1      38.892  31.475  30.101  1.00  0.00     0.034 A 
ATOM     47  C   UNL A   1      45.382  31.294  29.165  1.00  0.00     0.049 A 
ATOM     48  C   UNL A   1      40.013  32.430  30.421  1.00  0.00     0.074 A 
ATOM     49  C   UNL A   1      46.302  32.287  29.453  1.00  0.00     0.029 A 
ATOM     50  N   UNL A   1      44.144  31.770  29.581  1.00  0.00    -0.354 N 
ATOM     51  N   UNL A   1      41.299  32.300  30.189  1.00  0.00    -0.248 NA
ATOM     52  C   UNL A   1      39.643  33.687  31.084  1.00  0.00     0.031 C 
ATOM     53  C   UNL A   1      45.632  33.335  30.095  1.00  0.00     0.029 A 
ATOM     54  C   UNL A   1      44.281  33.028  30.147  1.00  0.00     0.049 A 
ATOM     55  H   UNL A   1      43.294  31.284  29.487  1.00  0.00     0.167 HD
ATOM     56  C   UNL A   1      41.889  33.470  30.660  1.00  0.00     0.074 A 
ATOM     57  C   UNL A   1      40.816  34.297  31.174  1.00  0.00     0.031 C 
ATOM     58  C   UNL A   1      43.198  33.829  30.668  1.00  0.00     0.034 A 
BRANCH  45  59
ATOM     59  C   UNL A   1      47.021  29.587  28.223  1.00  0.00     0.023 A 
ATOM     60  C   UNL A   1      47.861  28.966  29.163  1.00  0.00     0.031 A 
ATOM     61  C   UNL A   1      47.546  29.858  26.947  1.00  0.00     0.131 A 
ATOM     62  C   UNL A   1      49.200  28.701  28.837  1.00  0.00     0.055 A 
ATOM     63  C   UNL A   1      48.858  29.523  26.604  1.00  0.00     0.041 A 
ATOM     64  F   UNL A   1      46.799  30.471  26.016  1.00  0.00    -0.206 F 
ATOM     65  C   UNL A   1      49.697  28.955  27.556  1.00  0.00     0.022 A 
BRANCH  62  66
ATOM     66  S   UNL A   1      50.323  28.151  30.151  1.00  0.00     0.124 S 
ATOM     67  O   UNL A   1      51.403  27.539  29.380  1.00  0.00    -0.237 OA
ATOM     68  O   UNL A   1      50.651  29.398  30.830  1.00  0.00    -0.237 OA
ATOM     69  O   UNL A   1      49.512  27.213  30.925  1.00  0.00    -0.744 OA
ENDBRANCH  62  66
ENDBRANCH  45  59
BRANCH  46  70
ATOM     70  C   UNL A   1      37.486  31.786  30.486  1.00  0.00     0.023 A 
ATOM     71  C   UNL A   1      36.611  32.429  29.598  1.00  0.00     0.031 A 
ATOM     72  C   UNL A   1      37.009  31.473  31.773  1.00  0.00     0.131 A 
ATOM     73  C   UNL A   1      35.315  32.771  30.018  1.00  0.00     0.055 A 
ATOM     74  C   UNL A   1      35.704  31.770  32.168  1.00  0.00     0.041 A 
ATOM     75  F   UNL A   1      37.805  30.860  32.661  1.00  0.00    -0.206 F 
ATOM     76  C   UNL A   1      34.852  32.433  31.293  1.00  0.00     0.022 A 
BRANCH  73  77
ATOM     77  S   UNL A   1      34.263  33.733  28.897  1.00  0.00     0.124 S 
ATOM     78  O   UNL A   1      35.229  34.638  28.286  1.00  0.00    -0.237 OA
ATOM     79  O   UNL A   1      33.716  32.696  28.029  1.00  0.00    -0.237 OA
ATOM     80  O   UNL A   1      33.298  34.365  29.795  1.00  0.00    -0.744 OA
ENDBRANCH  73  77
ENDBRANCH  46  70
BRANCH  58  81
ATOM     81  C   UNL A   1      43.522  35.196  31.216  1.00  0.00     0.023 A 
ATOM     82  C   UNL A   1      43.579  36.329  30.385  1.00  0.00     0.031 A 
ATOM     83  C   UNL A   1      43.794  35.362  32.585  1.00  0.00     0.131 A 
ATOM     84  C   UNL A   1      43.953  37.569  30.922  1.00  0.00     0.055 A 
ATOM     85  C   UNL A   1      44.113  36.609  33.123  1.00  0.00     0.041 A 
ATOM     86  F   UNL A   1      43.756  34.312  33.421  1.00  0.00    -0.206 F 
ATOM     87  C   UNL A   1      44.206  37.719  32.288  1.00  0.00     0.022 A 
BRANCH  84  88
ATOM     88  S   UNL A   1      44.187  38.972  29.796  1.00  0.00     0.124 S 
ATOM     89  O   UNL A   1      45.435  38.618  29.126  1.00  0.00    -0.237 OA
ATOM     90  O   UNL A   1      42.984  38.916  28.972  1.00  0.00    -0.237 OA
ATOM     91  O   UNL A   1      44.270  40.122  30.694  1.00  0.00    -0.744 OA
ENDBRANCH  84  88
ENDBRANCH  58  81
ENDBRANCH  32  33
ENDBRANCH  25  27
ENDBRANCH  24  25
ENDBRANCH   1  24
TORSDOF 19
ENDMDL
MODEL 3
REMARK VINA RESULT:     -10.6      5.455      9.388
REMARK SMILES CCc1cc([C@H]([NH3+])C(=O)OCCOC(=O)c2ccc(-c3c4nc(c(-c5cc(S(=O)(=O)[O-])ccc5F)c5ccc([nH]5)c(-c5cc(S(=O)(=O)[O-])ccc5F)c5nc(c(-c6cc(S(=O)(=O)[O-])ccc6F)c6ccc3[nH]6)C=C5)C=C4)cc2)cc(CC)c1N
REMARK SMILES IDX 12 1 11 2 10 3 8 4 9 5 6 6 5 7 3 8 4 9 83 10 80 11 79 12
REMARK SMILES IDX 2 13 1 14 84 15 81 18 82 19 7 20 13 24 14 25 15 26 16 27
REMARK SMILES IDX 17 28 78 29 18 30 77 31 19 32 20 33 21 34 71 35 22 36 76 37
REMARK SMILES IDX 70 38 72 39 23 40 75 41 69 42 68 43 24 45 56 46 36 47 55 48
REMARK SMILES IDX 37 49 40 50 54 51 73 52 38 53 39 54 53 56 74 57 41 58 25 59
REMARK SMILES IDX 26 60 34 61 27 62 33 63 35 64 32 65 28 66 29 67 30 68 31 69
REMARK SMILES IDX 57 70 58 71 66 72 59 73 65 74 67 75 64 76 60 77 61 78 62 79
REMARK SMILES IDX 63 80 42 81 43 82 51 83 44 84 50 85 52 86 49 87 45 88 46 89
REMARK SMILES IDX 47 90 48 91
REMARK H PARENT 84 16 84 17 7 21 7 22 7 23 72 44 40 55
REMARK Flexibility Score: inf
ROOT
ATOM      1  C   UNL A   1      33.362  33.664  28.023  1.00  0.00     0.275 C 
ENDROOT
BRANCH   1   2
ATOM      2  C   UNL A   1      33.224  34.798  29.046  1.00  0.00     0.274 C 
BRANCH   2   3
ATOM      3  O   UNL A   1      34.346  34.824  29.940  1.00  0.00    -0.457 OA
BRANCH   3   4
ATOM      4  C   UNL A   1      34.057  34.896  31.272  1.00  0.00     0.369 C 
ATOM      5  O   UNL A   1      33.372  35.778  31.782  1.00  0.00    -0.245 OA
BRANCH   4   6
ATOM      6  C   UNL A   1      34.665  33.727  32.076  1.00  0.00     0.323 C 
BRANCH   6   7
ATOM      7  C   UNL A   1      36.101  34.029  32.424  1.00  0.00     0.021 A 
ATOM      8  C   UNL A   1      38.421  34.356  31.712  1.00  0.00    -0.024 A 
ATOM      9  C   UNL A   1      37.055  34.191  31.416  1.00  0.00     0.016 A 
ATOM     10  C   UNL A   1      38.825  34.447  33.072  1.00  0.00     0.038 A 
ATOM     11  C   UNL A   1      37.869  34.243  34.096  1.00  0.00    -0.024 A 
ATOM     12  C   UNL A   1      36.525  34.033  33.750  1.00  0.00     0.016 A 
BRANCH   8  13
ATOM     13  C   UNL A   1      39.433  34.472  30.580  1.00  0.00     0.034 C 
ATOM     14  C   UNL A   1      38.889  34.448  29.153  1.00  0.00     0.009 C 
ENDBRANCH   8  13
BRANCH  10  15
ATOM     15  N   UNL A   1      40.178  34.592  33.383  1.00  0.00    -0.398 N 
ATOM     16  H   UNL A   1      40.575  35.490  33.450  1.00  0.00     0.156 HD
ATOM     17  H   UNL A   1      40.736  33.794  33.538  1.00  0.00     0.156 HD
ENDBRANCH  10  15
BRANCH  11  18
ATOM     18  C   UNL A   1      38.196  34.198  35.574  1.00  0.00     0.034 C 
ATOM     19  C   UNL A   1      37.919  32.834  36.199  1.00  0.00     0.009 C 
ENDBRANCH  11  18
ENDBRANCH   6   7
BRANCH   6  20
ATOM     20  N   UNL A   1      34.502  32.416  31.402  1.00  0.00    -0.342 N 
ATOM     21  H   UNL A   1      35.193  32.329  30.657  1.00  0.00     0.345 HD
ATOM     22  H   UNL A   1      33.565  32.353  31.004  1.00  0.00     0.345 HD
ATOM     23  H   UNL A   1      34.634  31.666  32.079  1.00  0.00     0.345 HD
ENDBRANCH   6  20
ENDBRANCH   4   6
ENDBRANCH   3   4
ENDBRANCH   2   3
ENDBRANCH   1   2
BRANCH   1  24
ATOM     24  O   UNL A   1      34.599  32.940  28.169  1.00  0.00    -0.458 OA
BRANCH  24  25
ATOM     25  C   UNL A   1      34.505  31.597  28.017  1.00  0.00     0.338 C 
ATOM     26  O   UNL A   1      33.572  30.974  27.535  1.00  0.00    -0.246 OA
BRANCH  25  27
ATOM     27  C   UNL A   1      35.789  30.960  28.360  1.00  0.00     0.060 A 
ATOM     28  C   UNL A   1      35.742  29.800  29.137  1.00  0.00     0.016 A 
ATOM     29  C   UNL A   1      37.015  31.516  27.997  1.00  0.00     0.016 A 
ATOM     30  C   UNL A   1      36.912  29.191  29.567  1.00  0.00     0.010 A 
ATOM     31  C   UNL A   1      38.196  30.902  28.429  1.00  0.00     0.010 A 
ATOM     32  C   UNL A   1      38.149  29.742  29.224  1.00  0.00    -0.014 A 
BRANCH  32  33
ATOM     33  C   UNL A   1      39.381  29.122  29.767  1.00  0.00     0.031 A 
ATOM     34  C   UNL A   1      39.991  29.667  31.025  1.00  0.00     0.074 A 
ATOM     35  C   UNL A   1      39.901  28.036  29.165  1.00  0.00     0.049 A 
ATOM     36  N   UNL A   1      41.092  29.310  31.633  1.00  0.00    -0.248 NA
ATOM     37  C   UNL A   1      39.263  30.762  31.684  1.00  0.00     0.031 C 
ATOM     38  C   UNL A   1      39.343  27.384  27.978  1.00  0.00     0.029 A 
ATOM     39  N   UNL A   1      41.007  27.287  29.469  1.00  0.00    -0.354 N 
ATOM     40  C   UNL A   1      41.202  30.147  32.738  1.00  0.00     0.074 A 
ATOM     41  C   UNL A   1      40.065  31.044  32.700  1.00  0.00     0.031 C 
ATOM     42  C   UNL A   1      40.109  26.329  27.659  1.00  0.00     0.029 A 
ATOM     43  C   UNL A   1      41.239  26.264  28.580  1.00  0.00     0.049 A 
ATOM     44  H   UNL A   1      41.580  27.464  30.251  1.00  0.00     0.167 HD
ATOM     45  C   UNL A   1      42.164  30.160  33.693  1.00  0.00     0.034 A 
ATOM     46  C   UNL A   1      42.268  25.397  28.499  1.00  0.00     0.034 A 
ATOM     47  C   UNL A   1      43.287  29.253  33.709  1.00  0.00     0.049 A 
ATOM     48  C   UNL A   1      43.367  25.483  29.527  1.00  0.00     0.074 A 
ATOM     49  C   UNL A   1      44.325  29.177  34.622  1.00  0.00     0.029 A 
ATOM     50  N   UNL A   1      43.522  28.264  32.761  1.00  0.00    -0.354 N 
ATOM     51  N   UNL A   1      43.481  26.303  30.548  1.00  0.00    -0.248 NA
ATOM     52  C   UNL A   1      44.476  24.531  29.391  1.00  0.00     0.031 C 
ATOM     53  C   UNL A   1      45.216  28.187  34.193  1.00  0.00     0.029 A 
ATOM     54  C   UNL A   1      44.701  27.595  33.051  1.00  0.00     0.049 A 
ATOM     55  H   UNL A   1      42.937  28.068  31.994  1.00  0.00     0.167 HD
ATOM     56  C   UNL A   1      44.665  25.949  31.187  1.00  0.00     0.074 A 
ATOM     57  C   UNL A   1      45.219  24.833  30.446  1.00  0.00     0.031 C 
ATOM     58  C   UNL A   1      45.244  26.495  32.287  1.00  0.00     0.034 A 
BRANCH  45  59
ATOM     59  C   UNL A   1      42.072  31.233  34.751  1.00  0.00     0.023 A 
ATOM     60  C   UNL A   1      42.661  32.498  34.583  1.00  0.00     0.031 A 
ATOM     61  C   UNL A   1      41.417  30.967  35.967  1.00  0.00     0.131 A 
ATOM     62  C   UNL A   1      42.645  33.423  35.638  1.00  0.00     0.055 A 
ATOM     63  C   UNL A   1      41.339  31.920  36.985  1.00  0.00     0.041 A 
ATOM     64  F   UNL A   1      40.857  29.769  36.194  1.00  0.00    -0.206 F 
ATOM     65  C   UNL A   1      41.968  33.151  36.830  1.00  0.00     0.022 A 
BRANCH  62  66
ATOM     66  S   UNL A   1      43.640  34.932  35.487  1.00  0.00     0.124 S 
ATOM     67  O   UNL A   1      44.994  34.387  35.408  1.00  0.00    -0.237 OA
ATOM     68  O   UNL A   1      43.121  35.532  34.264  1.00  0.00    -0.237 OA
ATOM     69  O   UNL A   1      43.343  35.664  36.716  1.00  0.00    -0.744 OA
ENDBRANCH  62  66
ENDBRANCH  45  59
BRANCH  46  70
ATOM     70  C   UNL A   1      42.340  24.417  27.379  1.00  0.00     0.023 A 
ATOM     71  C   UNL A   1      41.612  23.219  27.410  1.00  0.00     0.031 A 
ATOM     72  C   UNL A   1      43.176  24.655  26.272  1.00  0.00     0.131 A 
ATOM     73  C   UNL A   1      41.759  22.285  26.371  1.00  0.00     0.055 A 
ATOM     74  C   UNL A   1      43.279  23.746  25.217  1.00  0.00     0.041 A 
ATOM     75  F   UNL A   1      43.896  25.784  26.194  1.00  0.00    -0.206 F 
ATOM     76  C   UNL A   1      42.577  22.548  25.269  1.00  0.00     0.022 A 
BRANCH  73  77
ATOM     77  S   UNL A   1      40.919  20.684  26.515  1.00  0.00     0.124 S 
ATOM     78  O   UNL A   1      40.964  20.452  27.954  1.00  0.00    -0.237 OA
ATOM     79  O   UNL A   1      39.605  20.978  25.953  1.00  0.00    -0.237 OA
ATOM     80  O   UNL A   1      41.752  19.790  25.712  1.00  0.00    -0.744 OA
ENDBRANCH  73  77
ENDBRANCH  46  70
BRANCH  58  81
ATOM     81  C   UNL A   1      46.522  25.855  32.768  1.00  0.00     0.023 A 
ATOM     82  C   UNL A   1      47.768  26.180  32.202  1.00  0.00     0.031 A 
ATOM     83  C   UNL A   1      46.489  24.896  33.795  1.00  0.00     0.131 A 
ATOM     84  C   UNL A   1      48.923  25.510  32.630  1.00  0.00     0.055 A 
ATOM     85  C   UNL A   1      47.649  24.273  34.254  1.00  0.00     0.041 A 
ATOM     86  F   UNL A   1      45.325  24.549  34.368  1.00  0.00    -0.206 F 
ATOM     87  C   UNL A   1      48.874  24.570  33.662  1.00  0.00     0.022 A 
BRANCH  84  88
ATOM     88  S   UNL A   1      50.484  25.824  31.760  1.00  0.00     0.124 S 
ATOM     89  O   UNL A   1      51.454  25.164  32.629  1.00  0.00    -0.237 OA
ATOM     90  O   UNL A   1      50.254  25.190  30.466  1.00  0.00    -0.237 OA
ATOM     91  O   UNL A   1      50.572  27.283  31.729  1.00  0.00    -0.744 OA
ENDBRANCH  84  88
ENDBRANCH  58  81
ENDBRANCH  32  33
ENDBRANCH  25  27
ENDBRANCH  24  25
ENDBRANCH   1  24
TORSDOF 19
ENDMDL
