MODEL 1
REMARK VINA RESULT:     -12.7      0.000      0.000
REMARK SMILES O=C(OCCOC(=O)[C@H]1CC2(CC[NH+](C(=O)c3cccc(O)c3)CC2)CN1C(=O)C1CC1)c1ccc(-c2c3nc(c(-c4cc(S(=O)(=O)[O-])ccc4F)c4ccc([nH]4)c(-c4cc(S(=O)(=O)[O-])ccc4F)c4nc(c(-c5cc(S(=O)(=O)[O-])ccc5F)c5ccc2[nH]5)C=C4)C=C3)cc1
REMARK SMILES IDX 4 1 3 2 2 3 1 4 33 5 34 6 95 7 35 8 94 9 36 10 37 11 38 12
REMARK SMILES IDX 88 13 39 14 93 15 87 16 89 17 40 18 92 19 86 20 85 21 41 23
REMARK SMILES IDX 73 24 53 25 72 26 54 27 57 28 71 29 90 30 55 31 56 32 70 34
REMARK SMILES IDX 91 35 58 36 42 37 43 38 51 39 44 40 50 41 52 42 49 43 45 44
REMARK SMILES IDX 46 45 47 46 48 47 74 48 75 49 83 50 76 51 82 52 84 53 81 54
REMARK SMILES IDX 77 55 78 56 79 57 80 58 59 59 60 60 68 61 61 62 67 63 69 64
REMARK SMILES IDX 66 65 62 66 63 67 64 68 65 69 5 70 6 71 7 72 8 73 9 74 10 75
REMARK SMILES IDX 27 76 11 77 26 78 12 79 25 80 13 81 24 82 14 83 28 85 29 86
REMARK SMILES IDX 30 87 31 88 32 89 15 90 16 91 17 92 18 93 23 94 19 95 21 96
REMARK SMILES IDX 20 97 22 98
REMARK H PARENT 89 22 57 33 14 84 22 99
REMARK Flexibility Score: inf
ROOT
ATOM      1  C   UNL A   1      32.033  29.788  27.245  1.00  0.00     0.275 C 
ENDROOT
BRANCH   1   2
ATOM      2  O   UNL A   1      32.876  30.849  26.793  1.00  0.00    -0.458 OA
BRANCH   2   3
ATOM      3  C   UNL A   1      33.777  31.565  27.502  1.00  0.00     0.338 C 
ATOM      4  O   UNL A   1      33.428  32.694  27.852  1.00  0.00    -0.246 OA
BRANCH   3   5
ATOM      5  C   UNL A   1      35.174  31.113  27.875  1.00  0.00     0.060 A 
ATOM      6  C   UNL A   1      36.302  31.865  28.234  1.00  0.00     0.016 A 
ATOM      7  C   UNL A   1      35.344  29.730  27.898  1.00  0.00     0.016 A 
ATOM      8  C   UNL A   1      37.487  31.263  28.770  1.00  0.00     0.010 A 
ATOM      9  C   UNL A   1      36.503  29.152  28.435  1.00  0.00     0.010 A 
ATOM     10  C   UNL A   1      37.559  29.894  29.009  1.00  0.00    -0.014 A 
BRANCH  10  11
ATOM     11  C   UNL A   1      38.733  29.133  29.633  1.00  0.00     0.031 A 
ATOM     12  C   UNL A   1      39.165  29.701  30.962  1.00  0.00     0.074 A 
ATOM     13  C   UNL A   1      39.522  28.153  29.097  1.00  0.00     0.049 A 
ATOM     14  N   UNL A   1      40.293  29.567  31.603  1.00  0.00    -0.248 NA
ATOM     15  C   UNL A   1      38.218  30.638  31.595  1.00  0.00     0.031 C 
ATOM     16  C   UNL A   1      39.321  27.416  27.858  1.00  0.00     0.029 A 
ATOM     17  N   UNL A   1      40.737  27.612  29.523  1.00  0.00    -0.354 N 
ATOM     18  C   UNL A   1      40.196  30.446  32.670  1.00  0.00     0.074 A 
ATOM     19  C   UNL A   1      38.998  31.227  32.480  1.00  0.00     0.031 C 
ATOM     20  C   UNL A   1      40.379  26.655  27.546  1.00  0.00     0.029 A 
ATOM     21  C   UNL A   1      41.343  26.745  28.617  1.00  0.00     0.049 A 
ATOM     22  H   UNL A   1      41.135  27.828  30.397  1.00  0.00     0.167 HD
ATOM     23  C   UNL A   1      40.971  30.524  33.774  1.00  0.00     0.034 A 
ATOM     24  C   UNL A   1      42.505  26.051  28.621  1.00  0.00     0.034 A 
ATOM     25  C   UNL A   1      42.062  29.632  34.035  1.00  0.00     0.049 A 
ATOM     26  C   UNL A   1      43.345  26.120  29.859  1.00  0.00     0.074 A 
ATOM     27  C   UNL A   1      42.783  29.490  35.204  1.00  0.00     0.029 A 
ATOM     28  N   UNL A   1      42.572  28.715  33.129  1.00  0.00    -0.354 N 
ATOM     29  N   UNL A   1      43.157  26.870  30.918  1.00  0.00    -0.248 NA
ATOM     30  C   UNL A   1      44.509  25.228  29.941  1.00  0.00     0.031 C 
ATOM     31  C   UNL A   1      43.767  28.521  34.989  1.00  0.00     0.029 A 
ATOM     32  C   UNL A   1      43.624  28.024  33.704  1.00  0.00     0.049 A 
ATOM     33  H   UNL A   1      42.235  28.575  32.213  1.00  0.00     0.167 HD
ATOM     34  C   UNL A   1      44.156  26.512  31.809  1.00  0.00     0.074 A 
ATOM     35  C   UNL A   1      44.937  25.471  31.171  1.00  0.00     0.031 C 
ATOM     36  C   UNL A   1      44.395  27.000  33.050  1.00  0.00     0.034 A 
BRANCH  23  37
ATOM     37  C   UNL A   1      40.603  31.571  34.789  1.00  0.00     0.023 A 
ATOM     38  C   UNL A   1      39.715  31.293  35.843  1.00  0.00     0.031 A 
ATOM     39  C   UNL A   1      41.092  32.879  34.659  1.00  0.00     0.131 A 
ATOM     40  C   UNL A   1      39.258  32.332  36.661  1.00  0.00     0.055 A 
ATOM     41  C   UNL A   1      40.717  33.888  35.547  1.00  0.00     0.041 A 
ATOM     42  F   UNL A   1      41.914  33.204  33.649  1.00  0.00    -0.206 F 
ATOM     43  C   UNL A   1      39.780  33.622  36.543  1.00  0.00     0.022 A 
BRANCH  40  44
ATOM     44  S   UNL A   1      37.860  32.006  37.768  1.00  0.00     0.124 S 
ATOM     45  O   UNL A   1      37.535  30.623  37.426  1.00  0.00    -0.237 OA
ATOM     46  O   UNL A   1      38.444  32.213  39.088  1.00  0.00    -0.237 OA
ATOM     47  O   UNL A   1      36.866  32.996  37.361  1.00  0.00    -0.744 OA
ENDBRANCH  40  44
ENDBRANCH  23  37
BRANCH  24  48
ATOM     48  C   UNL A   1      42.940  25.209  27.449  1.00  0.00     0.023 A 
ATOM     49  C   UNL A   1      42.509  23.879  27.276  1.00  0.00     0.031 A 
ATOM     50  C   UNL A   1      43.849  25.718  26.500  1.00  0.00     0.131 A 
ATOM     51  C   UNL A   1      43.011  23.098  26.214  1.00  0.00     0.055 A 
ATOM     52  C   UNL A   1      44.312  24.953  25.423  1.00  0.00     0.041 A 
ATOM     53  F   UNL A   1      44.300  26.978  26.603  1.00  0.00    -0.206 F 
ATOM     54  C   UNL A   1      43.902  23.630  25.283  1.00  0.00     0.022 A 
BRANCH  51  55
ATOM     55  S   UNL A   1      42.555  21.340  26.114  1.00  0.00     0.124 S 
ATOM     56  O   UNL A   1      42.548  20.948  27.519  1.00  0.00    -0.237 OA
ATOM     57  O   UNL A   1      41.254  21.404  25.458  1.00  0.00    -0.237 OA
ATOM     58  O   UNL A   1      43.627  20.754  25.310  1.00  0.00    -0.744 OA
ENDBRANCH  51  55
ENDBRANCH  24  48
BRANCH  36  59
ATOM     59  C   UNL A   1      45.538  26.385  33.796  1.00  0.00     0.023 A 
ATOM     60  C   UNL A   1      45.343  25.254  34.602  1.00  0.00     0.031 A 
ATOM     61  C   UNL A   1      46.823  26.947  33.720  1.00  0.00     0.131 A 
ATOM     62  C   UNL A   1      46.410  24.751  35.352  1.00  0.00     0.055 A 
ATOM     63  C   UNL A   1      47.897  26.399  34.416  1.00  0.00     0.041 A 
ATOM     64  F   UNL A   1      47.049  28.035  32.966  1.00  0.00    -0.206 F 
ATOM     65  C   UNL A   1      47.691  25.302  35.248  1.00  0.00     0.022 A 
BRANCH  62  66
ATOM     66  S   UNL A   1      46.075  23.422  36.534  1.00  0.00     0.124 S 
ATOM     67  O   UNL A   1      47.411  22.884  36.767  1.00  0.00    -0.237 OA
ATOM     68  O   UNL A   1      45.474  24.141  37.654  1.00  0.00    -0.237 OA
ATOM     69  O   UNL A   1      45.166  22.540  35.806  1.00  0.00    -0.744 OA
ENDBRANCH  62  66
ENDBRANCH  36  59
ENDBRANCH  10  11
ENDBRANCH   3   5
ENDBRANCH   2   3
ENDBRANCH   1   2
BRANCH   1  70
ATOM     70  C   UNL A   1      31.620  28.813  26.146  1.00  0.00     0.274 C 
BRANCH  70  71
ATOM     71  O   UNL A   1      32.728  28.147  25.522  1.00  0.00    -0.461 OA
BRANCH  71  72
ATOM     72  C   UNL A   1      32.942  28.348  24.191  1.00  0.00     0.328 C 
ATOM     73  O   UNL A   1      33.243  29.434  23.707  1.00  0.00    -0.250 OA
BRANCH  72  74
ATOM     74  C   UNL A   1      32.794  27.061  23.333  1.00  0.00     0.195 C 
ATOM     75  C   UNL A   1      33.236  25.798  24.119  1.00  0.00     0.046 C 
ATOM     76  N   UNL A   1      31.518  26.694  22.742  1.00  0.00    -0.328 N 
ATOM     77  C   UNL A   1      32.578  24.562  23.441  1.00  0.00     0.001 C 
ATOM     78  C   UNL A   1      31.457  25.225  22.585  1.00  0.00     0.128 C 
ATOM     79  C   UNL A   1      31.921  23.508  24.362  1.00  0.00     0.071 C 
ATOM     80  C   UNL A   1      33.612  23.695  22.677  1.00  0.00     0.071 C 
ATOM     81  C   UNL A   1      32.859  22.905  25.396  1.00  0.00     0.271 C 
ATOM     82  C   UNL A   1      34.555  22.869  23.612  1.00  0.00     0.271 C 
ATOM     83  N   UNL A   1      33.883  22.140  24.705  1.00  0.00    -0.267 N 
ATOM     84  H   UNL A   1      34.173  22.898  24.149  1.00  0.00     0.357 HD
BRANCH  76  85
ATOM     85  C   UNL A   1      30.378  27.425  23.042  1.00  0.00     0.226 C 
ATOM     86  O   UNL A   1      29.629  27.099  23.936  1.00  0.00    -0.275 OA
BRANCH  85  87
ATOM     87  C   UNL A   1      29.998  28.704  22.390  1.00  0.00     0.079 C 
ATOM     88  C   UNL A   1      28.659  29.356  22.304  1.00  0.00     0.014 C 
ATOM     89  C   UNL A   1      29.706  29.915  23.229  1.00  0.00     0.014 C 
ENDBRANCH  85  87
ENDBRANCH  76  85
BRANCH  83  90
ATOM     90  C   UNL A   1      34.447  20.940  25.183  1.00  0.00     0.344 C 
ATOM     91  O   UNL A   1      35.156  20.916  26.192  1.00  0.00    -0.226 OA
BRANCH  90  92
ATOM     92  C   UNL A   1      34.189  19.615  24.521  1.00  0.00     0.083 A 
ATOM     93  C   UNL A   1      35.034  18.508  24.679  1.00  0.00     0.018 A 
ATOM     94  C   UNL A   1      32.982  19.447  23.820  1.00  0.00     0.064 A 
ATOM     95  C   UNL A   1      34.710  17.276  24.087  1.00  0.00     0.005 A 
ATOM     96  C   UNL A   1      32.663  18.214  23.248  1.00  0.00     0.116 A 
ATOM     97  C   UNL A   1      33.525  17.128  23.365  1.00  0.00     0.046 A 
BRANCH  96  98
ATOM     98  O   UNL A   1      31.476  18.100  22.581  1.00  0.00    -0.508 OA
ATOM     99  H   UNL A   1      31.468  17.834  21.682  1.00  0.00     0.293 HD
ENDBRANCH  96  98
ENDBRANCH  90  92
ENDBRANCH  83  90
ENDBRANCH  72  74
ENDBRANCH  71  72
ENDBRANCH  70  71
ENDBRANCH   1  70
TORSDOF 19
ENDMDL
MODEL 2
REMARK VINA RESULT:     -12.4      2.148      2.479
REMARK SMILES O=C(OCCOC(=O)[C@H]1CC2(CC[NH+](C(=O)c3cccc(O)c3)CC2)CN1C(=O)C1CC1)c1ccc(-c2c3nc(c(-c4cc(S(=O)(=O)[O-])ccc4F)c4ccc([nH]4)c(-c4cc(S(=O)(=O)[O-])ccc4F)c4nc(c(-c5cc(S(=O)(=O)[O-])ccc5F)c5ccc2[nH]5)C=C4)C=C3)cc1
REMARK SMILES IDX 4 1 3 2 2 3 1 4 33 5 34 6 95 7 35 8 94 9 36 10 37 11 38 12
REMARK SMILES IDX 88 13 39 14 93 15 87 16 89 17 40 18 92 19 86 20 85 21 41 23
REMARK SMILES IDX 73 24 53 25 72 26 54 27 57 28 71 29 90 30 55 31 56 32 70 34
REMARK SMILES IDX 91 35 58 36 42 37 43 38 51 39 44 40 50 41 52 42 49 43 45 44
REMARK SMILES IDX 46 45 47 46 48 47 74 48 75 49 83 50 76 51 82 52 84 53 81 54
REMARK SMILES IDX 77 55 78 56 79 57 80 58 59 59 60 60 68 61 61 62 67 63 69 64
REMARK SMILES IDX 66 65 62 66 63 67 64 68 65 69 5 70 6 71 7 72 8 73 9 74 10 75
REMARK SMILES IDX 27 76 11 77 26 78 12 79 25 80 13 81 24 82 14 83 28 85 29 86
REMARK SMILES IDX 30 87 31 88 32 89 15 90 16 91 17 92 18 93 23 94 19 95 21 96
REMARK SMILES IDX 20 97 22 98
REMARK H PARENT 89 22 57 33 14 84 22 99
REMARK Flexibility Score: inf
ROOT
ATOM      1  C   UNL A   1      31.888  29.967  26.913  1.00  0.00     0.275 C 
ENDROOT
BRANCH   1   2
ATOM      2  O   UNL A   1      32.993  30.808  26.577  1.00  0.00    -0.458 OA
BRANCH   2   3
ATOM      3  C   UNL A   1      33.755  31.562  27.399  1.00  0.00     0.338 C 
ATOM      4  O   UNL A   1      33.283  32.647  27.744  1.00  0.00    -0.246 OA
BRANCH   3   5
ATOM      5  C   UNL A   1      35.137  31.203  27.906  1.00  0.00     0.060 A 
ATOM      6  C   UNL A   1      36.227  32.026  28.222  1.00  0.00     0.016 A 
ATOM      7  C   UNL A   1      35.333  29.840  28.125  1.00  0.00     0.016 A 
ATOM      8  C   UNL A   1      37.391  31.534  28.898  1.00  0.00     0.010 A 
ATOM      9  C   UNL A   1      36.469  29.371  28.798  1.00  0.00     0.010 A 
ATOM     10  C   UNL A   1      37.476  30.212  29.323  1.00  0.00    -0.014 A 
BRANCH  10  11
ATOM     11  C   UNL A   1      38.626  29.574  30.108  1.00  0.00     0.031 A 
ATOM     12  C   UNL A   1      38.791  30.153  31.491  1.00  0.00     0.074 A 
ATOM     13  C   UNL A   1      39.594  28.704  29.687  1.00  0.00     0.049 A 
ATOM     14  N   UNL A   1      39.820  30.132  32.291  1.00  0.00    -0.248 NA
ATOM     15  C   UNL A   1      37.659  30.961  31.984  1.00  0.00     0.031 C 
ATOM     16  C   UNL A   1      39.663  27.980  28.426  1.00  0.00     0.029 A 
ATOM     17  N   UNL A   1      40.788  28.294  30.284  1.00  0.00    -0.354 N 
ATOM     18  C   UNL A   1      39.467  30.967  33.339  1.00  0.00     0.074 A 
ATOM     19  C   UNL A   1      38.228  31.612  32.980  1.00  0.00     0.031 C 
ATOM     20  C   UNL A   1      40.836  27.352  28.268  1.00  0.00     0.029 A 
ATOM     21  C   UNL A   1      41.616  27.524  29.471  1.00  0.00     0.049 A 
ATOM     22  H   UNL A   1      41.026  28.532  31.209  1.00  0.00     0.167 HD
ATOM     23  C   UNL A   1      40.058  31.106  34.546  1.00  0.00     0.034 A 
ATOM     24  C   UNL A   1      42.838  26.967  29.641  1.00  0.00     0.034 A 
ATOM     25  C   UNL A   1      41.195  30.338  34.959  1.00  0.00     0.049 A 
ATOM     26  C   UNL A   1      43.474  27.100  30.991  1.00  0.00     0.074 A 
ATOM     27  C   UNL A   1      41.750  30.248  36.220  1.00  0.00     0.029 A 
ATOM     28  N   UNL A   1      41.936  29.507  34.130  1.00  0.00    -0.354 N 
ATOM     29  N   UNL A   1      43.048  27.797  32.016  1.00  0.00    -0.248 NA
ATOM     30  C   UNL A   1      44.709  26.345  31.237  1.00  0.00     0.031 C 
ATOM     31  C   UNL A   1      42.860  29.404  36.146  1.00  0.00     0.029 A 
ATOM     32  C   UNL A   1      42.965  28.926  34.849  1.00  0.00     0.049 A 
ATOM     33  H   UNL A   1      41.755  29.353  33.174  1.00  0.00     0.167 HD
ATOM     34  C   UNL A   1      43.940  27.532  33.042  1.00  0.00     0.074 A 
ATOM     35  C   UNL A   1      44.922  26.603  32.518  1.00  0.00     0.031 C 
ATOM     36  C   UNL A   1      43.937  28.013  34.309  1.00  0.00     0.034 A 
BRANCH  23  37
ATOM     37  C   UNL A   1      39.426  32.078  35.504  1.00  0.00     0.023 A 
ATOM     38  C   UNL A   1      39.829  33.425  35.557  1.00  0.00     0.031 A 
ATOM     39  C   UNL A   1      38.461  31.636  36.421  1.00  0.00     0.131 A 
ATOM     40  C   UNL A   1      39.349  34.254  36.576  1.00  0.00     0.055 A 
ATOM     41  C   UNL A   1      37.905  32.499  37.365  1.00  0.00     0.041 A 
ATOM     42  F   UNL A   1      38.070  30.352  36.435  1.00  0.00    -0.206 F 
ATOM     43  C   UNL A   1      38.363  33.812  37.460  1.00  0.00     0.022 A 
BRANCH  40  44
ATOM     44  S   UNL A   1      40.150  35.862  36.826  1.00  0.00     0.124 S 
ATOM     45  O   UNL A   1      41.558  35.477  36.899  1.00  0.00    -0.237 OA
ATOM     46  O   UNL A   1      39.756  36.603  35.634  1.00  0.00    -0.237 OA
ATOM     47  O   UNL A   1      39.571  36.338  38.079  1.00  0.00    -0.744 OA
ENDBRANCH  40  44
ENDBRANCH  23  37
BRANCH  24  48
ATOM     48  C   UNL A   1      43.535  26.210  28.539  1.00  0.00     0.023 A 
ATOM     49  C   UNL A   1      44.466  26.822  27.677  1.00  0.00     0.031 A 
ATOM     50  C   UNL A   1      43.233  24.855  28.301  1.00  0.00     0.131 A 
ATOM     51  C   UNL A   1      45.026  26.100  26.604  1.00  0.00     0.055 A 
ATOM     52  C   UNL A   1      43.825  24.130  27.259  1.00  0.00     0.041 A 
ATOM     53  F   UNL A   1      42.356  24.208  29.084  1.00  0.00    -0.206 F 
ATOM     54  C   UNL A   1      44.718  24.756  26.396  1.00  0.00     0.022 A 
BRANCH  51  55
ATOM     55  S   UNL A   1      46.101  26.966  25.418  1.00  0.00     0.124 S 
ATOM     56  O   UNL A   1      47.014  27.681  26.304  1.00  0.00    -0.237 OA
ATOM     57  O   UNL A   1      46.675  25.855  24.666  1.00  0.00    -0.237 OA
ATOM     58  O   UNL A   1      45.172  27.810  24.668  1.00  0.00    -0.744 OA
ENDBRANCH  51  55
ENDBRANCH  24  48
BRANCH  36  59
ATOM     59  C   UNL A   1      45.022  27.513  35.211  1.00  0.00     0.023 A 
ATOM     60  C   UNL A   1      44.930  26.250  35.814  1.00  0.00     0.031 A 
ATOM     61  C   UNL A   1      46.142  28.313  35.488  1.00  0.00     0.131 A 
ATOM     62  C   UNL A   1      45.917  25.845  36.716  1.00  0.00     0.055 A 
ATOM     63  C   UNL A   1      47.157  27.874  36.334  1.00  0.00     0.041 A 
ATOM     64  F   UNL A   1      46.265  29.532  34.937  1.00  0.00    -0.206 F 
ATOM     65  C   UNL A   1      47.041  26.637  36.964  1.00  0.00     0.022 A 
BRANCH  62  66
ATOM     66  S   UNL A   1      45.661  24.302  37.629  1.00  0.00     0.124 S 
ATOM     67  O   UNL A   1      47.032  23.861  37.860  1.00  0.00    -0.237 OA
ATOM     68  O   UNL A   1      44.929  24.753  38.809  1.00  0.00    -0.237 OA
ATOM     69  O   UNL A   1      44.890  23.480  36.699  1.00  0.00    -0.744 OA
ENDBRANCH  62  66
ENDBRANCH  36  59
ENDBRANCH  10  11
ENDBRANCH   3   5
ENDBRANCH   2   3
ENDBRANCH   1   2
BRANCH   1  70
ATOM     70  C   UNL A   1      31.532  28.949  25.834  1.00  0.00     0.274 C 
BRANCH  70  71
ATOM     71  O   UNL A   1      32.672  28.268  25.289  1.00  0.00    -0.461 OA
BRANCH  71  72
ATOM     72  C   UNL A   1      32.966  28.446  23.970  1.00  0.00     0.328 C 
ATOM     73  O   UNL A   1      33.384  29.500  23.503  1.00  0.00    -0.250 OA
BRANCH  72  74
ATOM     74  C   UNL A   1      32.748  27.174  23.103  1.00  0.00     0.195 C 
ATOM     75  C   UNL A   1      33.109  25.883  23.885  1.00  0.00     0.046 C 
ATOM     76  N   UNL A   1      31.456  26.887  22.502  1.00  0.00    -0.328 N 
ATOM     77  C   UNL A   1      32.383  24.692  23.196  1.00  0.00     0.001 C 
ATOM     78  C   UNL A   1      31.309  25.425  22.336  1.00  0.00     0.128 C 
ATOM     79  C   UNL A   1      31.658  23.674  24.106  1.00  0.00     0.071 C 
ATOM     80  C   UNL A   1      33.369  23.769  22.433  1.00  0.00     0.071 C 
ATOM     81  C   UNL A   1      32.552  23.011  25.143  1.00  0.00     0.271 C 
ATOM     82  C   UNL A   1      34.255  22.883  23.370  1.00  0.00     0.271 C 
ATOM     83  N   UNL A   1      33.533  22.190  24.455  1.00  0.00    -0.267 N 
ATOM     84  H   UNL A   1      33.872  22.933  23.904  1.00  0.00     0.357 HD
BRANCH  76  85
ATOM     85  C   UNL A   1      30.360  27.682  22.799  1.00  0.00     0.226 C 
ATOM     86  O   UNL A   1      29.519  27.336  23.599  1.00  0.00    -0.275 OA
BRANCH  85  87
ATOM     87  C   UNL A   1      30.138  29.050  22.264  1.00  0.00     0.079 C 
ATOM     88  C   UNL A   1      28.858  29.717  21.886  1.00  0.00     0.014 C 
ATOM     89  C   UNL A   1      29.566  30.119  23.151  1.00  0.00     0.014 C 
ENDBRANCH  85  87
ENDBRANCH  76  85
BRANCH  83  90
ATOM     90  C   UNL A   1      34.022  20.956  24.930  1.00  0.00     0.344 C 
ATOM     91  O   UNL A   1      34.778  20.892  25.902  1.00  0.00    -0.226 OA
BRANCH  90  92
ATOM     92  C   UNL A   1      33.623  19.646  24.310  1.00  0.00     0.083 A 
ATOM     93  C   UNL A   1      32.599  19.533  23.359  1.00  0.00     0.018 A 
ATOM     94  C   UNL A   1      34.398  18.509  24.602  1.00  0.00     0.064 A 
ATOM     95  C   UNL A   1      32.311  18.293  22.767  1.00  0.00     0.005 A 
ATOM     96  C   UNL A   1      34.113  17.284  23.996  1.00  0.00     0.116 A 
ATOM     97  C   UNL A   1      33.065  17.163  23.088  1.00  0.00     0.046 A 
BRANCH  96  98
ATOM     98  O   UNL A   1      34.897  16.211  24.310  1.00  0.00    -0.508 OA
ATOM     99  H   UNL A   1      35.777  16.164  23.992  1.00  0.00     0.293 HD
ENDBRANCH  96  98
ENDBRANCH  90  92
ENDBRANCH  83  90
ENDBRANCH  72  74
ENDBRANCH  71  72
ENDBRANCH  70  71
ENDBRANCH   1  70
TORSDOF 19
ENDMDL
MODEL 3
REMARK VINA RESULT:     -12.3      4.570     10.545
REMARK SMILES O=C(OCCOC(=O)[C@H]1CC2(CC[NH+](C(=O)c3cccc(O)c3)CC2)CN1C(=O)C1CC1)c1ccc(-c2c3nc(c(-c4cc(S(=O)(=O)[O-])ccc4F)c4ccc([nH]4)c(-c4cc(S(=O)(=O)[O-])ccc4F)c4nc(c(-c5cc(S(=O)(=O)[O-])ccc5F)c5ccc2[nH]5)C=C4)C=C3)cc1
REMARK SMILES IDX 4 1 3 2 2 3 1 4 33 5 34 6 95 7 35 8 94 9 36 10 37 11 38 12
REMARK SMILES IDX 88 13 39 14 93 15 87 16 89 17 40 18 92 19 86 20 85 21 41 23
REMARK SMILES IDX 73 24 53 25 72 26 54 27 57 28 71 29 90 30 55 31 56 32 70 34
REMARK SMILES IDX 91 35 58 36 42 37 43 38 51 39 44 40 50 41 52 42 49 43 45 44
REMARK SMILES IDX 46 45 47 46 48 47 74 48 75 49 83 50 76 51 82 52 84 53 81 54
REMARK SMILES IDX 77 55 78 56 79 57 80 58 59 59 60 60 68 61 61 62 67 63 69 64
REMARK SMILES IDX 66 65 62 66 63 67 64 68 65 69 5 70 6 71 7 72 8 73 9 74 10 75
REMARK SMILES IDX 27 76 11 77 26 78 12 79 25 80 13 81 24 82 14 83 28 85 29 86
REMARK SMILES IDX 30 87 31 88 32 89 15 90 16 91 17 92 18 93 23 94 19 95 21 96
REMARK SMILES IDX 20 97 22 98
REMARK H PARENT 89 22 57 33 14 84 22 99
REMARK Flexibility Score: inf
ROOT
ATOM      1  C   UNL A   1      37.951  20.511  25.042  1.00  0.00     0.275 C 
ENDROOT
BRANCH   1   2
ATOM      2  O   UNL A   1      38.304  21.737  25.683  1.00  0.00    -0.458 OA
BRANCH   2   3
ATOM      3  C   UNL A   1      39.417  22.022  26.395  1.00  0.00     0.338 C 
ATOM      4  O   UNL A   1      40.236  21.109  26.523  1.00  0.00    -0.246 OA
BRANCH   3   5
ATOM      5  C   UNL A   1      39.727  23.345  27.066  1.00  0.00     0.060 A 
ATOM      6  C   UNL A   1      40.718  23.674  28.002  1.00  0.00     0.016 A 
ATOM      7  C   UNL A   1      38.920  24.403  26.652  1.00  0.00     0.016 A 
ATOM      8  C   UNL A   1      41.008  25.028  28.369  1.00  0.00     0.010 A 
ATOM      9  C   UNL A   1      39.220  25.725  27.007  1.00  0.00     0.010 A 
ATOM     10  C   UNL A   1      40.349  26.098  27.770  1.00  0.00    -0.014 A 
BRANCH  10  11
ATOM     11  C   UNL A   1      40.604  27.587  28.019  1.00  0.00     0.031 A 
ATOM     12  C   UNL A   1      42.052  27.976  27.847  1.00  0.00     0.074 A 
ATOM     13  C   UNL A   1      39.766  28.545  28.520  1.00  0.00     0.049 A 
ATOM     14  N   UNL A   1      42.699  29.015  28.294  1.00  0.00    -0.248 NA
ATOM     15  C   UNL A   1      42.901  26.985  27.158  1.00  0.00     0.031 C 
ATOM     16  C   UNL A   1      38.333  28.451  28.752  1.00  0.00     0.029 A 
ATOM     17  N   UNL A   1      40.019  29.835  28.991  1.00  0.00    -0.354 N 
ATOM     18  C   UNL A   1      44.026  28.761  27.986  1.00  0.00     0.074 A 
ATOM     19  C   UNL A   1      44.104  27.408  27.494  1.00  0.00     0.031 C 
ATOM     20  C   UNL A   1      37.858  29.512  29.418  1.00  0.00     0.029 A 
ATOM     21  C   UNL A   1      38.932  30.461  29.598  1.00  0.00     0.049 A 
ATOM     22  H   UNL A   1      40.898  30.269  28.903  1.00  0.00     0.167 HD
ATOM     23  C   UNL A   1      45.075  29.611  28.003  1.00  0.00     0.034 A 
ATOM     24  C   UNL A   1      38.759  31.662  30.198  1.00  0.00     0.034 A 
ATOM     25  C   UNL A   1      44.959  31.001  28.335  1.00  0.00     0.049 A 
ATOM     26  C   UNL A   1      39.918  32.610  30.187  1.00  0.00     0.074 A 
ATOM     27  C   UNL A   1      45.908  31.993  28.191  1.00  0.00     0.029 A 
ATOM     28  N   UNL A   1      43.819  31.601  28.851  1.00  0.00    -0.354 N 
ATOM     29  N   UNL A   1      41.140  32.384  29.766  1.00  0.00    -0.248 NA
ATOM     30  C   UNL A   1      39.683  33.977  30.670  1.00  0.00     0.031 C 
ATOM     31  C   UNL A   1      45.361  33.187  28.669  1.00  0.00     0.029 A 
ATOM     32  C   UNL A   1      44.054  32.947  29.062  1.00  0.00     0.049 A 
ATOM     33  H   UNL A   1      42.970  31.137  29.037  1.00  0.00     0.167 HD
ATOM     34  C   UNL A   1      41.807  33.591  29.896  1.00  0.00     0.074 A 
ATOM     35  C   UNL A   1      40.852  34.546  30.422  1.00  0.00     0.031 C 
ATOM     36  C   UNL A   1      43.096  33.880  29.596  1.00  0.00     0.034 A 
BRANCH  23  37
ATOM     37  C   UNL A   1      46.408  29.054  27.585  1.00  0.00     0.023 A 
ATOM     38  C   UNL A   1      46.649  28.634  26.264  1.00  0.00     0.031 A 
ATOM     39  C   UNL A   1      47.425  28.875  28.535  1.00  0.00     0.131 A 
ATOM     40  C   UNL A   1      47.834  27.960  25.953  1.00  0.00     0.055 A 
ATOM     41  C   UNL A   1      48.649  28.300  28.192  1.00  0.00     0.041 A 
ATOM     42  F   UNL A   1      47.232  29.226  29.816  1.00  0.00    -0.206 F 
ATOM     43  C   UNL A   1      48.851  27.820  26.899  1.00  0.00     0.022 A 
BRANCH  40  44
ATOM     44  S   UNL A   1      47.956  27.129  24.346  1.00  0.00     0.124 S 
ATOM     45  O   UNL A   1      49.311  26.584  24.403  1.00  0.00    -0.237 OA
ATOM     46  O   UNL A   1      46.876  26.152  24.410  1.00  0.00    -0.237 OA
ATOM     47  O   UNL A   1      47.764  28.214  23.388  1.00  0.00    -0.744 OA
ENDBRANCH  40  44
ENDBRANCH  23  37
BRANCH  24  48
ATOM     48  C   UNL A   1      37.450  32.062  30.830  1.00  0.00     0.023 A 
ATOM     49  C   UNL A   1      36.448  32.748  30.115  1.00  0.00     0.031 A 
ATOM     50  C   UNL A   1      37.205  31.804  32.192  1.00  0.00     0.131 A 
ATOM     51  C   UNL A   1      35.277  33.183  30.769  1.00  0.00     0.055 A 
ATOM     52  C   UNL A   1      36.022  32.200  32.827  1.00  0.00     0.041 A 
ATOM     53  F   UNL A   1      38.117  31.154  32.933  1.00  0.00    -0.206 F 
ATOM     54  C   UNL A   1      35.055  32.905  32.117  1.00  0.00     0.022 A 
BRANCH  51  55
ATOM     55  S   UNL A   1      34.078  34.201  29.856  1.00  0.00     0.124 S 
ATOM     56  O   UNL A   1      33.345  33.196  29.093  1.00  0.00    -0.237 OA
ATOM     57  O   UNL A   1      33.344  34.846  30.939  1.00  0.00    -0.237 OA
ATOM     58  O   UNL A   1      34.922  35.092  29.061  1.00  0.00    -0.744 OA
ENDBRANCH  51  55
ENDBRANCH  24  48
BRANCH  36  59
ATOM     59  C   UNL A   1      43.527  35.297  29.812  1.00  0.00     0.023 A 
ATOM     60  C   UNL A   1      43.384  36.253  28.797  1.00  0.00     0.031 A 
ATOM     61  C   UNL A   1      44.104  35.687  31.031  1.00  0.00     0.131 A 
ATOM     62  C   UNL A   1      43.871  37.548  28.998  1.00  0.00     0.055 A 
ATOM     63  C   UNL A   1      44.525  36.996  31.250  1.00  0.00     0.041 A 
ATOM     64  F   UNL A   1      44.266  34.799  32.026  1.00  0.00    -0.206 F 
ATOM     65  C   UNL A   1      44.420  37.933  30.224  1.00  0.00     0.022 A 
BRANCH  62  66
ATOM     66  S   UNL A   1      43.857  38.695  27.597  1.00  0.00     0.124 S 
ATOM     67  O   UNL A   1      42.674  38.256  26.864  1.00  0.00    -0.237 OA
ATOM     68  O   UNL A   1      43.752  39.994  28.255  1.00  0.00    -0.237 OA
ATOM     69  O   UNL A   1      45.133  38.438  26.934  1.00  0.00    -0.744 OA
ENDBRANCH  62  66
ENDBRANCH  36  59
ENDBRANCH  10  11
ENDBRANCH   3   5
ENDBRANCH   2   3
ENDBRANCH   1   2
BRANCH   1  70
ATOM     70  C   UNL A   1      36.450  20.239  25.008  1.00  0.00     0.274 C 
BRANCH  70  71
ATOM     71  O   UNL A   1      35.660  21.308  25.548  1.00  0.00    -0.461 OA
BRANCH  71  72
ATOM     72  C   UNL A   1      35.040  22.159  24.684  1.00  0.00     0.328 C 
ATOM     73  O   UNL A   1      35.494  22.463  23.585  1.00  0.00    -0.250 OA
BRANCH  72  74
ATOM     74  C   UNL A   1      33.678  22.698  25.204  1.00  0.00     0.195 C 
ATOM     75  C   UNL A   1      33.406  24.141  24.700  1.00  0.00     0.046 C 
ATOM     76  N   UNL A   1      32.439  21.983  24.948  1.00  0.00    -0.328 N 
ATOM     77  C   UNL A   1      31.873  24.394  24.790  1.00  0.00     0.001 C 
ATOM     78  C   UNL A   1      31.316  22.945  24.923  1.00  0.00     0.128 C 
ATOM     79  C   UNL A   1      31.188  25.064  23.578  1.00  0.00     0.071 C 
ATOM     80  C   UNL A   1      31.511  25.383  25.929  1.00  0.00     0.071 C 
ATOM     81  C   UNL A   1      31.764  26.420  23.200  1.00  0.00     0.271 C 
ATOM     82  C   UNL A   1      31.890  26.868  25.617  1.00  0.00     0.271 C 
ATOM     83  N   UNL A   1      31.499  27.355  24.280  1.00  0.00    -0.267 N 
ATOM     84  H   UNL A   1      31.937  26.798  24.964  1.00  0.00     0.357 HD
BRANCH  76  85
ATOM     85  C   UNL A   1      32.439  20.869  24.122  1.00  0.00     0.226 C 
ATOM     86  O   UNL A   1      32.435  20.970  22.915  1.00  0.00    -0.275 OA
BRANCH  85  87
ATOM     87  C   UNL A   1      32.536  19.465  24.597  1.00  0.00     0.079 C 
ATOM     88  C   UNL A   1      32.343  18.197  23.835  1.00  0.00     0.014 C 
ATOM     89  C   UNL A   1      33.729  18.629  24.230  1.00  0.00     0.014 C 
ENDBRANCH  85  87
ENDBRANCH  76  85
BRANCH  83  90
ATOM     90  C   UNL A   1      31.201  28.721  24.104  1.00  0.00     0.344 C 
ATOM     91  O   UNL A   1      31.921  29.605  24.573  1.00  0.00    -0.226 OA
BRANCH  90  92
ATOM     92  C   UNL A   1      30.016  29.184  23.303  1.00  0.00     0.083 A 
ATOM     93  C   UNL A   1      30.132  30.029  22.190  1.00  0.00     0.018 A 
ATOM     94  C   UNL A   1      28.755  28.642  23.608  1.00  0.00     0.064 A 
ATOM     95  C   UNL A   1      28.997  30.379  21.442  1.00  0.00     0.005 A 
ATOM     96  C   UNL A   1      27.635  28.985  22.848  1.00  0.00     0.116 A 
ATOM     97  C   UNL A   1      27.743  29.861  21.772  1.00  0.00     0.046 A 
BRANCH  96  98
ATOM     98  O   UNL A   1      26.433  28.429  23.182  1.00  0.00    -0.508 OA
ATOM     99  H   UNL A   1      26.380  27.515  23.387  1.00  0.00     0.293 HD
ENDBRANCH  96  98
ENDBRANCH  90  92
ENDBRANCH  83  90
ENDBRANCH  72  74
ENDBRANCH  71  72
ENDBRANCH  70  71
ENDBRANCH   1  70
TORSDOF 19
ENDMDL
