MODEL 1
REMARK VINA RESULT:     -11.3      0.000      0.000
REMARK SMILES O=C(CN1C(=O)N[C@](c2cccs2)(C2CC2)C1=O)OCCOC(=O)c1ccc(-c2c3nc(c(-c4cc(S(=O)(=O)[O-])ccc4F)c4ccc([nH]4)c(-c4cc(S(=O)(=O)[O-])ccc4F)c4nc(c(-c5cc(S(=O)(=O)[O-])ccc5F)c5ccc2[nH]5)C=C4)C=C3)cc1
REMARK SMILES IDX 21 1 20 2 19 3 2 4 1 5 3 6 4 7 5 8 17 9 6 10 7 11 8 12 18 13
REMARK SMILES IDX 14 15 15 16 16 17 9 18 10 19 13 20 11 21 12 22 22 23 23 24
REMARK SMILES IDX 24 25 25 26 26 27 87 28 27 29 86 30 28 31 29 32 30 33 80 34
REMARK SMILES IDX 31 35 85 36 79 37 81 38 32 39 84 40 78 41 77 42 33 44 65 45
REMARK SMILES IDX 45 46 64 47 46 48 49 49 63 50 82 51 47 52 48 53 62 55 83 56
REMARK SMILES IDX 50 57 34 58 35 59 43 60 36 61 42 62 44 63 41 64 37 65 38 66
REMARK SMILES IDX 39 67 40 68 66 69 67 70 75 71 68 72 74 73 76 74 73 75 69 76
REMARK SMILES IDX 70 77 71 78 72 79 51 80 52 81 60 82 53 83 59 84 61 85 58 86
REMARK SMILES IDX 54 87 55 88 56 89 57 90
REMARK H PARENT 7 14 81 43 49 54
REMARK Flexibility Score: inf
ROOT
ATOM      1  C   UNL A   1      37.355  20.268  24.957  1.00  0.00     0.275 C 
ENDROOT
BRANCH   1   2
ATOM      2  C   UNL A   1      35.837  20.439  24.993  1.00  0.00     0.274 C 
BRANCH   2   3
ATOM      3  O   UNL A   1      35.422  21.249  26.117  1.00  0.00    -0.461 OA
BRANCH   3   4
ATOM      4  C   UNL A   1      34.128  21.552  26.395  1.00  0.00     0.326 C 
ATOM      5  O   UNL A   1      33.211  20.942  25.848  1.00  0.00    -0.250 OA
BRANCH   4   6
ATOM      6  C   UNL A   1      33.854  22.655  27.401  1.00  0.00     0.253 C 
BRANCH   6   7
ATOM      7  N   UNL A   1      33.032  23.706  26.860  1.00  0.00    -0.251 N 
ATOM      8  C   UNL A   1      31.678  23.727  26.974  1.00  0.00     0.325 C 
ATOM      9  C   UNL A   1      33.436  24.585  25.895  1.00  0.00     0.262 C 
ATOM     10  O   UNL A   1      30.983  22.950  27.606  1.00  0.00    -0.248 OA
ATOM     11  N   UNL A   1      31.181  24.729  26.180  1.00  0.00    -0.318 N 
ATOM     12  C   UNL A   1      32.208  25.421  25.432  1.00  0.00     0.158 C 
ATOM     13  O   UNL A   1      34.569  24.671  25.433  1.00  0.00    -0.271 OA
ATOM     14  H   UNL A   1      30.224  24.955  26.126  1.00  0.00     0.166 HD
BRANCH  12  15
ATOM     15  C   UNL A   1      31.985  25.103  23.963  1.00  0.00     0.030 C 
ATOM     16  C   UNL A   1      30.769  24.441  23.369  1.00  0.00     0.007 C 
ATOM     17  C   UNL A   1      31.067  25.888  23.057  1.00  0.00     0.007 C 
ENDBRANCH  12  15
BRANCH  12  18
ATOM     18  C   UNL A   1      32.362  26.802  26.061  1.00  0.00     0.040 A 
ATOM     19  C   UNL A   1      31.407  27.472  26.826  1.00  0.00     0.018 A 
ATOM     20  S   UNL A   1      33.767  27.776  25.929  1.00  0.00    -0.146 S 
ATOM     21  C   UNL A   1      31.853  28.724  27.331  1.00  0.00     0.012 A 
ATOM     22  C   UNL A   1      33.132  29.005  26.924  1.00  0.00     0.065 A 
ENDBRANCH  12  18
ENDBRANCH   6   7
ENDBRANCH   4   6
ENDBRANCH   3   4
ENDBRANCH   2   3
ENDBRANCH   1   2
BRANCH   1  23
ATOM     23  O   UNL A   1      37.997  21.411  25.553  1.00  0.00    -0.458 OA
BRANCH  23  24
ATOM     24  C   UNL A   1      39.194  21.156  26.147  1.00  0.00     0.338 C 
ATOM     25  O   UNL A   1      39.796  20.101  26.128  1.00  0.00    -0.246 OA
BRANCH  24  26
ATOM     26  C   UNL A   1      39.769  22.426  26.652  1.00  0.00     0.060 A 
ATOM     27  C   UNL A   1      39.253  23.624  26.138  1.00  0.00     0.016 A 
ATOM     28  C   UNL A   1      40.766  22.457  27.633  1.00  0.00     0.016 A 
ATOM     29  C   UNL A   1      39.748  24.850  26.585  1.00  0.00     0.010 A 
ATOM     30  C   UNL A   1      41.266  23.687  28.074  1.00  0.00     0.010 A 
ATOM     31  C   UNL A   1      40.776  24.889  27.536  1.00  0.00    -0.014 A 
BRANCH  31  32
ATOM     32  C   UNL A   1      41.436  26.177  27.860  1.00  0.00     0.031 A 
ATOM     33  C   UNL A   1      40.635  27.243  28.555  1.00  0.00     0.074 A 
ATOM     34  C   UNL A   1      42.728  26.393  27.550  1.00  0.00     0.049 A 
ATOM     35  N   UNL A   1      40.994  28.447  28.921  1.00  0.00    -0.248 NA
ATOM     36  C   UNL A   1      39.239  26.906  28.875  1.00  0.00     0.031 C 
ATOM     37  C   UNL A   1      43.614  25.431  26.896  1.00  0.00     0.029 A 
ATOM     38  N   UNL A   1      43.517  27.502  27.738  1.00  0.00    -0.354 N 
ATOM     39  C   UNL A   1      39.872  29.009  29.523  1.00  0.00     0.074 A 
ATOM     40  C   UNL A   1      38.811  28.028  29.435  1.00  0.00     0.031 C 
ATOM     41  C   UNL A   1      44.822  25.996  26.727  1.00  0.00     0.029 A 
ATOM     42  C   UNL A   1      44.789  27.368  27.233  1.00  0.00     0.049 A 
ATOM     43  H   UNL A   1      43.201  28.316  28.194  1.00  0.00     0.167 HD
ATOM     44  C   UNL A   1      39.743  30.227  30.103  1.00  0.00     0.034 A 
ATOM     45  C   UNL A   1      45.801  28.259  27.166  1.00  0.00     0.034 A 
ATOM     46  C   UNL A   1      40.799  31.204  30.169  1.00  0.00     0.049 A 
ATOM     47  C   UNL A   1      45.601  29.644  27.744  1.00  0.00     0.074 A 
ATOM     48  C   UNL A   1      40.778  32.457  30.757  1.00  0.00     0.029 A 
ATOM     49  N   UNL A   1      42.061  31.051  29.611  1.00  0.00    -0.354 N 
ATOM     50  N   UNL A   1      44.548  30.147  28.345  1.00  0.00    -0.248 NA
ATOM     51  C   UNL A   1      46.733  30.575  27.638  1.00  0.00     0.031 C 
ATOM     52  C   UNL A   1      41.999  33.088  30.493  1.00  0.00     0.029 A 
ATOM     53  C   UNL A   1      42.812  32.200  29.807  1.00  0.00     0.049 A 
ATOM     54  H   UNL A   1      42.377  30.243  29.145  1.00  0.00     0.167 HD
ATOM     55  C   UNL A   1      44.905  31.442  28.717  1.00  0.00     0.074 A 
ATOM     56  C   UNL A   1      46.273  31.636  28.286  1.00  0.00     0.031 C 
ATOM     57  C   UNL A   1      44.173  32.384  29.364  1.00  0.00     0.034 A 
BRANCH  44  58
ATOM     58  C   UNL A   1      38.392  30.581  30.671  1.00  0.00     0.023 A 
ATOM     59  C   UNL A   1      37.430  31.270  29.912  1.00  0.00     0.031 A 
ATOM     60  C   UNL A   1      38.068  30.236  31.995  1.00  0.00     0.131 A 
ATOM     61  C   UNL A   1      36.210  31.640  30.501  1.00  0.00     0.055 A 
ATOM     62  C   UNL A   1      36.827  30.546  32.552  1.00  0.00     0.041 A 
ATOM     63  F   UNL A   1      38.959  29.599  32.771  1.00  0.00    -0.206 F 
ATOM     64  C   UNL A   1      35.894  31.261  31.808  1.00  0.00     0.022 A 
BRANCH  61  65
ATOM     65  S   UNL A   1      35.090  32.722  29.573  1.00  0.00     0.124 S 
ATOM     66  O   UNL A   1      34.426  31.769  28.687  1.00  0.00    -0.237 OA
ATOM     67  O   UNL A   1      34.264  33.300  30.626  1.00  0.00    -0.237 OA
ATOM     68  O   UNL A   1      35.993  33.658  28.904  1.00  0.00    -0.744 OA
ENDBRANCH  61  65
ENDBRANCH  44  58
BRANCH  45  69
ATOM     69  C   UNL A   1      47.084  27.909  26.490  1.00  0.00     0.023 A 
ATOM     70  C   UNL A   1      47.237  28.048  25.101  1.00  0.00     0.031 A 
ATOM     71  C   UNL A   1      48.147  27.339  27.215  1.00  0.00     0.131 A 
ATOM     72  C   UNL A   1      48.399  27.570  24.473  1.00  0.00     0.055 A 
ATOM     73  C   UNL A   1      49.323  26.919  26.594  1.00  0.00     0.041 A 
ATOM     74  F   UNL A   1      48.051  27.175  28.545  1.00  0.00    -0.206 F 
ATOM     75  C   UNL A   1      49.447  27.018  25.212  1.00  0.00     0.022 A 
BRANCH  72  76
ATOM     76  S   UNL A   1      48.473  27.576  22.661  1.00  0.00     0.124 S 
ATOM     77  O   UNL A   1      49.709  28.310  22.416  1.00  0.00    -0.237 OA
ATOM     78  O   UNL A   1      48.501  26.150  22.354  1.00  0.00    -0.237 OA
ATOM     79  O   UNL A   1      47.248  28.271  22.271  1.00  0.00    -0.744 OA
ENDBRANCH  72  76
ENDBRANCH  45  69
BRANCH  57  80
ATOM     80  C   UNL A   1      44.857  33.692  29.684  1.00  0.00     0.023 A 
ATOM     81  C   UNL A   1      44.800  34.792  28.809  1.00  0.00     0.031 A 
ATOM     82  C   UNL A   1      45.580  33.837  30.881  1.00  0.00     0.131 A 
ATOM     83  C   UNL A   1      45.497  35.969  29.122  1.00  0.00     0.055 A 
ATOM     84  C   UNL A   1      46.224  35.029  31.212  1.00  0.00     0.041 A 
ATOM     85  F   UNL A   1      45.668  32.819  31.753  1.00  0.00    -0.206 F 
ATOM     86  C   UNL A   1      46.195  36.101  30.325  1.00  0.00     0.022 A 
BRANCH  83  87
ATOM     87  S   UNL A   1      45.547  37.306  27.895  1.00  0.00     0.124 S 
ATOM     88  O   UNL A   1      44.197  37.265  27.345  1.00  0.00    -0.237 OA
ATOM     89  O   UNL A   1      45.867  38.470  28.714  1.00  0.00    -0.237 OA
ATOM     90  O   UNL A   1      46.605  36.888  26.974  1.00  0.00    -0.744 OA
ENDBRANCH  83  87
ENDBRANCH  57  80
ENDBRANCH  31  32
ENDBRANCH  24  26
ENDBRANCH  23  24
ENDBRANCH   1  23
TORSDOF 17
ENDMDL
MODEL 2
REMARK VINA RESULT:     -11.2      1.007      7.599
REMARK SMILES O=C(CN1C(=O)N[C@](c2cccs2)(C2CC2)C1=O)OCCOC(=O)c1ccc(-c2c3nc(c(-c4cc(S(=O)(=O)[O-])ccc4F)c4ccc([nH]4)c(-c4cc(S(=O)(=O)[O-])ccc4F)c4nc(c(-c5cc(S(=O)(=O)[O-])ccc5F)c5ccc2[nH]5)C=C4)C=C3)cc1
REMARK SMILES IDX 21 1 20 2 19 3 2 4 1 5 3 6 4 7 5 8 17 9 6 10 7 11 8 12 18 13
REMARK SMILES IDX 14 15 15 16 16 17 9 18 10 19 13 20 11 21 12 22 22 23 23 24
REMARK SMILES IDX 24 25 25 26 26 27 87 28 27 29 86 30 28 31 29 32 30 33 80 34
REMARK SMILES IDX 31 35 85 36 79 37 81 38 32 39 84 40 78 41 77 42 33 44 65 45
REMARK SMILES IDX 45 46 64 47 46 48 49 49 63 50 82 51 47 52 48 53 62 55 83 56
REMARK SMILES IDX 50 57 34 58 35 59 43 60 36 61 42 62 44 63 41 64 37 65 38 66
REMARK SMILES IDX 39 67 40 68 66 69 67 70 75 71 68 72 74 73 76 74 73 75 69 76
REMARK SMILES IDX 70 77 71 78 72 79 51 80 52 81 60 82 53 83 59 84 61 85 58 86
REMARK SMILES IDX 54 87 55 88 56 89 57 90
REMARK H PARENT 7 14 81 43 49 54
REMARK Flexibility Score: inf
ROOT
ATOM      1  C   UNL A   1      37.064  20.493  25.019  1.00  0.00     0.275 C 
ENDROOT
BRANCH   1   2
ATOM      2  C   UNL A   1      35.542  20.630  25.002  1.00  0.00     0.274 C 
BRANCH   2   3
ATOM      3  O   UNL A   1      35.134  22.017  25.046  1.00  0.00    -0.461 OA
BRANCH   3   4
ATOM      4  C   UNL A   1      34.200  22.505  25.901  1.00  0.00     0.326 C 
ATOM      5  O   UNL A   1      34.527  22.939  27.005  1.00  0.00    -0.250 OA
BRANCH   4   6
ATOM      6  C   UNL A   1      32.750  22.503  25.450  1.00  0.00     0.253 C 
BRANCH   6   7
ATOM      7  N   UNL A   1      32.127  23.793  25.589  1.00  0.00    -0.251 N 
ATOM      8  C   UNL A   1      31.140  24.052  26.487  1.00  0.00     0.325 C 
ATOM      9  C   UNL A   1      32.175  24.782  24.647  1.00  0.00     0.262 C 
ATOM     10  O   UNL A   1      30.713  23.298  27.345  1.00  0.00    -0.248 OA
ATOM     11  N   UNL A   1      30.617  25.293  26.227  1.00  0.00    -0.318 N 
ATOM     12  C   UNL A   1      31.214  25.929  25.073  1.00  0.00     0.158 C 
ATOM     13  O   UNL A   1      32.830  24.752  23.611  1.00  0.00    -0.271 OA
ATOM     14  H   UNL A   1      29.910  25.709  26.771  1.00  0.00     0.166 HD
BRANCH  12  15
ATOM     15  C   UNL A   1      30.138  26.024  24.006  1.00  0.00     0.030 C 
ATOM     16  C   UNL A   1      28.681  26.334  24.233  1.00  0.00     0.007 C 
ATOM     17  C   UNL A   1      29.557  27.323  23.502  1.00  0.00     0.007 C 
ENDBRANCH  12  15
BRANCH  12  18
ATOM     18  C   UNL A   1      32.095  27.060  25.595  1.00  0.00     0.040 A 
ATOM     19  C   UNL A   1      32.114  27.558  26.898  1.00  0.00     0.018 A 
ATOM     20  S   UNL A   1      33.231  27.921  24.642  1.00  0.00    -0.146 S 
ATOM     21  C   UNL A   1      33.081  28.578  27.107  1.00  0.00     0.012 A 
ATOM     22  C   UNL A   1      33.770  28.864  25.956  1.00  0.00     0.065 A 
ENDBRANCH  12  18
ENDBRANCH   6   7
ENDBRANCH   4   6
ENDBRANCH   3   4
ENDBRANCH   2   3
ENDBRANCH   1   2
BRANCH   1  23
ATOM     23  O   UNL A   1      37.644  21.508  25.859  1.00  0.00    -0.458 OA
BRANCH  23  24
ATOM     24  C   UNL A   1      38.968  21.348  26.128  1.00  0.00     0.338 C 
ATOM     25  O   UNL A   1      39.639  20.367  25.877  1.00  0.00    -0.246 OA
BRANCH  24  26
ATOM     26  C   UNL A   1      39.533  22.640  26.589  1.00  0.00     0.060 A 
ATOM     27  C   UNL A   1      38.907  23.815  26.151  1.00  0.00     0.016 A 
ATOM     28  C   UNL A   1      40.627  22.709  27.457  1.00  0.00     0.016 A 
ATOM     29  C   UNL A   1      39.389  25.060  26.562  1.00  0.00     0.010 A 
ATOM     30  C   UNL A   1      41.112  23.957  27.861  1.00  0.00     0.010 A 
ATOM     31  C   UNL A   1      40.510  25.139  27.398  1.00  0.00    -0.014 A 
BRANCH  31  32
ATOM     32  C   UNL A   1      41.140  26.454  27.670  1.00  0.00     0.031 A 
ATOM     33  C   UNL A   1      42.517  26.720  27.127  1.00  0.00     0.074 A 
ATOM     34  C   UNL A   1      40.496  27.401  28.379  1.00  0.00     0.049 A 
ATOM     35  N   UNL A   1      43.268  27.784  27.250  1.00  0.00    -0.248 NA
ATOM     36  C   UNL A   1      43.130  25.636  26.344  1.00  0.00     0.031 C 
ATOM     37  C   UNL A   1      39.151  27.269  28.938  1.00  0.00     0.029 A 
ATOM     38  N   UNL A   1      40.897  28.659  28.756  1.00  0.00    -0.354 N 
ATOM     39  C   UNL A   1      44.439  27.503  26.553  1.00  0.00     0.074 A 
ATOM     40  C   UNL A   1      44.313  26.152  26.046  1.00  0.00     0.031 C 
ATOM     41  C   UNL A   1      38.844  28.400  29.598  1.00  0.00     0.029 A 
ATOM     42  C   UNL A   1      39.977  29.322  29.534  1.00  0.00     0.049 A 
ATOM     43  H   UNL A   1      41.761  29.050  28.493  1.00  0.00     0.167 HD
ATOM     44  C   UNL A   1      45.516  28.300  26.348  1.00  0.00     0.034 A 
ATOM     45  C   UNL A   1      40.052  30.525  30.142  1.00  0.00     0.034 A 
ATOM     46  C   UNL A   1      45.641  29.636  26.873  1.00  0.00     0.049 A 
ATOM     47  C   UNL A   1      41.302  31.360  29.969  1.00  0.00     0.074 A 
ATOM     48  C   UNL A   1      46.679  30.535  26.702  1.00  0.00     0.029 A 
ATOM     49  N   UNL A   1      44.708  30.259  27.690  1.00  0.00    -0.354 N 
ATOM     50  N   UNL A   1      42.385  31.097  29.275  1.00  0.00    -0.248 NA
ATOM     51  C   UNL A   1      41.333  32.657  30.658  1.00  0.00     0.031 C 
ATOM     52  C   UNL A   1      46.408  31.671  27.471  1.00  0.00     0.029 A 
ATOM     53  C   UNL A   1      45.164  31.515  28.062  1.00  0.00     0.049 A 
ATOM     54  H   UNL A   1      43.848  29.868  27.965  1.00  0.00     0.167 HD
ATOM     55  C   UNL A   1      43.209  32.211  29.418  1.00  0.00     0.074 A 
ATOM     56  C   UNL A   1      42.493  33.153  30.253  1.00  0.00     0.031 C 
ATOM     57  C   UNL A   1      44.444  32.442  28.903  1.00  0.00     0.034 A 
BRANCH  44  58
ATOM     58  C   UNL A   1      46.661  27.723  25.556  1.00  0.00     0.023 A 
ATOM     59  C   UNL A   1      46.901  28.100  24.223  1.00  0.00     0.031 A 
ATOM     60  C   UNL A   1      47.518  26.774  26.140  1.00  0.00     0.131 A 
ATOM     61  C   UNL A   1      47.937  27.489  23.500  1.00  0.00     0.055 A 
ATOM     62  C   UNL A   1      48.590  26.221  25.437  1.00  0.00     0.041 A 
ATOM     63  F   UNL A   1      47.320  26.361  27.401  1.00  0.00    -0.206 F 
ATOM     64  C   UNL A   1      48.798  26.570  24.106  1.00  0.00     0.022 A 
BRANCH  61  65
ATOM     65  S   UNL A   1      48.074  27.826  21.724  1.00  0.00     0.124 S 
ATOM     66  O   UNL A   1      48.312  26.487  21.188  1.00  0.00    -0.237 OA
ATOM     67  O   UNL A   1      46.779  28.418  21.413  1.00  0.00    -0.237 OA
ATOM     68  O   UNL A   1      49.215  28.736  21.634  1.00  0.00    -0.744 OA
ENDBRANCH  61  65
ENDBRANCH  44  58
BRANCH  45  69
ATOM     69  C   UNL A   1      38.943  31.011  31.014  1.00  0.00     0.023 A 
ATOM     70  C   UNL A   1      37.870  31.747  30.486  1.00  0.00     0.031 A 
ATOM     71  C   UNL A   1      38.991  30.825  32.408  1.00  0.00     0.131 A 
ATOM     72  C   UNL A   1      36.921  32.320  31.349  1.00  0.00     0.055 A 
ATOM     73  C   UNL A   1      38.014  31.348  33.256  1.00  0.00     0.041 A 
ATOM     74  F   UNL A   1      39.999  30.136  32.967  1.00  0.00    -0.206 F 
ATOM     75  C   UNL A   1      36.981  32.115  32.730  1.00  0.00     0.022 A 
BRANCH  72  76
ATOM     76  S   UNL A   1      35.673  33.435  30.652  1.00  0.00     0.124 S 
ATOM     77  O   UNL A   1      34.463  32.626  30.750  1.00  0.00    -0.237 OA
ATOM     78  O   UNL A   1      35.753  34.581  31.552  1.00  0.00    -0.237 OA
ATOM     79  O   UNL A   1      36.153  33.678  29.293  1.00  0.00    -0.744 OA
ENDBRANCH  72  76
ENDBRANCH  45  69
BRANCH  57  80
ATOM     80  C   UNL A   1      45.074  33.784  29.190  1.00  0.00     0.023 A 
ATOM     81  C   UNL A   1      44.906  34.882  28.328  1.00  0.00     0.031 A 
ATOM     82  C   UNL A   1      45.858  33.962  30.343  1.00  0.00     0.131 A 
ATOM     83  C   UNL A   1      45.556  36.094  28.606  1.00  0.00     0.055 A 
ATOM     84  C   UNL A   1      46.456  35.187  30.644  1.00  0.00     0.041 A 
ATOM     85  F   UNL A   1      46.053  32.948  31.202  1.00  0.00    -0.206 F 
ATOM     86  C   UNL A   1      46.317  36.258  29.768  1.00  0.00     0.022 A 
BRANCH  83  87
ATOM     87  S   UNL A   1      45.461  37.435  27.388  1.00  0.00     0.124 S 
ATOM     88  O   UNL A   1      45.941  38.579  28.157  1.00  0.00    -0.237 OA
ATOM     89  O   UNL A   1      46.348  36.961  26.331  1.00  0.00    -0.237 OA
ATOM     90  O   UNL A   1      44.043  37.478  27.033  1.00  0.00    -0.744 OA
ENDBRANCH  83  87
ENDBRANCH  57  80
ENDBRANCH  31  32
ENDBRANCH  24  26
ENDBRANCH  23  24
ENDBRANCH   1  23
TORSDOF 17
ENDMDL
MODEL 3
REMARK VINA RESULT:     -11.2      1.107      7.755
REMARK SMILES O=C(CN1C(=O)N[C@](c2cccs2)(C2CC2)C1=O)OCCOC(=O)c1ccc(-c2c3nc(c(-c4cc(S(=O)(=O)[O-])ccc4F)c4ccc([nH]4)c(-c4cc(S(=O)(=O)[O-])ccc4F)c4nc(c(-c5cc(S(=O)(=O)[O-])ccc5F)c5ccc2[nH]5)C=C4)C=C3)cc1
REMARK SMILES IDX 21 1 20 2 19 3 2 4 1 5 3 6 4 7 5 8 17 9 6 10 7 11 8 12 18 13
REMARK SMILES IDX 14 15 15 16 16 17 9 18 10 19 13 20 11 21 12 22 22 23 23 24
REMARK SMILES IDX 24 25 25 26 26 27 87 28 27 29 86 30 28 31 29 32 30 33 80 34
REMARK SMILES IDX 31 35 85 36 79 37 81 38 32 39 84 40 78 41 77 42 33 44 65 45
REMARK SMILES IDX 45 46 64 47 46 48 49 49 63 50 82 51 47 52 48 53 62 55 83 56
REMARK SMILES IDX 50 57 34 58 35 59 43 60 36 61 42 62 44 63 41 64 37 65 38 66
REMARK SMILES IDX 39 67 40 68 66 69 67 70 75 71 68 72 74 73 76 74 73 75 69 76
REMARK SMILES IDX 70 77 71 78 72 79 51 80 52 81 60 82 53 83 59 84 61 85 58 86
REMARK SMILES IDX 54 87 55 88 56 89 57 90
REMARK H PARENT 7 14 81 43 49 54
REMARK Flexibility Score: inf
ROOT
ATOM      1  C   UNL A   1      37.519  19.981  24.864  1.00  0.00     0.275 C 
ENDROOT
BRANCH   1   2
ATOM      2  C   UNL A   1      36.019  20.237  25.008  1.00  0.00     0.274 C 
BRANCH   2   3
ATOM      3  O   UNL A   1      35.704  21.639  24.852  1.00  0.00    -0.461 OA
BRANCH   3   4
ATOM      4  C   UNL A   1      34.710  22.272  25.528  1.00  0.00     0.326 C 
ATOM      5  O   UNL A   1      34.874  22.627  26.694  1.00  0.00    -0.250 OA
BRANCH   4   6
ATOM      6  C   UNL A   1      33.404  22.530  24.799  1.00  0.00     0.253 C 
BRANCH   6   7
ATOM      7  N   UNL A   1      33.169  23.931  24.566  1.00  0.00    -0.251 N 
ATOM      8  C   UNL A   1      33.838  24.654  23.630  1.00  0.00     0.325 C 
ATOM      9  C   UNL A   1      32.543  24.768  25.447  1.00  0.00     0.262 C 
ATOM     10  O   UNL A   1      34.635  24.233  22.810  1.00  0.00    -0.248 OA
ATOM     11  N   UNL A   1      33.543  25.983  23.800  1.00  0.00    -0.318 N 
ATOM     12  C   UNL A   1      32.670  26.229  24.928  1.00  0.00     0.158 C 
ATOM     13  O   UNL A   1      32.010  24.431  26.499  1.00  0.00    -0.271 OA
ATOM     14  H   UNL A   1      33.888  26.695  23.215  1.00  0.00     0.166 HD
BRANCH  12  15
ATOM     15  C   UNL A   1      33.477  26.997  25.961  1.00  0.00     0.030 C 
ATOM     16  C   UNL A   1      33.862  28.452  25.890  1.00  0.00     0.007 C 
ATOM     17  C   UNL A   1      32.883  27.982  26.939  1.00  0.00     0.007 C 
ENDBRANCH  12  15
BRANCH  12  18
ATOM     18  C   UNL A   1      31.306  26.608  24.360  1.00  0.00     0.040 A 
ATOM     19  C   UNL A   1      30.105  25.933  24.579  1.00  0.00     0.018 A 
ATOM     20  S   UNL A   1      31.022  27.956  23.339  1.00  0.00    -0.146 S 
ATOM     21  C   UNL A   1      28.981  26.552  23.966  1.00  0.00     0.012 A 
ATOM     22  C   UNL A   1      29.343  27.675  23.267  1.00  0.00     0.065 A 
ENDBRANCH  12  18
ENDBRANCH   6   7
ENDBRANCH   4   6
ENDBRANCH   3   4
ENDBRANCH   2   3
ENDBRANCH   1   2
BRANCH   1  23
ATOM     23  O   UNL A   1      38.260  21.164  25.216  1.00  0.00    -0.458 OA
BRANCH  23  24
ATOM     24  C   UNL A   1      39.313  20.957  26.052  1.00  0.00     0.338 C 
ATOM     25  O   UNL A   1      39.884  19.903  26.242  1.00  0.00    -0.246 OA
BRANCH  24  26
ATOM     26  C   UNL A   1      39.807  22.266  26.547  1.00  0.00     0.060 A 
ATOM     27  C   UNL A   1      39.137  23.419  26.116  1.00  0.00     0.016 A 
ATOM     28  C   UNL A   1      40.878  22.370  27.440  1.00  0.00     0.016 A 
ATOM     29  C   UNL A   1      39.550  24.676  26.558  1.00  0.00     0.010 A 
ATOM     30  C   UNL A   1      41.296  23.631  27.876  1.00  0.00     0.010 A 
ATOM     31  C   UNL A   1      40.649  24.793  27.421  1.00  0.00    -0.014 A 
BRANCH  31  32
ATOM     32  C   UNL A   1      41.210  26.131  27.728  1.00  0.00     0.031 A 
ATOM     33  C   UNL A   1      42.605  26.451  27.267  1.00  0.00     0.074 A 
ATOM     34  C   UNL A   1      40.490  27.050  28.398  1.00  0.00     0.049 A 
ATOM     35  N   UNL A   1      43.307  27.542  27.434  1.00  0.00    -0.248 NA
ATOM     36  C   UNL A   1      43.305  25.392  26.522  1.00  0.00     0.031 C 
ATOM     37  C   UNL A   1      39.121  26.866  28.878  1.00  0.00     0.029 A 
ATOM     38  N   UNL A   1      40.819  28.322  28.798  1.00  0.00    -0.354 N 
ATOM     39  C   UNL A   1      44.527  27.308  26.807  1.00  0.00     0.074 A 
ATOM     40  C   UNL A   1      44.482  25.954  26.294  1.00  0.00     0.031 C 
ATOM     41  C   UNL A   1      38.731  27.983  29.518  1.00  0.00     0.029 A 
ATOM     42  C   UNL A   1      39.830  28.948  29.520  1.00  0.00     0.049 A 
ATOM     43  H   UNL A   1      41.682  28.746  28.586  1.00  0.00     0.167 HD
ATOM     44  C   UNL A   1      45.581  28.146  26.666  1.00  0.00     0.034 A 
ATOM     45  C   UNL A   1      39.822  30.151  30.131  1.00  0.00     0.034 A 
ATOM     46  C   UNL A   1      45.624  29.485  27.197  1.00  0.00     0.049 A 
ATOM     47  C   UNL A   1      41.048  31.034  30.032  1.00  0.00     0.074 A 
ATOM     48  C   UNL A   1      46.635  30.424  27.087  1.00  0.00     0.029 A 
ATOM     49  N   UNL A   1      44.621  30.070  27.958  1.00  0.00    -0.354 N 
ATOM     50  N   UNL A   1      42.179  30.815  29.403  1.00  0.00    -0.248 NA
ATOM     51  C   UNL A   1      40.988  32.331  30.722  1.00  0.00     0.031 C 
ATOM     52  C   UNL A   1      46.275  31.547  27.839  1.00  0.00     0.029 A 
ATOM     53  C   UNL A   1      45.006  31.342  28.356  1.00  0.00     0.049 A 
ATOM     54  H   UNL A   1      43.762  29.646  28.181  1.00  0.00     0.167 HD
ATOM     55  C   UNL A   1      42.950  31.960  29.594  1.00  0.00     0.074 A 
ATOM     56  C   UNL A   1      42.150  32.871  30.385  1.00  0.00     0.031 C 
ATOM     57  C   UNL A   1      44.202  32.239  29.152  1.00  0.00     0.034 A 
BRANCH  44  58
ATOM     58  C   UNL A   1      46.793  27.616  25.943  1.00  0.00     0.023 A 
ATOM     59  C   UNL A   1      47.055  27.945  24.601  1.00  0.00     0.031 A 
ATOM     60  C   UNL A   1      47.692  26.759  26.601  1.00  0.00     0.131 A 
ATOM     61  C   UNL A   1      48.158  27.376  23.945  1.00  0.00     0.055 A 
ATOM     62  C   UNL A   1      48.825  26.251  25.963  1.00  0.00     0.041 A 
ATOM     63  F   UNL A   1      47.476  26.392  27.874  1.00  0.00    -0.206 F 
ATOM     64  C   UNL A   1      49.057  26.550  24.625  1.00  0.00     0.022 A 
BRANCH  61  65
ATOM     65  S   UNL A   1      48.337  27.637  22.160  1.00  0.00     0.124 S 
ATOM     66  O   UNL A   1      49.470  28.560  22.109  1.00  0.00    -0.237 OA
ATOM     67  O   UNL A   1      48.588  26.289  21.666  1.00  0.00    -0.237 OA
ATOM     68  O   UNL A   1      47.053  28.217  21.767  1.00  0.00    -0.744 OA
ENDBRANCH  61  65
ENDBRANCH  44  58
BRANCH  45  69
ATOM     69  C   UNL A   1      38.647  30.592  30.937  1.00  0.00     0.023 A 
ATOM     70  C   UNL A   1      37.548  31.227  30.335  1.00  0.00     0.031 A 
ATOM     71  C   UNL A   1      38.648  30.468  32.338  1.00  0.00     0.131 A 
ATOM     72  C   UNL A   1      36.526  31.766  31.133  1.00  0.00     0.055 A 
ATOM     73  C   UNL A   1      37.602  30.955  33.123  1.00  0.00     0.041 A 
ATOM     74  F   UNL A   1      39.677  29.877  32.967  1.00  0.00    -0.206 F 
ATOM     75  C   UNL A   1      36.541  31.623  32.523  1.00  0.00     0.022 A 
BRANCH  72  76
ATOM     76  S   UNL A   1      35.233  32.759  30.339  1.00  0.00     0.124 S 
ATOM     77  O   UNL A   1      35.988  33.920  29.881  1.00  0.00    -0.237 OA
ATOM     78  O   UNL A   1      34.752  31.855  29.300  1.00  0.00    -0.237 OA
ATOM     79  O   UNL A   1      34.288  33.018  31.423  1.00  0.00    -0.744 OA
ENDBRANCH  72  76
ENDBRANCH  45  69
BRANCH  57  80
ATOM     80  C   UNL A   1      44.763  33.603  29.476  1.00  0.00     0.023 A 
ATOM     81  C   UNL A   1      44.398  34.747  28.743  1.00  0.00     0.031 A 
ATOM     82  C   UNL A   1      45.678  33.758  30.532  1.00  0.00     0.131 A 
ATOM     83  C   UNL A   1      44.987  35.985  29.044  1.00  0.00     0.055 A 
ATOM     84  C   UNL A   1      46.217  35.002  30.862  1.00  0.00     0.041 A 
ATOM     85  F   UNL A   1      46.062  32.699  31.264  1.00  0.00    -0.206 F 
ATOM     86  C   UNL A   1      45.881  36.123  30.109  1.00  0.00     0.022 A 
BRANCH  83  87
ATOM     87  S   UNL A   1      44.629  37.405  27.973  1.00  0.00     0.124 S 
ATOM     88  O   UNL A   1      45.963  37.797  27.532  1.00  0.00    -0.237 OA
ATOM     89  O   UNL A   1      43.768  36.818  26.952  1.00  0.00    -0.237 OA
ATOM     90  O   UNL A   1      43.969  38.354  28.869  1.00  0.00    -0.744 OA
ENDBRANCH  83  87
ENDBRANCH  57  80
ENDBRANCH  31  32
ENDBRANCH  24  26
ENDBRANCH  23  24
ENDBRANCH   1  23
TORSDOF 17
ENDMDL
