MODEL 1
REMARK VINA RESULT:     -11.7      0.000      0.000
REMARK SMILES CS(=O)(=O)c1ccc(N2N=C(C(=O)OCCOC(=O)c3ccc(-c4c5nc(c(-c6cc(S(=O)(=O)[O-])ccc6F)c6ccc([nH]6)c(-c6cc(S(=O)(=O)[O-])ccc6F)c6nc(c(-c7cc(S(=O)(=O)[O-])ccc7F)c7ccc4[nH]7)C=C6)C=C5)cc3)C[C@H]2c2cccs2)cc1
REMARK SMILES IDX 16 1 15 2 14 3 12 4 13 5 11 6 9 7 10 8 84 9 83 10 8 11 5 12
REMARK SMILES IDX 6 13 91 14 7 15 90 16 2 17 1 18 3 19 4 20 85 21 86 22 89 23
REMARK SMILES IDX 87 24 88 25 17 26 18 27 19 28 20 29 21 30 82 31 22 32 81 33
REMARK SMILES IDX 23 34 24 35 25 36 75 37 26 38 80 39 74 40 76 41 27 42 79 43
REMARK SMILES IDX 73 44 72 45 28 47 60 48 40 49 59 50 41 51 44 52 58 53 77 54
REMARK SMILES IDX 42 55 43 56 57 58 78 59 45 60 29 61 30 62 38 63 31 64 37 65
REMARK SMILES IDX 39 66 36 67 32 68 33 69 34 70 35 71 61 72 62 73 70 74 63 75
REMARK SMILES IDX 69 76 71 77 68 78 64 79 65 80 66 81 67 82 46 83 47 84 55 85
REMARK SMILES IDX 48 86 54 87 56 88 53 89 49 90 50 91 51 92 52 93
REMARK H PARENT 76 46 44 57
REMARK Flexibility Score: inf
ROOT
ATOM      1  C   UNL A   1      32.097  29.262  25.437  1.00  0.00     0.275 C 
ENDROOT
BRANCH   1   2
ATOM      2  C   UNL A   1      32.176  28.447  24.143  1.00  0.00     0.275 C 
BRANCH   2   3
ATOM      3  O   UNL A   1      33.479  27.851  24.017  1.00  0.00    -0.458 OA
BRANCH   3   4
ATOM      4  C   UNL A   1      33.568  26.793  23.191  1.00  0.00     0.354 C 
ATOM      5  O   UNL A   1      33.759  26.801  21.989  1.00  0.00    -0.245 OA
BRANCH   4   6
ATOM      6  C   UNL A   1      33.427  25.521  23.986  1.00  0.00     0.148 C 
ATOM      7  N   UNL A   1      33.132  23.488  24.465  1.00  0.00    -0.256 N 
ATOM      8  N   UNL A   1      33.281  24.355  23.431  1.00  0.00    -0.169 NA
ATOM      9  C   UNL A   1      32.969  24.139  25.764  1.00  0.00     0.154 C 
ATOM     10  C   UNL A   1      33.535  25.536  25.477  1.00  0.00     0.099 C 
BRANCH   7  11
ATOM     11  C   UNL A   1      33.309  22.124  24.311  1.00  0.00     0.060 A 
ATOM     12  C   UNL A   1      33.572  19.333  24.126  1.00  0.00     0.067 A 
ATOM     13  C   UNL A   1      34.545  20.076  24.798  1.00  0.00     0.022 A 
ATOM     14  C   UNL A   1      32.480  19.969  23.535  1.00  0.00     0.022 A 
ATOM     15  C   UNL A   1      34.411  21.467  24.880  1.00  0.00     0.029 A 
ATOM     16  C   UNL A   1      32.356  21.357  23.631  1.00  0.00     0.029 A 
BRANCH  12  17
ATOM     17  S   UNL A   1      33.682  17.558  24.091  1.00  0.00     0.175 S 
ATOM     18  C   UNL A   1      32.598  17.000  25.381  1.00  0.00     0.163 C 
ATOM     19  O   UNL A   1      35.041  17.203  24.465  1.00  0.00    -0.224 OA
ATOM     20  O   UNL A   1      33.150  17.145  22.806  1.00  0.00    -0.224 OA
ENDBRANCH  12  17
ENDBRANCH   7  11
BRANCH   9  21
ATOM     21  C   UNL A   1      31.534  24.126  26.268  1.00  0.00     0.030 A 
ATOM     22  C   UNL A   1      30.873  23.059  26.853  1.00  0.00     0.017 A 
ATOM     23  S   UNL A   1      30.470  25.460  26.058  1.00  0.00    -0.147 S 
ATOM     24  C   UNL A   1      29.502  23.339  27.116  1.00  0.00     0.012 A 
ATOM     25  C   UNL A   1      29.155  24.615  26.740  1.00  0.00     0.065 A 
ENDBRANCH   9  21
ENDBRANCH   4   6
ENDBRANCH   3   4
ENDBRANCH   2   3
ENDBRANCH   1   2
BRANCH   1  26
ATOM     26  O   UNL A   1      33.244  30.120  25.580  1.00  0.00    -0.458 OA
BRANCH  26  27
ATOM     27  C   UNL A   1      33.270  30.855  26.720  1.00  0.00     0.338 C 
ATOM     28  O   UNL A   1      32.334  31.447  27.231  1.00  0.00    -0.246 OA
BRANCH  27  29
ATOM     29  C   UNL A   1      34.589  30.718  27.363  1.00  0.00     0.060 A 
ATOM     30  C   UNL A   1      35.028  29.429  27.661  1.00  0.00     0.016 A 
ATOM     31  C   UNL A   1      35.362  31.825  27.717  1.00  0.00     0.016 A 
ATOM     32  C   UNL A   1      36.243  29.226  28.306  1.00  0.00     0.010 A 
ATOM     33  C   UNL A   1      36.578  31.625  28.382  1.00  0.00     0.010 A 
ATOM     34  C   UNL A   1      37.020  30.325  28.686  1.00  0.00    -0.014 A 
BRANCH  34  35
ATOM     35  C   UNL A   1      38.257  30.099  29.467  1.00  0.00     0.031 A 
ATOM     36  C   UNL A   1      39.358  29.263  28.881  1.00  0.00     0.074 A 
ATOM     37  C   UNL A   1      38.408  30.676  30.672  1.00  0.00     0.049 A 
ATOM     38  N   UNL A   1      40.493  28.896  29.414  1.00  0.00    -0.248 NA
ATOM     39  C   UNL A   1      39.149  28.780  27.508  1.00  0.00     0.031 C 
ATOM     40  C   UNL A   1      37.430  31.555  31.314  1.00  0.00     0.029 A 
ATOM     41  N   UNL A   1      39.441  30.609  31.571  1.00  0.00    -0.354 N 
ATOM     42  C   UNL A   1      41.130  28.121  28.453  1.00  0.00     0.074 A 
ATOM     43  C   UNL A   1      40.247  28.067  27.305  1.00  0.00     0.031 C 
ATOM     44  C   UNL A   1      37.907  31.938  32.510  1.00  0.00     0.029 A 
ATOM     45  C   UNL A   1      39.202  31.302  32.735  1.00  0.00     0.049 A 
ATOM     46  H   UNL A   1      40.274  30.112  31.401  1.00  0.00     0.167 HD
ATOM     47  C   UNL A   1      42.339  27.511  28.524  1.00  0.00     0.034 A 
ATOM     48  C   UNL A   1      39.933  31.387  33.863  1.00  0.00     0.034 A 
ATOM     49  C   UNL A   1      43.205  27.572  29.674  1.00  0.00     0.049 A 
ATOM     50  C   UNL A   1      41.244  30.651  33.941  1.00  0.00     0.074 A 
ATOM     51  C   UNL A   1      44.452  26.995  29.849  1.00  0.00     0.029 A 
ATOM     52  N   UNL A   1      42.911  28.245  30.853  1.00  0.00    -0.354 N 
ATOM     53  N   UNL A   1      41.823  29.898  33.034  1.00  0.00    -0.248 NA
ATOM     54  C   UNL A   1      41.997  30.771  35.197  1.00  0.00     0.031 C 
ATOM     55  C   UNL A   1      44.890  27.282  31.149  1.00  0.00     0.029 A 
ATOM     56  C   UNL A   1      43.940  28.079  31.766  1.00  0.00     0.049 A 
ATOM     57  H   UNL A   1      42.091  28.763  31.015  1.00  0.00     0.167 HD
ATOM     58  C   UNL A   1      43.012  29.460  33.610  1.00  0.00     0.074 A 
ATOM     59  C   UNL A   1      43.074  30.046  34.934  1.00  0.00     0.031 C 
ATOM     60  C   UNL A   1      43.968  28.651  33.089  1.00  0.00     0.034 A 
BRANCH  47  61
ATOM     61  C   UNL A   1      42.752  26.679  27.340  1.00  0.00     0.023 A 
ATOM     62  C   UNL A   1      42.379  25.329  27.224  1.00  0.00     0.031 A 
ATOM     63  C   UNL A   1      43.572  27.229  26.340  1.00  0.00     0.131 A 
ATOM     64  C   UNL A   1      42.880  24.556  26.166  1.00  0.00     0.055 A 
ATOM     65  C   UNL A   1      44.013  26.472  25.254  1.00  0.00     0.041 A 
ATOM     66  F   UNL A   1      43.975  28.507  26.416  1.00  0.00    -0.206 F 
ATOM     67  C   UNL A   1      43.679  25.122  25.170  1.00  0.00     0.022 A 
BRANCH  64  68
ATOM     68  S   UNL A   1      42.579  22.768  26.184  1.00  0.00     0.124 S 
ATOM     69  O   UNL A   1      43.167  22.358  24.911  1.00  0.00    -0.237 OA
ATOM     70  O   UNL A   1      43.291  22.344  27.384  1.00  0.00    -0.237 OA
ATOM     71  O   UNL A   1      41.122  22.667  26.252  1.00  0.00    -0.744 OA
ENDBRANCH  64  68
ENDBRANCH  47  61
BRANCH  48  72
ATOM     72  C   UNL A   1      39.411  32.138  35.036  1.00  0.00     0.023 A 
ATOM     73  C   UNL A   1      39.832  33.446  35.313  1.00  0.00     0.031 A 
ATOM     74  C   UNL A   1      38.498  31.533  35.919  1.00  0.00     0.131 A 
ATOM     75  C   UNL A   1      39.363  34.100  36.464  1.00  0.00     0.055 A 
ATOM     76  C   UNL A   1      38.005  32.201  37.040  1.00  0.00     0.041 A 
ATOM     77  F   UNL A   1      38.066  30.282  35.694  1.00  0.00    -0.206 F 
ATOM     78  C   UNL A   1      38.444  33.490  37.322  1.00  0.00     0.022 A 
BRANCH  75  79
ATOM     79  S   UNL A   1      40.016  35.745  36.859  1.00  0.00     0.124 S 
ATOM     80  O   UNL A   1      39.320  36.053  38.102  1.00  0.00    -0.237 OA
ATOM     81  O   UNL A   1      41.448  35.483  36.973  1.00  0.00    -0.237 OA
ATOM     82  O   UNL A   1      39.623  36.554  35.707  1.00  0.00    -0.744 OA
ENDBRANCH  75  79
ENDBRANCH  48  72
BRANCH  60  83
ATOM     83  C   UNL A   1      45.166  28.379  33.959  1.00  0.00     0.023 A 
ATOM     84  C   UNL A   1      45.182  27.309  34.869  1.00  0.00     0.031 A 
ATOM     85  C   UNL A   1      46.295  29.213  33.885  1.00  0.00     0.131 A 
ATOM     86  C   UNL A   1      46.294  27.124  35.703  1.00  0.00     0.055 A 
ATOM     87  C   UNL A   1      47.415  28.999  34.691  1.00  0.00     0.041 A 
ATOM     88  F   UNL A   1      46.325  30.247  33.030  1.00  0.00    -0.206 F 
ATOM     89  C   UNL A   1      47.414  27.956  35.613  1.00  0.00     0.022 A 
BRANCH  86  90
ATOM     90  S   UNL A   1      46.238  25.810  36.952  1.00  0.00     0.124 S 
ATOM     91  O   UNL A   1      46.451  24.613  36.145  1.00  0.00    -0.237 OA
ATOM     92  O   UNL A   1      47.332  26.179  37.845  1.00  0.00    -0.237 OA
ATOM     93  O   UNL A   1      44.901  25.941  37.527  1.00  0.00    -0.744 OA
ENDBRANCH  86  90
ENDBRANCH  60  83
ENDBRANCH  34  35
ENDBRANCH  27  29
ENDBRANCH  26  27
ENDBRANCH   1  26
TORSDOF 17
ENDMDL
MODEL 2
REMARK VINA RESULT:     -11.5      5.273     10.378
REMARK SMILES CS(=O)(=O)c1ccc(N2N=C(C(=O)OCCOC(=O)c3ccc(-c4c5nc(c(-c6cc(S(=O)(=O)[O-])ccc6F)c6ccc([nH]6)c(-c6cc(S(=O)(=O)[O-])ccc6F)c6nc(c(-c7cc(S(=O)(=O)[O-])ccc7F)c7ccc4[nH]7)C=C6)C=C5)cc3)C[C@H]2c2cccs2)cc1
REMARK SMILES IDX 16 1 15 2 14 3 12 4 13 5 11 6 9 7 10 8 84 9 83 10 8 11 5 12
REMARK SMILES IDX 6 13 91 14 7 15 90 16 2 17 1 18 3 19 4 20 85 21 86 22 89 23
REMARK SMILES IDX 87 24 88 25 17 26 18 27 19 28 20 29 21 30 82 31 22 32 81 33
REMARK SMILES IDX 23 34 24 35 25 36 75 37 26 38 80 39 74 40 76 41 27 42 79 43
REMARK SMILES IDX 73 44 72 45 28 47 60 48 40 49 59 50 41 51 44 52 58 53 77 54
REMARK SMILES IDX 42 55 43 56 57 58 78 59 45 60 29 61 30 62 38 63 31 64 37 65
REMARK SMILES IDX 39 66 36 67 32 68 33 69 34 70 35 71 61 72 62 73 70 74 63 75
REMARK SMILES IDX 69 76 71 77 68 78 64 79 65 80 66 81 67 82 46 83 47 84 55 85
REMARK SMILES IDX 48 86 54 87 56 88 53 89 49 90 50 91 51 92 52 93
REMARK H PARENT 76 46 44 57
REMARK Flexibility Score: inf
ROOT
ATOM      1  C   UNL A   1      39.502  19.582  25.503  1.00  0.00     0.275 C 
ENDROOT
BRANCH   1   2
ATOM      2  C   UNL A   1      38.483  20.646  25.920  1.00  0.00     0.275 C 
BRANCH   2   3
ATOM      3  O   UNL A   1      38.871  21.928  25.394  1.00  0.00    -0.458 OA
BRANCH   3   4
ATOM      4  C   UNL A   1      38.197  22.991  25.871  1.00  0.00     0.354 C 
ATOM      5  O   UNL A   1      38.521  23.730  26.782  1.00  0.00    -0.245 OA
BRANCH   4   6
ATOM      6  C   UNL A   1      36.935  23.185  25.073  1.00  0.00     0.148 C 
ATOM      7  N   UNL A   1      35.048  23.905  24.466  1.00  0.00    -0.256 N 
ATOM      8  N   UNL A   1      36.044  24.084  25.370  1.00  0.00    -0.169 NA
ATOM      9  C   UNL A   1      35.193  22.697  23.654  1.00  0.00     0.154 C 
ATOM     10  C   UNL A   1      36.687  22.392  23.829  1.00  0.00     0.099 C 
BRANCH   7  11
ATOM     11  C   UNL A   1      34.096  24.880  24.218  1.00  0.00     0.060 A 
ATOM     12  C   UNL A   1      32.052  26.749  23.748  1.00  0.00     0.067 A 
ATOM     13  C   UNL A   1      32.638  26.079  22.671  1.00  0.00     0.022 A 
ATOM     14  C   UNL A   1      32.485  26.506  25.052  1.00  0.00     0.022 A 
ATOM     15  C   UNL A   1      33.661  25.155  22.913  1.00  0.00     0.029 A 
ATOM     16  C   UNL A   1      33.502  25.576  25.278  1.00  0.00     0.029 A 
BRANCH  12  17
ATOM     17  S   UNL A   1      30.691  27.859  23.464  1.00  0.00     0.175 S 
ATOM     18  C   UNL A   1      31.111  29.343  24.341  1.00  0.00     0.163 C 
ATOM     19  O   UNL A   1      29.522  27.279  24.102  1.00  0.00    -0.224 OA
ATOM     20  O   UNL A   1      30.682  28.131  22.039  1.00  0.00    -0.224 OA
ENDBRANCH  12  17
ENDBRANCH   7  11
BRANCH   9  21
ATOM     21  C   UNL A   1      34.262  21.572  24.078  1.00  0.00     0.030 A 
ATOM     22  C   UNL A   1      32.888  21.528  23.905  1.00  0.00     0.017 A 
ATOM     23  S   UNL A   1      34.808  20.207  24.970  1.00  0.00    -0.147 S 
ATOM     24  C   UNL A   1      32.295  20.383  24.510  1.00  0.00     0.012 A 
ATOM     25  C   UNL A   1      33.230  19.577  25.116  1.00  0.00     0.065 A 
ENDBRANCH   9  21
ENDBRANCH   4   6
ENDBRANCH   3   4
ENDBRANCH   2   3
ENDBRANCH   1   2
BRANCH   1  26
ATOM     26  O   UNL A   1      40.522  19.418  26.506  1.00  0.00    -0.458 OA
BRANCH  26  27
ATOM     27  C   UNL A   1      41.787  19.660  26.080  1.00  0.00     0.338 C 
ATOM     28  O   UNL A   1      42.474  18.937  25.378  1.00  0.00    -0.246 OA
BRANCH  27  29
ATOM     29  C   UNL A   1      42.183  21.025  26.468  1.00  0.00     0.060 A 
ATOM     30  C   UNL A   1      42.348  21.961  25.448  1.00  0.00     0.016 A 
ATOM     31  C   UNL A   1      42.441  21.376  27.795  1.00  0.00     0.016 A 
ATOM     32  C   UNL A   1      42.762  23.257  25.736  1.00  0.00     0.010 A 
ATOM     33  C   UNL A   1      42.875  22.675  28.086  1.00  0.00     0.010 A 
ATOM     34  C   UNL A   1      43.044  23.618  27.057  1.00  0.00    -0.014 A 
BRANCH  34  35
ATOM     35  C   UNL A   1      43.587  24.968  27.336  1.00  0.00     0.031 A 
ATOM     36  C   UNL A   1      42.675  26.035  27.866  1.00  0.00     0.074 A 
ATOM     37  C   UNL A   1      44.896  25.218  27.155  1.00  0.00     0.049 A 
ATOM     38  N   UNL A   1      42.931  27.291  28.123  1.00  0.00    -0.248 NA
ATOM     39  C   UNL A   1      41.290  25.629  28.147  1.00  0.00     0.031 C 
ATOM     40  C   UNL A   1      45.886  24.240  26.701  1.00  0.00     0.029 A 
ATOM     41  N   UNL A   1      45.618  26.370  27.333  1.00  0.00    -0.354 N 
ATOM     42  C   UNL A   1      41.736  27.836  28.577  1.00  0.00     0.074 A 
ATOM     43  C   UNL A   1      40.753  26.771  28.553  1.00  0.00     0.031 C 
ATOM     44  C   UNL A   1      47.086  24.838  26.625  1.00  0.00     0.029 A 
ATOM     45  C   UNL A   1      46.943  26.246  26.988  1.00  0.00     0.049 A 
ATOM     46  H   UNL A   1      45.225  27.205  27.674  1.00  0.00     0.167 HD
ATOM     47  C   UNL A   1      41.484  29.107  28.976  1.00  0.00     0.034 A 
ATOM     48  C   UNL A   1      47.920  27.171  26.940  1.00  0.00     0.034 A 
ATOM     49  C   UNL A   1      42.471  30.157  28.992  1.00  0.00     0.049 A 
ATOM     50  C   UNL A   1      47.602  28.590  27.330  1.00  0.00     0.074 A 
ATOM     51  C   UNL A   1      42.324  31.477  29.382  1.00  0.00     0.029 A 
ATOM     52  N   UNL A   1      43.793  30.007  28.592  1.00  0.00    -0.354 N 
ATOM     53  N   UNL A   1      46.460  29.099  27.731  1.00  0.00    -0.248 NA
ATOM     54  C   UNL A   1      48.702  29.561  27.253  1.00  0.00     0.031 C 
ATOM     55  C   UNL A   1      43.543  32.135  29.174  1.00  0.00     0.029 A 
ATOM     56  C   UNL A   1      44.464  31.214  28.703  1.00  0.00     0.049 A 
ATOM     57  H   UNL A   1      44.193  29.166  28.275  1.00  0.00     0.167 HD
ATOM     58  C   UNL A   1      46.708  30.449  27.962  1.00  0.00     0.074 A 
ATOM     59  C   UNL A   1      48.110  30.671  27.669  1.00  0.00     0.031 C 
ATOM     60  C   UNL A   1      45.855  31.417  28.381  1.00  0.00     0.034 A 
BRANCH  47  61
ATOM     61  C   UNL A   1      40.067  29.430  29.365  1.00  0.00     0.023 A 
ATOM     62  C   UNL A   1      39.661  29.461  30.709  1.00  0.00     0.031 A 
ATOM     63  C   UNL A   1      39.097  29.659  28.373  1.00  0.00     0.131 A 
ATOM     64  C   UNL A   1      38.307  29.650  31.025  1.00  0.00     0.055 A 
ATOM     65  C   UNL A   1      37.763  29.913  28.696  1.00  0.00     0.041 A 
ATOM     66  F   UNL A   1      39.428  29.619  27.073  1.00  0.00    -0.206 F 
ATOM     67  C   UNL A   1      37.358  29.896  30.029  1.00  0.00     0.022 A 
BRANCH  64  68
ATOM     68  S   UNL A   1      37.784  29.440  32.748  1.00  0.00     0.124 S 
ATOM     69  O   UNL A   1      37.648  27.988  32.838  1.00  0.00    -0.237 OA
ATOM     70  O   UNL A   1      38.896  30.025  33.486  1.00  0.00    -0.237 OA
ATOM     71  O   UNL A   1      36.527  30.182  32.816  1.00  0.00    -0.744 OA
ENDBRANCH  64  68
ENDBRANCH  47  61
BRANCH  48  72
ATOM     72  C   UNL A   1      49.273  26.805  26.441  1.00  0.00     0.023 A 
ATOM     73  C   UNL A   1      49.702  27.169  25.156  1.00  0.00     0.031 A 
ATOM     74  C   UNL A   1      50.146  26.049  27.243  1.00  0.00     0.131 A 
ATOM     75  C   UNL A   1      50.961  26.752  24.699  1.00  0.00     0.055 A 
ATOM     76  C   UNL A   1      51.413  25.670  26.798  1.00  0.00     0.041 A 
ATOM     77  F   UNL A   1      49.779  25.677  28.481  1.00  0.00    -0.206 F 
ATOM     78  C   UNL A   1      51.824  26.014  25.515  1.00  0.00     0.022 A 
BRANCH  75  79
ATOM     79  S   UNL A   1      51.440  27.137  22.992  1.00  0.00     0.124 S 
ATOM     80  O   UNL A   1      51.771  28.554  23.087  1.00  0.00    -0.237 OA
ATOM     81  O   UNL A   1      52.563  26.229  22.780  1.00  0.00    -0.237 OA
ATOM     82  O   UNL A   1      50.237  26.827  22.222  1.00  0.00    -0.744 OA
ENDBRANCH  75  79
ENDBRANCH  48  72
BRANCH  60  83
ATOM     83  C   UNL A   1      46.437  32.793  28.564  1.00  0.00     0.023 A 
ATOM     84  C   UNL A   1      46.681  33.636  27.466  1.00  0.00     0.031 A 
ATOM     85  C   UNL A   1      46.765  33.256  29.849  1.00  0.00     0.131 A 
ATOM     86  C   UNL A   1      47.277  34.888  27.672  1.00  0.00     0.055 A 
ATOM     87  C   UNL A   1      47.323  34.519  30.051  1.00  0.00     0.041 A 
ATOM     88  F   UNL A   1      46.549  32.485  30.927  1.00  0.00    -0.206 F 
ATOM     89  C   UNL A   1      47.590  35.339  28.957  1.00  0.00     0.022 A 
BRANCH  86  90
ATOM     90  S   UNL A   1      47.692  35.904  26.227  1.00  0.00     0.124 S 
ATOM     91  O   UNL A   1      46.596  36.868  26.209  1.00  0.00    -0.237 OA
ATOM     92  O   UNL A   1      49.003  36.437  26.585  1.00  0.00    -0.237 OA
ATOM     93  O   UNL A   1      47.694  34.946  25.124  1.00  0.00    -0.744 OA
ENDBRANCH  86  90
ENDBRANCH  60  83
ENDBRANCH  34  35
ENDBRANCH  27  29
ENDBRANCH  26  27
ENDBRANCH   1  26
TORSDOF 17
ENDMDL
MODEL 3
REMARK VINA RESULT:     -11.5      2.453      3.673
REMARK SMILES CS(=O)(=O)c1ccc(N2N=C(C(=O)OCCOC(=O)c3ccc(-c4c5nc(c(-c6cc(S(=O)(=O)[O-])ccc6F)c6ccc([nH]6)c(-c6cc(S(=O)(=O)[O-])ccc6F)c6nc(c(-c7cc(S(=O)(=O)[O-])ccc7F)c7ccc4[nH]7)C=C6)C=C5)cc3)C[C@H]2c2cccs2)cc1
REMARK SMILES IDX 16 1 15 2 14 3 12 4 13 5 11 6 9 7 10 8 84 9 83 10 8 11 5 12
REMARK SMILES IDX 6 13 91 14 7 15 90 16 2 17 1 18 3 19 4 20 85 21 86 22 89 23
REMARK SMILES IDX 87 24 88 25 17 26 18 27 19 28 20 29 21 30 82 31 22 32 81 33
REMARK SMILES IDX 23 34 24 35 25 36 75 37 26 38 80 39 74 40 76 41 27 42 79 43
REMARK SMILES IDX 73 44 72 45 28 47 60 48 40 49 59 50 41 51 44 52 58 53 77 54
REMARK SMILES IDX 42 55 43 56 57 58 78 59 45 60 29 61 30 62 38 63 31 64 37 65
REMARK SMILES IDX 39 66 36 67 32 68 33 69 34 70 35 71 61 72 62 73 70 74 63 75
REMARK SMILES IDX 69 76 71 77 68 78 64 79 65 80 66 81 67 82 46 83 47 84 55 85
REMARK SMILES IDX 48 86 54 87 56 88 53 89 49 90 50 91 51 92 52 93
REMARK H PARENT 76 46 44 57
REMARK Flexibility Score: inf
ROOT
ATOM      1  C   UNL A   1      32.874  32.904  27.435  1.00  0.00     0.275 C 
ENDROOT
BRANCH   1   2
ATOM      2  C   UNL A   1      33.668  31.705  27.963  1.00  0.00     0.275 C 
BRANCH   2   3
ATOM      3  O   UNL A   1      33.930  30.781  26.891  1.00  0.00    -0.458 OA
BRANCH   3   4
ATOM      4  C   UNL A   1      34.448  29.592  27.250  1.00  0.00     0.354 C 
ATOM      5  O   UNL A   1      35.483  29.384  27.857  1.00  0.00    -0.245 OA
BRANCH   4   6
ATOM      6  C   UNL A   1      33.523  28.488  26.812  1.00  0.00     0.148 C 
ATOM      7  N   UNL A   1      32.822  26.694  25.953  1.00  0.00    -0.256 N 
ATOM      8  N   UNL A   1      33.945  27.398  26.242  1.00  0.00    -0.169 NA
ATOM      9  C   UNL A   1      31.583  27.442  26.159  1.00  0.00     0.154 C 
ATOM     10  C   UNL A   1      32.057  28.561  27.097  1.00  0.00     0.099 C 
BRANCH   7  11
ATOM     11  C   UNL A   1      32.856  25.338  25.673  1.00  0.00     0.060 A 
ATOM     12  C   UNL A   1      32.853  22.619  24.966  1.00  0.00     0.067 A 
ATOM     13  C   UNL A   1      31.850  23.118  25.800  1.00  0.00     0.022 A 
ATOM     14  C   UNL A   1      33.864  23.459  24.495  1.00  0.00     0.022 A 
ATOM     15  C   UNL A   1      31.862  24.472  26.153  1.00  0.00     0.029 A 
ATOM     16  C   UNL A   1      33.859  24.809  24.851  1.00  0.00     0.029 A 
BRANCH  12  17
ATOM     17  S   UNL A   1      32.800  20.922  24.436  1.00  0.00     0.175 S 
ATOM     18  C   UNL A   1      32.195  20.975  22.769  1.00  0.00     0.163 C 
ATOM     19  O   UNL A   1      31.805  20.247  25.251  1.00  0.00    -0.224 OA
ATOM     20  O   UNL A   1      34.175  20.457  24.431  1.00  0.00    -0.224 OA
ENDBRANCH  12  17
ENDBRANCH   7  11
BRANCH   9  21
ATOM     21  C   UNL A   1      30.950  27.926  24.863  1.00  0.00     0.030 A 
ATOM     22  C   UNL A   1      30.980  29.216  24.361  1.00  0.00     0.017 A 
ATOM     23  S   UNL A   1      29.974  26.911  23.876  1.00  0.00    -0.147 S 
ATOM     24  C   UNL A   1      30.199  29.365  23.179  1.00  0.00     0.012 A 
ATOM     25  C   UNL A   1      29.606  28.183  22.801  1.00  0.00     0.065 A 
ENDBRANCH   9  21
ENDBRANCH   4   6
ENDBRANCH   3   4
ENDBRANCH   2   3
ENDBRANCH   1   2
BRANCH   1  26
ATOM     26  O   UNL A   1      33.570  34.139  27.687  1.00  0.00    -0.458 OA
BRANCH  26  27
ATOM     27  C   UNL A   1      33.487  34.591  28.964  1.00  0.00     0.338 C 
ATOM     28  O   UNL A   1      32.573  35.232  29.455  1.00  0.00    -0.246 OA
BRANCH  27  29
ATOM     29  C   UNL A   1      34.617  34.062  29.747  1.00  0.00     0.060 A 
ATOM     30  C   UNL A   1      35.900  34.260  29.239  1.00  0.00     0.016 A 
ATOM     31  C   UNL A   1      34.431  33.341  30.928  1.00  0.00     0.016 A 
ATOM     32  C   UNL A   1      37.011  33.752  29.903  1.00  0.00     0.010 A 
ATOM     33  C   UNL A   1      35.546  32.814  31.590  1.00  0.00     0.010 A 
ATOM     34  C   UNL A   1      36.840  33.010  31.076  1.00  0.00    -0.014 A 
BRANCH  34  35
ATOM     35  C   UNL A   1      38.021  32.384  31.713  1.00  0.00     0.031 A 
ATOM     36  C   UNL A   1      38.717  31.248  31.020  1.00  0.00     0.074 A 
ATOM     37  C   UNL A   1      38.489  32.860  32.880  1.00  0.00     0.049 A 
ATOM     38  N   UNL A   1      39.728  30.526  31.426  1.00  0.00    -0.248 NA
ATOM     39  C   UNL A   1      38.205  30.882  29.692  1.00  0.00     0.031 C 
ATOM     40  C   UNL A   1      37.927  33.996  33.612  1.00  0.00     0.029 A 
ATOM     41  N   UNL A   1      39.543  32.448  33.655  1.00  0.00    -0.354 N 
ATOM     42  C   UNL A   1      39.965  29.603  30.414  1.00  0.00     0.074 A 
ATOM     43  C   UNL A   1      38.983  29.857  29.378  1.00  0.00     0.031 C 
ATOM     44  C   UNL A   1      38.638  34.183  34.736  1.00  0.00     0.029 A 
ATOM     45  C   UNL A   1      39.677  33.160  34.823  1.00  0.00     0.049 A 
ATOM     46  H   UNL A   1      40.144  31.712  33.399  1.00  0.00     0.167 HD
ATOM     47  C   UNL A   1      40.912  28.636  30.357  1.00  0.00     0.034 A 
ATOM     48  C   UNL A   1      40.522  32.985  35.857  1.00  0.00     0.034 A 
ATOM     49  C   UNL A   1      41.879  28.393  31.397  1.00  0.00     0.049 A 
ATOM     50  C   UNL A   1      41.526  31.865  35.798  1.00  0.00     0.074 A 
ATOM     51  C   UNL A   1      42.886  27.443  31.439  1.00  0.00     0.029 A 
ATOM     52  N   UNL A   1      41.957  29.105  32.588  1.00  0.00    -0.354 N 
ATOM     53  N   UNL A   1      41.721  30.981  34.846  1.00  0.00    -0.248 NA
ATOM     54  C   UNL A   1      42.418  31.714  36.955  1.00  0.00     0.031 C 
ATOM     55  C   UNL A   1      43.541  27.550  32.673  1.00  0.00     0.029 A 
ATOM     56  C   UNL A   1      42.977  28.600  33.379  1.00  0.00     0.049 A 
ATOM     57  H   UNL A   1      41.373  29.857  32.833  1.00  0.00     0.167 HD
ATOM     58  C   UNL A   1      42.764  30.174  35.289  1.00  0.00     0.074 A 
ATOM     59  C   UNL A   1      43.166  30.685  36.584  1.00  0.00     0.031 C 
ATOM     60  C   UNL A   1      43.342  29.109  34.678  1.00  0.00     0.034 A 
BRANCH  47  61
ATOM     61  C   UNL A   1      40.894  27.736  29.151  1.00  0.00     0.023 A 
ATOM     62  C   UNL A   1      41.813  27.895  28.100  1.00  0.00     0.031 A 
ATOM     63  C   UNL A   1      39.912  26.738  29.029  1.00  0.00     0.131 A 
ATOM     64  C   UNL A   1      41.689  27.113  26.942  1.00  0.00     0.055 A 
ATOM     65  C   UNL A   1      39.835  25.918  27.902  1.00  0.00     0.041 A 
ATOM     66  F   UNL A   1      38.997  26.560  29.994  1.00  0.00    -0.206 F 
ATOM     67  C   UNL A   1      40.719  26.112  26.843  1.00  0.00     0.022 A 
BRANCH  64  68
ATOM     68  S   UNL A   1      42.733  27.512  25.515  1.00  0.00     0.124 S 
ATOM     69  O   UNL A   1      43.976  27.921  26.164  1.00  0.00    -0.237 OA
ATOM     70  O   UNL A   1      42.774  26.246  24.794  1.00  0.00    -0.237 OA
ATOM     71  O   UNL A   1      42.003  28.589  24.848  1.00  0.00    -0.744 OA
ENDBRANCH  64  68
ENDBRANCH  47  61
BRANCH  48  72
ATOM     72  C   UNL A   1      40.410  33.844  37.066  1.00  0.00     0.023 A 
ATOM     73  C   UNL A   1      41.279  34.923  37.280  1.00  0.00     0.031 A 
ATOM     74  C   UNL A   1      39.440  33.568  38.047  1.00  0.00     0.131 A 
ATOM     75  C   UNL A   1      41.181  35.672  38.463  1.00  0.00     0.055 A 
ATOM     76  C   UNL A   1      39.322  34.339  39.203  1.00  0.00     0.041 A 
ATOM     77  F   UNL A   1      38.586  32.544  37.886  1.00  0.00    -0.206 F 
ATOM     78  C   UNL A   1      40.201  35.394  39.420  1.00  0.00     0.022 A 
BRANCH  75  79
ATOM     79  S   UNL A   1      42.394  36.987  38.765  1.00  0.00     0.124 S 
ATOM     80  O   UNL A   1      41.575  38.006  39.411  1.00  0.00    -0.237 OA
ATOM     81  O   UNL A   1      43.367  36.311  39.617  1.00  0.00    -0.237 OA
ATOM     82  O   UNL A   1      42.870  37.326  37.426  1.00  0.00    -0.744 OA
ENDBRANCH  75  79
ENDBRANCH  48  72
BRANCH  60  83
ATOM     83  C   UNL A   1      44.481  28.451  35.408  1.00  0.00     0.023 A 
ATOM     84  C   UNL A   1      44.252  27.492  36.409  1.00  0.00     0.031 A 
ATOM     85  C   UNL A   1      45.809  28.802  35.108  1.00  0.00     0.131 A 
ATOM     86  C   UNL A   1      45.338  26.943  37.107  1.00  0.00     0.055 A 
ATOM     87  C   UNL A   1      46.887  28.223  35.780  1.00  0.00     0.041 A 
ATOM     88  F   UNL A   1      46.075  29.713  34.159  1.00  0.00    -0.206 F 
ATOM     89  C   UNL A   1      46.654  27.296  36.792  1.00  0.00     0.022 A 
BRANCH  86  90
ATOM     90  S   UNL A   1      45.007  25.800  38.476  1.00  0.00     0.124 S 
ATOM     91  O   UNL A   1      44.669  24.569  37.768  1.00  0.00    -0.237 OA
ATOM     92  O   UNL A   1      46.279  25.794  39.193  1.00  0.00    -0.237 OA
ATOM     93  O   UNL A   1      43.899  26.431  39.189  1.00  0.00    -0.744 OA
ENDBRANCH  86  90
ENDBRANCH  60  83
ENDBRANCH  34  35
ENDBRANCH  27  29
ENDBRANCH  26  27
ENDBRANCH   1  26
TORSDOF 17
ENDMDL
