MODEL 1
REMARK VINA RESULT:     -12.0      0.000      0.000
REMARK SMILES COC(=O)c1ccccc1-c1ccc(/C=C(\C#N)C(=O)OCCOC(=O)c2ccc(-c3c4nc(c(-c5cc(S(=O)(=O)[O-])ccc5F)c5ccc([nH]5)c(-c5cc(S(=O)(=O)[O-])ccc5F)c5nc(c(-c6cc(S(=O)(=O)[O-])ccc6F)c6ccc3[nH]6)C=C5)C=C4)cc2)o1
REMARK SMILES IDX 22 1 21 2 19 3 20 4 16 5 15 6 14 7 11 8 12 9 90 10 13 11
REMARK SMILES IDX 10 12 5 13 6 14 7 15 9 16 8 17 3 18 4 19 2 20 1 21 17 22
REMARK SMILES IDX 18 23 23 24 24 25 25 26 26 27 27 28 28 29 89 30 29 31 88 32
REMARK SMILES IDX 30 33 31 34 32 35 82 36 33 37 87 38 81 39 83 40 34 41 86 42
REMARK SMILES IDX 80 43 79 44 35 46 67 47 47 48 66 49 48 50 51 51 65 52 84 53
REMARK SMILES IDX 49 54 50 55 64 57 85 58 52 59 36 60 37 61 45 62 38 63 44 64
REMARK SMILES IDX 46 65 43 66 39 67 40 68 41 69 42 70 68 71 69 72 77 73 70 74
REMARK SMILES IDX 76 75 78 76 75 77 71 78 72 79 73 80 74 81 53 82 54 83 62 84
REMARK SMILES IDX 55 85 61 86 63 87 60 88 56 89 57 90 58 91 59 92
REMARK H PARENT 83 45 51 56
REMARK Flexibility Score: inf
ROOT
ATOM      1  C   UNL A   1      34.969  20.800  25.447  1.00  0.00     0.275 C 
ENDROOT
BRANCH   1   2
ATOM      2  O   UNL A   1      33.943  20.919  24.436  1.00  0.00    -0.458 OA
BRANCH   2   3
ATOM      3  C   UNL A   1      32.663  20.849  24.881  1.00  0.00     0.349 C 
ATOM      4  O   UNL A   1      32.033  19.812  25.039  1.00  0.00    -0.245 OA
BRANCH   3   5
ATOM      5  C   UNL A   1      32.116  22.184  25.227  1.00  0.00     0.141 C 
ATOM      6  C   UNL A   1      31.759  22.926  24.165  1.00  0.00     0.074 C 
BRANCH   6   7
ATOM      7  C   UNL A   1      31.251  24.244  24.157  1.00  0.00     0.129 A 
ATOM      8  C   UNL A   1      30.988  26.385  24.629  1.00  0.00     0.135 A 
ATOM      9  C   UNL A   1      30.108  26.121  23.608  1.00  0.00     0.051 A 
ATOM     10  O   UNL A   1      31.693  25.267  24.949  1.00  0.00    -0.457 OA
ATOM     11  C   UNL A   1      30.255  24.749  23.325  1.00  0.00     0.051 A 
BRANCH   8  12
ATOM     12  C   UNL A   1      31.289  27.550  25.433  1.00  0.00     0.032 A 
ATOM     13  C   UNL A   1      31.414  28.838  24.884  1.00  0.00     0.071 A 
ATOM     14  C   UNL A   1      31.767  29.917  25.707  1.00  0.00     0.016 A 
ATOM     15  C   UNL A   1      31.971  29.723  27.074  1.00  0.00     0.001 A 
ATOM     16  C   UNL A   1      31.493  27.373  26.811  1.00  0.00     0.013 A 
ATOM     17  C   UNL A   1      31.833  28.452  27.627  1.00  0.00     0.001 A 
BRANCH  13  18
ATOM     18  C   UNL A   1      31.223  29.124  23.442  1.00  0.00     0.338 C 
ATOM     19  O   UNL A   1      32.092  28.926  22.609  1.00  0.00    -0.246 OA
BRANCH  18  20
ATOM     20  O   UNL A   1      29.999  29.659  23.225  1.00  0.00    -0.465 OA
ATOM     21  C   UNL A   1      29.692  29.909  21.851  1.00  0.00     0.282 C 
ENDBRANCH  18  20
ENDBRANCH  13  18
ENDBRANCH   8  12
ENDBRANCH   6   7
BRANCH   5  22
ATOM     22  C   UNL A   1      32.086  22.590  26.583  1.00  0.00     0.107 C 
ATOM     23  N   UNL A   1      31.993  22.883  27.703  1.00  0.00    -0.192 NA
ENDBRANCH   5  22
ENDBRANCH   3   5
ENDBRANCH   2   3
ENDBRANCH   1   2
BRANCH   1  24
ATOM     24  C   UNL A   1      36.346  20.516  24.841  1.00  0.00     0.275 C 
BRANCH  24  25
ATOM     25  O   UNL A   1      37.276  21.591  25.081  1.00  0.00    -0.458 OA
BRANCH  25  26
ATOM     26  C   UNL A   1      38.440  21.203  25.646  1.00  0.00     0.338 C 
ATOM     27  O   UNL A   1      39.027  20.148  25.462  1.00  0.00    -0.246 OA
BRANCH  26  28
ATOM     28  C   UNL A   1      39.038  22.291  26.429  1.00  0.00     0.060 A 
ATOM     29  C   UNL A   1      38.563  23.569  26.178  1.00  0.00     0.016 A 
ATOM     30  C   UNL A   1      40.193  22.114  27.183  1.00  0.00     0.016 A 
ATOM     31  C   UNL A   1      39.330  24.677  26.497  1.00  0.00     0.010 A 
ATOM     32  C   UNL A   1      40.869  23.245  27.668  1.00  0.00     0.010 A 
ATOM     33  C   UNL A   1      40.477  24.543  27.288  1.00  0.00    -0.014 A 
BRANCH  33  34
ATOM     34  C   UNL A   1      41.236  25.760  27.710  1.00  0.00     0.031 A 
ATOM     35  C   UNL A   1      40.581  26.822  28.558  1.00  0.00     0.074 A 
ATOM     36  C   UNL A   1      42.530  25.907  27.346  1.00  0.00     0.049 A 
ATOM     37  N   UNL A   1      41.019  28.014  28.876  1.00  0.00    -0.248 NA
ATOM     38  C   UNL A   1      39.252  26.510  29.105  1.00  0.00     0.031 C 
ATOM     39  C   UNL A   1      43.310  24.938  26.568  1.00  0.00     0.029 A 
ATOM     40  N   UNL A   1      43.427  26.920  27.583  1.00  0.00    -0.354 N 
ATOM     41  C   UNL A   1      40.002  28.614  29.614  1.00  0.00     0.074 A 
ATOM     42  C   UNL A   1      38.915  27.660  29.673  1.00  0.00     0.031 C 
ATOM     43  C   UNL A   1      44.570  25.371  26.447  1.00  0.00     0.029 A 
ATOM     44  C   UNL A   1      44.661  26.709  27.008  1.00  0.00     0.049 A 
ATOM     45  H   UNL A   1      43.209  27.720  28.114  1.00  0.00     0.167 HD
ATOM     46  C   UNL A   1      39.982  29.844  30.188  1.00  0.00     0.034 A 
ATOM     47  C   UNL A   1      45.731  27.518  26.880  1.00  0.00     0.034 A 
ATOM     48  C   UNL A   1      41.090  30.769  30.138  1.00  0.00     0.049 A 
ATOM     49  C   UNL A   1      45.649  28.911  27.442  1.00  0.00     0.074 A 
ATOM     50  C   UNL A   1      41.182  32.032  30.698  1.00  0.00     0.029 A 
ATOM     51  N   UNL A   1      42.297  30.537  29.491  1.00  0.00    -0.354 N 
ATOM     52  N   UNL A   1      44.663  29.478  28.099  1.00  0.00    -0.248 NA
ATOM     53  C   UNL A   1      46.817  29.775  27.239  1.00  0.00     0.031 C 
ATOM     54  C   UNL A   1      42.402  32.595  30.315  1.00  0.00     0.029 A 
ATOM     55  C   UNL A   1      43.120  31.648  29.604  1.00  0.00     0.049 A 
ATOM     56  H   UNL A   1      42.534  29.704  29.021  1.00  0.00     0.167 HD
ATOM     57  C   UNL A   1      45.107  30.758  28.412  1.00  0.00     0.074 A 
ATOM     58  C   UNL A   1      46.455  30.869  27.892  1.00  0.00     0.031 C 
ATOM     59  C   UNL A   1      44.459  31.751  29.073  1.00  0.00     0.034 A 
BRANCH  46  60
ATOM     60  C   UNL A   1      38.703  30.285  30.864  1.00  0.00     0.023 A 
ATOM     61  C   UNL A   1      37.655  30.895  30.155  1.00  0.00     0.031 A 
ATOM     62  C   UNL A   1      38.537  30.105  32.250  1.00  0.00     0.131 A 
ATOM     63  C   UNL A   1      36.527  31.372  30.843  1.00  0.00     0.055 A 
ATOM     64  C   UNL A   1      37.374  30.497  32.914  1.00  0.00     0.041 A 
ATOM     65  F   UNL A   1      39.512  29.550  32.988  1.00  0.00    -0.206 F 
ATOM     66  C   UNL A   1      36.365  31.151  32.213  1.00  0.00     0.022 A 
BRANCH  63  67
ATOM     67  S   UNL A   1      35.354  32.428  29.952  1.00  0.00     0.124 S 
ATOM     68  O   UNL A   1      34.975  31.567  28.833  1.00  0.00    -0.237 OA
ATOM     69  O   UNL A   1      34.320  32.665  30.952  1.00  0.00    -0.237 OA
ATOM     70  O   UNL A   1      36.153  33.597  29.587  1.00  0.00    -0.744 OA
ENDBRANCH  63  67
ENDBRANCH  46  60
BRANCH  47  71
ATOM     71  C   UNL A   1      46.938  27.065  26.126  1.00  0.00     0.023 A 
ATOM     72  C   UNL A   1      47.995  26.412  26.777  1.00  0.00     0.031 A 
ATOM     73  C   UNL A   1      47.076  27.322  24.747  1.00  0.00     0.131 A 
ATOM     74  C   UNL A   1      49.159  26.084  26.066  1.00  0.00     0.055 A 
ATOM     75  C   UNL A   1      48.203  26.924  24.029  1.00  0.00     0.041 A 
ATOM     76  F   UNL A   1      46.100  27.950  24.071  1.00  0.00    -0.206 F 
ATOM     77  C   UNL A   1      49.262  26.316  24.693  1.00  0.00     0.022 A 
BRANCH  74  78
ATOM     78  S   UNL A   1      50.586  25.454  26.989  1.00  0.00     0.124 S 
ATOM     79  O   UNL A   1      50.918  26.597  27.833  1.00  0.00    -0.237 OA
ATOM     80  O   UNL A   1      50.020  24.295  27.671  1.00  0.00    -0.237 OA
ATOM     81  O   UNL A   1      51.558  25.147  25.943  1.00  0.00    -0.744 OA
ENDBRANCH  74  78
ENDBRANCH  47  71
BRANCH  59  82
ATOM     82  C   UNL A   1      45.230  33.025  29.319  1.00  0.00     0.023 A 
ATOM     83  C   UNL A   1      45.205  34.095  28.408  1.00  0.00     0.031 A 
ATOM     84  C   UNL A   1      46.015  33.162  30.477  1.00  0.00     0.131 A 
ATOM     85  C   UNL A   1      45.999  35.227  28.639  1.00  0.00     0.055 A 
ATOM     86  C   UNL A   1      46.743  34.322  30.740  1.00  0.00     0.041 A 
ATOM     87  F   UNL A   1      46.085  32.167  31.377  1.00  0.00    -0.206 F 
ATOM     88  C   UNL A   1      46.750  35.358  29.811  1.00  0.00     0.022 A 
BRANCH  85  89
ATOM     89  S   UNL A   1      46.131  36.479  27.333  1.00  0.00     0.124 S 
ATOM     90  O   UNL A   1      47.487  36.982  27.534  1.00  0.00    -0.237 OA
ATOM     91  O   UNL A   1      45.915  35.692  26.124  1.00  0.00    -0.237 OA
ATOM     92  O   UNL A   1      45.064  37.425  27.656  1.00  0.00    -0.744 OA
ENDBRANCH  85  89
ENDBRANCH  59  82
ENDBRANCH  33  34
ENDBRANCH  26  28
ENDBRANCH  25  26
ENDBRANCH  24  25
ENDBRANCH   1  24
TORSDOF 19
ENDMDL
MODEL 2
REMARK VINA RESULT:     -11.9      4.904     10.131
REMARK SMILES COC(=O)c1ccccc1-c1ccc(/C=C(\C#N)C(=O)OCCOC(=O)c2ccc(-c3c4nc(c(-c5cc(S(=O)(=O)[O-])ccc5F)c5ccc([nH]5)c(-c5cc(S(=O)(=O)[O-])ccc5F)c5nc(c(-c6cc(S(=O)(=O)[O-])ccc6F)c6ccc3[nH]6)C=C5)C=C4)cc2)o1
REMARK SMILES IDX 22 1 21 2 19 3 20 4 16 5 15 6 14 7 11 8 12 9 90 10 13 11
REMARK SMILES IDX 10 12 5 13 6 14 7 15 9 16 8 17 3 18 4 19 2 20 1 21 17 22
REMARK SMILES IDX 18 23 23 24 24 25 25 26 26 27 27 28 28 29 89 30 29 31 88 32
REMARK SMILES IDX 30 33 31 34 32 35 82 36 33 37 87 38 81 39 83 40 34 41 86 42
REMARK SMILES IDX 80 43 79 44 35 46 67 47 47 48 66 49 48 50 51 51 65 52 84 53
REMARK SMILES IDX 49 54 50 55 64 57 85 58 52 59 36 60 37 61 45 62 38 63 44 64
REMARK SMILES IDX 46 65 43 66 39 67 40 68 41 69 42 70 68 71 69 72 77 73 70 74
REMARK SMILES IDX 76 75 78 76 75 77 71 78 72 79 73 80 74 81 53 82 54 83 62 84
REMARK SMILES IDX 55 85 61 86 63 87 60 88 56 89 57 90 58 91 59 92
REMARK H PARENT 83 45 51 56
REMARK Flexibility Score: inf
ROOT
ATOM      1  C   UNL A   1      31.573  29.572  25.494  1.00  0.00     0.275 C 
ENDROOT
BRANCH   1   2
ATOM      2  O   UNL A   1      32.489  28.566  25.980  1.00  0.00    -0.458 OA
BRANCH   2   3
ATOM      3  C   UNL A   1      31.941  27.579  26.732  1.00  0.00     0.349 C 
ATOM      4  O   UNL A   1      31.239  27.760  27.719  1.00  0.00    -0.245 OA
BRANCH   3   5
ATOM      5  C   UNL A   1      32.229  26.232  26.185  1.00  0.00     0.141 C 
ATOM      6  C   UNL A   1      33.138  26.220  25.196  1.00  0.00     0.074 C 
BRANCH   6   7
ATOM      7  C   UNL A   1      33.593  25.113  24.445  1.00  0.00     0.129 A 
ATOM      8  C   UNL A   1      34.551  23.193  23.925  1.00  0.00     0.135 A 
ATOM      9  C   UNL A   1      33.922  23.614  22.779  1.00  0.00     0.051 A 
ATOM     10  O   UNL A   1      34.340  24.078  24.936  1.00  0.00    -0.457 OA
ATOM     11  C   UNL A   1      33.334  24.853  23.102  1.00  0.00     0.051 A 
BRANCH   8  12
ATOM     12  C   UNL A   1      35.391  22.064  24.265  1.00  0.00     0.032 A 
ATOM     13  C   UNL A   1      34.868  20.832  24.693  1.00  0.00     0.071 A 
ATOM     14  C   UNL A   1      35.737  19.796  25.065  1.00  0.00     0.016 A 
ATOM     15  C   UNL A   1      37.120  19.974  24.988  1.00  0.00     0.001 A 
ATOM     16  C   UNL A   1      36.784  22.225  24.189  1.00  0.00     0.013 A 
ATOM     17  C   UNL A   1      37.644  21.188  24.549  1.00  0.00     0.001 A 
BRANCH  13  18
ATOM     18  C   UNL A   1      33.415  20.567  24.811  1.00  0.00     0.338 C 
ATOM     19  O   UNL A   1      32.782  20.799  25.828  1.00  0.00    -0.246 OA
BRANCH  18  20
ATOM     20  O   UNL A   1      32.943  20.011  23.671  1.00  0.00    -0.465 OA
ATOM     21  C   UNL A   1      32.514  18.653  23.803  1.00  0.00     0.282 C 
ENDBRANCH  18  20
ENDBRANCH  13  18
ENDBRANCH   8  12
ENDBRANCH   6   7
BRANCH   5  22
ATOM     22  C   UNL A   1      31.500  25.117  26.668  1.00  0.00     0.107 C 
ATOM     23  N   UNL A   1      30.920  24.166  26.995  1.00  0.00    -0.192 NA
ENDBRANCH   5  22
ENDBRANCH   3   5
ENDBRANCH   2   3
ENDBRANCH   1   2
BRANCH   1  24
ATOM     24  C   UNL A   1      31.704  30.891  26.261  1.00  0.00     0.275 C 
BRANCH  24  25
ATOM     25  O   UNL A   1      32.660  30.800  27.336  1.00  0.00    -0.458 OA
BRANCH  25  26
ATOM     26  C   UNL A   1      33.423  31.903  27.496  1.00  0.00     0.338 C 
ATOM     27  O   UNL A   1      33.038  33.062  27.516  1.00  0.00    -0.246 OA
BRANCH  26  28
ATOM     28  C   UNL A   1      34.811  31.548  27.813  1.00  0.00     0.060 A 
ATOM     29  C   UNL A   1      35.047  30.229  28.172  1.00  0.00     0.016 A 
ATOM     30  C   UNL A   1      35.797  32.508  28.010  1.00  0.00     0.016 A 
ATOM     31  C   UNL A   1      36.173  29.893  28.906  1.00  0.00     0.010 A 
ATOM     32  C   UNL A   1      37.018  32.124  28.586  1.00  0.00     0.010 A 
ATOM     33  C   UNL A   1      37.203  30.822  29.091  1.00  0.00    -0.014 A 
BRANCH  33  34
ATOM     34  C   UNL A   1      38.456  30.413  29.797  1.00  0.00     0.031 A 
ATOM     35  C   UNL A   1      39.429  29.458  29.149  1.00  0.00     0.074 A 
ATOM     36  C   UNL A   1      38.734  30.914  31.021  1.00  0.00     0.049 A 
ATOM     37  N   UNL A   1      40.471  28.861  29.669  1.00  0.00    -0.248 NA
ATOM     38  C   UNL A   1      39.188  29.118  27.738  1.00  0.00     0.031 C 
ATOM     39  C   UNL A   1      37.910  31.885  31.750  1.00  0.00     0.029 A 
ATOM     40  N   UNL A   1      39.788  30.688  31.874  1.00  0.00    -0.354 N 
ATOM     41  C   UNL A   1      40.979  28.036  28.669  1.00  0.00     0.074 A 
ATOM     42  C   UNL A   1      40.112  28.194  27.520  1.00  0.00     0.031 C 
ATOM     43  C   UNL A   1      38.514  32.212  32.898  1.00  0.00     0.029 A 
ATOM     44  C   UNL A   1      39.692  31.376  33.063  1.00  0.00     0.049 A 
ATOM     45  H   UNL A   1      40.541  30.092  31.654  1.00  0.00     0.167 HD
ATOM     46  C   UNL A   1      42.069  27.226  28.708  1.00  0.00     0.034 A 
ATOM     47  C   UNL A   1      40.422  31.302  34.193  1.00  0.00     0.034 A 
ATOM     48  C   UNL A   1      42.935  27.105  29.858  1.00  0.00     0.049 A 
ATOM     49  C   UNL A   1      41.567  30.327  34.245  1.00  0.00     0.074 A 
ATOM     50  C   UNL A   1      44.071  26.327  30.000  1.00  0.00     0.029 A 
ATOM     51  N   UNL A   1      42.763  27.774  31.063  1.00  0.00    -0.354 N 
ATOM     52  N   UNL A   1      42.007  29.522  33.306  1.00  0.00    -0.248 NA
ATOM     53  C   UNL A   1      42.306  30.244  35.510  1.00  0.00     0.031 C 
ATOM     54  C   UNL A   1      44.532  26.456  31.314  1.00  0.00     0.029 A 
ATOM     55  C   UNL A   1      43.747  27.395  31.964  1.00  0.00     0.049 A 
ATOM     56  H   UNL A   1      42.046  28.423  31.250  1.00  0.00     0.167 HD
ATOM     57  C   UNL A   1      43.095  28.857  33.861  1.00  0.00     0.074 A 
ATOM     58  C   UNL A   1      43.256  29.372  35.205  1.00  0.00     0.031 C 
ATOM     59  C   UNL A   1      43.892  27.908  33.306  1.00  0.00     0.034 A 
BRANCH  46  60
ATOM     60  C   UNL A   1      42.348  26.362  27.499  1.00  0.00     0.023 A 
ATOM     61  C   UNL A   1      41.895  25.035  27.408  1.00  0.00     0.031 A 
ATOM     62  C   UNL A   1      43.098  26.872  26.423  1.00  0.00     0.131 A 
ATOM     63  C   UNL A   1      42.261  24.244  26.306  1.00  0.00     0.055 A 
ATOM     64  C   UNL A   1      43.379  26.110  25.288  1.00  0.00     0.041 A 
ATOM     65  F   UNL A   1      43.579  28.125  26.460  1.00  0.00    -0.206 F 
ATOM     66  C   UNL A   1      42.974  24.780  25.232  1.00  0.00     0.022 A 
BRANCH  63  67
ATOM     67  S   UNL A   1      41.932  22.462  26.376  1.00  0.00     0.124 S 
ATOM     68  O   UNL A   1      42.656  22.077  27.586  1.00  0.00    -0.237 OA
ATOM     69  O   UNL A   1      40.477  22.413  26.460  1.00  0.00    -0.237 OA
ATOM     70  O   UNL A   1      42.505  21.958  25.129  1.00  0.00    -0.744 OA
ENDBRANCH  63  67
ENDBRANCH  46  60
BRANCH  47  71
ATOM     71  C   UNL A   1      40.051  32.114  35.390  1.00  0.00     0.023 A 
ATOM     72  C   UNL A   1      39.152  31.622  36.347  1.00  0.00     0.031 A 
ATOM     73  C   UNL A   1      40.554  33.418  35.571  1.00  0.00     0.131 A 
ATOM     74  C   UNL A   1      38.744  32.442  37.410  1.00  0.00     0.055 A 
ATOM     75  C   UNL A   1      40.204  34.200  36.672  1.00  0.00     0.041 A 
ATOM     76  F   UNL A   1      41.413  33.946  34.683  1.00  0.00    -0.206 F 
ATOM     77  C   UNL A   1      39.280  33.719  37.591  1.00  0.00     0.022 A 
BRANCH  74  78
ATOM     78  S   UNL A   1      37.411  31.857  38.491  1.00  0.00     0.124 S 
ATOM     79  O   UNL A   1      36.349  32.809  38.189  1.00  0.00    -0.237 OA
ATOM     80  O   UNL A   1      37.208  30.494  38.010  1.00  0.00    -0.237 OA
ATOM     81  O   UNL A   1      37.987  31.964  39.829  1.00  0.00    -0.744 OA
ENDBRANCH  74  78
ENDBRANCH  47  71
BRANCH  59  82
ATOM     82  C   UNL A   1      45.046  27.410  34.141  1.00  0.00     0.023 A 
ATOM     83  C   UNL A   1      44.908  26.330  35.030  1.00  0.00     0.031 A 
ATOM     84  C   UNL A   1      46.301  28.040  34.058  1.00  0.00     0.131 A 
ATOM     85  C   UNL A   1      45.985  25.953  35.844  1.00  0.00     0.055 A 
ATOM     86  C   UNL A   1      47.391  27.611  34.814  1.00  0.00     0.041 A 
ATOM     87  F   UNL A   1      46.488  29.084  33.234  1.00  0.00    -0.206 F 
ATOM     88  C   UNL A   1      47.233  26.571  35.725  1.00  0.00     0.022 A 
BRANCH  85  89
ATOM     89  S   UNL A   1      45.704  24.721  37.145  1.00  0.00     0.124 S 
ATOM     90  O   UNL A   1      45.442  23.515  36.365  1.00  0.00    -0.237 OA
ATOM     91  O   UNL A   1      46.966  24.746  37.877  1.00  0.00    -0.237 OA
ATOM     92  O   UNL A   1      44.553  25.250  37.874  1.00  0.00    -0.744 OA
ENDBRANCH  85  89
ENDBRANCH  59  82
ENDBRANCH  33  34
ENDBRANCH  26  28
ENDBRANCH  25  26
ENDBRANCH  24  25
ENDBRANCH   1  24
TORSDOF 19
ENDMDL
MODEL 3
REMARK VINA RESULT:     -11.8      1.297      1.490
REMARK SMILES COC(=O)c1ccccc1-c1ccc(/C=C(\C#N)C(=O)OCCOC(=O)c2ccc(-c3c4nc(c(-c5cc(S(=O)(=O)[O-])ccc5F)c5ccc([nH]5)c(-c5cc(S(=O)(=O)[O-])ccc5F)c5nc(c(-c6cc(S(=O)(=O)[O-])ccc6F)c6ccc3[nH]6)C=C5)C=C4)cc2)o1
REMARK SMILES IDX 22 1 21 2 19 3 20 4 16 5 15 6 14 7 11 8 12 9 90 10 13 11
REMARK SMILES IDX 10 12 5 13 6 14 7 15 9 16 8 17 3 18 4 19 2 20 1 21 17 22
REMARK SMILES IDX 18 23 23 24 24 25 25 26 26 27 27 28 28 29 89 30 29 31 88 32
REMARK SMILES IDX 30 33 31 34 32 35 82 36 33 37 87 38 81 39 83 40 34 41 86 42
REMARK SMILES IDX 80 43 79 44 35 46 67 47 47 48 66 49 48 50 51 51 65 52 84 53
REMARK SMILES IDX 49 54 50 55 64 57 85 58 52 59 36 60 37 61 45 62 38 63 44 64
REMARK SMILES IDX 46 65 43 66 39 67 40 68 41 69 42 70 68 71 69 72 77 73 70 74
REMARK SMILES IDX 76 75 78 76 75 77 71 78 72 79 73 80 74 81 53 82 54 83 62 84
REMARK SMILES IDX 55 85 61 86 63 87 60 88 56 89 57 90 58 91 59 92
REMARK H PARENT 83 45 51 56
REMARK Flexibility Score: inf
ROOT
ATOM      1  C   UNL A   1      34.973  20.804  25.456  1.00  0.00     0.275 C 
ENDROOT
BRANCH   1   2
ATOM      2  O   UNL A   1      33.934  20.887  24.455  1.00  0.00    -0.458 OA
BRANCH   2   3
ATOM      3  C   UNL A   1      32.660  20.821  24.916  1.00  0.00     0.349 C 
ATOM      4  O   UNL A   1      32.031  19.784  25.086  1.00  0.00    -0.245 OA
BRANCH   3   5
ATOM      5  C   UNL A   1      32.120  22.157  25.266  1.00  0.00     0.141 C 
ATOM      6  C   UNL A   1      31.729  22.888  24.209  1.00  0.00     0.074 C 
BRANCH   6   7
ATOM      7  C   UNL A   1      31.218  24.205  24.203  1.00  0.00     0.129 A 
ATOM      8  C   UNL A   1      30.956  26.346  24.671  1.00  0.00     0.135 A 
ATOM      9  C   UNL A   1      30.060  26.077  23.665  1.00  0.00     0.051 A 
ATOM     10  O   UNL A   1      31.669  25.232  24.984  1.00  0.00    -0.457 OA
ATOM     11  C   UNL A   1      30.207  24.703  23.385  1.00  0.00     0.051 A 
BRANCH   8  12
ATOM     12  C   UNL A   1      31.267  27.516  25.465  1.00  0.00     0.032 A 
ATOM     13  C   UNL A   1      31.362  28.805  24.912  1.00  0.00     0.071 A 
ATOM     14  C   UNL A   1      31.725  29.888  25.724  1.00  0.00     0.016 A 
ATOM     15  C   UNL A   1      31.969  29.698  27.086  1.00  0.00     0.001 A 
ATOM     16  C   UNL A   1      31.510  27.343  26.837  1.00  0.00     0.013 A 
ATOM     17  C   UNL A   1      31.860  28.426  27.643  1.00  0.00     0.001 A 
BRANCH  13  18
ATOM     18  C   UNL A   1      31.128  29.087  23.475  1.00  0.00     0.338 C 
ATOM     19  O   UNL A   1      31.987  28.929  22.624  1.00  0.00    -0.246 OA
BRANCH  18  20
ATOM     20  O   UNL A   1      29.878  29.570  23.287  1.00  0.00    -0.465 OA
ATOM     21  C   UNL A   1      29.528  29.801  21.920  1.00  0.00     0.282 C 
ENDBRANCH  18  20
ENDBRANCH  13  18
ENDBRANCH   8  12
ENDBRANCH   6   7
BRANCH   5  22
ATOM     22  C   UNL A   1      32.130  22.576  26.619  1.00  0.00     0.107 C 
ATOM     23  N   UNL A   1      32.069  22.879  27.738  1.00  0.00    -0.192 NA
ENDBRANCH   5  22
ENDBRANCH   3   5
ENDBRANCH   2   3
ENDBRANCH   1   2
BRANCH   1  24
ATOM     24  C   UNL A   1      36.356  20.584  24.836  1.00  0.00     0.275 C 
BRANCH  24  25
ATOM     25  O   UNL A   1      37.258  21.670  25.127  1.00  0.00    -0.458 OA
BRANCH  25  26
ATOM     26  C   UNL A   1      38.432  21.285  25.675  1.00  0.00     0.338 C 
ATOM     27  O   UNL A   1      39.024  20.236  25.476  1.00  0.00    -0.246 OA
BRANCH  26  28
ATOM     28  C   UNL A   1      39.033  22.371  26.459  1.00  0.00     0.060 A 
ATOM     29  C   UNL A   1      38.563  23.651  26.207  1.00  0.00     0.016 A 
ATOM     30  C   UNL A   1      40.185  22.190  27.216  1.00  0.00     0.016 A 
ATOM     31  C   UNL A   1      39.335  24.756  26.528  1.00  0.00     0.010 A 
ATOM     32  C   UNL A   1      40.865  23.317  27.702  1.00  0.00     0.010 A 
ATOM     33  C   UNL A   1      40.479  24.617  27.321  1.00  0.00    -0.014 A 
BRANCH  33  34
ATOM     34  C   UNL A   1      41.243  25.831  27.744  1.00  0.00     0.031 A 
ATOM     35  C   UNL A   1      40.592  26.893  28.597  1.00  0.00     0.074 A 
ATOM     36  C   UNL A   1      42.536  25.976  27.377  1.00  0.00     0.049 A 
ATOM     37  N   UNL A   1      41.034  28.083  28.916  1.00  0.00    -0.248 NA
ATOM     38  C   UNL A   1      39.263  26.583  29.146  1.00  0.00     0.031 C 
ATOM     39  C   UNL A   1      43.311  25.007  26.595  1.00  0.00     0.029 A 
ATOM     40  N   UNL A   1      43.436  26.986  27.615  1.00  0.00    -0.354 N 
ATOM     41  C   UNL A   1      40.020  28.683  29.658  1.00  0.00     0.074 A 
ATOM     42  C   UNL A   1      38.930  27.731  29.717  1.00  0.00     0.031 C 
ATOM     43  C   UNL A   1      44.572  25.437  26.472  1.00  0.00     0.029 A 
ATOM     44  C   UNL A   1      44.668  26.773  27.037  1.00  0.00     0.049 A 
ATOM     45  H   UNL A   1      43.221  27.785  28.149  1.00  0.00     0.167 HD
ATOM     46  C   UNL A   1      40.004  29.911  30.236  1.00  0.00     0.034 A 
ATOM     47  C   UNL A   1      45.740  27.580  26.908  1.00  0.00     0.034 A 
ATOM     48  C   UNL A   1      41.115  30.834  30.186  1.00  0.00     0.049 A 
ATOM     49  C   UNL A   1      45.663  28.971  27.475  1.00  0.00     0.074 A 
ATOM     50  C   UNL A   1      41.211  32.095  30.749  1.00  0.00     0.029 A 
ATOM     51  N   UNL A   1      42.319  30.600  29.536  1.00  0.00    -0.354 N 
ATOM     52  N   UNL A   1      44.680  29.539  28.135  1.00  0.00    -0.248 NA
ATOM     53  C   UNL A   1      46.833  29.834  27.271  1.00  0.00     0.031 C 
ATOM     54  C   UNL A   1      42.432  32.657  30.364  1.00  0.00     0.029 A 
ATOM     55  C   UNL A   1      43.146  31.709  29.649  1.00  0.00     0.049 A 
ATOM     56  H   UNL A   1      42.553  29.768  29.063  1.00  0.00     0.167 HD
ATOM     57  C   UNL A   1      45.128  30.817  28.450  1.00  0.00     0.074 A 
ATOM     58  C   UNL A   1      46.474  30.926  27.928  1.00  0.00     0.031 C 
ATOM     59  C   UNL A   1      44.484  31.810  29.116  1.00  0.00     0.034 A 
BRANCH  46  60
ATOM     60  C   UNL A   1      38.728  30.354  30.916  1.00  0.00     0.023 A 
ATOM     61  C   UNL A   1      37.671  30.950  30.207  1.00  0.00     0.031 A 
ATOM     62  C   UNL A   1      38.573  30.190  32.305  1.00  0.00     0.131 A 
ATOM     63  C   UNL A   1      36.546  31.429  30.898  1.00  0.00     0.055 A 
ATOM     64  C   UNL A   1      37.413  30.584  32.974  1.00  0.00     0.041 A 
ATOM     65  F   UNL A   1      39.556  29.648  33.043  1.00  0.00    -0.206 F 
ATOM     66  C   UNL A   1      36.396  31.224  32.272  1.00  0.00     0.022 A 
BRANCH  63  67
ATOM     67  S   UNL A   1      35.361  32.469  30.003  1.00  0.00     0.124 S 
ATOM     68  O   UNL A   1      35.047  31.629  28.849  1.00  0.00    -0.237 OA
ATOM     69  O   UNL A   1      34.291  32.639  30.978  1.00  0.00    -0.237 OA
ATOM     70  O   UNL A   1      36.126  33.676  29.696  1.00  0.00    -0.744 OA
ENDBRANCH  63  67
ENDBRANCH  46  60
BRANCH  47  71
ATOM     71  C   UNL A   1      46.944  27.126  26.151  1.00  0.00     0.023 A 
ATOM     72  C   UNL A   1      47.996  26.460  26.796  1.00  0.00     0.031 A 
ATOM     73  C   UNL A   1      47.083  27.394  24.774  1.00  0.00     0.131 A 
ATOM     74  C   UNL A   1      49.158  26.132  26.082  1.00  0.00     0.055 A 
ATOM     75  C   UNL A   1      48.208  26.996  24.052  1.00  0.00     0.041 A 
ATOM     76  F   UNL A   1      46.112  28.035  24.104  1.00  0.00    -0.206 F 
ATOM     77  C   UNL A   1      49.263  26.375  24.711  1.00  0.00     0.022 A 
BRANCH  74  78
ATOM     78  S   UNL A   1      50.582  25.484  27.000  1.00  0.00     0.124 S 
ATOM     79  O   UNL A   1      50.887  26.597  27.892  1.00  0.00    -0.237 OA
ATOM     80  O   UNL A   1      50.021  24.292  27.627  1.00  0.00    -0.237 OA
ATOM     81  O   UNL A   1      51.571  25.230  25.955  1.00  0.00    -0.744 OA
ENDBRANCH  74  78
ENDBRANCH  47  71
BRANCH  59  82
ATOM     82  C   UNL A   1      45.258  33.082  29.363  1.00  0.00     0.023 A 
ATOM     83  C   UNL A   1      46.045  33.261  30.513  1.00  0.00     0.031 A 
ATOM     84  C   UNL A   1      45.190  34.140  28.438  1.00  0.00     0.131 A 
ATOM     85  C   UNL A   1      46.682  34.489  30.739  1.00  0.00     0.055 A 
ATOM     86  C   UNL A   1      45.888  35.331  28.631  1.00  0.00     0.041 A 
ATOM     87  F   UNL A   1      44.445  34.029  27.327  1.00  0.00    -0.206 F 
ATOM     88  C   UNL A   1      46.628  35.518  29.794  1.00  0.00     0.022 A 
BRANCH  85  89
ATOM     89  S   UNL A   1      47.487  34.770  32.340  1.00  0.00     0.124 S 
ATOM     90  O   UNL A   1      47.343  36.214  32.501  1.00  0.00    -0.237 OA
ATOM     91  O   UNL A   1      46.688  33.945  33.240  1.00  0.00    -0.237 OA
ATOM     92  O   UNL A   1      48.855  34.304  32.122  1.00  0.00    -0.744 OA
ENDBRANCH  85  89
ENDBRANCH  59  82
ENDBRANCH  33  34
ENDBRANCH  26  28
ENDBRANCH  25  26
ENDBRANCH  24  25
ENDBRANCH   1  24
TORSDOF 19
ENDMDL
