MODEL 1
REMARK VINA RESULT:     -10.1      0.000      0.000
REMARK SMILES O=C(CCC(=O)OCCOC(=O)c1ccc(-c2c3nc(c(-c4cc(S(=O)(=O)[O-])ccc4F)c4ccc([nH]4)c(-c4cc(S(=O)(=O)[O-])ccc4F)c4nc(c(-c5cc(S(=O)(=O)[O-])ccc5F)c5ccc2[nH]5)C=C4)C=C3)cc1)Nc1nncs1
REMARK SMILES IDX 8 1 7 2 5 3 6 4 4 5 3 6 2 7 1 8 76 9 77 11 78 12 81 13 79 14
REMARK SMILES IDX 80 15 9 16 10 17 11 18 12 19 13 20 14 21 75 22 15 23 74 24
REMARK SMILES IDX 16 25 17 26 18 27 68 28 19 29 73 30 67 31 69 32 20 33 72 34
REMARK SMILES IDX 66 35 65 36 21 38 53 39 33 40 52 41 34 42 37 43 51 44 70 45
REMARK SMILES IDX 35 46 36 47 50 49 71 50 38 51 22 52 23 53 31 54 24 55 30 56
REMARK SMILES IDX 32 57 29 58 25 59 26 60 27 61 28 62 54 63 55 64 63 65 56 66
REMARK SMILES IDX 62 67 64 68 61 69 57 70 58 71 59 72 60 73 39 74 40 75 48 76
REMARK SMILES IDX 41 77 47 78 49 79 46 80 42 81 43 82 44 83 45 84
REMARK H PARENT 76 10 69 37 37 48
REMARK Flexibility Score: inf
ROOT
ATOM      1  C   UNL A   1      41.893  19.741  26.455  1.00  0.00     0.274 C 
ENDROOT
BRANCH   1   2
ATOM      2  O   UNL A   1      42.791  19.752  25.319  1.00  0.00    -0.462 OA
BRANCH   2   3
ATOM      3  C   UNL A   1      43.732  18.772  25.262  1.00  0.00     0.306 C 
ATOM      4  O   UNL A   1      43.911  17.940  26.142  1.00  0.00    -0.252 OA
BRANCH   3   5
ATOM      5  C   UNL A   1      44.606  18.861  24.025  1.00  0.00     0.132 C 
BRANCH   5   6
ATOM      6  C   UNL A   1      45.980  19.503  24.195  1.00  0.00     0.112 C 
BRANCH   6   7
ATOM      7  C   UNL A   1      45.883  20.931  24.701  1.00  0.00     0.226 C 
ATOM      8  O   UNL A   1      46.395  21.254  25.766  1.00  0.00    -0.275 OA
ATOM      9  N   UNL A   1      45.125  21.730  23.883  1.00  0.00    -0.301 N 
ATOM     10  H   UNL A   1      44.848  21.382  23.005  1.00  0.00     0.172 HD
BRANCH   9  11
ATOM     11  C   UNL A   1      44.739  22.989  24.242  1.00  0.00     0.212 A 
ATOM     12  N   UNL A   1      45.399  24.121  24.239  1.00  0.00    -0.120 NA
ATOM     13  S   UNL A   1      43.153  23.084  24.878  1.00  0.00    -0.083 S 
ATOM     14  N   UNL A   1      44.657  25.153  24.789  1.00  0.00    -0.145 NA
ATOM     15  C   UNL A   1      43.479  24.735  25.200  1.00  0.00     0.204 A 
ENDBRANCH   9  11
ENDBRANCH   6   7
ENDBRANCH   5   6
ENDBRANCH   3   5
ENDBRANCH   2   3
ENDBRANCH   1   2
BRANCH   1  16
ATOM     16  C   UNL A   1      40.495  20.219  26.054  1.00  0.00     0.275 C 
BRANCH  16  17
ATOM     17  O   UNL A   1      39.978  21.143  27.023  1.00  0.00    -0.458 OA
BRANCH  17  18
ATOM     18  C   UNL A   1      39.292  22.191  26.503  1.00  0.00     0.338 C 
ATOM     19  O   UNL A   1      38.282  22.130  25.830  1.00  0.00    -0.246 OA
BRANCH  18  20
ATOM     20  C   UNL A   1      39.893  23.437  27.004  1.00  0.00     0.060 A 
ATOM     21  C   UNL A   1      40.809  23.382  28.058  1.00  0.00     0.016 A 
ATOM     22  C   UNL A   1      39.528  24.657  26.437  1.00  0.00     0.016 A 
ATOM     23  C   UNL A   1      41.375  24.558  28.550  1.00  0.00     0.010 A 
ATOM     24  C   UNL A   1      40.101  25.831  26.926  1.00  0.00     0.010 A 
ATOM     25  C   UNL A   1      41.023  25.792  27.989  1.00  0.00    -0.014 A 
BRANCH  25  26
ATOM     26  C   UNL A   1      41.560  27.066  28.527  1.00  0.00     0.031 A 
ATOM     27  C   UNL A   1      40.602  28.099  29.045  1.00  0.00     0.074 A 
ATOM     28  C   UNL A   1      42.884  27.314  28.490  1.00  0.00     0.049 A 
ATOM     29  N   UNL A   1      40.820  29.347  29.364  1.00  0.00    -0.248 NA
ATOM     30  C   UNL A   1      39.203  27.670  29.213  1.00  0.00     0.031 C 
ATOM     31  C   UNL A   1      43.910  26.367  28.052  1.00  0.00     0.029 A 
ATOM     32  N   UNL A   1      43.591  28.451  28.797  1.00  0.00    -0.354 N 
ATOM     33  C   UNL A   1      39.584  29.866  29.735  1.00  0.00     0.074 A 
ATOM     34  C   UNL A   1      38.618  28.797  29.591  1.00  0.00     0.031 C 
ATOM     35  C   UNL A   1      45.111  26.967  28.101  1.00  0.00     0.029 A 
ATOM     36  C   UNL A   1      44.935  28.359  28.507  1.00  0.00     0.049 A 
ATOM     37  H   UNL A   1      43.176  29.255  29.187  1.00  0.00     0.167 HD
ATOM     38  C   UNL A   1      39.291  31.120  30.152  1.00  0.00     0.034 A 
ATOM     39  C   UNL A   1      45.898  29.304  28.519  1.00  0.00     0.034 A 
ATOM     40  C   UNL A   1      40.276  32.163  30.300  1.00  0.00     0.049 A 
ATOM     41  C   UNL A   1      45.527  30.715  28.918  1.00  0.00     0.074 A 
ATOM     42  C   UNL A   1      40.093  33.458  30.751  1.00  0.00     0.029 A 
ATOM     43  N   UNL A   1      41.624  32.034  29.994  1.00  0.00    -0.354 N 
ATOM     44  N   UNL A   1      44.355  31.192  29.275  1.00  0.00    -0.248 NA
ATOM     45  C   UNL A   1      46.604  31.715  28.922  1.00  0.00     0.031 C 
ATOM     46  C   UNL A   1      41.310  34.136  30.638  1.00  0.00     0.029 A 
ATOM     47  C   UNL A   1      42.275  33.237  30.210  1.00  0.00     0.049 A 
ATOM     48  H   UNL A   1      42.055  31.210  29.669  1.00  0.00     0.167 HD
ATOM     49  C   UNL A   1      44.571  32.532  29.592  1.00  0.00     0.074 A 
ATOM     50  C   UNL A   1      45.981  32.786  29.388  1.00  0.00     0.031 C 
ATOM     51  C   UNL A   1      43.687  33.466  30.021  1.00  0.00     0.034 A 
BRANCH  38  52
ATOM     52  C   UNL A   1      37.847  31.460  30.420  1.00  0.00     0.023 A 
ATOM     53  C   UNL A   1      36.973  31.870  29.399  1.00  0.00     0.031 A 
ATOM     54  C   UNL A   1      37.331  31.341  31.723  1.00  0.00     0.131 A 
ATOM     55  C   UNL A   1      35.641  32.186  29.707  1.00  0.00     0.055 A 
ATOM     56  C   UNL A   1      35.987  31.586  32.010  1.00  0.00     0.041 A 
ATOM     57  F   UNL A   1      38.126  30.978  32.742  1.00  0.00    -0.206 F 
ATOM     58  C   UNL A   1      35.135  32.019  31.000  1.00  0.00     0.022 A 
BRANCH  55  59
ATOM     59  S   UNL A   1      34.599  32.917  28.416  1.00  0.00     0.124 S 
ATOM     60  O   UNL A   1      33.793  33.860  29.187  1.00  0.00    -0.237 OA
ATOM     61  O   UNL A   1      35.581  33.505  27.512  1.00  0.00    -0.237 OA
ATOM     62  O   UNL A   1      33.864  31.773  27.880  1.00  0.00    -0.744 OA
ENDBRANCH  55  59
ENDBRANCH  38  52
BRANCH  39  63
ATOM     63  C   UNL A   1      47.293  28.986  28.088  1.00  0.00     0.023 A 
ATOM     64  C   UNL A   1      47.585  28.690  26.747  1.00  0.00     0.031 A 
ATOM     65  C   UNL A   1      48.338  28.873  29.024  1.00  0.00     0.131 A 
ATOM     66  C   UNL A   1      48.859  28.220  26.393  1.00  0.00     0.055 A 
ATOM     67  C   UNL A   1      49.625  28.480  28.654  1.00  0.00     0.041 A 
ATOM     68  F   UNL A   1      48.120  29.137  30.323  1.00  0.00    -0.206 F 
ATOM     69  C   UNL A   1      49.886  28.129  27.333  1.00  0.00     0.022 A 
BRANCH  66  70
ATOM     70  S   UNL A   1      49.108  27.582  24.712  1.00  0.00     0.124 S 
ATOM     71  O   UNL A   1      50.388  28.185  24.357  1.00  0.00    -0.237 OA
ATOM     72  O   UNL A   1      49.118  26.140  24.935  1.00  0.00    -0.237 OA
ATOM     73  O   UNL A   1      47.951  28.093  23.981  1.00  0.00    -0.744 OA
ENDBRANCH  66  70
ENDBRANCH  39  63
BRANCH  51  74
ATOM     74  C   UNL A   1      44.231  34.825  30.390  1.00  0.00     0.023 A 
ATOM     75  C   UNL A   1      44.683  35.126  31.686  1.00  0.00     0.031 A 
ATOM     76  C   UNL A   1      44.320  35.829  29.408  1.00  0.00     0.131 A 
ATOM     77  C   UNL A   1      45.166  36.412  31.975  1.00  0.00     0.055 A 
ATOM     78  C   UNL A   1      44.859  37.085  29.685  1.00  0.00     0.041 A 
ATOM     79  F   UNL A   1      43.899  35.595  28.154  1.00  0.00    -0.206 F 
ATOM     80  C   UNL A   1      45.276  37.385  30.977  1.00  0.00     0.022 A 
BRANCH  77  81
ATOM     81  S   UNL A   1      45.585  36.823  33.690  1.00  0.00     0.124 S 
ATOM     82  O   UNL A   1      44.977  38.141  33.844  1.00  0.00    -0.237 OA
ATOM     83  O   UNL A   1      44.955  35.739  34.437  1.00  0.00    -0.237 OA
ATOM     84  O   UNL A   1      47.048  36.810  33.699  1.00  0.00    -0.744 OA
ENDBRANCH  77  81
ENDBRANCH  51  74
ENDBRANCH  25  26
ENDBRANCH  18  20
ENDBRANCH  17  18
ENDBRANCH  16  17
ENDBRANCH   1  16
TORSDOF 17
ENDMDL
MODEL 2
REMARK VINA RESULT:     -10.0      6.144     11.796
REMARK SMILES O=C(CCC(=O)OCCOC(=O)c1ccc(-c2c3nc(c(-c4cc(S(=O)(=O)[O-])ccc4F)c4ccc([nH]4)c(-c4cc(S(=O)(=O)[O-])ccc4F)c4nc(c(-c5cc(S(=O)(=O)[O-])ccc5F)c5ccc2[nH]5)C=C4)C=C3)cc1)Nc1nncs1
REMARK SMILES IDX 8 1 7 2 5 3 6 4 4 5 3 6 2 7 1 8 76 9 77 11 78 12 81 13 79 14
REMARK SMILES IDX 80 15 9 16 10 17 11 18 12 19 13 20 14 21 75 22 15 23 74 24
REMARK SMILES IDX 16 25 17 26 18 27 68 28 19 29 73 30 67 31 69 32 20 33 72 34
REMARK SMILES IDX 66 35 65 36 21 38 53 39 33 40 52 41 34 42 37 43 51 44 70 45
REMARK SMILES IDX 35 46 36 47 50 49 71 50 38 51 22 52 23 53 31 54 24 55 30 56
REMARK SMILES IDX 32 57 29 58 25 59 26 60 27 61 28 62 54 63 55 64 63 65 56 66
REMARK SMILES IDX 62 67 64 68 61 69 57 70 58 71 59 72 60 73 39 74 40 75 48 76
REMARK SMILES IDX 41 77 47 78 49 79 46 80 42 81 43 82 44 83 45 84
REMARK H PARENT 76 10 69 37 37 48
REMARK Flexibility Score: inf
ROOT
ATOM      1  C   UNL A   1      32.106  27.693  25.715  1.00  0.00     0.274 C 
ENDROOT
BRANCH   1   2
ATOM      2  O   UNL A   1      31.351  27.088  24.638  1.00  0.00    -0.462 OA
BRANCH   2   3
ATOM      3  C   UNL A   1      31.582  27.552  23.381  1.00  0.00     0.306 C 
ATOM      4  O   UNL A   1      32.682  27.894  22.966  1.00  0.00    -0.252 OA
BRANCH   3   5
ATOM      5  C   UNL A   1      30.315  27.688  22.557  1.00  0.00     0.132 C 
BRANCH   5   6
ATOM      6  C   UNL A   1      29.001  27.804  23.324  1.00  0.00     0.112 C 
BRANCH   6   7
ATOM      7  C   UNL A   1      28.286  29.111  23.037  1.00  0.00     0.226 C 
ATOM      8  O   UNL A   1      27.064  29.180  23.079  1.00  0.00    -0.275 OA
ATOM      9  N   UNL A   1      29.149  30.114  22.674  1.00  0.00    -0.301 N 
ATOM     10  H   UNL A   1      30.118  29.965  22.772  1.00  0.00     0.172 HD
BRANCH   9  11
ATOM     11  C   UNL A   1      28.716  31.311  22.181  1.00  0.00     0.212 A 
ATOM     12  N   UNL A   1      28.597  32.483  22.756  1.00  0.00    -0.120 NA
ATOM     13  S   UNL A   1      28.159  31.245  20.564  1.00  0.00    -0.083 S 
ATOM     14  N   UNL A   1      28.009  33.413  21.916  1.00  0.00    -0.145 NA
ATOM     15  C   UNL A   1      27.694  32.883  20.754  1.00  0.00     0.204 A 
ENDBRANCH   9  11
ENDBRANCH   6   7
ENDBRANCH   5   6
ENDBRANCH   3   5
ENDBRANCH   2   3
ENDBRANCH   1   2
BRANCH   1  16
ATOM     16  C   UNL A   1      31.843  29.200  25.789  1.00  0.00     0.275 C 
BRANCH  16  17
ATOM     17  O   UNL A   1      33.080  29.929  25.815  1.00  0.00    -0.458 OA
BRANCH  17  18
ATOM     18  C   UNL A   1      33.134  30.926  26.732  1.00  0.00     0.338 C 
ATOM     19  O   UNL A   1      32.266  31.747  26.959  1.00  0.00    -0.246 OA
BRANCH  18  20
ATOM     20  C   UNL A   1      34.368  30.772  27.518  1.00  0.00     0.060 A 
ATOM     21  C   UNL A   1      35.220  31.870  27.679  1.00  0.00     0.016 A 
ATOM     22  C   UNL A   1      34.685  29.534  28.074  1.00  0.00     0.016 A 
ATOM     23  C   UNL A   1      36.400  31.733  28.411  1.00  0.00     0.010 A 
ATOM     24  C   UNL A   1      35.862  29.402  28.811  1.00  0.00     0.010 A 
ATOM     25  C   UNL A   1      36.730  30.497  28.980  1.00  0.00    -0.014 A 
BRANCH  25  26
ATOM     26  C   UNL A   1      38.005  30.301  29.713  1.00  0.00     0.031 A 
ATOM     27  C   UNL A   1      39.019  29.338  29.166  1.00  0.00     0.074 A 
ATOM     28  C   UNL A   1      38.218  30.930  30.885  1.00  0.00     0.049 A 
ATOM     29  N   UNL A   1      40.094  28.856  29.731  1.00  0.00    -0.248 NA
ATOM     30  C   UNL A   1      38.780  28.840  27.801  1.00  0.00     0.031 C 
ATOM     31  C   UNL A   1      37.325  31.921  31.488  1.00  0.00     0.029 A 
ATOM     32  N   UNL A   1      39.240  30.808  31.795  1.00  0.00    -0.354 N 
ATOM     33  C   UNL A   1      40.643  27.971  28.809  1.00  0.00     0.074 A 
ATOM     34  C   UNL A   1      39.773  27.976  27.651  1.00  0.00     0.031 C 
ATOM     35  C   UNL A   1      37.828  32.301  32.674  1.00  0.00     0.029 A 
ATOM     36  C   UNL A   1      39.040  31.534  32.949  1.00  0.00     0.049 A 
ATOM     37  H   UNL A   1      40.038  30.252  31.638  1.00  0.00     0.167 HD
ATOM     38  C   UNL A   1      41.765  27.224  28.928  1.00  0.00     0.034 A 
ATOM     39  C   UNL A   1      39.728  31.539  34.109  1.00  0.00     0.034 A 
ATOM     40  C   UNL A   1      42.621  27.248  30.088  1.00  0.00     0.049 A 
ATOM     41  C   UNL A   1      40.937  30.638  34.240  1.00  0.00     0.074 A 
ATOM     42  C   UNL A   1      43.803  26.559  30.297  1.00  0.00     0.029 A 
ATOM     43  N   UNL A   1      42.386  27.992  31.236  1.00  0.00    -0.354 N 
ATOM     44  N   UNL A   1      41.450  29.811  33.358  1.00  0.00    -0.248 NA
ATOM     45  C   UNL A   1      41.662  30.673  35.518  1.00  0.00     0.031 C 
ATOM     46  C   UNL A   1      44.237  26.820  31.600  1.00  0.00     0.029 A 
ATOM     47  C   UNL A   1      43.379  27.749  32.170  1.00  0.00     0.049 A 
ATOM     48  H   UNL A   1      41.624  28.602  31.369  1.00  0.00     0.167 HD
ATOM     49  C   UNL A   1      42.584  29.269  33.961  1.00  0.00     0.074 A 
ATOM     50  C   UNL A   1      42.682  29.864  35.276  1.00  0.00     0.031 C 
ATOM     51  C   UNL A   1      43.472  28.368  33.469  1.00  0.00     0.034 A 
BRANCH  38  52
ATOM     52  C   UNL A   1      42.106  26.272  27.809  1.00  0.00     0.023 A 
ATOM     53  C   UNL A   1      41.692  24.929  27.817  1.00  0.00     0.031 A 
ATOM     54  C   UNL A   1      42.838  26.730  26.699  1.00  0.00     0.131 A 
ATOM     55  C   UNL A   1      42.048  24.083  26.756  1.00  0.00     0.055 A 
ATOM     56  C   UNL A   1      43.127  25.903  25.613  1.00  0.00     0.041 A 
ATOM     57  F   UNL A   1      43.283  27.996  26.650  1.00  0.00    -0.206 F 
ATOM     58  C   UNL A   1      42.737  24.568  25.640  1.00  0.00     0.022 A 
BRANCH  55  59
ATOM     59  S   UNL A   1      41.685  22.312  26.895  1.00  0.00     0.124 S 
ATOM     60  O   UNL A   1      40.413  22.329  27.613  1.00  0.00    -0.237 OA
ATOM     61  O   UNL A   1      41.627  21.890  25.501  1.00  0.00    -0.237 OA
ATOM     62  O   UNL A   1      42.816  21.790  27.660  1.00  0.00    -0.744 OA
ENDBRANCH  55  59
ENDBRANCH  38  52
BRANCH  39  63
ATOM     63  C   UNL A   1      39.277  32.367  35.268  1.00  0.00     0.023 A 
ATOM     64  C   UNL A   1      39.765  33.670  35.458  1.00  0.00     0.031 A 
ATOM     65  C   UNL A   1      38.430  31.836  36.259  1.00  0.00     0.131 A 
ATOM     66  C   UNL A   1      39.471  34.364  36.642  1.00  0.00     0.055 A 
ATOM     67  C   UNL A   1      38.078  32.560  37.399  1.00  0.00     0.041 A 
ATOM     68  F   UNL A   1      37.936  30.593  36.137  1.00  0.00    -0.206 F 
ATOM     69  C   UNL A   1      38.618  33.826  37.606  1.00  0.00     0.022 A 
BRANCH  66  70
ATOM     70  S   UNL A   1      40.347  35.918  36.972  1.00  0.00     0.124 S 
ATOM     71  O   UNL A   1      39.763  36.803  35.971  1.00  0.00    -0.237 OA
ATOM     72  O   UNL A   1      39.978  36.185  38.358  1.00  0.00    -0.237 OA
ATOM     73  O   UNL A   1      41.750  35.569  36.756  1.00  0.00    -0.744 OA
ENDBRANCH  66  70
ENDBRANCH  39  63
BRANCH  51  74
ATOM     74  C   UNL A   1      44.676  28.040  34.318  1.00  0.00     0.023 A 
ATOM     75  C   UNL A   1      44.647  27.044  35.309  1.00  0.00     0.031 A 
ATOM     76  C   UNL A   1      45.885  28.727  34.105  1.00  0.00     0.131 A 
ATOM     77  C   UNL A   1      45.793  26.792  36.077  1.00  0.00     0.055 A 
ATOM     78  C   UNL A   1      47.039  28.428  34.829  1.00  0.00     0.041 A 
ATOM     79  F   UNL A   1      45.967  29.690  33.173  1.00  0.00    -0.206 F 
ATOM     80  C   UNL A   1      46.994  27.463  35.829  1.00  0.00     0.022 A 
BRANCH  77  81
ATOM     81  S   UNL A   1      45.680  25.621  37.458  1.00  0.00     0.124 S 
ATOM     82  O   UNL A   1      45.566  24.342  36.764  1.00  0.00    -0.237 OA
ATOM     83  O   UNL A   1      46.935  25.851  38.168  1.00  0.00    -0.237 OA
ATOM     84  O   UNL A   1      44.478  26.048  38.173  1.00  0.00    -0.744 OA
ENDBRANCH  77  81
ENDBRANCH  51  74
ENDBRANCH  25  26
ENDBRANCH  18  20
ENDBRANCH  17  18
ENDBRANCH  16  17
ENDBRANCH   1  16
TORSDOF 17
ENDMDL
MODEL 3
REMARK VINA RESULT:      -9.9      4.221      5.826
REMARK SMILES O=C(CCC(=O)OCCOC(=O)c1ccc(-c2c3nc(c(-c4cc(S(=O)(=O)[O-])ccc4F)c4ccc([nH]4)c(-c4cc(S(=O)(=O)[O-])ccc4F)c4nc(c(-c5cc(S(=O)(=O)[O-])ccc5F)c5ccc2[nH]5)C=C4)C=C3)cc1)Nc1nncs1
REMARK SMILES IDX 8 1 7 2 5 3 6 4 4 5 3 6 2 7 1 8 76 9 77 11 78 12 81 13 79 14
REMARK SMILES IDX 80 15 9 16 10 17 11 18 12 19 13 20 14 21 75 22 15 23 74 24
REMARK SMILES IDX 16 25 17 26 18 27 68 28 19 29 73 30 67 31 69 32 20 33 72 34
REMARK SMILES IDX 66 35 65 36 21 38 53 39 33 40 52 41 34 42 37 43 51 44 70 45
REMARK SMILES IDX 35 46 36 47 50 49 71 50 38 51 22 52 23 53 31 54 24 55 30 56
REMARK SMILES IDX 32 57 29 58 25 59 26 60 27 61 28 62 54 63 55 64 63 65 56 66
REMARK SMILES IDX 62 67 64 68 61 69 57 70 58 71 59 72 60 73 39 74 40 75 48 76
REMARK SMILES IDX 41 77 47 78 49 79 46 80 42 81 43 82 44 83 45 84
REMARK H PARENT 76 10 69 37 37 48
REMARK Flexibility Score: inf
ROOT
ATOM      1  C   UNL A   1      36.604  22.755  23.358  1.00  0.00     0.274 C 
ENDROOT
BRANCH   1   2
ATOM      2  O   UNL A   1      35.298  22.910  22.754  1.00  0.00    -0.462 OA
BRANCH   2   3
ATOM      3  C   UNL A   1      34.364  23.598  23.463  1.00  0.00     0.306 C 
ATOM      4  O   UNL A   1      34.589  24.639  24.065  1.00  0.00    -0.252 OA
BRANCH   3   5
ATOM      5  C   UNL A   1      33.019  22.897  23.507  1.00  0.00     0.132 C 
BRANCH   5   6
ATOM      6  C   UNL A   1      32.773  21.945  24.674  1.00  0.00     0.112 C 
BRANCH   6   7
ATOM      7  C   UNL A   1      32.704  20.498  24.224  1.00  0.00     0.226 C 
ATOM      8  O   UNL A   1      32.163  20.196  23.167  1.00  0.00    -0.275 OA
ATOM      9  N   UNL A   1      33.232  19.632  25.149  1.00  0.00    -0.301 N 
ATOM     10  H   UNL A   1      33.726  20.002  25.916  1.00  0.00     0.172 HD
BRANCH   9  11
ATOM     11  C   UNL A   1      33.097  18.278  25.046  1.00  0.00     0.212 A 
ATOM     12  N   UNL A   1      32.169  17.472  25.502  1.00  0.00    -0.120 NA
ATOM     13  S   UNL A   1      34.402  17.499  24.259  1.00  0.00    -0.083 S 
ATOM     14  N   UNL A   1      32.478  16.143  25.264  1.00  0.00    -0.145 NA
ATOM     15  C   UNL A   1      33.638  16.017  24.657  1.00  0.00     0.204 A 
ENDBRANCH   9  11
ENDBRANCH   6   7
ENDBRANCH   5   6
ENDBRANCH   3   5
ENDBRANCH   2   3
ENDBRANCH   1   2
BRANCH   1  16
ATOM     16  C   UNL A   1      36.680  21.466  24.179  1.00  0.00     0.275 C 
BRANCH  16  17
ATOM     17  O   UNL A   1      37.062  21.749  25.534  1.00  0.00    -0.458 OA
BRANCH  17  18
ATOM     18  C   UNL A   1      38.310  21.342  25.872  1.00  0.00     0.338 C 
ATOM     19  O   UNL A   1      38.784  20.237  25.687  1.00  0.00    -0.246 OA
BRANCH  18  20
ATOM     20  C   UNL A   1      39.059  22.501  26.380  1.00  0.00     0.060 A 
ATOM     21  C   UNL A   1      38.629  23.792  26.054  1.00  0.00     0.016 A 
ATOM     22  C   UNL A   1      40.195  22.303  27.162  1.00  0.00     0.016 A 
ATOM     23  C   UNL A   1      39.339  24.899  26.519  1.00  0.00     0.010 A 
ATOM     24  C   UNL A   1      40.899  23.412  27.632  1.00  0.00     0.010 A 
ATOM     25  C   UNL A   1      40.480  24.717  27.310  1.00  0.00    -0.014 A 
BRANCH  25  26
ATOM     26  C   UNL A   1      41.291  25.870  27.771  1.00  0.00     0.031 A 
ATOM     27  C   UNL A   1      40.626  26.957  28.566  1.00  0.00     0.074 A 
ATOM     28  C   UNL A   1      42.589  25.971  27.423  1.00  0.00     0.049 A 
ATOM     29  N   UNL A   1      41.074  28.139  28.891  1.00  0.00    -0.248 NA
ATOM     30  C   UNL A   1      39.263  26.674  29.048  1.00  0.00     0.031 C 
ATOM     31  C   UNL A   1      43.350  24.956  26.693  1.00  0.00     0.029 A 
ATOM     32  N   UNL A   1      43.490  26.990  27.611  1.00  0.00    -0.354 N 
ATOM     33  C   UNL A   1      40.040  28.760  29.584  1.00  0.00     0.074 A 
ATOM     34  C   UNL A   1      38.936  27.823  29.622  1.00  0.00     0.031 C 
ATOM     35  C   UNL A   1      44.595  25.411  26.479  1.00  0.00     0.029 A 
ATOM     36  C   UNL A   1      44.703  26.773  26.994  1.00  0.00     0.049 A 
ATOM     37  H   UNL A   1      43.288  27.799  28.135  1.00  0.00     0.167 HD
ATOM     38  C   UNL A   1      40.020  29.998  30.131  1.00  0.00     0.034 A 
ATOM     39  C   UNL A   1      45.757  27.599  26.823  1.00  0.00     0.034 A 
ATOM     40  C   UNL A   1      41.139  30.907  30.091  1.00  0.00     0.049 A 
ATOM     41  C   UNL A   1      45.677  29.003  27.380  1.00  0.00     0.074 A 
ATOM     42  C   UNL A   1      41.238  32.171  30.646  1.00  0.00     0.029 A 
ATOM     43  N   UNL A   1      42.347  30.654  29.456  1.00  0.00    -0.354 N 
ATOM     44  N   UNL A   1      44.696  29.576  28.040  1.00  0.00    -0.248 NA
ATOM     45  C   UNL A   1      46.846  29.871  27.175  1.00  0.00     0.031 C 
ATOM     46  C   UNL A   1      42.471  32.715  30.275  1.00  0.00     0.029 A 
ATOM     47  C   UNL A   1      43.181  31.754  29.573  1.00  0.00     0.049 A 
ATOM     48  H   UNL A   1      42.577  29.818  28.989  1.00  0.00     0.167 HD
ATOM     49  C   UNL A   1      45.153  30.850  28.370  1.00  0.00     0.074 A 
ATOM     50  C   UNL A   1      46.495  30.961  27.841  1.00  0.00     0.031 C 
ATOM     51  C   UNL A   1      44.526  31.838  29.056  1.00  0.00     0.034 A 
BRANCH  38  52
ATOM     52  C   UNL A   1      38.737  30.474  30.765  1.00  0.00     0.023 A 
ATOM     53  C   UNL A   1      37.721  31.096  30.021  1.00  0.00     0.031 A 
ATOM     54  C   UNL A   1      38.519  30.271  32.140  1.00  0.00     0.131 A 
ATOM     55  C   UNL A   1      36.551  31.531  30.664  1.00  0.00     0.055 A 
ATOM     56  C   UNL A   1      37.324  30.640  32.759  1.00  0.00     0.041 A 
ATOM     57  F   UNL A   1      39.466  29.705  32.905  1.00  0.00    -0.206 F 
ATOM     58  C   UNL A   1      36.335  31.280  32.023  1.00  0.00     0.022 A 
BRANCH  55  59
ATOM     59  S   UNL A   1      35.357  32.519  29.725  1.00  0.00     0.124 S 
ATOM     60  O   UNL A   1      34.404  32.895  30.766  1.00  0.00    -0.237 OA
ATOM     61  O   UNL A   1      36.184  33.597  29.196  1.00  0.00    -0.237 OA
ATOM     62  O   UNL A   1      34.843  31.580  28.729  1.00  0.00    -0.744 OA
ENDBRANCH  55  59
ENDBRANCH  38  52
BRANCH  39  63
ATOM     63  C   UNL A   1      46.956  27.164  26.045  1.00  0.00     0.023 A 
ATOM     64  C   UNL A   1      48.011  26.478  26.669  1.00  0.00     0.031 A 
ATOM     65  C   UNL A   1      47.114  27.513  24.691  1.00  0.00     0.131 A 
ATOM     66  C   UNL A   1      49.203  26.237  25.967  1.00  0.00     0.055 A 
ATOM     67  C   UNL A   1      48.271  27.202  23.975  1.00  0.00     0.041 A 
ATOM     68  F   UNL A   1      46.142  28.175  24.041  1.00  0.00    -0.206 F 
ATOM     69  C   UNL A   1      49.335  26.579  24.621  1.00  0.00     0.022 A 
BRANCH  66  70
ATOM     70  S   UNL A   1      50.635  25.609  26.889  1.00  0.00     0.124 S 
ATOM     71  O   UNL A   1      51.565  25.298  25.809  1.00  0.00    -0.237 OA
ATOM     72  O   UNL A   1      50.981  26.753  27.725  1.00  0.00    -0.237 OA
ATOM     73  O   UNL A   1      50.097  24.453  27.604  1.00  0.00    -0.744 OA
ENDBRANCH  66  70
ENDBRANCH  39  63
BRANCH  51  74
ATOM     74  C   UNL A   1      45.314  33.090  29.356  1.00  0.00     0.023 A 
ATOM     75  C   UNL A   1      45.226  34.242  28.556  1.00  0.00     0.031 A 
ATOM     76  C   UNL A   1      46.151  33.130  30.486  1.00  0.00     0.131 A 
ATOM     77  C   UNL A   1      45.994  35.372  28.875  1.00  0.00     0.055 A 
ATOM     78  C   UNL A   1      46.863  34.278  30.834  1.00  0.00     0.041 A 
ATOM     79  F   UNL A   1      46.274  32.057  31.284  1.00  0.00    -0.206 F 
ATOM     80  C   UNL A   1      46.794  35.404  30.020  1.00  0.00     0.022 A 
BRANCH  77  81
ATOM     81  S   UNL A   1      45.989  36.782  27.735  1.00  0.00     0.124 S 
ATOM     82  O   UNL A   1      44.855  36.470  26.870  1.00  0.00    -0.237 OA
ATOM     83  O   UNL A   1      45.809  37.915  28.638  1.00  0.00    -0.237 OA
ATOM     84  O   UNL A   1      47.300  36.708  27.091  1.00  0.00    -0.744 OA
ENDBRANCH  77  81
ENDBRANCH  51  74
ENDBRANCH  25  26
ENDBRANCH  18  20
ENDBRANCH  17  18
ENDBRANCH  16  17
ENDBRANCH   1  16
TORSDOF 17
ENDMDL
