MODEL 1
REMARK VINA RESULT:     -12.8      0.000      0.000
REMARK SMILES O=C(OCCOC(=O)c1cc(F)ccc1N1CCCc2ccccc21)c1ccc(-c2c3nc(c(-c4cc(S(=O)(=O)[O-])ccc4F)c4ccc([nH]4)c(-c4cc(S(=O)(=O)[O-])ccc4F)c4nc(c(-c5cc(S(=O)(=O)[O-])ccc5F)c5ccc2[nH]5)C=C4)C=C3)cc1
REMARK SMILES IDX 4 1 3 2 2 3 1 4 26 5 27 6 88 7 28 8 87 9 29 10 30 11 31 12
REMARK SMILES IDX 81 13 32 14 86 15 80 16 82 17 33 18 85 19 79 20 78 21 34 23
REMARK SMILES IDX 66 24 46 25 65 26 47 27 50 28 64 29 83 30 48 31 49 32 63 34
REMARK SMILES IDX 84 35 51 36 35 37 36 38 44 39 37 40 43 41 45 42 42 43 38 44
REMARK SMILES IDX 39 45 40 46 41 47 67 48 68 49 76 50 69 51 75 52 77 53 74 54
REMARK SMILES IDX 70 55 71 56 72 57 73 58 52 59 53 60 61 61 54 62 60 63 62 64
REMARK SMILES IDX 59 65 55 66 56 67 57 68 58 69 5 70 6 71 7 72 8 73 9 74 10 75
REMARK SMILES IDX 15 76 11 77 14 78 12 79 13 80 16 81 17 82 25 83 18 84 20 85
REMARK SMILES IDX 24 86 19 87 21 88 23 89 22 90
REMARK H PARENT 82 22 50 33
REMARK Flexibility Score: inf
ROOT
ATOM      1  C   UNL A   1      37.232  21.578  24.570  1.00  0.00     0.275 C 
ENDROOT
BRANCH   1   2
ATOM      2  O   UNL A   1      37.793  21.923  25.834  1.00  0.00    -0.458 OA
BRANCH   2   3
ATOM      3  C   UNL A   1      39.106  21.641  26.010  1.00  0.00     0.338 C 
ATOM      4  O   UNL A   1      39.622  20.556  25.847  1.00  0.00    -0.246 OA
BRANCH   3   5
ATOM      5  C   UNL A   1      39.706  22.841  26.667  1.00  0.00     0.060 A 
ATOM      6  C   UNL A   1      39.108  24.093  26.473  1.00  0.00     0.016 A 
ATOM      7  C   UNL A   1      40.759  22.723  27.579  1.00  0.00     0.016 A 
ATOM      8  C   UNL A   1      39.585  25.200  27.137  1.00  0.00     0.010 A 
ATOM      9  C   UNL A   1      41.148  23.798  28.358  1.00  0.00     0.010 A 
ATOM     10  C   UNL A   1      40.619  25.047  28.059  1.00  0.00    -0.014 A 
BRANCH  10  11
ATOM     11  C   UNL A   1      41.331  26.250  28.482  1.00  0.00     0.031 A 
ATOM     12  C   UNL A   1      42.726  26.422  27.959  1.00  0.00     0.074 A 
ATOM     13  C   UNL A   1      40.655  27.167  29.188  1.00  0.00     0.049 A 
ATOM     14  N   UNL A   1      43.496  27.469  28.016  1.00  0.00    -0.248 NA
ATOM     15  C   UNL A   1      43.344  25.267  27.273  1.00  0.00     0.031 C 
ATOM     16  C   UNL A   1      39.290  26.997  29.700  1.00  0.00     0.029 A 
ATOM     17  N   UNL A   1      40.998  28.430  29.559  1.00  0.00    -0.354 N 
ATOM     18  C   UNL A   1      44.661  27.106  27.352  1.00  0.00     0.074 A 
ATOM     19  C   UNL A   1      44.551  25.720  26.984  1.00  0.00     0.031 C 
ATOM     20  C   UNL A   1      38.903  28.134  30.298  1.00  0.00     0.029 A 
ATOM     21  C   UNL A   1      39.988  29.101  30.206  1.00  0.00     0.049 A 
ATOM     22  H   UNL A   1      41.883  28.825  29.383  1.00  0.00     0.167 HD
ATOM     23  C   UNL A   1      45.707  27.897  27.032  1.00  0.00     0.034 A 
ATOM     24  C   UNL A   1      39.961  30.372  30.643  1.00  0.00     0.034 A 
ATOM     25  C   UNL A   1      45.742  29.280  27.407  1.00  0.00     0.049 A 
ATOM     26  C   UNL A   1      41.160  31.218  30.317  1.00  0.00     0.074 A 
ATOM     27  C   UNL A   1      46.720  30.219  27.161  1.00  0.00     0.029 A 
ATOM     28  N   UNL A   1      44.727  29.915  28.118  1.00  0.00    -0.354 N 
ATOM     29  N   UNL A   1      42.245  30.879  29.653  1.00  0.00    -0.248 NA
ATOM     30  C   UNL A   1      41.136  32.610  30.769  1.00  0.00     0.031 C 
ATOM     31  C   UNL A   1      46.318  31.412  27.769  1.00  0.00     0.029 A 
ATOM     32  C   UNL A   1      45.066  31.231  28.345  1.00  0.00     0.049 A 
ATOM     33  H   UNL A   1      43.891  29.487  28.413  1.00  0.00     0.167 HD
ATOM     34  C   UNL A   1      43.034  32.019  29.599  1.00  0.00     0.074 A 
ATOM     35  C   UNL A   1      42.286  33.061  30.283  1.00  0.00     0.031 C 
ATOM     36  C   UNL A   1      44.260  32.202  29.046  1.00  0.00     0.034 A 
BRANCH  23  37
ATOM     37  C   UNL A   1      46.844  27.280  26.267  1.00  0.00     0.023 A 
ATOM     38  C   UNL A   1      47.919  26.655  26.926  1.00  0.00     0.031 A 
ATOM     39  C   UNL A   1      46.875  27.343  24.865  1.00  0.00     0.131 A 
ATOM     40  C   UNL A   1      48.998  26.150  26.184  1.00  0.00     0.055 A 
ATOM     41  C   UNL A   1      47.923  26.786  24.128  1.00  0.00     0.041 A 
ATOM     42  F   UNL A   1      45.893  27.959  24.188  1.00  0.00    -0.206 F 
ATOM     43  C   UNL A   1      48.994  26.190  24.788  1.00  0.00     0.022 A 
BRANCH  40  44
ATOM     44  S   UNL A   1      50.441  25.495  27.067  1.00  0.00     0.124 S 
ATOM     45  O   UNL A   1      49.882  24.302  27.698  1.00  0.00    -0.237 OA
ATOM     46  O   UNL A   1      51.396  25.257  25.990  1.00  0.00    -0.237 OA
ATOM     47  O   UNL A   1      50.797  26.573  27.987  1.00  0.00    -0.744 OA
ENDBRANCH  40  44
ENDBRANCH  23  37
BRANCH  24  48
ATOM     48  C   UNL A   1      38.772  30.882  31.377  1.00  0.00     0.023 A 
ATOM     49  C   UNL A   1      37.682  31.451  30.702  1.00  0.00     0.031 A 
ATOM     50  C   UNL A   1      38.689  30.758  32.777  1.00  0.00     0.131 A 
ATOM     51  C   UNL A   1      36.561  31.888  31.428  1.00  0.00     0.055 A 
ATOM     52  C   UNL A   1      37.559  31.165  33.491  1.00  0.00     0.041 A 
ATOM     53  F   UNL A   1      39.697  30.205  33.470  1.00  0.00    -0.206 F 
ATOM     54  C   UNL A   1      36.489  31.739  32.816  1.00  0.00     0.022 A 
BRANCH  51  55
ATOM     55  S   UNL A   1      35.198  32.683  30.532  1.00  0.00     0.124 S 
ATOM     56  O   UNL A   1      35.766  33.992  30.226  1.00  0.00    -0.237 OA
ATOM     57  O   UNL A   1      35.014  31.781  29.400  1.00  0.00    -0.237 OA
ATOM     58  O   UNL A   1      34.107  32.689  31.505  1.00  0.00    -0.744 OA
ENDBRANCH  51  55
ENDBRANCH  24  48
BRANCH  36  59
ATOM     59  C   UNL A   1      44.855  33.568  29.185  1.00  0.00     0.023 A 
ATOM     60  C   UNL A   1      44.405  34.619  28.373  1.00  0.00     0.031 A 
ATOM     61  C   UNL A   1      45.797  33.837  30.190  1.00  0.00     0.131 A 
ATOM     62  C   UNL A   1      44.916  35.904  28.569  1.00  0.00     0.055 A 
ATOM     63  C   UNL A   1      46.264  35.129  30.413  1.00  0.00     0.041 A 
ATOM     64  F   UNL A   1      46.237  32.855  30.994  1.00  0.00    -0.206 F 
ATOM     65  C   UNL A   1      45.827  36.170  29.598  1.00  0.00     0.022 A 
BRANCH  62  66
ATOM     66  S   UNL A   1      44.383  37.220  27.447  1.00  0.00     0.124 S 
ATOM     67  O   UNL A   1      43.466  36.506  26.564  1.00  0.00    -0.237 OA
ATOM     68  O   UNL A   1      43.770  38.182  28.357  1.00  0.00    -0.237 OA
ATOM     69  O   UNL A   1      45.629  37.662  26.826  1.00  0.00    -0.744 OA
ENDBRANCH  62  66
ENDBRANCH  36  59
ENDBRANCH  10  11
ENDBRANCH   3   5
ENDBRANCH   2   3
ENDBRANCH   1   2
BRANCH   1  70
ATOM     70  C   UNL A   1      36.744  22.749  23.685  1.00  0.00     0.275 C 
BRANCH  70  71
ATOM     71  O   UNL A   1      35.946  23.741  24.358  1.00  0.00    -0.458 OA
BRANCH  71  72
ATOM     72  C   UNL A   1      34.670  23.934  23.933  1.00  0.00     0.340 C 
ATOM     73  O   UNL A   1      34.327  24.368  22.845  1.00  0.00    -0.246 OA
BRANCH  72  74
ATOM     74  C   UNL A   1      33.748  23.642  25.058  1.00  0.00     0.086 A 
ATOM     75  C   UNL A   1      34.134  22.605  25.930  1.00  0.00     0.057 A 
ATOM     76  C   UNL A   1      32.594  24.414  25.331  1.00  0.00     0.056 A 
ATOM     77  C   UNL A   1      33.366  22.315  27.050  1.00  0.00     0.124 A 
ATOM     78  C   UNL A   1      31.824  24.058  26.462  1.00  0.00     0.030 A 
ATOM     79  F   UNL A   1      33.768  21.360  27.897  1.00  0.00    -0.207 F 
ATOM     80  C   UNL A   1      32.201  23.017  27.314  1.00  0.00     0.041 A 
BRANCH  76  81
ATOM     81  N   UNL A   1      32.179  25.528  24.579  1.00  0.00    -0.341 N 
ATOM     82  C   UNL A   1      31.213  25.352  23.500  1.00  0.00     0.123 C 
ATOM     83  C   UNL A   1      32.368  26.889  24.903  1.00  0.00     0.044 A 
ATOM     84  C   UNL A   1      29.882  25.965  23.906  1.00  0.00     0.027 C 
ATOM     85  C   UNL A   1      31.405  27.864  24.541  1.00  0.00    -0.024 A 
ATOM     86  C   UNL A   1      33.551  27.298  25.526  1.00  0.00     0.026 A 
ATOM     87  C   UNL A   1      30.075  27.474  23.931  1.00  0.00     0.039 C 
ATOM     88  C   UNL A   1      31.697  29.221  24.708  1.00  0.00     0.006 A 
ATOM     89  C   UNL A   1      33.825  28.651  25.700  1.00  0.00     0.002 A 
ATOM     90  C   UNL A   1      32.910  29.610  25.271  1.00  0.00     0.000 A 
ENDBRANCH  76  81
ENDBRANCH  72  74
ENDBRANCH  71  72
ENDBRANCH  70  71
ENDBRANCH   1  70
TORSDOF 15
ENDMDL
MODEL 2
REMARK VINA RESULT:     -12.7      4.533      9.854
REMARK SMILES O=C(OCCOC(=O)c1cc(F)ccc1N1CCCc2ccccc21)c1ccc(-c2c3nc(c(-c4cc(S(=O)(=O)[O-])ccc4F)c4ccc([nH]4)c(-c4cc(S(=O)(=O)[O-])ccc4F)c4nc(c(-c5cc(S(=O)(=O)[O-])ccc5F)c5ccc2[nH]5)C=C4)C=C3)cc1
REMARK SMILES IDX 4 1 3 2 2 3 1 4 26 5 27 6 88 7 28 8 87 9 29 10 30 11 31 12
REMARK SMILES IDX 81 13 32 14 86 15 80 16 82 17 33 18 85 19 79 20 78 21 34 23
REMARK SMILES IDX 66 24 46 25 65 26 47 27 50 28 64 29 83 30 48 31 49 32 63 34
REMARK SMILES IDX 84 35 51 36 35 37 36 38 44 39 37 40 43 41 45 42 42 43 38 44
REMARK SMILES IDX 39 45 40 46 41 47 67 48 68 49 76 50 69 51 75 52 77 53 74 54
REMARK SMILES IDX 70 55 71 56 72 57 73 58 52 59 53 60 61 61 54 62 60 63 62 64
REMARK SMILES IDX 59 65 55 66 56 67 57 68 58 69 5 70 6 71 7 72 8 73 9 74 10 75
REMARK SMILES IDX 15 76 11 77 14 78 12 79 13 80 16 81 17 82 25 83 18 84 20 85
REMARK SMILES IDX 24 86 19 87 21 88 23 89 22 90
REMARK H PARENT 82 22 50 33
REMARK Flexibility Score: inf
ROOT
ATOM      1  C   UNL A   1      32.044  29.829  26.840  1.00  0.00     0.275 C 
ENDROOT
BRANCH   1   2
ATOM      2  O   UNL A   1      33.340  30.389  26.654  1.00  0.00    -0.458 OA
BRANCH   2   3
ATOM      3  C   UNL A   1      33.691  31.393  27.491  1.00  0.00     0.338 C 
ATOM      4  O   UNL A   1      33.087  32.434  27.638  1.00  0.00    -0.246 OA
BRANCH   3   5
ATOM      5  C   UNL A   1      35.063  31.066  27.984  1.00  0.00     0.060 A 
ATOM      6  C   UNL A   1      35.400  29.726  28.215  1.00  0.00     0.016 A 
ATOM      7  C   UNL A   1      36.056  32.045  28.083  1.00  0.00     0.016 A 
ATOM      8  C   UNL A   1      36.682  29.387  28.582  1.00  0.00     0.010 A 
ATOM      9  C   UNL A   1      37.376  31.699  28.307  1.00  0.00     0.010 A 
ATOM     10  C   UNL A   1      37.657  30.381  28.648  1.00  0.00    -0.014 A 
BRANCH  10  11
ATOM     11  C   UNL A   1      38.893  30.070  29.361  1.00  0.00     0.031 A 
ATOM     12  C   UNL A   1      39.028  30.633  30.746  1.00  0.00     0.074 A 
ATOM     13  C   UNL A   1      39.749  29.210  28.794  1.00  0.00     0.049 A 
ATOM     14  N   UNL A   1      39.915  30.357  31.656  1.00  0.00    -0.248 NA
ATOM     15  C   UNL A   1      38.031  31.638  31.173  1.00  0.00     0.031 C 
ATOM     16  C   UNL A   1      39.616  28.660  27.439  1.00  0.00     0.029 A 
ATOM     17  N   UNL A   1      40.867  28.614  29.290  1.00  0.00    -0.354 N 
ATOM     18  C   UNL A   1      39.563  31.126  32.758  1.00  0.00     0.074 A 
ATOM     19  C   UNL A   1      38.448  31.954  32.386  1.00  0.00     0.031 C 
ATOM     20  C   UNL A   1      40.607  27.782  27.224  1.00  0.00     0.029 A 
ATOM     21  C   UNL A   1      41.433  27.711  28.422  1.00  0.00     0.049 A 
ATOM     22  H   UNL A   1      41.236  28.811  30.181  1.00  0.00     0.167 HD
ATOM     23  C   UNL A   1      40.102  31.088  33.995  1.00  0.00     0.034 A 
ATOM     24  C   UNL A   1      42.491  26.903  28.613  1.00  0.00     0.034 A 
ATOM     25  C   UNL A   1      41.198  30.218  34.307  1.00  0.00     0.049 A 
ATOM     26  C   UNL A   1      43.106  26.917  29.985  1.00  0.00     0.074 A 
ATOM     27  C   UNL A   1      41.859  30.054  35.505  1.00  0.00     0.029 A 
ATOM     28  N   UNL A   1      41.790  29.357  33.386  1.00  0.00    -0.354 N 
ATOM     29  N   UNL A   1      42.743  27.620  31.037  1.00  0.00    -0.248 NA
ATOM     30  C   UNL A   1      44.246  26.029  30.212  1.00  0.00     0.031 C 
ATOM     31  C   UNL A   1      42.885  29.128  35.294  1.00  0.00     0.029 A 
ATOM     32  C   UNL A   1      42.829  28.676  33.981  1.00  0.00     0.049 A 
ATOM     33  H   UNL A   1      41.507  29.251  32.449  1.00  0.00     0.167 HD
ATOM     34  C   UNL A   1      43.606  27.253  32.059  1.00  0.00     0.074 A 
ATOM     35  C   UNL A   1      44.496  26.250  31.497  1.00  0.00     0.031 C 
ATOM     36  C   UNL A   1      43.673  27.695  33.341  1.00  0.00     0.034 A 
BRANCH  23  37
ATOM     37  C   UNL A   1      39.518  31.992  35.043  1.00  0.00     0.023 A 
ATOM     38  C   UNL A   1      39.992  33.305  35.228  1.00  0.00     0.031 A 
ATOM     39  C   UNL A   1      38.497  31.533  35.890  1.00  0.00     0.131 A 
ATOM     40  C   UNL A   1      39.471  34.099  36.260  1.00  0.00     0.055 A 
ATOM     41  C   UNL A   1      37.941  32.348  36.879  1.00  0.00     0.041 A 
ATOM     42  F   UNL A   1      38.034  30.278  35.781  1.00  0.00    -0.206 F 
ATOM     43  C   UNL A   1      38.432  33.638  37.071  1.00  0.00     0.022 A 
BRANCH  40  44
ATOM     44  S   UNL A   1      40.211  35.725  36.576  1.00  0.00     0.124 S 
ATOM     45  O   UNL A   1      39.622  36.528  35.509  1.00  0.00    -0.237 OA
ATOM     46  O   UNL A   1      39.754  36.029  37.928  1.00  0.00    -0.237 OA
ATOM     47  O   UNL A   1      41.646  35.478  36.446  1.00  0.00    -0.744 OA
ENDBRANCH  40  44
ENDBRANCH  23  37
BRANCH  24  48
ATOM     48  C   UNL A   1      42.974  26.036  27.505  1.00  0.00     0.023 A 
ATOM     49  C   UNL A   1      42.563  24.700  27.388  1.00  0.00     0.031 A 
ATOM     50  C   UNL A   1      43.825  26.553  26.510  1.00  0.00     0.131 A 
ATOM     51  C   UNL A   1      43.013  23.923  26.307  1.00  0.00     0.055 A 
ATOM     52  C   UNL A   1      44.244  25.786  25.421  1.00  0.00     0.041 A 
ATOM     53  F   UNL A   1      44.236  27.830  26.566  1.00  0.00    -0.206 F 
ATOM     54  C   UNL A   1      43.842  24.460  25.318  1.00  0.00     0.022 A 
BRANCH  51  55
ATOM     55  S   UNL A   1      42.518  22.179  26.223  1.00  0.00     0.124 S 
ATOM     56  O   UNL A   1      41.114  22.285  25.839  1.00  0.00    -0.237 OA
ATOM     57  O   UNL A   1      43.424  21.657  25.205  1.00  0.00    -0.237 OA
ATOM     58  O   UNL A   1      42.758  21.690  27.579  1.00  0.00    -0.744 OA
ENDBRANCH  51  55
ENDBRANCH  24  48
BRANCH  36  59
ATOM     59  C   UNL A   1      44.753  27.106  34.193  1.00  0.00     0.023 A 
ATOM     60  C   UNL A   1      44.505  25.949  34.944  1.00  0.00     0.031 A 
ATOM     61  C   UNL A   1      46.049  27.644  34.174  1.00  0.00     0.131 A 
ATOM     62  C   UNL A   1      45.547  25.368  35.672  1.00  0.00     0.055 A 
ATOM     63  C   UNL A   1      47.094  27.032  34.861  1.00  0.00     0.041 A 
ATOM     64  F   UNL A   1      46.322  28.743  33.452  1.00  0.00    -0.206 F 
ATOM     65  C   UNL A   1      46.844  25.889  35.619  1.00  0.00     0.022 A 
BRANCH  62  66
ATOM     66  S   UNL A   1      45.175  23.929  36.704  1.00  0.00     0.124 S 
ATOM     67  O   UNL A   1      44.459  24.539  37.820  1.00  0.00    -0.237 OA
ATOM     68  O   UNL A   1      44.372  23.098  35.811  1.00  0.00    -0.237 OA
ATOM     69  O   UNL A   1      46.494  23.393  37.028  1.00  0.00    -0.744 OA
ENDBRANCH  62  66
ENDBRANCH  36  59
ENDBRANCH  10  11
ENDBRANCH   3   5
ENDBRANCH   2   3
ENDBRANCH   1   2
BRANCH   1  70
ATOM     70  C   UNL A   1      31.981  28.312  27.139  1.00  0.00     0.275 C 
BRANCH  70  71
ATOM     71  O   UNL A   1      32.561  27.460  26.134  1.00  0.00    -0.458 OA
BRANCH  71  72
ATOM     72  C   UNL A   1      31.913  26.308  25.818  1.00  0.00     0.340 C 
ATOM     73  O   UNL A   1      31.279  25.600  26.582  1.00  0.00    -0.246 OA
BRANCH  72  74
ATOM     74  C   UNL A   1      32.201  25.978  24.400  1.00  0.00     0.086 A 
ATOM     75  C   UNL A   1      32.994  24.835  24.173  1.00  0.00     0.057 A 
ATOM     76  C   UNL A   1      31.638  26.685  23.312  1.00  0.00     0.056 A 
ATOM     77  C   UNL A   1      33.251  24.413  22.876  1.00  0.00     0.124 A 
ATOM     78  C   UNL A   1      31.957  26.241  22.009  1.00  0.00     0.030 A 
ATOM     79  F   UNL A   1      33.966  23.300  22.673  1.00  0.00    -0.207 F 
ATOM     80  C   UNL A   1      32.758  25.117  21.788  1.00  0.00     0.041 A 
BRANCH  76  81
ATOM     81  N   UNL A   1      30.758  27.776  23.436  1.00  0.00    -0.341 N 
ATOM     82  C   UNL A   1      31.266  29.135  23.288  1.00  0.00     0.123 C 
ATOM     83  C   UNL A   1      29.346  27.733  23.418  1.00  0.00     0.044 A 
ATOM     84  C   UNL A   1      30.759  29.726  21.981  1.00  0.00     0.027 C 
ATOM     85  C   UNL A   1      28.593  28.801  22.867  1.00  0.00    -0.024 A 
ATOM     86  C   UNL A   1      28.675  26.662  24.013  1.00  0.00     0.026 A 
ATOM     87  C   UNL A   1      29.263  29.951  22.145  1.00  0.00     0.039 C 
ATOM     88  C   UNL A   1      27.204  28.821  23.024  1.00  0.00     0.006 A 
ATOM     89  C   UNL A   1      27.291  26.687  24.152  1.00  0.00     0.002 A 
ATOM     90  C   UNL A   1      26.560  27.775  23.679  1.00  0.00     0.000 A 
ENDBRANCH  76  81
ENDBRANCH  72  74
ENDBRANCH  71  72
ENDBRANCH  70  71
ENDBRANCH   1  70
TORSDOF 15
ENDMDL
MODEL 3
REMARK VINA RESULT:     -12.7      1.372      1.976
REMARK SMILES O=C(OCCOC(=O)c1cc(F)ccc1N1CCCc2ccccc21)c1ccc(-c2c3nc(c(-c4cc(S(=O)(=O)[O-])ccc4F)c4ccc([nH]4)c(-c4cc(S(=O)(=O)[O-])ccc4F)c4nc(c(-c5cc(S(=O)(=O)[O-])ccc5F)c5ccc2[nH]5)C=C4)C=C3)cc1
REMARK SMILES IDX 4 1 3 2 2 3 1 4 26 5 27 6 88 7 28 8 87 9 29 10 30 11 31 12
REMARK SMILES IDX 81 13 32 14 86 15 80 16 82 17 33 18 85 19 79 20 78 21 34 23
REMARK SMILES IDX 66 24 46 25 65 26 47 27 50 28 64 29 83 30 48 31 49 32 63 34
REMARK SMILES IDX 84 35 51 36 35 37 36 38 44 39 37 40 43 41 45 42 42 43 38 44
REMARK SMILES IDX 39 45 40 46 41 47 67 48 68 49 76 50 69 51 75 52 77 53 74 54
REMARK SMILES IDX 70 55 71 56 72 57 73 58 52 59 53 60 61 61 54 62 60 63 62 64
REMARK SMILES IDX 59 65 55 66 56 67 57 68 58 69 5 70 6 71 7 72 8 73 9 74 10 75
REMARK SMILES IDX 15 76 11 77 14 78 12 79 13 80 16 81 17 82 25 83 18 84 20 85
REMARK SMILES IDX 24 86 19 87 21 88 23 89 22 90
REMARK H PARENT 82 22 50 33
REMARK Flexibility Score: inf
ROOT
ATOM      1  C   UNL A   1      37.571  20.828  24.704  1.00  0.00     0.275 C 
ENDROOT
BRANCH   1   2
ATOM      2  O   UNL A   1      38.200  21.784  25.553  1.00  0.00    -0.458 OA
BRANCH   2   3
ATOM      3  C   UNL A   1      39.410  21.442  26.057  1.00  0.00     0.338 C 
ATOM      4  O   UNL A   1      39.844  20.313  26.142  1.00  0.00    -0.246 OA
BRANCH   3   5
ATOM      5  C   UNL A   1      39.962  22.676  26.692  1.00  0.00     0.060 A 
ATOM      6  C   UNL A   1      39.396  23.917  26.371  1.00  0.00     0.016 A 
ATOM      7  C   UNL A   1      40.931  22.608  27.697  1.00  0.00     0.016 A 
ATOM      8  C   UNL A   1      39.824  25.059  27.008  1.00  0.00     0.010 A 
ATOM      9  C   UNL A   1      41.261  23.726  28.443  1.00  0.00     0.010 A 
ATOM     10  C   UNL A   1      40.772  24.957  28.025  1.00  0.00    -0.014 A 
BRANCH  10  11
ATOM     11  C   UNL A   1      41.456  26.180  28.436  1.00  0.00     0.031 A 
ATOM     12  C   UNL A   1      42.848  26.378  27.913  1.00  0.00     0.074 A 
ATOM     13  C   UNL A   1      40.759  27.089  29.131  1.00  0.00     0.049 A 
ATOM     14  N   UNL A   1      43.594  27.443  27.961  1.00  0.00    -0.248 NA
ATOM     15  C   UNL A   1      43.493  25.230  27.240  1.00  0.00     0.031 C 
ATOM     16  C   UNL A   1      39.398  26.894  29.643  1.00  0.00     0.029 A 
ATOM     17  N   UNL A   1      41.074  28.363  29.490  1.00  0.00    -0.354 N 
ATOM     18  C   UNL A   1      44.769  27.099  27.302  1.00  0.00     0.074 A 
ATOM     19  C   UNL A   1      44.690  25.707  26.948  1.00  0.00     0.031 C 
ATOM     20  C   UNL A   1      38.984  28.028  30.229  1.00  0.00     0.029 A 
ATOM     21  C   UNL A   1      40.047  29.018  30.129  1.00  0.00     0.049 A 
ATOM     22  H   UNL A   1      41.949  28.776  29.311  1.00  0.00     0.167 HD
ATOM     23  C   UNL A   1      45.797  27.909  26.975  1.00  0.00     0.034 A 
ATOM     24  C   UNL A   1      39.991  30.293  30.552  1.00  0.00     0.034 A 
ATOM     25  C   UNL A   1      45.801  29.296  27.336  1.00  0.00     0.049 A 
ATOM     26  C   UNL A   1      41.172  31.162  30.220  1.00  0.00     0.074 A 
ATOM     27  C   UNL A   1      46.758  30.254  27.082  1.00  0.00     0.029 A 
ATOM     28  N   UNL A   1      44.771  29.916  28.039  1.00  0.00    -0.354 N 
ATOM     29  N   UNL A   1      42.266  30.840  29.561  1.00  0.00    -0.248 NA
ATOM     30  C   UNL A   1      41.116  32.558  30.657  1.00  0.00     0.031 C 
ATOM     31  C   UNL A   1      46.328  31.444  27.677  1.00  0.00     0.029 A 
ATOM     32  C   UNL A   1      45.080  31.242  28.253  1.00  0.00     0.049 A 
ATOM     33  H   UNL A   1      43.944  29.473  28.338  1.00  0.00     0.167 HD
ATOM     34  C   UNL A   1      43.029  31.997  29.496  1.00  0.00     0.074 A 
ATOM     35  C   UNL A   1      42.256  33.029  30.168  1.00  0.00     0.031 C 
ATOM     36  C   UNL A   1      44.251  32.202  28.943  1.00  0.00     0.034 A 
BRANCH  23  37
ATOM     37  C   UNL A   1      46.949  27.310  26.218  1.00  0.00     0.023 A 
ATOM     38  C   UNL A   1      48.009  26.666  26.883  1.00  0.00     0.031 A 
ATOM     39  C   UNL A   1      47.009  27.409  24.819  1.00  0.00     0.131 A 
ATOM     40  C   UNL A   1      49.102  26.178  26.151  1.00  0.00     0.055 A 
ATOM     41  C   UNL A   1      48.071  26.869  24.090  1.00  0.00     0.041 A 
ATOM     42  F   UNL A   1      46.042  28.045  24.139  1.00  0.00    -0.206 F 
ATOM     43  C   UNL A   1      49.127  26.254  24.756  1.00  0.00     0.022 A 
BRANCH  40  44
ATOM     44  S   UNL A   1      50.525  25.497  27.046  1.00  0.00     0.124 S 
ATOM     45  O   UNL A   1      51.446  25.201  25.953  1.00  0.00    -0.237 OA
ATOM     46  O   UNL A   1      50.910  26.598  27.922  1.00  0.00    -0.237 OA
ATOM     47  O   UNL A   1      49.973  24.327  27.725  1.00  0.00    -0.744 OA
ENDBRANCH  40  44
ENDBRANCH  23  37
BRANCH  24  48
ATOM     48  C   UNL A   1      38.790  30.784  31.279  1.00  0.00     0.023 A 
ATOM     49  C   UNL A   1      37.720  31.388  30.604  1.00  0.00     0.031 A 
ATOM     50  C   UNL A   1      38.675  30.606  32.671  1.00  0.00     0.131 A 
ATOM     51  C   UNL A   1      36.586  31.805  31.321  1.00  0.00     0.055 A 
ATOM     52  C   UNL A   1      37.533  30.994  33.376  1.00  0.00     0.041 A 
ATOM     53  F   UNL A   1      39.663  30.018  33.364  1.00  0.00    -0.206 F 
ATOM     54  C   UNL A   1      36.482  31.603  32.700  1.00  0.00     0.022 A 
BRANCH  51  55
ATOM     55  S   UNL A   1      35.250  32.646  30.428  1.00  0.00     0.124 S 
ATOM     56  O   UNL A   1      35.864  33.931  30.111  1.00  0.00    -0.237 OA
ATOM     57  O   UNL A   1      35.027  31.746  29.301  1.00  0.00    -0.237 OA
ATOM     58  O   UNL A   1      34.165  32.698  31.405  1.00  0.00    -0.744 OA
ENDBRANCH  51  55
ENDBRANCH  24  48
BRANCH  36  59
ATOM     59  C   UNL A   1      44.816  33.582  29.068  1.00  0.00     0.023 A 
ATOM     60  C   UNL A   1      44.353  34.611  28.236  1.00  0.00     0.031 A 
ATOM     61  C   UNL A   1      45.740  33.885  30.080  1.00  0.00     0.131 A 
ATOM     62  C   UNL A   1      44.834  35.909  28.419  1.00  0.00     0.055 A 
ATOM     63  C   UNL A   1      46.177  35.190  30.290  1.00  0.00     0.041 A 
ATOM     64  F   UNL A   1      46.191  32.925  30.903  1.00  0.00    -0.206 F 
ATOM     65  C   UNL A   1      45.727  36.210  29.454  1.00  0.00     0.022 A 
BRANCH  62  66
ATOM     66  S   UNL A   1      44.287  37.197  27.272  1.00  0.00     0.124 S 
ATOM     67  O   UNL A   1      43.294  36.484  26.474  1.00  0.00    -0.237 OA
ATOM     68  O   UNL A   1      43.765  38.221  28.171  1.00  0.00    -0.237 OA
ATOM     69  O   UNL A   1      45.510  37.563  26.562  1.00  0.00    -0.744 OA
ENDBRANCH  62  66
ENDBRANCH  36  59
ENDBRANCH  10  11
ENDBRANCH   3   5
ENDBRANCH   2   3
ENDBRANCH   1   2
BRANCH   1  70
ATOM     70  C   UNL A   1      36.098  20.479  25.026  1.00  0.00     0.275 C 
BRANCH  70  71
ATOM     71  O   UNL A   1      35.417  21.410  25.887  1.00  0.00    -0.458 OA
BRANCH  71  72
ATOM     72  C   UNL A   1      34.090  21.220  26.114  1.00  0.00     0.340 C 
ATOM     73  O   UNL A   1      33.548  21.120  27.202  1.00  0.00    -0.246 OA
BRANCH  72  74
ATOM     74  C   UNL A   1      33.410  21.031  24.808  1.00  0.00     0.086 A 
ATOM     75  C   UNL A   1      33.105  19.703  24.449  1.00  0.00     0.057 A 
ATOM     76  C   UNL A   1      32.982  22.108  23.997  1.00  0.00     0.056 A 
ATOM     77  C   UNL A   1      32.405  19.442  23.279  1.00  0.00     0.124 A 
ATOM     78  C   UNL A   1      32.305  21.792  22.797  1.00  0.00     0.030 A 
ATOM     79  F   UNL A   1      32.079  18.181  22.971  1.00  0.00    -0.207 F 
ATOM     80  C   UNL A   1      32.020  20.473  22.436  1.00  0.00     0.041 A 
BRANCH  76  81
ATOM     81  N   UNL A   1      33.152  23.468  24.316  1.00  0.00    -0.341 N 
ATOM     82  C   UNL A   1      34.360  24.165  23.890  1.00  0.00     0.123 C 
ATOM     83  C   UNL A   1      32.160  24.361  24.778  1.00  0.00     0.044 A 
ATOM     84  C   UNL A   1      34.013  25.151  22.785  1.00  0.00     0.027 C 
ATOM     85  C   UNL A   1      32.196  25.733  24.424  1.00  0.00    -0.024 A 
ATOM     86  C   UNL A   1      31.170  23.908  25.654  1.00  0.00     0.026 A 
ATOM     87  C   UNL A   1      33.199  26.266  23.423  1.00  0.00     0.039 C 
ATOM     88  C   UNL A   1      31.315  26.629  25.038  1.00  0.00     0.006 A 
ATOM     89  C   UNL A   1      30.290  24.807  26.249  1.00  0.00     0.002 A 
ATOM     90  C   UNL A   1      30.378  26.167  25.958  1.00  0.00     0.000 A 
ENDBRANCH  76  81
ENDBRANCH  72  74
ENDBRANCH  71  72
ENDBRANCH  70  71
ENDBRANCH   1  70
TORSDOF 15
ENDMDL
