MODEL 1
REMARK VINA RESULT:     -10.8      0.000      0.000
REMARK SMILES O=C(CCC(=O)OCCOC(=O)c1ccc(-c2c3nc(c(-c4cc(S(=O)(=O)[O-])ccc4F)c4ccc([nH]4)c(-c4cc(S(=O)(=O)[O-])ccc4F)c4nc(c(-c5cc(S(=O)(=O)[O-])ccc5F)c5ccc2[nH]5)C=C4)C=C3)cc1)Nc1ccc(C(=O)N2CCOCC2)cc1
REMARK SMILES IDX 8 1 7 2 5 3 6 4 4 5 3 6 2 7 1 8 76 9 77 11 78 12 90 13 79 14
REMARK SMILES IDX 89 15 80 16 81 17 82 18 83 19 84 20 88 21 85 22 87 23 86 24
REMARK SMILES IDX 9 25 10 26 11 27 12 28 13 29 14 30 75 31 15 32 74 33 16 34
REMARK SMILES IDX 17 35 18 36 68 37 19 38 73 39 67 40 69 41 20 42 72 43 66 44
REMARK SMILES IDX 65 45 21 47 53 48 33 49 52 50 34 51 37 52 51 53 70 54 35 55
REMARK SMILES IDX 36 56 50 58 71 59 38 60 22 61 23 62 31 63 24 64 30 65 32 66
REMARK SMILES IDX 29 67 25 68 26 69 27 70 28 71 54 72 55 73 63 74 56 75 62 76
REMARK SMILES IDX 64 77 61 78 57 79 58 80 59 81 60 82 39 83 40 84 48 85 41 86
REMARK SMILES IDX 47 87 49 88 46 89 42 90 43 91 44 92 45 93
REMARK H PARENT 76 10 69 46 37 57
REMARK Flexibility Score: inf
ROOT
ATOM      1  C   UNL A   1      33.988  35.886  28.666  1.00  0.00     0.274 C 
ENDROOT
BRANCH   1   2
ATOM      2  O   UNL A   1      33.984  34.464  28.400  1.00  0.00    -0.462 OA
BRANCH   2   3
ATOM      3  C   UNL A   1      35.008  33.723  28.904  1.00  0.00     0.306 C 
ATOM      4  O   UNL A   1      36.128  34.157  29.133  1.00  0.00    -0.252 OA
BRANCH   3   5
ATOM      5  C   UNL A   1      34.621  32.267  29.083  1.00  0.00     0.132 C 
BRANCH   5   6
ATOM      6  C   UNL A   1      35.611  31.248  28.523  1.00  0.00     0.112 C 
BRANCH   6   7
ATOM      7  C   UNL A   1      34.930  30.102  27.803  1.00  0.00     0.224 C 
ATOM      8  O   UNL A   1      35.591  29.194  27.306  1.00  0.00    -0.275 OA
ATOM      9  N   UNL A   1      33.558  30.245  27.718  1.00  0.00    -0.326 N 
ATOM     10  H   UNL A   1      33.153  30.996  28.209  1.00  0.00     0.169 HD
BRANCH   9  11
ATOM     11  C   UNL A   1      32.694  29.414  26.994  1.00  0.00     0.041 A 
ATOM     12  C   UNL A   1      32.499  29.682  25.633  1.00  0.00     0.027 A 
ATOM     13  C   UNL A   1      32.093  28.306  27.571  1.00  0.00     0.027 A 
ATOM     14  C   UNL A   1      31.784  28.783  24.835  1.00  0.00     0.016 A 
ATOM     15  C   UNL A   1      31.379  27.415  26.779  1.00  0.00     0.016 A 
ATOM     16  C   UNL A   1      31.226  27.634  25.406  1.00  0.00     0.040 A 
BRANCH  16  17
ATOM     17  C   UNL A   1      30.698  26.556  24.523  1.00  0.00     0.254 C 
ATOM     18  O   UNL A   1      29.491  26.515  24.296  1.00  0.00    -0.269 OA
ATOM     19  N   UNL A   1      31.607  25.768  23.843  1.00  0.00    -0.334 N 
ATOM     20  C   UNL A   1      32.756  25.076  24.432  1.00  0.00     0.148 C 
ATOM     21  C   UNL A   1      31.394  25.502  22.428  1.00  0.00     0.148 C 
ATOM     22  C   UNL A   1      34.019  25.239  23.568  1.00  0.00     0.181 C 
ATOM     23  C   UNL A   1      32.696  25.811  21.682  1.00  0.00     0.181 C 
ATOM     24  O   UNL A   1      33.761  24.978  22.177  1.00  0.00    -0.378 OA
ENDBRANCH  16  17
ENDBRANCH   9  11
ENDBRANCH   6   7
ENDBRANCH   5   6
ENDBRANCH   3   5
ENDBRANCH   2   3
ENDBRANCH   1   2
BRANCH   1  25
ATOM     25  C   UNL A   1      32.874  36.273  29.643  1.00  0.00     0.275 C 
BRANCH  25  26
ATOM     26  O   UNL A   1      32.670  35.232  30.612  1.00  0.00    -0.458 OA
BRANCH  26  27
ATOM     27  C   UNL A   1      32.812  35.630  31.899  1.00  0.00     0.338 C 
ATOM     28  O   UNL A   1      32.037  36.331  32.523  1.00  0.00    -0.246 OA
BRANCH  27  29
ATOM     29  C   UNL A   1      33.966  34.942  32.501  1.00  0.00     0.060 A 
ATOM     30  C   UNL A   1      35.240  35.490  32.311  1.00  0.00     0.016 A 
ATOM     31  C   UNL A   1      33.806  33.744  33.195  1.00  0.00     0.016 A 
ATOM     32  C   UNL A   1      36.364  34.825  32.791  1.00  0.00     0.010 A 
ATOM     33  C   UNL A   1      34.936  33.080  33.682  1.00  0.00     0.010 A 
ATOM     34  C   UNL A   1      36.222  33.604  33.462  1.00  0.00    -0.014 A 
BRANCH  34  35
ATOM     35  C   UNL A   1      37.432  32.825  33.825  1.00  0.00     0.031 A 
ATOM     36  C   UNL A   1      38.172  33.178  35.087  1.00  0.00     0.074 A 
ATOM     37  C   UNL A   1      37.835  31.793  33.062  1.00  0.00     0.049 A 
ATOM     38  N   UNL A   1      39.286  32.685  35.560  1.00  0.00    -0.248 NA
ATOM     39  C   UNL A   1      37.577  34.233  35.921  1.00  0.00     0.031 C 
ATOM     40  C   UNL A   1      37.163  31.331  31.846  1.00  0.00     0.029 A 
ATOM     41  N   UNL A   1      38.905  30.945  33.196  1.00  0.00    -0.354 N 
ATOM     42  C   UNL A   1      39.528  33.368  36.748  1.00  0.00     0.074 A 
ATOM     43  C   UNL A   1      38.469  34.344  36.894  1.00  0.00     0.031 C 
ATOM     44  C   UNL A   1      37.842  30.286  31.343  1.00  0.00     0.029 A 
ATOM     45  C   UNL A   1      39.020  30.035  32.170  1.00  0.00     0.049 A 
ATOM     46  H   UNL A   1      39.532  30.986  33.953  1.00  0.00     0.167 HD
ATOM     47  C   UNL A   1      40.531  33.185  37.642  1.00  0.00     0.034 A 
ATOM     48  C   UNL A   1      39.979  29.122  31.917  1.00  0.00     0.034 A 
ATOM     49  C   UNL A   1      41.585  32.214  37.475  1.00  0.00     0.049 A 
ATOM     50  C   UNL A   1      41.126  28.989  32.892  1.00  0.00     0.074 A 
ATOM     51  C   UNL A   1      42.676  31.971  38.291  1.00  0.00     0.029 A 
ATOM     52  N   UNL A   1      41.676  31.316  36.417  1.00  0.00    -0.354 N 
ATOM     53  N   UNL A   1      41.360  29.664  33.994  1.00  0.00    -0.248 NA
ATOM     54  C   UNL A   1      42.127  27.955  32.598  1.00  0.00     0.031 C 
ATOM     55  C   UNL A   1      43.452  30.967  37.702  1.00  0.00     0.029 A 
ATOM     56  C   UNL A   1      42.805  30.525  36.560  1.00  0.00     0.049 A 
ATOM     57  H   UNL A   1      41.031  31.250  35.676  1.00  0.00     0.167 HD
ATOM     58  C   UNL A   1      42.511  29.104  34.546  1.00  0.00     0.074 A 
ATOM     59  C   UNL A   1      42.907  28.025  33.666  1.00  0.00     0.031 C 
ATOM     60  C   UNL A   1      43.181  29.445  35.678  1.00  0.00     0.034 A 
BRANCH  47  61
ATOM     61  C   UNL A   1      40.549  34.084  38.855  1.00  0.00     0.023 A 
ATOM     62  C   UNL A   1      39.828  33.764  40.019  1.00  0.00     0.031 A 
ATOM     63  C   UNL A   1      41.278  35.287  38.842  1.00  0.00     0.131 A 
ATOM     64  C   UNL A   1      39.799  34.664  41.095  1.00  0.00     0.055 A 
ATOM     65  C   UNL A   1      41.310  36.140  39.947  1.00  0.00     0.041 A 
ATOM     66  F   UNL A   1      41.964  35.659  37.750  1.00  0.00    -0.206 F 
ATOM     67  C   UNL A   1      40.557  35.837  41.078  1.00  0.00     0.022 A 
BRANCH  64  68
ATOM     68  S   UNL A   1      38.655  34.342  42.465  1.00  0.00     0.124 S 
ATOM     69  O   UNL A   1      37.920  35.604  42.535  1.00  0.00    -0.237 OA
ATOM     70  O   UNL A   1      37.902  33.190  41.986  1.00  0.00    -0.237 OA
ATOM     71  O   UNL A   1      39.541  34.082  43.597  1.00  0.00    -0.744 OA
ENDBRANCH  64  68
ENDBRANCH  47  61
BRANCH  48  72
ATOM     72  C   UNL A   1      39.937  28.290  30.677  1.00  0.00     0.023 A 
ATOM     73  C   UNL A   1      40.675  28.644  29.536  1.00  0.00     0.031 A 
ATOM     74  C   UNL A   1      39.084  27.176  30.586  1.00  0.00     0.131 A 
ATOM     75  C   UNL A   1      40.490  27.939  28.336  1.00  0.00     0.055 A 
ATOM     76  C   UNL A   1      38.956  26.436  29.410  1.00  0.00     0.041 A 
ATOM     77  F   UNL A   1      38.351  26.792  31.644  1.00  0.00    -0.206 F 
ATOM     78  C   UNL A   1      39.646  26.829  28.269  1.00  0.00     0.022 A 
BRANCH  75  79
ATOM     79  S   UNL A   1      41.265  28.582  26.826  1.00  0.00     0.124 S 
ATOM     80  O   UNL A   1      40.145  29.260  26.183  1.00  0.00    -0.237 OA
ATOM     81  O   UNL A   1      42.312  29.442  27.367  1.00  0.00    -0.237 OA
ATOM     82  O   UNL A   1      41.739  27.376  26.148  1.00  0.00    -0.744 OA
ENDBRANCH  75  79
ENDBRANCH  48  72
BRANCH  60  83
ATOM     83  C   UNL A   1      44.363  28.586  36.060  1.00  0.00     0.023 A 
ATOM     84  C   UNL A   1      44.262  27.560  37.017  1.00  0.00     0.031 A 
ATOM     85  C   UNL A   1      45.623  28.827  35.484  1.00  0.00     0.131 A 
ATOM     86  C   UNL A   1      45.414  26.872  37.428  1.00  0.00     0.055 A 
ATOM     87  C   UNL A   1      46.751  28.090  35.843  1.00  0.00     0.041 A 
ATOM     88  F   UNL A   1      45.780  29.793  34.563  1.00  0.00    -0.206 F 
ATOM     89  C   UNL A   1      46.654  27.119  36.835  1.00  0.00     0.022 A 
BRANCH  86  90
ATOM     90  S   UNL A   1      45.293  25.742  38.843  1.00  0.00     0.124 S 
ATOM     91  O   UNL A   1      44.250  26.373  39.646  1.00  0.00    -0.237 OA
ATOM     92  O   UNL A   1      44.930  24.482  38.203  1.00  0.00    -0.237 OA
ATOM     93  O   UNL A   1      46.632  25.779  39.426  1.00  0.00    -0.744 OA
ENDBRANCH  86  90
ENDBRANCH  60  83
ENDBRANCH  34  35
ENDBRANCH  27  29
ENDBRANCH  26  27
ENDBRANCH  25  26
ENDBRANCH   1  25
TORSDOF 18
ENDMDL
MODEL 2
REMARK VINA RESULT:     -10.6      5.768      8.091
REMARK SMILES O=C(CCC(=O)OCCOC(=O)c1ccc(-c2c3nc(c(-c4cc(S(=O)(=O)[O-])ccc4F)c4ccc([nH]4)c(-c4cc(S(=O)(=O)[O-])ccc4F)c4nc(c(-c5cc(S(=O)(=O)[O-])ccc5F)c5ccc2[nH]5)C=C4)C=C3)cc1)Nc1ccc(C(=O)N2CCOCC2)cc1
REMARK SMILES IDX 8 1 7 2 5 3 6 4 4 5 3 6 2 7 1 8 76 9 77 11 78 12 90 13 79 14
REMARK SMILES IDX 89 15 80 16 81 17 82 18 83 19 84 20 88 21 85 22 87 23 86 24
REMARK SMILES IDX 9 25 10 26 11 27 12 28 13 29 14 30 75 31 15 32 74 33 16 34
REMARK SMILES IDX 17 35 18 36 68 37 19 38 73 39 67 40 69 41 20 42 72 43 66 44
REMARK SMILES IDX 65 45 21 47 53 48 33 49 52 50 34 51 37 52 51 53 70 54 35 55
REMARK SMILES IDX 36 56 50 58 71 59 38 60 22 61 23 62 31 63 24 64 30 65 32 66
REMARK SMILES IDX 29 67 25 68 26 69 27 70 28 71 54 72 55 73 63 74 56 75 62 76
REMARK SMILES IDX 64 77 61 78 57 79 58 80 59 81 60 82 39 83 40 84 48 85 41 86
REMARK SMILES IDX 47 87 49 88 46 89 42 90 43 91 44 92 45 93
REMARK H PARENT 76 10 69 46 37 57
REMARK Flexibility Score: inf
ROOT
ATOM      1  C   UNL A   1      33.919  35.190  31.080  1.00  0.00     0.274 C 
ENDROOT
BRANCH   1   2
ATOM      2  O   UNL A   1      33.354  34.317  30.076  1.00  0.00    -0.462 OA
BRANCH   2   3
ATOM      3  C   UNL A   1      34.090  34.082  28.955  1.00  0.00     0.306 C 
ATOM      4  O   UNL A   1      34.852  34.891  28.446  1.00  0.00    -0.252 OA
BRANCH   3   5
ATOM      5  C   UNL A   1      33.799  32.716  28.361  1.00  0.00     0.132 C 
BRANCH   5   6
ATOM      6  C   UNL A   1      35.004  31.976  27.787  1.00  0.00     0.112 C 
BRANCH   6   7
ATOM      7  C   UNL A   1      34.740  30.500  27.572  1.00  0.00     0.224 C 
ATOM      8  O   UNL A   1      35.610  29.666  27.810  1.00  0.00    -0.275 OA
ATOM      9  N   UNL A   1      33.495  30.238  27.032  1.00  0.00    -0.326 N 
ATOM     10  H   UNL A   1      32.876  30.998  26.941  1.00  0.00     0.169 HD
BRANCH   9  11
ATOM     11  C   UNL A   1      33.038  28.986  26.603  1.00  0.00     0.041 A 
ATOM     12  C   UNL A   1      32.089  28.320  27.390  1.00  0.00     0.027 A 
ATOM     13  C   UNL A   1      33.445  28.433  25.399  1.00  0.00     0.027 A 
ATOM     14  C   UNL A   1      31.479  27.153  26.918  1.00  0.00     0.016 A 
ATOM     15  C   UNL A   1      32.842  27.271  24.933  1.00  0.00     0.016 A 
ATOM     16  C   UNL A   1      31.848  26.625  25.676  1.00  0.00     0.040 A 
BRANCH  16  17
ATOM     17  C   UNL A   1      31.025  25.547  25.061  1.00  0.00     0.254 C 
ATOM     18  O   UNL A   1      30.251  25.838  24.151  1.00  0.00    -0.269 OA
ATOM     19  N   UNL A   1      31.307  24.238  25.403  1.00  0.00    -0.334 N 
ATOM     20  C   UNL A   1      31.438  23.713  26.765  1.00  0.00     0.148 C 
ATOM     21  C   UNL A   1      31.403  23.236  24.351  1.00  0.00     0.148 C 
ATOM     22  C   UNL A   1      32.656  22.783  26.897  1.00  0.00     0.181 C 
ATOM     23  C   UNL A   1      32.710  22.463  24.546  1.00  0.00     0.181 C 
ATOM     24  O   UNL A   1      32.719  21.817  25.833  1.00  0.00    -0.378 OA
ENDBRANCH  16  17
ENDBRANCH   9  11
ENDBRANCH   6   7
ENDBRANCH   5   6
ENDBRANCH   3   5
ENDBRANCH   2   3
ENDBRANCH   1   2
BRANCH   1  25
ATOM     25  C   UNL A   1      34.445  34.395  32.279  1.00  0.00     0.275 C 
BRANCH  25  26
ATOM     26  O   UNL A   1      34.876  33.089  31.865  1.00  0.00    -0.458 OA
BRANCH  26  27
ATOM     27  C   UNL A   1      35.758  32.497  32.707  1.00  0.00     0.338 C 
ATOM     28  O   UNL A   1      35.660  32.431  33.918  1.00  0.00    -0.246 OA
BRANCH  27  29
ATOM     29  C   UNL A   1      36.780  31.784  31.925  1.00  0.00     0.060 A 
ATOM     30  C   UNL A   1      37.639  30.907  32.596  1.00  0.00     0.016 A 
ATOM     31  C   UNL A   1      36.932  32.017  30.559  1.00  0.00     0.016 A 
ATOM     32  C   UNL A   1      38.673  30.279  31.909  1.00  0.00     0.010 A 
ATOM     33  C   UNL A   1      37.967  31.381  29.868  1.00  0.00     0.010 A 
ATOM     34  C   UNL A   1      38.858  30.528  30.543  1.00  0.00    -0.014 A 
BRANCH  34  35
ATOM     35  C   UNL A   1      40.055  29.982  29.858  1.00  0.00     0.031 A 
ATOM     36  C   UNL A   1      41.287  30.840  29.751  1.00  0.00     0.074 A 
ATOM     37  C   UNL A   1      40.054  28.725  29.377  1.00  0.00     0.049 A 
ATOM     38  N   UNL A   1      42.415  30.600  29.137  1.00  0.00    -0.248 NA
ATOM     39  C   UNL A   1      41.234  32.147  30.425  1.00  0.00     0.031 C 
ATOM     40  C   UNL A   1      38.933  27.789  29.470  1.00  0.00     0.029 A 
ATOM     41  N   UNL A   1      41.026  28.019  28.716  1.00  0.00    -0.354 N 
ATOM     42  C   UNL A   1      43.208  31.723  29.348  1.00  0.00     0.074 A 
ATOM     43  C   UNL A   1      42.410  32.664  30.105  1.00  0.00     0.031 C 
ATOM     44  C   UNL A   1      39.282  26.632  28.882  1.00  0.00     0.029 A 
ATOM     45  C   UNL A   1      40.628  26.760  28.329  1.00  0.00     0.049 A 
ATOM     46  H   UNL A   1      41.924  28.380  28.534  1.00  0.00     0.167 HD
ATOM     47  C   UNL A   1      44.489  31.941  28.960  1.00  0.00     0.034 A 
ATOM     48  C   UNL A   1      41.267  25.830  27.592  1.00  0.00     0.034 A 
ATOM     49  C   UNL A   1      45.266  30.994  28.197  1.00  0.00     0.049 A 
ATOM     50  C   UNL A   1      42.669  26.128  27.109  1.00  0.00     0.074 A 
ATOM     51  C   UNL A   1      46.556  31.126  27.710  1.00  0.00     0.029 A 
ATOM     52  N   UNL A   1      44.826  29.733  27.812  1.00  0.00    -0.354 N 
ATOM     53  N   UNL A   1      43.395  27.208  27.288  1.00  0.00    -0.248 NA
ATOM     54  C   UNL A   1      43.343  25.072  26.344  1.00  0.00     0.031 C 
ATOM     55  C   UNL A   1      46.874  29.970  26.989  1.00  0.00     0.029 A 
ATOM     56  C   UNL A   1      45.816  29.082  27.092  1.00  0.00     0.049 A 
ATOM     57  H   UNL A   1      43.941  29.357  28.022  1.00  0.00     0.167 HD
ATOM     58  C   UNL A   1      44.627  26.940  26.694  1.00  0.00     0.074 A 
ATOM     59  C   UNL A   1      44.549  25.591  26.174  1.00  0.00     0.031 C 
ATOM     60  C   UNL A   1      45.726  27.732  26.589  1.00  0.00     0.034 A 
BRANCH  47  61
ATOM     61  C   UNL A   1      45.106  33.269  29.326  1.00  0.00     0.023 A 
ATOM     62  C   UNL A   1      44.974  34.396  28.496  1.00  0.00     0.031 A 
ATOM     63  C   UNL A   1      45.854  33.408  30.509  1.00  0.00     0.131 A 
ATOM     64  C   UNL A   1      45.633  35.590  28.825  1.00  0.00     0.055 A 
ATOM     65  C   UNL A   1      46.440  34.622  30.872  1.00  0.00     0.041 A 
ATOM     66  F   UNL A   1      46.037  32.360  31.328  1.00  0.00    -0.206 F 
ATOM     67  C   UNL A   1      46.342  35.720  30.021  1.00  0.00     0.022 A 
BRANCH  64  68
ATOM     68  S   UNL A   1      45.656  36.934  27.606  1.00  0.00     0.124 S 
ATOM     69  O   UNL A   1      45.729  38.110  28.470  1.00  0.00    -0.237 OA
ATOM     70  O   UNL A   1      46.853  36.636  26.829  1.00  0.00    -0.237 OA
ATOM     71  O   UNL A   1      44.391  36.771  26.893  1.00  0.00    -0.744 OA
ENDBRANCH  64  68
ENDBRANCH  47  61
BRANCH  48  72
ATOM     72  C   UNL A   1      40.593  24.551  27.219  1.00  0.00     0.023 A 
ATOM     73  C   UNL A   1      39.428  24.542  26.436  1.00  0.00     0.031 A 
ATOM     74  C   UNL A   1      41.056  23.320  27.719  1.00  0.00     0.131 A 
ATOM     75  C   UNL A   1      38.725  23.342  26.239  1.00  0.00     0.055 A 
ATOM     76  C   UNL A   1      40.391  22.120  27.462  1.00  0.00     0.041 A 
ATOM     77  F   UNL A   1      42.164  23.268  28.476  1.00  0.00    -0.206 F 
ATOM     78  C   UNL A   1      39.206  22.129  26.736  1.00  0.00     0.022 A 
BRANCH  75  79
ATOM     79  S   UNL A   1      37.097  23.413  25.441  1.00  0.00     0.124 S 
ATOM     80  O   UNL A   1      36.478  22.184  25.920  1.00  0.00    -0.237 OA
ATOM     81  O   UNL A   1      36.553  24.657  25.975  1.00  0.00    -0.237 OA
ATOM     82  O   UNL A   1      37.419  23.436  24.015  1.00  0.00    -0.744 OA
ENDBRANCH  75  79
ENDBRANCH  48  72
BRANCH  60  83
ATOM     83  C   UNL A   1      46.953  27.121  25.953  1.00  0.00     0.023 A 
ATOM     84  C   UNL A   1      47.921  26.435  26.707  1.00  0.00     0.031 A 
ATOM     85  C   UNL A   1      47.174  27.265  24.572  1.00  0.00     0.131 A 
ATOM     86  C   UNL A   1      49.102  25.993  26.092  1.00  0.00     0.055 A 
ATOM     87  C   UNL A   1      48.317  26.759  23.952  1.00  0.00     0.041 A 
ATOM     88  F   UNL A   1      46.284  27.910  23.800  1.00  0.00    -0.206 F 
ATOM     89  C   UNL A   1      49.298  26.136  24.717  1.00  0.00     0.022 A 
BRANCH  86  90
ATOM     90  S   UNL A   1      50.438  25.347  27.137  1.00  0.00     0.124 S 
ATOM     91  O   UNL A   1      49.790  24.213  27.791  1.00  0.00    -0.237 OA
ATOM     92  O   UNL A   1      51.466  25.015  26.156  1.00  0.00    -0.237 OA
ATOM     93  O   UNL A   1      50.758  26.470  28.016  1.00  0.00    -0.744 OA
ENDBRANCH  86  90
ENDBRANCH  60  83
ENDBRANCH  34  35
ENDBRANCH  27  29
ENDBRANCH  26  27
ENDBRANCH  25  26
ENDBRANCH   1  25
TORSDOF 18
ENDMDL
MODEL 3
REMARK VINA RESULT:     -10.4      1.333      1.639
REMARK SMILES O=C(CCC(=O)OCCOC(=O)c1ccc(-c2c3nc(c(-c4cc(S(=O)(=O)[O-])ccc4F)c4ccc([nH]4)c(-c4cc(S(=O)(=O)[O-])ccc4F)c4nc(c(-c5cc(S(=O)(=O)[O-])ccc5F)c5ccc2[nH]5)C=C4)C=C3)cc1)Nc1ccc(C(=O)N2CCOCC2)cc1
REMARK SMILES IDX 8 1 7 2 5 3 6 4 4 5 3 6 2 7 1 8 76 9 77 11 78 12 90 13 79 14
REMARK SMILES IDX 89 15 80 16 81 17 82 18 83 19 84 20 88 21 85 22 87 23 86 24
REMARK SMILES IDX 9 25 10 26 11 27 12 28 13 29 14 30 75 31 15 32 74 33 16 34
REMARK SMILES IDX 17 35 18 36 68 37 19 38 73 39 67 40 69 41 20 42 72 43 66 44
REMARK SMILES IDX 65 45 21 47 53 48 33 49 52 50 34 51 37 52 51 53 70 54 35 55
REMARK SMILES IDX 36 56 50 58 71 59 38 60 22 61 23 62 31 63 24 64 30 65 32 66
REMARK SMILES IDX 29 67 25 68 26 69 27 70 28 71 54 72 55 73 63 74 56 75 62 76
REMARK SMILES IDX 64 77 61 78 57 79 58 80 59 81 60 82 39 83 40 84 48 85 41 86
REMARK SMILES IDX 47 87 49 88 46 89 42 90 43 91 44 92 45 93
REMARK H PARENT 76 10 69 46 37 57
REMARK Flexibility Score: inf
ROOT
ATOM      1  C   UNL A   1      34.107  35.676  28.699  1.00  0.00     0.274 C 
ENDROOT
BRANCH   1   2
ATOM      2  O   UNL A   1      34.211  34.240  28.562  1.00  0.00    -0.462 OA
BRANCH   2   3
ATOM      3  C   UNL A   1      35.432  33.672  28.760  1.00  0.00     0.306 C 
ATOM      4  O   UNL A   1      36.301  34.136  29.484  1.00  0.00    -0.252 OA
BRANCH   3   5
ATOM      5  C   UNL A   1      35.622  32.425  27.916  1.00  0.00     0.132 C 
BRANCH   5   6
ATOM      6  C   UNL A   1      35.454  31.098  28.653  1.00  0.00     0.112 C 
BRANCH   6   7
ATOM      7  C   UNL A   1      34.802  30.031  27.798  1.00  0.00     0.224 C 
ATOM      8  O   UNL A   1      35.486  29.237  27.157  1.00  0.00    -0.275 OA
ATOM      9  N   UNL A   1      33.422  30.112  27.776  1.00  0.00    -0.326 N 
ATOM     10  H   UNL A   1      33.001  30.764  28.381  1.00  0.00     0.169 HD
BRANCH   9  11
ATOM     11  C   UNL A   1      32.572  29.347  26.968  1.00  0.00     0.041 A 
ATOM     12  C   UNL A   1      32.280  29.815  25.681  1.00  0.00     0.027 A 
ATOM     13  C   UNL A   1      32.080  28.119  27.383  1.00  0.00     0.027 A 
ATOM     14  C   UNL A   1      31.578  29.005  24.781  1.00  0.00     0.016 A 
ATOM     15  C   UNL A   1      31.379  27.317  26.491  1.00  0.00     0.016 A 
ATOM     16  C   UNL A   1      31.131  27.742  25.182  1.00  0.00     0.040 A 
BRANCH  16  17
ATOM     17  C   UNL A   1      30.622  26.784  24.160  1.00  0.00     0.254 C 
ATOM     18  O   UNL A   1      29.456  26.885  23.783  1.00  0.00    -0.269 OA
ATOM     19  N   UNL A   1      31.532  25.951  23.538  1.00  0.00    -0.334 N 
ATOM     20  C   UNL A   1      32.523  25.105  24.210  1.00  0.00     0.148 C 
ATOM     21  C   UNL A   1      31.481  25.800  22.092  1.00  0.00     0.148 C 
ATOM     22  C   UNL A   1      33.897  25.191  23.524  1.00  0.00     0.181 C 
ATOM     23  C   UNL A   1      32.893  26.017  21.538  1.00  0.00     0.181 C 
ATOM     24  O   UNL A   1      33.800  25.048  22.096  1.00  0.00    -0.378 OA
ENDBRANCH  16  17
ENDBRANCH   9  11
ENDBRANCH   6   7
ENDBRANCH   5   6
ENDBRANCH   3   5
ENDBRANCH   2   3
ENDBRANCH   1   2
BRANCH   1  25
ATOM     25  C   UNL A   1      32.875  36.070  29.519  1.00  0.00     0.275 C 
BRANCH  25  26
ATOM     26  O   UNL A   1      32.663  35.135  30.588  1.00  0.00    -0.458 OA
BRANCH  26  27
ATOM     27  C   UNL A   1      32.863  35.646  31.827  1.00  0.00     0.338 C 
ATOM     28  O   UNL A   1      32.145  36.447  32.397  1.00  0.00    -0.246 OA
BRANCH  27  29
ATOM     29  C   UNL A   1      33.995  34.955  32.467  1.00  0.00     0.060 A 
ATOM     30  C   UNL A   1      35.257  35.557  32.413  1.00  0.00     0.016 A 
ATOM     31  C   UNL A   1      33.830  33.704  33.060  1.00  0.00     0.016 A 
ATOM     32  C   UNL A   1      36.367  34.897  32.930  1.00  0.00     0.010 A 
ATOM     33  C   UNL A   1      34.945  33.045  33.585  1.00  0.00     0.010 A 
ATOM     34  C   UNL A   1      36.223  33.626  33.501  1.00  0.00    -0.014 A 
BRANCH  34  35
ATOM     35  C   UNL A   1      37.432  32.864  33.902  1.00  0.00     0.031 A 
ATOM     36  C   UNL A   1      38.126  33.224  35.187  1.00  0.00     0.074 A 
ATOM     37  C   UNL A   1      37.873  31.839  33.149  1.00  0.00     0.049 A 
ATOM     38  N   UNL A   1      39.232  32.745  35.695  1.00  0.00    -0.248 NA
ATOM     39  C   UNL A   1      37.490  34.268  36.004  1.00  0.00     0.031 C 
ATOM     40  C   UNL A   1      37.248  31.371  31.912  1.00  0.00     0.029 A 
ATOM     41  N   UNL A   1      38.951  31.007  33.315  1.00  0.00    -0.354 N 
ATOM     42  C   UNL A   1      39.426  33.429  36.891  1.00  0.00     0.074 A 
ATOM     43  C   UNL A   1      38.349  34.389  37.005  1.00  0.00     0.031 C 
ATOM     44  C   UNL A   1      37.957  30.337  31.428  1.00  0.00     0.029 A 
ATOM     45  C   UNL A   1      39.111  30.100  32.292  1.00  0.00     0.049 A 
ATOM     46  H   UNL A   1      39.553  31.054  34.092  1.00  0.00     0.167 HD
ATOM     47  C   UNL A   1      40.402  33.257  37.816  1.00  0.00     0.034 A 
ATOM     48  C   UNL A   1      40.090  29.202  32.067  1.00  0.00     0.034 A 
ATOM     49  C   UNL A   1      41.474  32.301  37.680  1.00  0.00     0.049 A 
ATOM     50  C   UNL A   1      41.209  29.083  33.078  1.00  0.00     0.074 A 
ATOM     51  C   UNL A   1      42.543  32.072  38.531  1.00  0.00     0.029 A 
ATOM     52  N   UNL A   1      41.612  31.408  36.624  1.00  0.00    -0.354 N 
ATOM     53  N   UNL A   1      41.397  29.758  34.189  1.00  0.00    -0.248 NA
ATOM     54  C   UNL A   1      42.233  28.064  32.814  1.00  0.00     0.031 C 
ATOM     55  C   UNL A   1      43.351  31.081  37.965  1.00  0.00     0.029 A 
ATOM     56  C   UNL A   1      42.747  30.632  36.801  1.00  0.00     0.049 A 
ATOM     57  H   UNL A   1      40.992  31.335  35.863  1.00  0.00     0.167 HD
ATOM     58  C   UNL A   1      42.538  29.213  34.776  1.00  0.00     0.074 A 
ATOM     59  C   UNL A   1      42.977  28.142  33.906  1.00  0.00     0.031 C 
ATOM     60  C   UNL A   1      43.166  29.561  35.929  1.00  0.00     0.034 A 
BRANCH  47  61
ATOM     61  C   UNL A   1      40.369  34.153  39.031  1.00  0.00     0.023 A 
ATOM     62  C   UNL A   1      39.541  33.870  40.131  1.00  0.00     0.031 A 
ATOM     63  C   UNL A   1      41.157  35.316  39.083  1.00  0.00     0.131 A 
ATOM     64  C   UNL A   1      39.471  34.769  41.206  1.00  0.00     0.055 A 
ATOM     65  C   UNL A   1      41.144  36.166  40.191  1.00  0.00     0.041 A 
ATOM     66  F   UNL A   1      41.948  35.653  38.052  1.00  0.00    -0.206 F 
ATOM     67  C   UNL A   1      40.288  35.901  41.256  1.00  0.00     0.022 A 
BRANCH  64  68
ATOM     68  S   UNL A   1      38.205  34.506  42.478  1.00  0.00     0.124 S 
ATOM     69  O   UNL A   1      38.486  33.133  42.891  1.00  0.00    -0.237 OA
ATOM     70  O   UNL A   1      38.515  35.544  43.453  1.00  0.00    -0.237 OA
ATOM     71  O   UNL A   1      36.949  34.686  41.753  1.00  0.00    -0.744 OA
ENDBRANCH  64  68
ENDBRANCH  47  61
BRANCH  48  72
ATOM     72  C   UNL A   1      40.100  28.373  30.825  1.00  0.00     0.023 A 
ATOM     73  C   UNL A   1      40.943  28.686  29.746  1.00  0.00     0.031 A 
ATOM     74  C   UNL A   1      39.197  27.307  30.663  1.00  0.00     0.131 A 
ATOM     75  C   UNL A   1      40.814  27.992  28.532  1.00  0.00     0.055 A 
ATOM     76  C   UNL A   1      39.122  26.574  29.478  1.00  0.00     0.041 A 
ATOM     77  F   UNL A   1      38.366  26.963  31.661  1.00  0.00    -0.206 F 
ATOM     78  C   UNL A   1      39.918  26.929  28.396  1.00  0.00     0.022 A 
BRANCH  75  79
ATOM     79  S   UNL A   1      41.737  28.591  27.089  1.00  0.00     0.124 S 
ATOM     80  O   UNL A   1      42.490  27.403  26.706  1.00  0.00    -0.237 OA
ATOM     81  O   UNL A   1      40.662  28.990  26.187  1.00  0.00    -0.237 OA
ATOM     82  O   UNL A   1      42.536  29.690  27.630  1.00  0.00    -0.744 OA
ENDBRANCH  75  79
ENDBRANCH  48  72
BRANCH  60  83
ATOM     83  C   UNL A   1      44.348  28.717  36.347  1.00  0.00     0.023 A 
ATOM     84  C   UNL A   1      45.670  29.071  36.023  1.00  0.00     0.031 A 
ATOM     85  C   UNL A   1      44.141  27.515  37.046  1.00  0.00     0.131 A 
ATOM     86  C   UNL A   1      46.722  28.193  36.325  1.00  0.00     0.055 A 
ATOM     87  C   UNL A   1      45.199  26.682  37.409  1.00  0.00     0.041 A 
ATOM     88  F   UNL A   1      42.900  27.125  37.384  1.00  0.00    -0.206 F 
ATOM     89  C   UNL A   1      46.497  27.009  37.030  1.00  0.00     0.022 A 
BRANCH  86  90
ATOM     90  S   UNL A   1      48.374  28.557  35.666  1.00  0.00     0.124 S 
ATOM     91  O   UNL A   1      48.870  27.224  35.339  1.00  0.00    -0.237 OA
ATOM     92  O   UNL A   1      48.071  29.420  34.529  1.00  0.00    -0.237 OA
ATOM     93  O   UNL A   1      49.050  29.215  36.781  1.00  0.00    -0.744 OA
ENDBRANCH  86  90
ENDBRANCH  60  83
ENDBRANCH  34  35
ENDBRANCH  27  29
ENDBRANCH  26  27
ENDBRANCH  25  26
ENDBRANCH   1  25
TORSDOF 18
ENDMDL
