MODEL 1
REMARK VINA RESULT:     -11.6      0.000      0.000
REMARK SMILES CCOc1cc(OCC)cc(-c2ccc([C@@H](C)C(=O)OCCOC(=O)c3ccc(-c4c5nc(c(-c6cc(S(=O)(=O)[O-])ccc6F)c6ccc([nH]6)c(-c6cc(S(=O)(=O)[O-])ccc6F)c6nc(c(-c7cc(S(=O)(=O)[O-])ccc7F)c7ccc4[nH]7)C=C6)C=C5)cc3)cc2F)c1
REMARK SMILES IDX 21 1 20 2 18 3 19 4 16 5 17 6 15 7 12 8 13 9 90 10 14 11
REMARK SMILES IDX 89 12 91 13 11 14 4 15 5 16 92 17 6 18 10 19 3 20 2 21 1 22
REMARK SMILES IDX 7 23 8 24 9 25 22 26 23 27 24 28 25 29 26 30 27 31 88 32
REMARK SMILES IDX 28 33 87 34 29 35 30 36 31 37 81 38 32 39 86 40 80 41 82 42
REMARK SMILES IDX 33 43 85 44 79 45 78 46 34 48 66 49 46 50 65 51 47 52 50 53
REMARK SMILES IDX 64 54 83 55 48 56 49 57 63 59 84 60 51 61 35 62 36 63 44 64
REMARK SMILES IDX 37 65 43 66 45 67 42 68 38 69 39 70 40 71 41 72 67 73 68 74
REMARK SMILES IDX 76 75 69 76 75 77 77 78 74 79 70 80 71 81 72 82 73 83 52 84
REMARK SMILES IDX 53 85 61 86 54 87 60 88 62 89 59 90 55 91 56 92 57 93 58 94
REMARK H PARENT 82 47 50 58
REMARK Flexibility Score: inf
ROOT
ATOM      1  C   UNL A   1      31.466  29.405  24.602  1.00  0.00     0.274 C 
ENDROOT
BRANCH   1   2
ATOM      2  O   UNL A   1      30.231  29.666  23.910  1.00  0.00    -0.462 OA
BRANCH   2   3
ATOM      3  C   UNL A   1      30.081  29.109  22.679  1.00  0.00     0.313 C 
ATOM      4  O   UNL A   1      30.425  29.651  21.634  1.00  0.00    -0.252 OA
BRANCH   3   5
ATOM      5  C   UNL A   1      29.388  27.751  22.703  1.00  0.00     0.126 C 
ATOM      6  C   UNL A   1      28.092  27.842  23.506  1.00  0.00     0.025 C 
BRANCH   5   7
ATOM      7  C   UNL A   1      30.248  26.577  23.142  1.00  0.00    -0.031 A 
ATOM      8  C   UNL A   1      31.857  24.366  23.920  1.00  0.00     0.018 A 
ATOM      9  C   UNL A   1      30.775  24.795  24.707  1.00  0.00     0.012 A 
ATOM     10  C   UNL A   1      32.130  25.086  22.752  1.00  0.00     0.131 A 
ATOM     11  C   UNL A   1      29.976  25.871  24.320  1.00  0.00     0.005 A 
ATOM     12  C   UNL A   1      31.343  26.171  22.363  1.00  0.00     0.044 A 
ATOM     13  F   UNL A   1      33.142  24.717  21.951  1.00  0.00    -0.206 F 
BRANCH   8  14
ATOM     14  C   UNL A   1      32.620  23.174  24.316  1.00  0.00    -0.008 A 
ATOM     15  C   UNL A   1      34.387  22.078  25.565  1.00  0.00     0.123 A 
ATOM     16  C   UNL A   1      33.955  20.832  25.104  1.00  0.00     0.092 A 
ATOM     17  C   UNL A   1      33.740  23.243  25.153  1.00  0.00     0.055 A 
ATOM     18  C   UNL A   1      32.866  20.741  24.238  1.00  0.00     0.123 A 
ATOM     19  C   UNL A   1      32.211  21.910  23.854  1.00  0.00     0.055 A 
BRANCH  15  20
ATOM     20  O   UNL A   1      35.522  22.113  26.326  1.00  0.00    -0.494 OA
BRANCH  20  21
ATOM     21  C   UNL A   1      36.579  22.898  25.765  1.00  0.00     0.226 C 
ATOM     22  C   UNL A   1      37.324  22.162  24.663  1.00  0.00     0.049 C 
ENDBRANCH  20  21
ENDBRANCH  15  20
BRANCH  18  23
ATOM     23  O   UNL A   1      32.505  19.478  23.851  1.00  0.00    -0.494 OA
BRANCH  23  24
ATOM     24  C   UNL A   1      33.385  18.407  24.207  1.00  0.00     0.226 C 
ATOM     25  C   UNL A   1      33.412  17.330  23.131  1.00  0.00     0.049 C 
ENDBRANCH  23  24
ENDBRANCH  18  23
ENDBRANCH   8  14
ENDBRANCH   5   7
ENDBRANCH   3   5
ENDBRANCH   2   3
ENDBRANCH   1   2
BRANCH   1  26
ATOM     26  C   UNL A   1      31.639  30.364  25.781  1.00  0.00     0.275 C 
BRANCH  26  27
ATOM     27  O   UNL A   1      33.026  30.491  26.142  1.00  0.00    -0.458 OA
BRANCH  27  28
ATOM     28  C   UNL A   1      33.300  31.468  27.038  1.00  0.00     0.338 C 
ATOM     29  O   UNL A   1      32.592  32.407  27.351  1.00  0.00    -0.246 OA
BRANCH  28  30
ATOM     30  C   UNL A   1      34.592  31.180  27.675  1.00  0.00     0.060 A 
ATOM     31  C   UNL A   1      34.894  29.862  28.025  1.00  0.00     0.016 A 
ATOM     32  C   UNL A   1      35.468  32.219  27.984  1.00  0.00     0.016 A 
ATOM     33  C   UNL A   1      36.077  29.573  28.703  1.00  0.00     0.010 A 
ATOM     34  C   UNL A   1      36.660  31.928  28.650  1.00  0.00     0.010 A 
ATOM     35  C   UNL A   1      36.966  30.606  29.023  1.00  0.00    -0.014 A 
BRANCH  35  36
ATOM     36  C   UNL A   1      38.200  30.334  29.798  1.00  0.00     0.031 A 
ATOM     37  C   UNL A   1      39.211  29.371  29.247  1.00  0.00     0.074 A 
ATOM     38  C   UNL A   1      38.389  30.912  30.998  1.00  0.00     0.049 A 
ATOM     39  N   UNL A   1      40.236  28.816  29.837  1.00  0.00    -0.248 NA
ATOM     40  C   UNL A   1      39.031  28.974  27.841  1.00  0.00     0.031 C 
ATOM     41  C   UNL A   1      37.508  31.914  31.600  1.00  0.00     0.029 A 
ATOM     42  N   UNL A   1      39.370  30.720  31.937  1.00  0.00    -0.354 N 
ATOM     43  C   UNL A   1      40.808  27.976  28.888  1.00  0.00     0.074 A 
ATOM     44  C   UNL A   1      40.005  28.089  27.688  1.00  0.00     0.031 C 
ATOM     45  C   UNL A   1      37.978  32.233  32.817  1.00  0.00     0.029 A 
ATOM     46  C   UNL A   1      39.149  31.410  33.107  1.00  0.00     0.049 A 
ATOM     47  H   UNL A   1      40.155  30.145  31.789  1.00  0.00     0.167 HD
ATOM     48  C   UNL A   1      41.901  27.183  29.015  1.00  0.00     0.034 A 
ATOM     49  C   UNL A   1      39.784  31.342  34.293  1.00  0.00     0.034 A 
ATOM     50  C   UNL A   1      42.684  27.094  30.223  1.00  0.00     0.049 A 
ATOM     51  C   UNL A   1      40.943  30.389  34.444  1.00  0.00     0.074 A 
ATOM     52  C   UNL A   1      43.809  26.327  30.470  1.00  0.00     0.029 A 
ATOM     53  N   UNL A   1      42.419  27.794  31.394  1.00  0.00    -0.354 N 
ATOM     54  N   UNL A   1      41.453  29.566  33.557  1.00  0.00    -0.248 NA
ATOM     55  C   UNL A   1      41.608  30.349  35.752  1.00  0.00     0.031 C 
ATOM     56  C   UNL A   1      44.186  26.516  31.804  1.00  0.00     0.029 A 
ATOM     57  C   UNL A   1      43.341  27.458  32.371  1.00  0.00     0.049 A 
ATOM     58  H   UNL A   1      41.681  28.436  31.513  1.00  0.00     0.167 HD
ATOM     59  C   UNL A   1      42.522  28.938  34.191  1.00  0.00     0.074 A 
ATOM     60  C   UNL A   1      42.580  29.474  35.535  1.00  0.00     0.031 C 
ATOM     61  C   UNL A   1      43.383  28.009  33.704  1.00  0.00     0.034 A 
BRANCH  48  62
ATOM     62  C   UNL A   1      42.262  26.306  27.842  1.00  0.00     0.023 A 
ATOM     63  C   UNL A   1      41.770  24.996  27.712  1.00  0.00     0.031 A 
ATOM     64  C   UNL A   1      43.143  26.780  26.853  1.00  0.00     0.131 A 
ATOM     65  C   UNL A   1      42.215  24.184  26.657  1.00  0.00     0.055 A 
ATOM     66  C   UNL A   1      43.522  25.993  25.764  1.00  0.00     0.041 A 
ATOM     67  F   UNL A   1      43.664  28.014  26.936  1.00  0.00    -0.206 F 
ATOM     68  C   UNL A   1      43.070  24.680  25.669  1.00  0.00     0.022 A 
BRANCH  65  69
ATOM     69  S   UNL A   1      41.772  22.425  26.671  1.00  0.00     0.124 S 
ATOM     70  O   UNL A   1      42.280  21.985  25.375  1.00  0.00    -0.237 OA
ATOM     71  O   UNL A   1      42.487  21.930  27.841  1.00  0.00    -0.237 OA
ATOM     72  O   UNL A   1      40.316  22.440  26.790  1.00  0.00    -0.744 OA
ENDBRANCH  65  69
ENDBRANCH  48  62
BRANCH  49  73
ATOM     73  C   UNL A   1      39.302  32.147  35.453  1.00  0.00     0.023 A 
ATOM     74  C   UNL A   1      39.719  33.473  35.639  1.00  0.00     0.031 A 
ATOM     75  C   UNL A   1      38.439  31.586  36.412  1.00  0.00     0.131 A 
ATOM     76  C   UNL A   1      39.305  34.182  36.777  1.00  0.00     0.055 A 
ATOM     77  C   UNL A   1      37.989  32.312  37.515  1.00  0.00     0.041 A 
ATOM     78  F   UNL A   1      38.011  30.319  36.283  1.00  0.00    -0.206 F 
ATOM     79  C   UNL A   1      38.431  33.617  37.708  1.00  0.00     0.022 A 
BRANCH  76  80
ATOM     80  S   UNL A   1      39.989  35.837  37.065  1.00  0.00     0.124 S 
ATOM     81  O   UNL A   1      39.654  36.519  35.820  1.00  0.00    -0.237 OA
ATOM     82  O   UNL A   1      39.255  36.267  38.251  1.00  0.00    -0.237 OA
ATOM     83  O   UNL A   1      41.414  35.585  37.275  1.00  0.00    -0.744 OA
ENDBRANCH  76  80
ENDBRANCH  49  73
BRANCH  61  84
ATOM     84  C   UNL A   1      44.508  27.572  34.608  1.00  0.00     0.023 A 
ATOM     85  C   UNL A   1      44.404  26.439  35.432  1.00  0.00     0.031 A 
ATOM     86  C   UNL A   1      45.713  28.296  34.619  1.00  0.00     0.131 A 
ATOM     87  C   UNL A   1      45.478  26.081  36.261  1.00  0.00     0.055 A 
ATOM     88  C   UNL A   1      46.795  27.908  35.409  1.00  0.00     0.041 A 
ATOM     89  F   UNL A   1      45.862  29.386  33.848  1.00  0.00    -0.206 F 
ATOM     90  C   UNL A   1      46.678  26.799  36.242  1.00  0.00     0.022 A 
BRANCH  87  91
ATOM     91  S   UNL A   1      45.276  24.688  37.404  1.00  0.00     0.124 S 
ATOM     92  O   UNL A   1      46.635  24.504  37.903  1.00  0.00    -0.237 OA
ATOM     93  O   UNL A   1      44.309  25.208  38.366  1.00  0.00    -0.237 OA
ATOM     94  O   UNL A   1      44.779  23.611  36.548  1.00  0.00    -0.744 OA
ENDBRANCH  87  91
ENDBRANCH  61  84
ENDBRANCH  35  36
ENDBRANCH  28  30
ENDBRANCH  27  28
ENDBRANCH  26  27
ENDBRANCH   1  26
TORSDOF 20
ENDMDL
MODEL 2
REMARK VINA RESULT:     -11.4      0.759      1.787
REMARK SMILES CCOc1cc(OCC)cc(-c2ccc([C@@H](C)C(=O)OCCOC(=O)c3ccc(-c4c5nc(c(-c6cc(S(=O)(=O)[O-])ccc6F)c6ccc([nH]6)c(-c6cc(S(=O)(=O)[O-])ccc6F)c6nc(c(-c7cc(S(=O)(=O)[O-])ccc7F)c7ccc4[nH]7)C=C6)C=C5)cc3)cc2F)c1
REMARK SMILES IDX 21 1 20 2 18 3 19 4 16 5 17 6 15 7 12 8 13 9 90 10 14 11
REMARK SMILES IDX 89 12 91 13 11 14 4 15 5 16 92 17 6 18 10 19 3 20 2 21 1 22
REMARK SMILES IDX 7 23 8 24 9 25 22 26 23 27 24 28 25 29 26 30 27 31 88 32
REMARK SMILES IDX 28 33 87 34 29 35 30 36 31 37 81 38 32 39 86 40 80 41 82 42
REMARK SMILES IDX 33 43 85 44 79 45 78 46 34 48 66 49 46 50 65 51 47 52 50 53
REMARK SMILES IDX 64 54 83 55 48 56 49 57 63 59 84 60 51 61 35 62 36 63 44 64
REMARK SMILES IDX 37 65 43 66 45 67 42 68 38 69 39 70 40 71 41 72 67 73 68 74
REMARK SMILES IDX 76 75 69 76 75 77 77 78 74 79 70 80 71 81 72 82 73 83 52 84
REMARK SMILES IDX 53 85 61 86 54 87 60 88 62 89 59 90 55 91 56 92 57 93 58 94
REMARK H PARENT 82 47 50 58
REMARK Flexibility Score: inf
ROOT
ATOM      1  C   UNL A   1      32.775  29.311  24.324  1.00  0.00     0.274 C 
ENDROOT
BRANCH   1   2
ATOM      2  O   UNL A   1      32.170  28.107  23.816  1.00  0.00    -0.462 OA
BRANCH   2   3
ATOM      3  C   UNL A   1      31.101  28.251  22.990  1.00  0.00     0.313 C 
ATOM      4  O   UNL A   1      30.775  29.311  22.465  1.00  0.00    -0.252 OA
BRANCH   3   5
ATOM      5  C   UNL A   1      30.292  26.971  22.808  1.00  0.00     0.126 C 
ATOM      6  C   UNL A   1      28.939  27.107  23.504  1.00  0.00     0.025 C 
BRANCH   5   7
ATOM      7  C   UNL A   1      31.000  25.680  23.189  1.00  0.00    -0.031 A 
ATOM      8  C   UNL A   1      32.317  23.252  23.858  1.00  0.00     0.018 A 
ATOM      9  C   UNL A   1      31.431  23.873  24.754  1.00  0.00     0.012 A 
ATOM     10  C   UNL A   1      32.549  23.888  22.635  1.00  0.00     0.131 A 
ATOM     11  C   UNL A   1      30.773  25.057  24.422  1.00  0.00     0.005 A 
ATOM     12  C   UNL A   1      31.905  25.080  22.298  1.00  0.00     0.044 A 
ATOM     13  F   UNL A   1      33.375  23.338  21.731  1.00  0.00    -0.206 F 
BRANCH   8  14
ATOM     14  C   UNL A   1      32.922  21.959  24.209  1.00  0.00    -0.008 A 
ATOM     15  C   UNL A   1      32.840  19.546  24.439  1.00  0.00     0.123 A 
ATOM     16  C   UNL A   1      34.190  19.522  24.798  1.00  0.00     0.092 A 
ATOM     17  C   UNL A   1      32.204  20.758  24.172  1.00  0.00     0.055 A 
ATOM     18  C   UNL A   1      34.916  20.710  24.881  1.00  0.00     0.123 A 
ATOM     19  C   UNL A   1      34.276  21.913  24.586  1.00  0.00     0.055 A 
BRANCH  15  20
ATOM     20  O   UNL A   1      32.154  18.364  24.476  1.00  0.00    -0.494 OA
BRANCH  20  21
ATOM     21  C   UNL A   1      32.991  17.204  24.545  1.00  0.00     0.226 C 
ATOM     22  C   UNL A   1      32.608  16.282  25.692  1.00  0.00     0.049 C 
ENDBRANCH  20  21
ENDBRANCH  15  20
BRANCH  18  23
ATOM     23  O   UNL A   1      36.235  20.588  25.225  1.00  0.00    -0.494 OA
BRANCH  23  24
ATOM     24  C   UNL A   1      37.152  21.528  24.654  1.00  0.00     0.226 C 
ATOM     25  C   UNL A   1      37.480  22.648  25.632  1.00  0.00     0.049 C 
ENDBRANCH  23  24
ENDBRANCH  18  23
ENDBRANCH   8  14
ENDBRANCH   5   7
ENDBRANCH   3   5
ENDBRANCH   2   3
ENDBRANCH   1   2
BRANCH   1  26
ATOM     26  C   UNL A   1      31.947  29.890  25.472  1.00  0.00     0.275 C 
BRANCH  26  27
ATOM     27  O   UNL A   1      32.691  29.871  26.704  1.00  0.00    -0.458 OA
BRANCH  27  28
ATOM     28  C   UNL A   1      33.193  31.067  27.091  1.00  0.00     0.338 C 
ATOM     29  O   UNL A   1      32.652  32.155  27.022  1.00  0.00    -0.246 OA
BRANCH  28  30
ATOM     30  C   UNL A   1      34.506  30.852  27.714  1.00  0.00     0.060 A 
ATOM     31  C   UNL A   1      34.892  29.551  28.046  1.00  0.00     0.016 A 
ATOM     32  C   UNL A   1      35.319  31.940  28.027  1.00  0.00     0.016 A 
ATOM     33  C   UNL A   1      36.096  29.329  28.711  1.00  0.00     0.010 A 
ATOM     34  C   UNL A   1      36.532  31.715  28.679  1.00  0.00     0.010 A 
ATOM     35  C   UNL A   1      36.923  30.410  29.035  1.00  0.00    -0.014 A 
BRANCH  35  36
ATOM     36  C   UNL A   1      38.178  30.207  29.796  1.00  0.00     0.031 A 
ATOM     37  C   UNL A   1      39.222  29.278  29.249  1.00  0.00     0.074 A 
ATOM     38  C   UNL A   1      38.358  30.816  30.982  1.00  0.00     0.049 A 
ATOM     39  N   UNL A   1      40.277  28.778  29.835  1.00  0.00    -0.248 NA
ATOM     40  C   UNL A   1      39.039  28.846  27.854  1.00  0.00     0.031 C 
ATOM     41  C   UNL A   1      37.443  31.791  31.578  1.00  0.00     0.029 A 
ATOM     42  N   UNL A   1      39.359  30.684  31.910  1.00  0.00    -0.354 N 
ATOM     43  C   UNL A   1      40.872  27.945  28.893  1.00  0.00     0.074 A 
ATOM     44  C   UNL A   1      40.048  28.000  27.703  1.00  0.00     0.031 C 
ATOM     45  C   UNL A   1      37.917  32.153  32.782  1.00  0.00     0.029 A 
ATOM     46  C   UNL A   1      39.125  31.387  33.070  1.00  0.00     0.049 A 
ATOM     47  H   UNL A   1      40.167  30.140  31.762  1.00  0.00     0.167 HD
ATOM     48  C   UNL A   1      41.999  27.202  29.019  1.00  0.00     0.034 A 
ATOM     49  C   UNL A   1      39.780  31.369  34.248  1.00  0.00     0.034 A 
ATOM     50  C   UNL A   1      42.802  27.170  30.217  1.00  0.00     0.049 A 
ATOM     51  C   UNL A   1      40.981  30.470  34.400  1.00  0.00     0.074 A 
ATOM     52  C   UNL A   1      43.963  26.457  30.461  1.00  0.00     0.029 A 
ATOM     53  N   UNL A   1      42.524  27.881  31.378  1.00  0.00    -0.354 N 
ATOM     54  N   UNL A   1      41.513  29.651  33.521  1.00  0.00    -0.248 NA
ATOM     55  C   UNL A   1      41.665  30.484  35.699  1.00  0.00     0.031 C 
ATOM     56  C   UNL A   1      44.350  26.688  31.785  1.00  0.00     0.029 A 
ATOM     57  C   UNL A   1      43.473  27.603  32.347  1.00  0.00     0.049 A 
ATOM     58  H   UNL A   1      41.761  28.493  31.495  1.00  0.00     0.167 HD
ATOM     59  C   UNL A   1      42.617  29.083  34.151  1.00  0.00     0.074 A 
ATOM     60  C   UNL A   1      42.670  29.646  35.484  1.00  0.00     0.031 C 
ATOM     61  C   UNL A   1      43.510  28.182  33.669  1.00  0.00     0.034 A 
BRANCH  48  62
ATOM     62  C   UNL A   1      42.382  26.319  27.857  1.00  0.00     0.023 A 
ATOM     63  C   UNL A   1      42.000  24.967  27.792  1.00  0.00     0.031 A 
ATOM     64  C   UNL A   1      43.171  26.832  26.812  1.00  0.00     0.131 A 
ATOM     65  C   UNL A   1      42.466  24.160  26.743  1.00  0.00     0.055 A 
ATOM     66  C   UNL A   1      43.567  26.042  25.731  1.00  0.00     0.041 A 
ATOM     67  F   UNL A   1      43.585  28.108  26.831  1.00  0.00    -0.206 F 
ATOM     68  C   UNL A   1      43.227  24.693  25.699  1.00  0.00     0.022 A 
BRANCH  65  69
ATOM     69  S   UNL A   1      42.180  22.371  26.833  1.00  0.00     0.124 S 
ATOM     70  O   UNL A   1      43.398  21.848  26.220  1.00  0.00    -0.237 OA
ATOM     71  O   UNL A   1      42.037  22.147  28.267  1.00  0.00    -0.237 OA
ATOM     72  O   UNL A   1      40.963  22.179  26.047  1.00  0.00    -0.744 OA
ENDBRANCH  65  69
ENDBRANCH  48  62
BRANCH  49  73
ATOM     73  C   UNL A   1      39.280  32.175  35.399  1.00  0.00     0.023 A 
ATOM     74  C   UNL A   1      39.720  33.490  35.610  1.00  0.00     0.031 A 
ATOM     75  C   UNL A   1      38.376  31.625  36.327  1.00  0.00     0.131 A 
ATOM     76  C   UNL A   1      39.286  34.199  36.741  1.00  0.00     0.055 A 
ATOM     77  C   UNL A   1      37.907  32.352  37.422  1.00  0.00     0.041 A 
ATOM     78  F   UNL A   1      37.923  30.370  36.173  1.00  0.00    -0.206 F 
ATOM     79  C   UNL A   1      38.372  33.645  37.639  1.00  0.00     0.022 A 
BRANCH  76  80
ATOM     80  S   UNL A   1      39.998  35.836  37.064  1.00  0.00     0.124 S 
ATOM     81  O   UNL A   1      39.663  36.554  35.840  1.00  0.00    -0.237 OA
ATOM     82  O   UNL A   1      39.280  36.246  38.267  1.00  0.00    -0.237 OA
ATOM     83  O   UNL A   1      41.420  35.558  37.255  1.00  0.00    -0.744 OA
ENDBRANCH  76  80
ENDBRANCH  49  73
BRANCH  61  84
ATOM     84  C   UNL A   1      44.665  27.811  34.564  1.00  0.00     0.023 A 
ATOM     85  C   UNL A   1      44.615  26.700  35.422  1.00  0.00     0.031 A 
ATOM     86  C   UNL A   1      45.844  28.576  34.532  1.00  0.00     0.131 A 
ATOM     87  C   UNL A   1      45.716  26.404  36.241  1.00  0.00     0.055 A 
ATOM     88  C   UNL A   1      46.953  28.250  35.313  1.00  0.00     0.041 A 
ATOM     89  F   UNL A   1      45.941  29.648  33.728  1.00  0.00    -0.206 F 
ATOM     90  C   UNL A   1      46.889  27.162  36.179  1.00  0.00     0.022 A 
BRANCH  87  91
ATOM     91  S   UNL A   1      45.583  25.039  37.427  1.00  0.00     0.124 S 
ATOM     92  O   UNL A   1      46.390  25.524  38.541  1.00  0.00    -0.237 OA
ATOM     93  O   UNL A   1      44.145  24.969  37.666  1.00  0.00    -0.237 OA
ATOM     94  O   UNL A   1      46.146  23.900  36.704  1.00  0.00    -0.744 OA
ENDBRANCH  87  91
ENDBRANCH  61  84
ENDBRANCH  35  36
ENDBRANCH  28  30
ENDBRANCH  27  28
ENDBRANCH  26  27
ENDBRANCH   1  26
TORSDOF 20
ENDMDL
MODEL 3
REMARK VINA RESULT:     -11.3      2.097      2.462
REMARK SMILES CCOc1cc(OCC)cc(-c2ccc([C@@H](C)C(=O)OCCOC(=O)c3ccc(-c4c5nc(c(-c6cc(S(=O)(=O)[O-])ccc6F)c6ccc([nH]6)c(-c6cc(S(=O)(=O)[O-])ccc6F)c6nc(c(-c7cc(S(=O)(=O)[O-])ccc7F)c7ccc4[nH]7)C=C6)C=C5)cc3)cc2F)c1
REMARK SMILES IDX 21 1 20 2 18 3 19 4 16 5 17 6 15 7 12 8 13 9 90 10 14 11
REMARK SMILES IDX 89 12 91 13 11 14 4 15 5 16 92 17 6 18 10 19 3 20 2 21 1 22
REMARK SMILES IDX 7 23 8 24 9 25 22 26 23 27 24 28 25 29 26 30 27 31 88 32
REMARK SMILES IDX 28 33 87 34 29 35 30 36 31 37 81 38 32 39 86 40 80 41 82 42
REMARK SMILES IDX 33 43 85 44 79 45 78 46 34 48 66 49 46 50 65 51 47 52 50 53
REMARK SMILES IDX 64 54 83 55 48 56 49 57 63 59 84 60 51 61 35 62 36 63 44 64
REMARK SMILES IDX 37 65 43 66 45 67 42 68 38 69 39 70 40 71 41 72 67 73 68 74
REMARK SMILES IDX 76 75 69 76 75 77 77 78 74 79 70 80 71 81 72 82 73 83 52 84
REMARK SMILES IDX 53 85 61 86 54 87 60 88 62 89 59 90 55 91 56 92 57 93 58 94
REMARK H PARENT 82 47 50 58
REMARK Flexibility Score: inf
ROOT
ATOM      1  C   UNL A   1      31.146  29.534  24.569  1.00  0.00     0.274 C 
ENDROOT
BRANCH   1   2
ATOM      2  O   UNL A   1      31.027  28.130  24.274  1.00  0.00    -0.462 OA
BRANCH   2   3
ATOM      3  C   UNL A   1      30.259  27.783  23.208  1.00  0.00     0.313 C 
ATOM      4  O   UNL A   1      29.955  28.551  22.301  1.00  0.00    -0.252 OA
BRANCH   3   5
ATOM      5  C   UNL A   1      29.751  26.345  23.261  1.00  0.00     0.126 C 
ATOM      6  C   UNL A   1      28.546  26.254  24.194  1.00  0.00     0.025 C 
BRANCH   5   7
ATOM      7  C   UNL A   1      30.796  25.287  23.576  1.00  0.00    -0.031 A 
ATOM      8  C   UNL A   1      32.755  23.326  24.208  1.00  0.00     0.018 A 
ATOM      9  C   UNL A   1      32.707  23.928  22.940  1.00  0.00     0.012 A 
ATOM     10  C   UNL A   1      31.785  23.707  25.140  1.00  0.00     0.131 A 
ATOM     11  C   UNL A   1      31.755  24.901  22.632  1.00  0.00     0.005 A 
ATOM     12  C   UNL A   1      30.821  24.670  24.838  1.00  0.00     0.044 A 
ATOM     13  F   UNL A   1      31.786  23.178  26.373  1.00  0.00    -0.206 F 
BRANCH   8  14
ATOM     14  C   UNL A   1      33.828  22.371  24.522  1.00  0.00    -0.008 A 
ATOM     15  C   UNL A   1      36.069  21.839  25.281  1.00  0.00     0.123 A 
ATOM     16  C   UNL A   1      35.784  20.473  25.201  1.00  0.00     0.092 A 
ATOM     17  C   UNL A   1      35.106  22.781  24.919  1.00  0.00     0.055 A 
ATOM     18  C   UNL A   1      34.530  20.041  24.770  1.00  0.00     0.123 A 
ATOM     19  C   UNL A   1      33.567  20.992  24.436  1.00  0.00     0.055 A 
BRANCH  15  20
ATOM     20  O   UNL A   1      37.346  22.201  25.609  1.00  0.00    -0.494 OA
BRANCH  20  21
ATOM     21  C   UNL A   1      37.610  23.602  25.473  1.00  0.00     0.226 C 
ATOM     22  C   UNL A   1      38.357  24.168  26.670  1.00  0.00     0.049 C 
ENDBRANCH  20  21
ENDBRANCH  15  20
BRANCH  18  23
ATOM     23  O   UNL A   1      34.337  18.686  24.738  1.00  0.00    -0.494 OA
BRANCH  23  24
ATOM     24  C   UNL A   1      33.482  18.169  23.713  1.00  0.00     0.226 C 
ATOM     25  C   UNL A   1      33.977  16.822  23.204  1.00  0.00     0.049 C 
ENDBRANCH  23  24
ENDBRANCH  18  23
ENDBRANCH   8  14
ENDBRANCH   5   7
ENDBRANCH   3   5
ENDBRANCH   2   3
ENDBRANCH   1   2
BRANCH   1  26
ATOM     26  C   UNL A   1      32.547  29.863  25.086  1.00  0.00     0.275 C 
BRANCH  26  27
ATOM     27  O   UNL A   1      32.565  29.922  26.523  1.00  0.00    -0.458 OA
BRANCH  27  28
ATOM     28  C   UNL A   1      33.001  31.093  27.045  1.00  0.00     0.338 C 
ATOM     29  O   UNL A   1      32.391  32.144  27.118  1.00  0.00    -0.246 OA
BRANCH  28  30
ATOM     30  C   UNL A   1      34.339  30.890  27.615  1.00  0.00     0.060 A 
ATOM     31  C   UNL A   1      34.720  29.605  28.008  1.00  0.00     0.016 A 
ATOM     32  C   UNL A   1      35.185  31.979  27.820  1.00  0.00     0.016 A 
ATOM     33  C   UNL A   1      35.952  29.400  28.625  1.00  0.00     0.010 A 
ATOM     34  C   UNL A   1      36.425  31.771  28.426  1.00  0.00     0.010 A 
ATOM     35  C   UNL A   1      36.812  30.483  28.842  1.00  0.00    -0.014 A 
BRANCH  35  36
ATOM     36  C   UNL A   1      38.100  30.301  29.552  1.00  0.00     0.031 A 
ATOM     37  C   UNL A   1      39.119  29.357  28.985  1.00  0.00     0.074 A 
ATOM     38  C   UNL A   1      38.332  30.944  30.710  1.00  0.00     0.049 A 
ATOM     39  N   UNL A   1      40.201  28.874  29.537  1.00  0.00    -0.248 NA
ATOM     40  C   UNL A   1      38.875  28.885  27.613  1.00  0.00     0.031 C 
ATOM     41  C   UNL A   1      37.443  31.936  31.318  1.00  0.00     0.029 A 
ATOM     42  N   UNL A   1      39.373  30.839  31.596  1.00  0.00    -0.354 N 
ATOM     43  C   UNL A   1      40.754  28.014  28.594  1.00  0.00     0.074 A 
ATOM     44  C   UNL A   1      39.877  28.035  27.441  1.00  0.00     0.031 C 
ATOM     45  C   UNL A   1      37.969  32.333  32.488  1.00  0.00     0.029 A 
ATOM     46  C   UNL A   1      39.190  31.575  32.744  1.00  0.00     0.049 A 
ATOM     47  H   UNL A   1      40.174  30.292  31.427  1.00  0.00     0.167 HD
ATOM     48  C   UNL A   1      41.887  27.275  28.692  1.00  0.00     0.034 A 
ATOM     49  C   UNL A   1      39.897  31.592  33.892  1.00  0.00     0.034 A 
ATOM     50  C   UNL A   1      42.742  27.278  29.853  1.00  0.00     0.049 A 
ATOM     51  C   UNL A   1      41.104  30.697  34.016  1.00  0.00     0.074 A 
ATOM     52  C   UNL A   1      43.914  26.572  30.066  1.00  0.00     0.029 A 
ATOM     53  N   UNL A   1      42.514  28.022  31.004  1.00  0.00    -0.354 N 
ATOM     54  N   UNL A   1      41.598  29.854  33.138  1.00  0.00    -0.248 NA
ATOM     55  C   UNL A   1      41.846  30.748  35.282  1.00  0.00     0.031 C 
ATOM     56  C   UNL A   1      44.359  26.842  31.364  1.00  0.00     0.029 A 
ATOM     57  C   UNL A   1      43.507  27.773  31.938  1.00  0.00     0.049 A 
ATOM     58  H   UNL A   1      41.757  28.638  31.138  1.00  0.00     0.167 HD
ATOM     59  C   UNL A   1      42.729  29.303  33.734  1.00  0.00     0.074 A 
ATOM     60  C   UNL A   1      42.842  29.905  35.047  1.00  0.00     0.031 C 
ATOM     61  C   UNL A   1      43.602  28.389  33.240  1.00  0.00     0.034 A 
BRANCH  48  62
ATOM     62  C   UNL A   1      42.218  26.359  27.540  1.00  0.00     0.023 A 
ATOM     63  C   UNL A   1      41.916  24.986  27.570  1.00  0.00     0.031 A 
ATOM     64  C   UNL A   1      42.879  26.864  26.405  1.00  0.00     0.131 A 
ATOM     65  C   UNL A   1      42.336  24.156  26.519  1.00  0.00     0.055 A 
ATOM     66  C   UNL A   1      43.225  26.045  25.329  1.00  0.00     0.041 A 
ATOM     67  F   UNL A   1      43.214  28.161  26.330  1.00  0.00    -0.206 F 
ATOM     68  C   UNL A   1      42.967  24.679  25.388  1.00  0.00     0.022 A 
BRANCH  65  69
ATOM     69  S   UNL A   1      42.169  22.360  26.714  1.00  0.00     0.124 S 
ATOM     70  O   UNL A   1      41.778  22.252  28.116  1.00  0.00    -0.237 OA
ATOM     71  O   UNL A   1      41.140  22.032  25.734  1.00  0.00    -0.237 OA
ATOM     72  O   UNL A   1      43.506  21.858  26.406  1.00  0.00    -0.744 OA
ENDBRANCH  65  69
ENDBRANCH  48  62
BRANCH  49  73
ATOM     73  C   UNL A   1      39.447  32.431  35.041  1.00  0.00     0.023 A 
ATOM     74  C   UNL A   1      38.810  31.858  36.152  1.00  0.00     0.031 A 
ATOM     75  C   UNL A   1      39.619  33.827  35.025  1.00  0.00     0.131 A 
ATOM     76  C   UNL A   1      38.335  32.681  37.185  1.00  0.00     0.055 A 
ATOM     77  C   UNL A   1      39.190  34.636  36.078  1.00  0.00     0.041 A 
ATOM     78  F   UNL A   1      40.221  34.426  33.985  1.00  0.00    -0.206 F 
ATOM     79  C   UNL A   1      38.533  34.063  37.163  1.00  0.00     0.022 A 
BRANCH  76  80
ATOM     80  S   UNL A   1      37.379  31.923  38.527  1.00  0.00     0.124 S 
ATOM     81  O   UNL A   1      36.183  32.758  38.550  1.00  0.00    -0.237 OA
ATOM     82  O   UNL A   1      37.201  30.559  38.041  1.00  0.00    -0.237 OA
ATOM     83  O   UNL A   1      38.256  32.058  39.689  1.00  0.00    -0.744 OA
ENDBRANCH  76  80
ENDBRANCH  49  73
BRANCH  61  84
ATOM     84  C   UNL A   1      44.796  28.044  34.092  1.00  0.00     0.023 A 
ATOM     85  C   UNL A   1      45.950  28.844  34.116  1.00  0.00     0.031 A 
ATOM     86  C   UNL A   1      44.759  26.903  34.912  1.00  0.00     0.131 A 
ATOM     87  C   UNL A   1      47.038  28.472  34.923  1.00  0.00     0.055 A 
ATOM     88  C   UNL A   1      45.823  26.563  35.747  1.00  0.00     0.041 A 
ATOM     89  F   UNL A   1      43.677  26.106  34.925  1.00  0.00    -0.206 F 
ATOM     90  C   UNL A   1      46.974  27.347  35.749  1.00  0.00     0.022 A 
BRANCH  87  91
ATOM     91  S   UNL A   1      48.561  29.453  34.845  1.00  0.00     0.124 S 
ATOM     92  O   UNL A   1      49.528  28.474  34.361  1.00  0.00    -0.237 OA
ATOM     93  O   UNL A   1      48.205  30.513  33.907  1.00  0.00    -0.237 OA
ATOM     94  O   UNL A   1      48.759  29.890  36.226  1.00  0.00    -0.744 OA
ENDBRANCH  87  91
ENDBRANCH  61  84
ENDBRANCH  35  36
ENDBRANCH  28  30
ENDBRANCH  27  28
ENDBRANCH  26  27
ENDBRANCH   1  26
TORSDOF 20
ENDMDL
