MODEL 1
REMARK VINA RESULT:     -12.3      0.000      0.000
REMARK SMILES Cc1cc(C(=O)N[C@H]2C=C[C@H](C(=O)OCCOC(=O)c3ccc(-c4c5nc(c(-c6cc(S(=O)(=O)[O-])ccc6F)c6ccc([nH]6)c(-c6cc(S(=O)(=O)[O-])ccc6F)c6nc(c(-c7cc(S(=O)(=O)[O-])ccc7F)c7ccc4[nH]7)C=C6)C=C5)cc3)C2)ccc1F
REMARK SMILES IDX 16 1 15 2 14 3 12 4 13 5 11 6 8 7 9 8 83 9 10 10 7 11 5 12
REMARK SMILES IDX 6 13 4 15 1 16 2 17 3 18 86 19 85 20 87 21 84 22 17 23 18 24
REMARK SMILES IDX 19 25 20 26 21 27 82 28 22 29 81 30 23 31 24 32 25 33 75 34
REMARK SMILES IDX 26 35 80 36 74 37 76 38 27 39 79 40 73 41 72 42 28 44 60 45
REMARK SMILES IDX 40 46 59 47 41 48 44 49 58 50 77 51 42 52 43 53 57 55 78 56
REMARK SMILES IDX 45 57 29 58 30 59 38 60 31 61 37 62 39 63 36 64 32 65 33 66
REMARK SMILES IDX 34 67 35 68 61 69 62 70 70 71 63 72 69 73 71 74 68 75 64 76
REMARK SMILES IDX 65 77 66 78 67 79 46 80 47 81 55 82 48 83 54 84 56 85 53 86
REMARK SMILES IDX 49 87 50 88 51 89 52 90
REMARK H PARENT 7 14 76 43 44 54
REMARK Flexibility Score: inf
ROOT
ATOM      1  C   UNL A   1      34.576  32.226  28.320  1.00  0.00     0.275 C 
ENDROOT
BRANCH   1   2
ATOM      2  C   UNL A   1      33.478  31.428  27.607  1.00  0.00     0.274 C 
BRANCH   2   3
ATOM      3  O   UNL A   1      33.831  30.046  27.410  1.00  0.00    -0.462 OA
BRANCH   3   4
ATOM      4  C   UNL A   1      33.362  29.488  26.256  1.00  0.00     0.312 C 
ATOM      5  O   UNL A   1      34.066  29.275  25.271  1.00  0.00    -0.252 OA
BRANCH   4   6
ATOM      6  C   UNL A   1      31.867  29.159  26.336  1.00  0.00     0.124 C 
ATOM      7  C   UNL A   1      31.935  26.763  26.493  1.00  0.00     0.106 C 
ATOM      8  C   UNL A   1      31.358  27.179  25.172  1.00  0.00    -0.006 C 
ATOM      9  C   UNL A   1      31.647  28.007  27.326  1.00  0.00     0.048 C 
ATOM     10  C   UNL A   1      31.365  28.519  25.068  1.00  0.00    -0.014 C 
BRANCH   7  11
ATOM     11  N   UNL A   1      31.353  25.550  26.994  1.00  0.00    -0.346 N 
ATOM     12  C   UNL A   1      31.666  24.236  26.730  1.00  0.00     0.251 C 
ATOM     13  O   UNL A   1      30.938  23.369  27.220  1.00  0.00    -0.269 OA
ATOM     14  H   UNL A   1      30.610  25.679  27.627  1.00  0.00     0.164 HD
BRANCH  12  15
ATOM     15  C   UNL A   1      32.848  23.797  25.916  1.00  0.00     0.040 A 
ATOM     16  C   UNL A   1      36.665  23.766  25.817  1.00  0.00     0.047 C 
ATOM     17  C   UNL A   1      35.234  23.581  25.409  1.00  0.00    -0.015 A 
ATOM     18  C   UNL A   1      34.189  24.084  26.203  1.00  0.00     0.020 A 
ATOM     19  C   UNL A   1      34.919  22.836  24.274  1.00  0.00     0.126 A 
ATOM     20  C   UNL A   1      33.597  22.585  23.932  1.00  0.00     0.040 A 
ATOM     21  F   UNL A   1      35.899  22.364  23.491  1.00  0.00    -0.207 F 
ATOM     22  C   UNL A   1      32.567  23.055  24.754  1.00  0.00     0.017 A 
ENDBRANCH  12  15
ENDBRANCH   7  11
ENDBRANCH   4   6
ENDBRANCH   3   4
ENDBRANCH   2   3
ENDBRANCH   1   2
BRANCH   1  23
ATOM     23  O   UNL A   1      35.868  32.088  27.709  1.00  0.00    -0.458 OA
BRANCH  23  24
ATOM     24  C   UNL A   1      36.803  31.632  28.577  1.00  0.00     0.338 C 
ATOM     25  O   UNL A   1      37.444  32.307  29.367  1.00  0.00    -0.246 OA
BRANCH  24  26
ATOM     26  C   UNL A   1      37.144  30.230  28.339  1.00  0.00     0.060 A 
ATOM     27  C   UNL A   1      37.127  29.382  29.452  1.00  0.00     0.016 A 
ATOM     28  C   UNL A   1      37.953  29.975  27.232  1.00  0.00     0.016 A 
ATOM     29  C   UNL A   1      38.099  28.403  29.576  1.00  0.00     0.010 A 
ATOM     30  C   UNL A   1      38.922  29.003  27.357  1.00  0.00     0.010 A 
ATOM     31  C   UNL A   1      39.053  28.303  28.568  1.00  0.00    -0.014 A 
BRANCH  31  32
ATOM     32  C   UNL A   1      40.326  27.630  28.765  1.00  0.00     0.031 A 
ATOM     33  C   UNL A   1      40.468  26.183  28.556  1.00  0.00     0.074 A 
ATOM     34  C   UNL A   1      41.397  28.373  29.120  1.00  0.00     0.049 A 
ATOM     35  N   UNL A   1      41.478  25.492  28.968  1.00  0.00    -0.248 NA
ATOM     36  C   UNL A   1      39.416  25.385  27.943  1.00  0.00     0.031 C 
ATOM     37  C   UNL A   1      42.800  28.014  28.975  1.00  0.00     0.029 A 
ATOM     38  N   UNL A   1      41.409  29.526  29.914  1.00  0.00    -0.354 N 
ATOM     39  C   UNL A   1      41.354  24.236  28.425  1.00  0.00     0.074 A 
ATOM     40  C   UNL A   1      39.995  24.181  27.933  1.00  0.00     0.031 C 
ATOM     41  C   UNL A   1      43.520  28.748  29.835  1.00  0.00     0.029 A 
ATOM     42  C   UNL A   1      42.582  29.460  30.687  1.00  0.00     0.049 A 
ATOM     43  H   UNL A   1      40.731  30.241  29.928  1.00  0.00     0.167 HD
ATOM     44  C   UNL A   1      42.467  23.455  28.308  1.00  0.00     0.034 A 
ATOM     45  C   UNL A   1      42.609  29.466  32.050  1.00  0.00     0.034 A 
ATOM     46  C   UNL A   1      43.597  24.001  29.067  1.00  0.00     0.049 A 
ATOM     47  C   UNL A   1      43.317  28.271  32.663  1.00  0.00     0.074 A 
ATOM     48  C   UNL A   1      44.760  24.674  28.729  1.00  0.00     0.029 A 
ATOM     49  N   UNL A   1      43.493  24.092  30.449  1.00  0.00    -0.354 N 
ATOM     50  N   UNL A   1      43.799  27.271  31.983  1.00  0.00    -0.248 NA
ATOM     51  C   UNL A   1      43.410  28.059  34.110  1.00  0.00     0.031 C 
ATOM     52  C   UNL A   1      45.346  25.183  29.921  1.00  0.00     0.029 A 
ATOM     53  C   UNL A   1      44.548  24.809  30.987  1.00  0.00     0.049 A 
ATOM     54  H   UNL A   1      42.763  23.697  30.978  1.00  0.00     0.167 HD
ATOM     55  C   UNL A   1      44.167  26.274  32.846  1.00  0.00     0.074 A 
ATOM     56  C   UNL A   1      43.927  26.820  34.169  1.00  0.00     0.031 C 
ATOM     57  C   UNL A   1      44.586  25.050  32.421  1.00  0.00     0.034 A 
BRANCH  44  58
ATOM     58  C   UNL A   1      42.594  22.328  27.292  1.00  0.00     0.023 A 
ATOM     59  C   UNL A   1      43.547  22.311  26.254  1.00  0.00     0.031 A 
ATOM     60  C   UNL A   1      41.828  21.149  27.406  1.00  0.00     0.131 A 
ATOM     61  C   UNL A   1      43.781  21.179  25.455  1.00  0.00     0.055 A 
ATOM     62  C   UNL A   1      42.037  20.022  26.593  1.00  0.00     0.041 A 
ATOM     63  F   UNL A   1      40.872  21.017  28.335  1.00  0.00    -0.206 F 
ATOM     64  C   UNL A   1      43.031  20.024  25.623  1.00  0.00     0.022 A 
BRANCH  61  65
ATOM     65  S   UNL A   1      45.128  21.175  24.234  1.00  0.00     0.124 S 
ATOM     66  O   UNL A   1      44.840  19.968  23.462  1.00  0.00    -0.237 OA
ATOM     67  O   UNL A   1      44.916  22.436  23.529  1.00  0.00    -0.237 OA
ATOM     68  O   UNL A   1      46.341  21.111  25.047  1.00  0.00    -0.744 OA
ENDBRANCH  61  65
ENDBRANCH  44  58
BRANCH  45  69
ATOM     69  C   UNL A   1      41.455  30.131  32.700  1.00  0.00     0.023 A 
ATOM     70  C   UNL A   1      41.616  31.394  33.288  1.00  0.00     0.031 A 
ATOM     71  C   UNL A   1      40.297  29.390  33.004  1.00  0.00     0.131 A 
ATOM     72  C   UNL A   1      40.669  31.847  34.212  1.00  0.00     0.055 A 
ATOM     73  C   UNL A   1      39.355  29.848  33.925  1.00  0.00     0.041 A 
ATOM     74  F   UNL A   1      40.112  28.173  32.465  1.00  0.00    -0.206 F 
ATOM     75  C   UNL A   1      39.550  31.075  34.550  1.00  0.00     0.022 A 
BRANCH  72  76
ATOM     76  S   UNL A   1      40.923  33.403  35.096  1.00  0.00     0.124 S 
ATOM     77  O   UNL A   1      39.663  34.096  34.857  1.00  0.00    -0.237 OA
ATOM     78  O   UNL A   1      41.137  32.931  36.458  1.00  0.00    -0.237 OA
ATOM     79  O   UNL A   1      42.095  33.978  34.444  1.00  0.00    -0.744 OA
ENDBRANCH  72  76
ENDBRANCH  45  69
BRANCH  57  80
ATOM     80  C   UNL A   1      45.054  23.965  33.348  1.00  0.00     0.023 A 
ATOM     81  C   UNL A   1      46.381  23.971  33.826  1.00  0.00     0.031 A 
ATOM     82  C   UNL A   1      44.187  23.002  33.891  1.00  0.00     0.131 A 
ATOM     83  C   UNL A   1      46.803  23.042  34.787  1.00  0.00     0.055 A 
ATOM     84  C   UNL A   1      44.619  22.051  34.822  1.00  0.00     0.041 A 
ATOM     85  F   UNL A   1      42.883  22.984  33.570  1.00  0.00    -0.206 F 
ATOM     86  C   UNL A   1      45.932  22.072  35.278  1.00  0.00     0.022 A 
BRANCH  83  87
ATOM     87  S   UNL A   1      48.472  23.119  35.492  1.00  0.00     0.124 S 
ATOM     88  O   UNL A   1      48.790  21.704  35.673  1.00  0.00    -0.237 OA
ATOM     89  O   UNL A   1      49.214  23.794  34.430  1.00  0.00    -0.237 OA
ATOM     90  O   UNL A   1      48.299  23.884  36.721  1.00  0.00    -0.744 OA
ENDBRANCH  83  87
ENDBRANCH  57  80
ENDBRANCH  31  32
ENDBRANCH  24  26
ENDBRANCH  23  24
ENDBRANCH   1  23
TORSDOF 16
ENDMDL
MODEL 2
REMARK VINA RESULT:     -12.2      1.916      2.282
REMARK SMILES Cc1cc(C(=O)N[C@H]2C=C[C@H](C(=O)OCCOC(=O)c3ccc(-c4c5nc(c(-c6cc(S(=O)(=O)[O-])ccc6F)c6ccc([nH]6)c(-c6cc(S(=O)(=O)[O-])ccc6F)c6nc(c(-c7cc(S(=O)(=O)[O-])ccc7F)c7ccc4[nH]7)C=C6)C=C5)cc3)C2)ccc1F
REMARK SMILES IDX 16 1 15 2 14 3 12 4 13 5 11 6 8 7 9 8 83 9 10 10 7 11 5 12
REMARK SMILES IDX 6 13 4 15 1 16 2 17 3 18 86 19 85 20 87 21 84 22 17 23 18 24
REMARK SMILES IDX 19 25 20 26 21 27 82 28 22 29 81 30 23 31 24 32 25 33 75 34
REMARK SMILES IDX 26 35 80 36 74 37 76 38 27 39 79 40 73 41 72 42 28 44 60 45
REMARK SMILES IDX 40 46 59 47 41 48 44 49 58 50 77 51 42 52 43 53 57 55 78 56
REMARK SMILES IDX 45 57 29 58 30 59 38 60 31 61 37 62 39 63 36 64 32 65 33 66
REMARK SMILES IDX 34 67 35 68 61 69 62 70 70 71 63 72 69 73 71 74 68 75 64 76
REMARK SMILES IDX 65 77 66 78 67 79 46 80 47 81 55 82 48 83 54 84 56 85 53 86
REMARK SMILES IDX 49 87 50 88 51 89 52 90
REMARK H PARENT 7 14 76 43 44 54
REMARK Flexibility Score: inf
ROOT
ATOM      1  C   UNL A   1      33.532  32.239  27.986  1.00  0.00     0.275 C 
ENDROOT
BRANCH   1   2
ATOM      2  C   UNL A   1      32.745  31.378  26.992  1.00  0.00     0.274 C 
BRANCH   2   3
ATOM      3  O   UNL A   1      33.492  30.238  26.526  1.00  0.00    -0.462 OA
BRANCH   3   4
ATOM      4  C   UNL A   1      32.903  29.533  25.517  1.00  0.00     0.312 C 
ATOM      5  O   UNL A   1      33.424  29.362  24.416  1.00  0.00    -0.252 OA
BRANCH   4   6
ATOM      6  C   UNL A   1      31.529  28.984  25.917  1.00  0.00     0.124 C 
ATOM      7  C   UNL A   1      32.018  26.641  26.128  1.00  0.00     0.106 C 
ATOM      8  C   UNL A   1      31.128  26.880  24.945  1.00  0.00    -0.006 C 
ATOM      9  C   UNL A   1      31.705  27.877  26.966  1.00  0.00     0.048 C 
ATOM     10  C   UNL A   1      30.895  28.195  24.802  1.00  0.00    -0.014 C 
BRANCH   7  11
ATOM     11  N   UNL A   1      31.756  25.388  26.777  1.00  0.00    -0.346 N 
ATOM     12  C   UNL A   1      32.329  24.151  26.589  1.00  0.00     0.251 C 
ATOM     13  O   UNL A   1      31.848  23.201  27.212  1.00  0.00    -0.269 OA
ATOM     14  H   UNL A   1      31.053  25.418  27.465  1.00  0.00     0.164 HD
BRANCH  12  15
ATOM     15  C   UNL A   1      33.513  23.894  25.703  1.00  0.00     0.040 A 
ATOM     16  C   UNL A   1      37.326  23.690  25.661  1.00  0.00     0.047 C 
ATOM     17  C   UNL A   1      35.901  23.702  25.194  1.00  0.00    -0.015 A 
ATOM     18  C   UNL A   1      34.857  24.019  26.080  1.00  0.00     0.020 A 
ATOM     19  C   UNL A   1      35.586  23.321  23.891  1.00  0.00     0.126 A 
ATOM     20  C   UNL A   1      34.265  23.244  23.472  1.00  0.00     0.040 A 
ATOM     21  F   UNL A   1      36.567  23.034  23.024  1.00  0.00    -0.207 F 
ATOM     22  C   UNL A   1      33.234  23.521  24.375  1.00  0.00     0.017 A 
ENDBRANCH  12  15
ENDBRANCH   7  11
ENDBRANCH   4   6
ENDBRANCH   3   4
ENDBRANCH   2   3
ENDBRANCH   1   2
BRANCH   1  23
ATOM     23  O   UNL A   1      34.955  32.128  27.832  1.00  0.00    -0.458 OA
BRANCH  23  24
ATOM     24  C   UNL A   1      35.560  31.658  28.950  1.00  0.00     0.338 C 
ATOM     25  O   UNL A   1      35.764  32.285  29.977  1.00  0.00    -0.246 OA
BRANCH  24  26
ATOM     26  C   UNL A   1      36.157  30.339  28.745  1.00  0.00     0.060 A 
ATOM     27  C   UNL A   1      36.445  29.594  29.894  1.00  0.00     0.016 A 
ATOM     28  C   UNL A   1      36.871  30.166  27.559  1.00  0.00     0.016 A 
ATOM     29  C   UNL A   1      37.608  28.844  29.946  1.00  0.00     0.010 A 
ATOM     30  C   UNL A   1      38.030  29.421  27.611  1.00  0.00     0.010 A 
ATOM     31  C   UNL A   1      38.441  28.859  28.831  1.00  0.00    -0.014 A 
BRANCH  31  32
ATOM     32  C   UNL A   1      39.840  28.473  28.900  1.00  0.00     0.031 A 
ATOM     33  C   UNL A   1      40.267  27.090  28.650  1.00  0.00     0.074 A 
ATOM     34  C   UNL A   1      40.757  29.427  29.174  1.00  0.00     0.049 A 
ATOM     35  N   UNL A   1      41.433  26.630  28.956  1.00  0.00    -0.248 NA
ATOM     36  C   UNL A   1      39.356  26.087  28.117  1.00  0.00     0.031 C 
ATOM     37  C   UNL A   1      42.185  29.376  28.897  1.00  0.00     0.029 A 
ATOM     38  N   UNL A   1      40.596  30.556  29.987  1.00  0.00    -0.354 N 
ATOM     39  C   UNL A   1      41.530  25.377  28.401  1.00  0.00     0.074 A 
ATOM     40  C   UNL A   1      40.174  25.034  28.031  1.00  0.00     0.031 C 
ATOM     41  C   UNL A   1      42.808  30.246  29.704  1.00  0.00     0.029 A 
ATOM     42  C   UNL A   1      41.822  30.741  30.650  1.00  0.00     0.049 A 
ATOM     43  H   UNL A   1      39.786  31.109  30.076  1.00  0.00     0.167 HD
ATOM     44  C   UNL A   1      42.768  24.851  28.168  1.00  0.00     0.034 A 
ATOM     45  C   UNL A   1      41.971  30.750  32.005  1.00  0.00     0.034 A 
ATOM     46  C   UNL A   1      43.820  25.625  28.835  1.00  0.00     0.049 A 
ATOM     47  C   UNL A   1      42.970  29.734  32.529  1.00  0.00     0.074 A 
ATOM     48  C   UNL A   1      44.778  26.531  28.408  1.00  0.00     0.029 A 
ATOM     49  N   UNL A   1      43.827  25.691  30.223  1.00  0.00    -0.354 N 
ATOM     50  N   UNL A   1      43.590  28.860  31.788  1.00  0.00    -0.248 NA
ATOM     51  C   UNL A   1      43.238  29.545  33.957  1.00  0.00     0.031 C 
ATOM     52  C   UNL A   1      45.349  27.153  29.554  1.00  0.00     0.029 A 
ATOM     53  C   UNL A   1      44.750  26.616  30.679  1.00  0.00     0.049 A 
ATOM     54  H   UNL A   1      43.249  25.148  30.806  1.00  0.00     0.167 HD
ATOM     55  C   UNL A   1      44.238  27.964  32.594  1.00  0.00     0.074 A 
ATOM     56  C   UNL A   1      44.010  28.445  33.944  1.00  0.00     0.031 C 
ATOM     57  C   UNL A   1      44.867  26.858  32.109  1.00  0.00     0.034 A 
BRANCH  44  58
ATOM     58  C   UNL A   1      43.038  23.779  27.123  1.00  0.00     0.023 A 
ATOM     59  C   UNL A   1      42.574  22.452  27.221  1.00  0.00     0.031 A 
ATOM     60  C   UNL A   1      43.681  24.089  25.905  1.00  0.00     0.131 A 
ATOM     61  C   UNL A   1      42.661  21.536  26.159  1.00  0.00     0.055 A 
ATOM     62  C   UNL A   1      43.795  23.169  24.848  1.00  0.00     0.041 A 
ATOM     63  F   UNL A   1      44.188  25.305  25.665  1.00  0.00    -0.206 F 
ATOM     64  C   UNL A   1      43.267  21.890  24.963  1.00  0.00     0.022 A 
BRANCH  61  65
ATOM     65  S   UNL A   1      41.908  19.887  26.302  1.00  0.00     0.124 S 
ATOM     66  O   UNL A   1      42.458  19.196  25.138  1.00  0.00    -0.237 OA
ATOM     67  O   UNL A   1      42.403  19.426  27.596  1.00  0.00    -0.237 OA
ATOM     68  O   UNL A   1      40.472  20.148  26.240  1.00  0.00    -0.744 OA
ENDBRANCH  61  65
ENDBRANCH  44  58
BRANCH  45  69
ATOM     69  C   UNL A   1      40.767  31.154  32.770  1.00  0.00     0.023 A 
ATOM     70  C   UNL A   1      40.677  32.448  33.302  1.00  0.00     0.031 A 
ATOM     71  C   UNL A   1      39.865  30.174  33.226  1.00  0.00     0.131 A 
ATOM     72  C   UNL A   1      39.754  32.709  34.319  1.00  0.00     0.055 A 
ATOM     73  C   UNL A   1      38.944  30.441  34.239  1.00  0.00     0.041 A 
ATOM     74  F   UNL A   1      39.925  28.921  32.744  1.00  0.00    -0.206 F 
ATOM     75  C   UNL A   1      38.900  31.711  34.806  1.00  0.00     0.022 A 
BRANCH  72  76
ATOM     76  S   UNL A   1      39.713  34.326  35.127  1.00  0.00     0.124 S 
ATOM     77  O   UNL A   1      39.233  33.985  36.460  1.00  0.00    -0.237 OA
ATOM     78  O   UNL A   1      41.111  34.728  35.040  1.00  0.00    -0.237 OA
ATOM     79  O   UNL A   1      38.789  35.097  34.299  1.00  0.00    -0.744 OA
ENDBRANCH  72  76
ENDBRANCH  45  69
BRANCH  57  80
ATOM     80  C   UNL A   1      45.638  25.898  32.967  1.00  0.00     0.023 A 
ATOM     81  C   UNL A   1      44.956  24.907  33.703  1.00  0.00     0.031 A 
ATOM     82  C   UNL A   1      47.043  25.837  32.969  1.00  0.00     0.131 A 
ATOM     83  C   UNL A   1      45.661  23.924  34.411  1.00  0.00     0.055 A 
ATOM     84  C   UNL A   1      47.745  24.878  33.706  1.00  0.00     0.041 A 
ATOM     85  F   UNL A   1      47.773  26.676  32.218  1.00  0.00    -0.206 F 
ATOM     86  C   UNL A   1      47.053  23.912  34.428  1.00  0.00     0.022 A 
BRANCH  83  87
ATOM     87  S   UNL A   1      44.790  22.579  35.261  1.00  0.00     0.124 S 
ATOM     88  O   UNL A   1      45.528  22.488  36.519  1.00  0.00    -0.237 OA
ATOM     89  O   UNL A   1      43.438  23.120  35.370  1.00  0.00    -0.237 OA
ATOM     90  O   UNL A   1      44.941  21.440  34.363  1.00  0.00    -0.744 OA
ENDBRANCH  83  87
ENDBRANCH  57  80
ENDBRANCH  31  32
ENDBRANCH  24  26
ENDBRANCH  23  24
ENDBRANCH   1  23
TORSDOF 16
ENDMDL
MODEL 3
REMARK VINA RESULT:     -12.1      4.086     10.317
REMARK SMILES Cc1cc(C(=O)N[C@H]2C=C[C@H](C(=O)OCCOC(=O)c3ccc(-c4c5nc(c(-c6cc(S(=O)(=O)[O-])ccc6F)c6ccc([nH]6)c(-c6cc(S(=O)(=O)[O-])ccc6F)c6nc(c(-c7cc(S(=O)(=O)[O-])ccc7F)c7ccc4[nH]7)C=C6)C=C5)cc3)C2)ccc1F
REMARK SMILES IDX 16 1 15 2 14 3 12 4 13 5 11 6 8 7 9 8 83 9 10 10 7 11 5 12
REMARK SMILES IDX 6 13 4 15 1 16 2 17 3 18 86 19 85 20 87 21 84 22 17 23 18 24
REMARK SMILES IDX 19 25 20 26 21 27 82 28 22 29 81 30 23 31 24 32 25 33 75 34
REMARK SMILES IDX 26 35 80 36 74 37 76 38 27 39 79 40 73 41 72 42 28 44 60 45
REMARK SMILES IDX 40 46 59 47 41 48 44 49 58 50 77 51 42 52 43 53 57 55 78 56
REMARK SMILES IDX 45 57 29 58 30 59 38 60 31 61 37 62 39 63 36 64 32 65 33 66
REMARK SMILES IDX 34 67 35 68 61 69 62 70 70 71 63 72 69 73 71 74 68 75 64 76
REMARK SMILES IDX 65 77 66 78 67 79 46 80 47 81 55 82 48 83 54 84 56 85 53 86
REMARK SMILES IDX 49 87 50 88 51 89 52 90
REMARK H PARENT 7 14 76 43 44 54
REMARK Flexibility Score: inf
ROOT
ATOM      1  C   UNL A   1      39.853  21.158  26.094  1.00  0.00     0.275 C 
ENDROOT
BRANCH   1   2
ATOM      2  C   UNL A   1      38.372  21.099  25.704  1.00  0.00     0.274 C 
BRANCH   2   3
ATOM      3  O   UNL A   1      37.816  22.398  25.424  1.00  0.00    -0.462 OA
BRANCH   3   4
ATOM      4  C   UNL A   1      36.454  22.469  25.485  1.00  0.00     0.312 C 
ATOM      5  O   UNL A   1      35.837  22.801  26.495  1.00  0.00    -0.252 OA
BRANCH   4   6
ATOM      6  C   UNL A   1      35.792  22.092  24.155  1.00  0.00     0.124 C 
ATOM      7  C   UNL A   1      34.405  24.017  23.774  1.00  0.00     0.106 C 
ATOM      8  C   UNL A   1      33.556  22.816  24.071  1.00  0.00    -0.006 C 
ATOM      9  C   UNL A   1      35.675  23.340  23.268  1.00  0.00     0.048 C 
ATOM     10  C   UNL A   1      34.335  21.753  24.330  1.00  0.00    -0.014 C 
BRANCH   7  11
ATOM     11  N   UNL A   1      33.787  24.917  22.843  1.00  0.00    -0.346 N 
ATOM     12  C   UNL A   1      32.980  26.010  23.062  1.00  0.00     0.251 C 
ATOM     13  O   UNL A   1      32.490  26.563  22.074  1.00  0.00    -0.269 OA
ATOM     14  H   UNL A   1      33.968  24.720  21.896  1.00  0.00     0.164 HD
BRANCH  12  15
ATOM     15  C   UNL A   1      32.688  26.585  24.418  1.00  0.00     0.040 A 
ATOM     16  C   UNL A   1      34.116  28.792  27.187  1.00  0.00     0.047 C 
ATOM     17  C   UNL A   1      33.199  27.873  26.437  1.00  0.00    -0.015 A 
ATOM     18  C   UNL A   1      33.583  27.326  25.200  1.00  0.00     0.020 A 
ATOM     19  C   UNL A   1      31.918  27.611  26.921  1.00  0.00     0.126 A 
ATOM     20  C   UNL A   1      31.029  26.831  26.194  1.00  0.00     0.040 A 
ATOM     21  F   UNL A   1      31.539  28.105  28.107  1.00  0.00    -0.207 F 
ATOM     22  C   UNL A   1      31.408  26.329  24.945  1.00  0.00     0.017 A 
ENDBRANCH  12  15
ENDBRANCH   7  11
ENDBRANCH   4   6
ENDBRANCH   3   4
ENDBRANCH   2   3
ENDBRANCH   1   2
BRANCH   1  23
ATOM     23  O   UNL A   1      40.119  22.057  27.182  1.00  0.00    -0.458 OA
BRANCH  23  24
ATOM     24  C   UNL A   1      40.882  23.111  26.807  1.00  0.00     0.338 C 
ATOM     25  O   UNL A   1      42.091  23.101  26.634  1.00  0.00    -0.246 OA
BRANCH  24  26
ATOM     26  C   UNL A   1      40.137  24.369  26.822  1.00  0.00     0.060 A 
ATOM     27  C   UNL A   1      40.730  25.458  26.174  1.00  0.00     0.016 A 
ATOM     28  C   UNL A   1      39.244  24.539  27.879  1.00  0.00     0.016 A 
ATOM     29  C   UNL A   1      40.627  26.721  26.734  1.00  0.00     0.010 A 
ATOM     30  C   UNL A   1      39.144  25.796  28.437  1.00  0.00     0.010 A 
ATOM     31  C   UNL A   1      39.920  26.849  27.925  1.00  0.00    -0.014 A 
BRANCH  31  32
ATOM     32  C   UNL A   1      40.082  27.991  28.808  1.00  0.00     0.031 A 
ATOM     33  C   UNL A   1      39.231  29.182  28.685  1.00  0.00     0.074 A 
ATOM     34  C   UNL A   1      41.023  27.928  29.775  1.00  0.00     0.049 A 
ATOM     35  N   UNL A   1      39.493  30.316  29.242  1.00  0.00    -0.248 NA
ATOM     36  C   UNL A   1      38.053  29.202  27.828  1.00  0.00     0.031 C 
ATOM     37  C   UNL A   1      41.090  28.731  30.987  1.00  0.00     0.029 A 
ATOM     38  N   UNL A   1      42.255  27.263  29.724  1.00  0.00    -0.354 N 
ATOM     39  C   UNL A   1      38.390  31.116  29.067  1.00  0.00     0.074 A 
ATOM     40  C   UNL A   1      37.601  30.437  28.062  1.00  0.00     0.031 C 
ATOM     41  C   UNL A   1      42.354  28.724  31.435  1.00  0.00     0.029 A 
ATOM     42  C   UNL A   1      43.168  28.074  30.421  1.00  0.00     0.049 A 
ATOM     43  H   UNL A   1      42.444  26.401  29.287  1.00  0.00     0.167 HD
ATOM     44  C   UNL A   1      38.196  32.168  29.915  1.00  0.00     0.034 A 
ATOM     45  C   UNL A   1      44.308  28.591  29.881  1.00  0.00     0.034 A 
ATOM     46  C   UNL A   1      39.390  32.443  30.721  1.00  0.00     0.049 A 
ATOM     47  C   UNL A   1      44.410  30.103  29.973  1.00  0.00     0.074 A 
ATOM     48  C   UNL A   1      39.744  32.215  32.040  1.00  0.00     0.029 A 
ATOM     49  N   UNL A   1      40.554  32.844  30.078  1.00  0.00    -0.354 N 
ATOM     50  N   UNL A   1      43.478  30.878  30.448  1.00  0.00    -0.248 NA
ATOM     51  C   UNL A   1      45.530  30.860  29.407  1.00  0.00     0.031 C 
ATOM     52  C   UNL A   1      41.138  32.468  32.180  1.00  0.00     0.029 A 
ATOM     53  C   UNL A   1      41.629  32.864  30.950  1.00  0.00     0.049 A 
ATOM     54  H   UNL A   1      40.607  33.084  29.125  1.00  0.00     0.167 HD
ATOM     55  C   UNL A   1      43.796  32.182  30.183  1.00  0.00     0.074 A 
ATOM     56  C   UNL A   1      45.101  32.125  29.551  1.00  0.00     0.031 C 
ATOM     57  C   UNL A   1      42.948  33.215  30.445  1.00  0.00     0.034 A 
BRANCH  44  58
ATOM     58  C   UNL A   1      36.829  32.781  30.187  1.00  0.00     0.023 A 
ATOM     59  C   UNL A   1      36.225  32.819  31.459  1.00  0.00     0.031 A 
ATOM     60  C   UNL A   1      36.124  33.474  29.180  1.00  0.00     0.131 A 
ATOM     61  C   UNL A   1      35.063  33.562  31.727  1.00  0.00     0.055 A 
ATOM     62  C   UNL A   1      34.946  34.197  29.435  1.00  0.00     0.041 A 
ATOM     63  F   UNL A   1      36.564  33.519  27.915  1.00  0.00    -0.206 F 
ATOM     64  C   UNL A   1      34.418  34.261  30.717  1.00  0.00     0.022 A 
BRANCH  61  65
ATOM     65  S   UNL A   1      34.421  33.688  33.424  1.00  0.00     0.124 S 
ATOM     66  O   UNL A   1      34.401  35.133  33.638  1.00  0.00    -0.237 OA
ATOM     67  O   UNL A   1      33.110  33.053  33.312  1.00  0.00    -0.237 OA
ATOM     68  O   UNL A   1      35.400  32.959  34.227  1.00  0.00    -0.744 OA
ENDBRANCH  61  65
ENDBRANCH  44  58
BRANCH  45  69
ATOM     69  C   UNL A   1      44.877  27.820  28.750  1.00  0.00     0.023 A 
ATOM     70  C   UNL A   1      46.011  27.020  28.949  1.00  0.00     0.031 A 
ATOM     71  C   UNL A   1      44.485  28.117  27.430  1.00  0.00     0.131 A 
ATOM     72  C   UNL A   1      46.762  26.607  27.844  1.00  0.00     0.055 A 
ATOM     73  C   UNL A   1      45.238  27.701  26.332  1.00  0.00     0.041 A 
ATOM     74  F   UNL A   1      43.408  28.887  27.201  1.00  0.00    -0.206 F 
ATOM     75  C   UNL A   1      46.395  26.958  26.538  1.00  0.00     0.022 A 
BRANCH  72  76
ATOM     76  S   UNL A   1      48.308  25.700  28.074  1.00  0.00     0.124 S 
ATOM     77  O   UNL A   1      47.987  24.402  27.494  1.00  0.00    -0.237 OA
ATOM     78  O   UNL A   1      49.241  26.520  27.312  1.00  0.00    -0.237 OA
ATOM     79  O   UNL A   1      48.501  25.716  29.521  1.00  0.00    -0.744 OA
ENDBRANCH  72  76
ENDBRANCH  45  69
BRANCH  57  80
ATOM     80  C   UNL A   1      43.301  34.657  30.222  1.00  0.00     0.023 A 
ATOM     81  C   UNL A   1      43.126  35.237  28.948  1.00  0.00     0.031 A 
ATOM     82  C   UNL A   1      43.671  35.520  31.268  1.00  0.00     0.131 A 
ATOM     83  C   UNL A   1      43.332  36.608  28.748  1.00  0.00     0.055 A 
ATOM     84  C   UNL A   1      43.912  36.882  31.059  1.00  0.00     0.041 A 
ATOM     85  F   UNL A   1      43.764  35.077  32.532  1.00  0.00    -0.206 F 
ATOM     86  C   UNL A   1      43.738  37.433  29.795  1.00  0.00     0.022 A 
BRANCH  83  87
ATOM     87  S   UNL A   1      42.994  37.379  27.142  1.00  0.00     0.124 S 
ATOM     88  O   UNL A   1      44.271  38.022  26.840  1.00  0.00    -0.237 OA
ATOM     89  O   UNL A   1      42.670  36.219  26.315  1.00  0.00    -0.237 OA
ATOM     90  O   UNL A   1      41.886  38.287  27.414  1.00  0.00    -0.744 OA
ENDBRANCH  83  87
ENDBRANCH  57  80
ENDBRANCH  31  32
ENDBRANCH  24  26
ENDBRANCH  23  24
ENDBRANCH   1  23
TORSDOF 16
ENDMDL
