MODEL 1
REMARK VINA RESULT:     -13.5      0.000      0.000
REMARK SMILES Cc1coc2cc3oc(=O)c(CC(=O)N[C@H](Cc4c[nH]c5ccc(O)cc45)C(=O)OCCOC(=O)c4ccc(-c5c6nc(c(-c7cc(S(=O)(=O)[O-])ccc7F)c7ccc([nH]7)c(-c7cc(S(=O)(=O)[O-])ccc7F)c7nc(c(-c8cc(S(=O)(=O)[O-])ccc8F)c8ccc5[nH]8)C=C7)C=C6)cc4)c(C)c3cc12
REMARK SMILES IDX 31 1 30 2 28 3 29 4 16 5 15 6 13 7 14 8 12 10 11 11 1 12
REMARK SMILES IDX 2 13 3 14 103 15 4 16 5 17 102 18 6 19 101 20 7 21 99 22
REMARK SMILES IDX 8 23 100 24 9 25 10 26 17 27 18 28 19 29 27 30 20 31 21 32
REMARK SMILES IDX 26 33 22 35 24 36 23 37 25 38 32 40 33 41 34 42 35 43 36 44
REMARK SMILES IDX 37 45 98 46 38 47 97 48 39 49 40 50 41 51 91 52 42 53 96 54
REMARK SMILES IDX 90 55 92 56 43 57 95 58 89 59 88 60 44 62 76 63 56 64 75 65
REMARK SMILES IDX 57 66 60 67 74 68 93 69 58 70 59 71 73 73 94 74 61 75 45 76
REMARK SMILES IDX 46 77 54 78 47 79 53 80 55 81 52 82 48 83 49 84 50 85 51 86
REMARK SMILES IDX 77 87 78 88 86 89 79 90 85 91 87 92 84 93 80 94 81 95 82 96
REMARK SMILES IDX 83 97 62 98 63 99 71 100 64 101 70 102 72 103 69 104 65 105
REMARK SMILES IDX 66 106 67 107 68 108
REMARK H PARENT 15 9 20 34 25 39 92 61 60 72
REMARK Flexibility Score: inf
ROOT
ATOM      1  C   UNL A   1      37.393  21.755  24.912  1.00  0.00     0.274 C 
ENDROOT
BRANCH   1   2
ATOM      2  O   UNL A   1      36.239  21.959  25.735  1.00  0.00    -0.461 OA
BRANCH   2   3
ATOM      3  C   UNL A   1      35.736  23.223  25.712  1.00  0.00     0.329 C 
ATOM      4  O   UNL A   1      36.408  24.222  25.952  1.00  0.00    -0.250 OA
BRANCH   3   5
ATOM      5  C   UNL A   1      34.297  23.251  25.165  1.00  0.00     0.196 C 
BRANCH   5   6
ATOM      6  N   UNL A   1      33.401  22.767  26.220  1.00  0.00    -0.342 N 
ATOM      7  C   UNL A   1      32.123  23.194  26.506  1.00  0.00     0.225 C 
ATOM      8  O   UNL A   1      31.725  23.041  27.666  1.00  0.00    -0.275 OA
ATOM      9  H   UNL A   1      33.755  22.049  26.793  1.00  0.00     0.164 HD
BRANCH   7  10
ATOM     10  C   UNL A   1      31.174  23.777  25.438  1.00  0.00     0.143 C 
BRANCH  10  11
ATOM     11  C   UNL A   1      31.382  25.191  24.989  1.00  0.00     0.051 A 
ATOM     12  C   UNL A   1      28.564  30.176  21.407  1.00  0.00     0.048 C 
ATOM     13  C   UNL A   1      29.275  30.303  22.698  1.00  0.00    -0.005 A 
ATOM     14  C   UNL A   1      29.202  31.333  23.614  1.00  0.00     0.199 A 
ATOM     15  C   UNL A   1      30.154  29.337  23.267  1.00  0.00     0.024 A 
ATOM     16  O   UNL A   1      30.008  31.094  24.678  1.00  0.00    -0.464 OA
ATOM     17  C   UNL A   1      30.587  29.878  24.474  1.00  0.00     0.137 A 
ATOM     18  C   UNL A   1      30.557  28.033  22.901  1.00  0.00     0.024 A 
ATOM     19  C   UNL A   1      31.441  29.238  25.358  1.00  0.00     0.095 A 
ATOM     20  C   UNL A   1      31.293  27.286  23.820  1.00  0.00     0.022 A 
ATOM     21  C   UNL A   1      31.738  27.918  25.006  1.00  0.00     0.142 A 
ATOM     22  C   UNL A   1      31.371  25.792  23.781  1.00  0.00    -0.029 A 
ATOM     23  O   UNL A   1      32.350  27.125  25.967  1.00  0.00    -0.422 OA
ATOM     24  C   UNL A   1      31.198  25.052  22.500  1.00  0.00     0.046 C 
ATOM     25  C   UNL A   1      31.391  26.166  26.084  1.00  0.00     0.340 A 
ATOM     26  O   UNL A   1      30.466  26.209  26.875  1.00  0.00    -0.246 OA
ENDBRANCH  10  11
ENDBRANCH   7  10
ENDBRANCH   5   6
BRANCH   5  27
ATOM     27  C   UNL A   1      34.168  22.654  23.746  1.00  0.00     0.074 C 
BRANCH  27  28
ATOM     28  C   UNL A   1      33.231  21.536  23.459  1.00  0.00    -0.020 A 
ATOM     29  C   UNL A   1      32.160  21.621  22.595  1.00  0.00     0.087 A 
ATOM     30  C   UNL A   1      33.405  20.143  23.764  1.00  0.00     0.006 A 
ATOM     31  N   UNL A   1      31.650  20.369  22.394  1.00  0.00    -0.361 N 
ATOM     32  C   UNL A   1      32.366  19.451  23.132  1.00  0.00     0.046 A 
ATOM     33  C   UNL A   1      34.381  19.393  24.462  1.00  0.00     0.056 A 
ATOM     34  H   UNL A   1      30.886  20.155  21.812  1.00  0.00     0.166 HD
ATOM     35  C   UNL A   1      32.206  18.064  23.239  1.00  0.00     0.030 A 
ATOM     36  C   UNL A   1      34.244  18.004  24.540  1.00  0.00     0.116 A 
ATOM     37  C   UNL A   1      33.162  17.347  23.966  1.00  0.00     0.048 A 
BRANCH  36  38
ATOM     38  O   UNL A   1      35.218  17.302  25.195  1.00  0.00    -0.508 OA
ATOM     39  H   UNL A   1      35.187  17.215  26.128  1.00  0.00     0.293 HD
ENDBRANCH  36  38
ENDBRANCH  27  28
ENDBRANCH   5  27
ENDBRANCH   3   5
ENDBRANCH   2   3
ENDBRANCH   1   2
BRANCH   1  40
ATOM     40  C   UNL A   1      38.594  21.491  25.829  1.00  0.00     0.275 C 
BRANCH  40  41
ATOM     41  O   UNL A   1      39.053  22.718  26.439  1.00  0.00    -0.458 OA
BRANCH  41  42
ATOM     42  C   UNL A   1      40.384  22.807  26.740  1.00  0.00     0.338 C 
ATOM     43  O   UNL A   1      41.213  21.941  26.593  1.00  0.00    -0.246 OA
BRANCH  42  44
ATOM     44  C   UNL A   1      40.721  24.227  27.051  1.00  0.00     0.060 A 
ATOM     45  C   UNL A   1      41.847  24.587  27.790  1.00  0.00     0.016 A 
ATOM     46  C   UNL A   1      39.756  25.194  26.751  1.00  0.00     0.016 A 
ATOM     47  C   UNL A   1      41.869  25.837  28.427  1.00  0.00     0.010 A 
ATOM     48  C   UNL A   1      39.783  26.442  27.390  1.00  0.00     0.010 A 
ATOM     49  C   UNL A   1      40.781  26.727  28.317  1.00  0.00    -0.014 A 
BRANCH  49  50
ATOM     50  C   UNL A   1      40.846  28.013  29.052  1.00  0.00     0.031 A 
ATOM     51  C   UNL A   1      41.928  28.889  28.547  1.00  0.00     0.074 A 
ATOM     52  C   UNL A   1      39.994  28.489  29.991  1.00  0.00     0.049 A 
ATOM     53  N   UNL A   1      42.919  29.418  29.185  1.00  0.00    -0.248 NA
ATOM     54  C   UNL A   1      41.958  29.071  27.087  1.00  0.00     0.031 C 
ATOM     55  C   UNL A   1      38.718  27.895  30.368  1.00  0.00     0.029 A 
ATOM     56  N   UNL A   1      40.033  29.635  30.760  1.00  0.00    -0.354 N 
ATOM     57  C   UNL A   1      43.588  30.169  28.225  1.00  0.00     0.074 A 
ATOM     58  C   UNL A   1      43.090  29.750  26.941  1.00  0.00     0.031 C 
ATOM     59  C   UNL A   1      38.054  28.710  31.209  1.00  0.00     0.029 A 
ATOM     60  C   UNL A   1      38.824  29.927  31.396  1.00  0.00     0.049 A 
ATOM     61  H   UNL A   1      40.838  30.195  30.853  1.00  0.00     0.167 HD
ATOM     62  C   UNL A   1      44.300  31.285  28.534  1.00  0.00     0.034 A 
ATOM     63  C   UNL A   1      38.382  31.109  31.907  1.00  0.00     0.034 A 
ATOM     64  C   UNL A   1      44.723  31.308  29.902  1.00  0.00     0.049 A 
ATOM     65  C   UNL A   1      39.531  32.019  32.105  1.00  0.00     0.074 A 
ATOM     66  C   UNL A   1      45.487  30.464  30.684  1.00  0.00     0.029 A 
ATOM     67  N   UNL A   1      44.095  32.167  30.766  1.00  0.00    -0.354 N 
ATOM     68  N   UNL A   1      40.412  31.918  33.058  1.00  0.00    -0.248 NA
ATOM     69  C   UNL A   1      39.922  32.856  30.981  1.00  0.00     0.031 C 
ATOM     70  C   UNL A   1      44.959  30.583  31.996  1.00  0.00     0.029 A 
ATOM     71  C   UNL A   1      43.919  31.513  31.959  1.00  0.00     0.049 A 
ATOM     72  H   UNL A   1      43.820  33.091  30.567  1.00  0.00     0.167 HD
ATOM     73  C   UNL A   1      41.609  32.264  32.452  1.00  0.00     0.074 A 
ATOM     74  C   UNL A   1      41.229  32.951  31.222  1.00  0.00     0.031 C 
ATOM     75  C   UNL A   1      42.791  31.711  32.849  1.00  0.00     0.034 A 
BRANCH  62  76
ATOM     76  C   UNL A   1      44.301  32.481  27.622  1.00  0.00     0.023 A 
ATOM     77  C   UNL A   1      43.647  33.683  27.972  1.00  0.00     0.031 A 
ATOM     78  C   UNL A   1      45.098  32.529  26.470  1.00  0.00     0.131 A 
ATOM     79  C   UNL A   1      43.696  34.817  27.162  1.00  0.00     0.055 A 
ATOM     80  C   UNL A   1      45.225  33.697  25.703  1.00  0.00     0.041 A 
ATOM     81  F   UNL A   1      45.811  31.461  26.082  1.00  0.00    -0.206 F 
ATOM     82  C   UNL A   1      44.506  34.843  26.036  1.00  0.00     0.022 A 
BRANCH  79  83
ATOM     83  S   UNL A   1      42.664  36.255  27.560  1.00  0.00     0.124 S 
ATOM     84  O   UNL A   1      43.037  37.191  26.504  1.00  0.00    -0.237 OA
ATOM     85  O   UNL A   1      41.320  35.692  27.467  1.00  0.00    -0.237 OA
ATOM     86  O   UNL A   1      43.087  36.617  28.910  1.00  0.00    -0.744 OA
ENDBRANCH  79  83
ENDBRANCH  62  76
BRANCH  63  87
ATOM     87  C   UNL A   1      36.976  31.611  31.852  1.00  0.00     0.023 A 
ATOM     88  C   UNL A   1      36.381  31.908  30.610  1.00  0.00     0.031 A 
ATOM     89  C   UNL A   1      36.272  32.034  32.992  1.00  0.00     0.131 A 
ATOM     90  C   UNL A   1      35.161  32.583  30.512  1.00  0.00     0.055 A 
ATOM     91  C   UNL A   1      35.053  32.729  32.900  1.00  0.00     0.041 A 
ATOM     92  F   UNL A   1      36.775  31.839  34.222  1.00  0.00    -0.206 F 
ATOM     93  C   UNL A   1      34.492  33.008  31.654  1.00  0.00     0.022 A 
BRANCH  90  94
ATOM     94  S   UNL A   1      34.483  32.920  28.863  1.00  0.00     0.124 S 
ATOM     95  O   UNL A   1      35.603  33.549  28.169  1.00  0.00    -0.237 OA
ATOM     96  O   UNL A   1      34.130  31.581  28.408  1.00  0.00    -0.237 OA
ATOM     97  O   UNL A   1      33.358  33.818  29.127  1.00  0.00    -0.744 OA
ENDBRANCH  90  94
ENDBRANCH  63  87
BRANCH  75  98
ATOM     98  C   UNL A   1      42.865  30.992  34.178  1.00  0.00     0.023 A 
ATOM     99  C   UNL A   1      42.635  29.601  34.164  1.00  0.00     0.031 A 
ATOM    100  C   UNL A   1      42.917  31.630  35.431  1.00  0.00     0.131 A 
ATOM    101  C   UNL A   1      42.415  28.906  35.358  1.00  0.00     0.055 A 
ATOM    102  C   UNL A   1      42.780  30.916  36.627  1.00  0.00     0.041 A 
ATOM    103  F   UNL A   1      43.004  32.965  35.538  1.00  0.00    -0.206 F 
ATOM    104  C   UNL A   1      42.506  29.551  36.593  1.00  0.00     0.022 A 
BRANCH 101 105
ATOM    105  S   UNL A   1      41.829  27.191  35.324  1.00  0.00     0.124 S 
ATOM    106  O   UNL A   1      41.446  26.965  36.714  1.00  0.00    -0.237 OA
ATOM    107  O   UNL A   1      40.721  27.260  34.373  1.00  0.00    -0.237 OA
ATOM    108  O   UNL A   1      42.987  26.430  34.863  1.00  0.00    -0.744 OA
ENDBRANCH 101 105
ENDBRANCH  75  98
ENDBRANCH  49  50
ENDBRANCH  42  44
ENDBRANCH  41  42
ENDBRANCH  40  41
ENDBRANCH   1  40
TORSDOF 20
ENDMDL
MODEL 2
REMARK VINA RESULT:     -13.3      2.844      9.462
REMARK SMILES Cc1coc2cc3oc(=O)c(CC(=O)N[C@H](Cc4c[nH]c5ccc(O)cc45)C(=O)OCCOC(=O)c4ccc(-c5c6nc(c(-c7cc(S(=O)(=O)[O-])ccc7F)c7ccc([nH]7)c(-c7cc(S(=O)(=O)[O-])ccc7F)c7nc(c(-c8cc(S(=O)(=O)[O-])ccc8F)c8ccc5[nH]8)C=C7)C=C6)cc4)c(C)c3cc12
REMARK SMILES IDX 31 1 30 2 28 3 29 4 16 5 15 6 13 7 14 8 12 10 11 11 1 12
REMARK SMILES IDX 2 13 3 14 103 15 4 16 5 17 102 18 6 19 101 20 7 21 99 22
REMARK SMILES IDX 8 23 100 24 9 25 10 26 17 27 18 28 19 29 27 30 20 31 21 32
REMARK SMILES IDX 26 33 22 35 24 36 23 37 25 38 32 40 33 41 34 42 35 43 36 44
REMARK SMILES IDX 37 45 98 46 38 47 97 48 39 49 40 50 41 51 91 52 42 53 96 54
REMARK SMILES IDX 90 55 92 56 43 57 95 58 89 59 88 60 44 62 76 63 56 64 75 65
REMARK SMILES IDX 57 66 60 67 74 68 93 69 58 70 59 71 73 73 94 74 61 75 45 76
REMARK SMILES IDX 46 77 54 78 47 79 53 80 55 81 52 82 48 83 49 84 50 85 51 86
REMARK SMILES IDX 77 87 78 88 86 89 79 90 85 91 87 92 84 93 80 94 81 95 82 96
REMARK SMILES IDX 83 97 62 98 63 99 71 100 64 101 70 102 72 103 69 104 65 105
REMARK SMILES IDX 66 106 67 107 68 108
REMARK H PARENT 15 9 20 34 25 39 92 61 60 72
REMARK Flexibility Score: inf
ROOT
ATOM      1  C   UNL A   1      32.975  30.525  26.169  1.00  0.00     0.274 C 
ENDROOT
BRANCH   1   2
ATOM      2  O   UNL A   1      32.485  29.220  25.839  1.00  0.00    -0.461 OA
BRANCH   2   3
ATOM      3  C   UNL A   1      33.295  28.494  25.023  1.00  0.00     0.329 C 
ATOM      4  O   UNL A   1      34.492  28.726  24.879  1.00  0.00    -0.250 OA
BRANCH   3   5
ATOM      5  C   UNL A   1      32.577  27.250  24.470  1.00  0.00     0.196 C 
BRANCH   5   6
ATOM      6  N   UNL A   1      32.724  27.251  23.011  1.00  0.00    -0.342 N 
ATOM      7  C   UNL A   1      32.731  26.168  22.160  1.00  0.00     0.225 C 
ATOM      8  O   UNL A   1      33.331  26.298  21.087  1.00  0.00    -0.275 OA
ATOM      9  H   UNL A   1      32.833  28.134  22.587  1.00  0.00     0.164 HD
BRANCH   7  10
ATOM     10  C   UNL A   1      31.975  24.858  22.466  1.00  0.00     0.143 C 
BRANCH  10  11
ATOM     11  C   UNL A   1      32.618  23.853  23.371  1.00  0.00     0.051 A 
ATOM     12  C   UNL A   1      32.441  17.353  25.200  1.00  0.00     0.048 C 
ATOM     13  C   UNL A   1      33.647  18.181  24.983  1.00  0.00    -0.005 A 
ATOM     14  C   UNL A   1      34.937  17.759  24.735  1.00  0.00     0.199 A 
ATOM     15  C   UNL A   1      33.688  19.605  24.944  1.00  0.00     0.024 A 
ATOM     16  O   UNL A   1      35.775  18.817  24.597  1.00  0.00    -0.464 OA
ATOM     17  C   UNL A   1      35.019  19.943  24.720  1.00  0.00     0.137 A 
ATOM     18  C   UNL A   1      32.709  20.622  25.006  1.00  0.00     0.024 A 
ATOM     19  C   UNL A   1      35.486  21.241  24.585  1.00  0.00     0.095 A 
ATOM     20  C   UNL A   1      33.099  21.932  24.729  1.00  0.00     0.022 A 
ATOM     21  C   UNL A   1      34.477  22.207  24.557  1.00  0.00     0.142 A 
ATOM     22  C   UNL A   1      32.138  22.994  24.295  1.00  0.00    -0.029 A 
ATOM     23  O   UNL A   1      34.831  23.486  24.150  1.00  0.00    -0.422 OA
ATOM     24  C   UNL A   1      30.702  22.930  24.683  1.00  0.00     0.046 C 
ATOM     25  C   UNL A   1      34.026  23.585  23.056  1.00  0.00     0.340 A 
ATOM     26  O   UNL A   1      34.352  23.261  21.929  1.00  0.00    -0.246 OA
ENDBRANCH  10  11
ENDBRANCH   7  10
ENDBRANCH   5   6
BRANCH   5  27
ATOM     27  C   UNL A   1      31.172  27.033  25.075  1.00  0.00     0.074 C 
BRANCH  27  28
ATOM     28  C   UNL A   1      29.940  27.227  24.264  1.00  0.00    -0.020 A 
ATOM     29  C   UNL A   1      28.937  26.289  24.138  1.00  0.00     0.087 A 
ATOM     30  C   UNL A   1      29.428  28.455  23.724  1.00  0.00     0.006 A 
ATOM     31  N   UNL A   1      27.866  26.866  23.515  1.00  0.00    -0.361 N 
ATOM     32  C   UNL A   1      28.155  28.179  23.211  1.00  0.00     0.046 A 
ATOM     33  C   UNL A   1      29.892  29.790  23.677  1.00  0.00     0.056 A 
ATOM     34  H   UNL A   1      27.016  26.411  23.312  1.00  0.00     0.166 HD
ATOM     35  C   UNL A   1      27.368  29.148  22.578  1.00  0.00     0.030 A 
ATOM     36  C   UNL A   1      29.094  30.767  23.077  1.00  0.00     0.116 A 
ATOM     37  C   UNL A   1      27.864  30.454  22.510  1.00  0.00     0.048 A 
BRANCH  36  38
ATOM     38  O   UNL A   1      29.554  32.056  23.074  1.00  0.00    -0.508 OA
ATOM     39  H   UNL A   1      28.982  32.759  23.310  1.00  0.00     0.293 HD
ENDBRANCH  36  38
ENDBRANCH  27  28
ENDBRANCH   5  27
ENDBRANCH   3   5
ENDBRANCH   2   3
ENDBRANCH   1   2
BRANCH   1  40
ATOM     40  C   UNL A   1      33.486  30.492  27.615  1.00  0.00     0.275 C 
BRANCH  40  41
ATOM     41  O   UNL A   1      34.795  31.097  27.711  1.00  0.00    -0.458 OA
BRANCH  41  42
ATOM     42  C   UNL A   1      35.108  31.727  28.884  1.00  0.00     0.338 C 
ATOM     43  O   UNL A   1      34.403  32.491  29.498  1.00  0.00    -0.246 OA
BRANCH  42  44
ATOM     44  C   UNL A   1      36.365  31.142  29.432  1.00  0.00     0.060 A 
ATOM     45  C   UNL A   1      37.539  31.882  29.575  1.00  0.00     0.016 A 
ATOM     46  C   UNL A   1      36.399  29.756  29.617  1.00  0.00     0.016 A 
ATOM     47  C   UNL A   1      38.764  31.202  29.650  1.00  0.00     0.010 A 
ATOM     48  C   UNL A   1      37.627  29.082  29.692  1.00  0.00     0.010 A 
ATOM     49  C   UNL A   1      38.818  29.795  29.598  1.00  0.00    -0.014 A 
BRANCH  49  50
ATOM     50  C   UNL A   1      40.148  29.139  29.635  1.00  0.00     0.031 A 
ATOM     51  C   UNL A   1      40.647  28.972  31.018  1.00  0.00     0.074 A 
ATOM     52  C   UNL A   1      40.848  28.600  28.609  1.00  0.00     0.049 A 
ATOM     53  N   UNL A   1      41.750  29.386  31.548  1.00  0.00    -0.248 NA
ATOM     54  C   UNL A   1      39.693  28.367  31.961  1.00  0.00     0.031 C 
ATOM     55  C   UNL A   1      40.361  28.403  27.250  1.00  0.00     0.029 A 
ATOM     56  N   UNL A   1      42.111  28.042  28.561  1.00  0.00    -0.354 N 
ATOM     57  C   UNL A   1      41.708  28.913  32.854  1.00  0.00     0.074 A 
ATOM     58  C   UNL A   1      40.353  28.493  33.106  1.00  0.00     0.031 C 
ATOM     59  C   UNL A   1      41.253  27.694  26.533  1.00  0.00     0.029 A 
ATOM     60  C   UNL A   1      42.364  27.324  27.391  1.00  0.00     0.049 A 
ATOM     61  H   UNL A   1      42.772  28.142  29.284  1.00  0.00     0.167 HD
ATOM     62  C   UNL A   1      42.830  28.623  33.564  1.00  0.00     0.034 A 
ATOM     63  C   UNL A   1      43.304  26.368  27.152  1.00  0.00     0.034 A 
ATOM     64  C   UNL A   1      43.985  29.316  33.078  1.00  0.00     0.049 A 
ATOM     65  C   UNL A   1      44.362  26.451  28.182  1.00  0.00     0.074 A 
ATOM     66  C   UNL A   1      44.301  30.648  32.904  1.00  0.00     0.029 A 
ATOM     67  N   UNL A   1      44.932  28.604  32.388  1.00  0.00    -0.354 N 
ATOM     68  N   UNL A   1      45.285  27.367  28.237  1.00  0.00    -0.248 NA
ATOM     69  C   UNL A   1      44.161  25.694  29.408  1.00  0.00     0.031 C 
ATOM     70  C   UNL A   1      45.167  30.688  31.779  1.00  0.00     0.029 A 
ATOM     71  C   UNL A   1      45.361  29.378  31.339  1.00  0.00     0.049 A 
ATOM     72  H   UNL A   1      45.248  27.698  32.606  1.00  0.00     0.167 HD
ATOM     73  C   UNL A   1      45.430  27.622  29.592  1.00  0.00     0.074 A 
ATOM     74  C   UNL A   1      44.815  26.482  30.262  1.00  0.00     0.031 C 
ATOM     75  C   UNL A   1      45.771  28.862  30.048  1.00  0.00     0.034 A 
BRANCH  62  76
ATOM     76  C   UNL A   1      42.875  27.443  34.496  1.00  0.00     0.023 A 
ATOM     77  C   UNL A   1      43.634  26.290  34.200  1.00  0.00     0.031 A 
ATOM     78  C   UNL A   1      42.318  27.497  35.782  1.00  0.00     0.131 A 
ATOM     79  C   UNL A   1      43.732  25.217  35.085  1.00  0.00     0.055 A 
ATOM     80  C   UNL A   1      42.493  26.461  36.711  1.00  0.00     0.041 A 
ATOM     81  F   UNL A   1      41.629  28.574  36.187  1.00  0.00    -0.206 F 
ATOM     82  C   UNL A   1      43.186  25.304  36.358  1.00  0.00     0.022 A 
BRANCH  79  83
ATOM     83  S   UNL A   1      44.545  23.684  34.560  1.00  0.00     0.124 S 
ATOM     84  O   UNL A   1      45.690  23.627  35.463  1.00  0.00    -0.237 OA
ATOM     85  O   UNL A   1      43.497  22.695  34.797  1.00  0.00    -0.237 OA
ATOM     86  O   UNL A   1      44.855  23.925  33.153  1.00  0.00    -0.744 OA
ENDBRANCH  79  83
ENDBRANCH  62  76
BRANCH  63  87
ATOM     87  C   UNL A   1      43.112  25.148  26.312  1.00  0.00     0.023 A 
ATOM     88  C   UNL A   1      42.205  24.149  26.716  1.00  0.00     0.031 A 
ATOM     89  C   UNL A   1      43.962  24.817  25.243  1.00  0.00     0.131 A 
ATOM     90  C   UNL A   1      42.150  22.899  26.094  1.00  0.00     0.055 A 
ATOM     91  C   UNL A   1      43.922  23.554  24.623  1.00  0.00     0.041 A 
ATOM     92  F   UNL A   1      44.892  25.682  24.810  1.00  0.00    -0.206 F 
ATOM     93  C   UNL A   1      43.013  22.587  25.050  1.00  0.00     0.022 A 
BRANCH  90  94
ATOM     94  S   UNL A   1      40.947  21.680  26.695  1.00  0.00     0.124 S 
ATOM     95  O   UNL A   1      41.100  21.755  28.145  1.00  0.00    -0.237 OA
ATOM     96  O   UNL A   1      39.697  22.209  26.164  1.00  0.00    -0.237 OA
ATOM     97  O   UNL A   1      41.405  20.420  26.105  1.00  0.00    -0.744 OA
ENDBRANCH  90  94
ENDBRANCH  63  87
BRANCH  75  98
ATOM     98  C   UNL A   1      46.342  29.877  29.083  1.00  0.00     0.023 A 
ATOM     99  C   UNL A   1      45.428  30.752  28.464  1.00  0.00     0.031 A 
ATOM    100  C   UNL A   1      47.661  29.861  28.592  1.00  0.00     0.131 A 
ATOM    101  C   UNL A   1      45.820  31.531  27.369  1.00  0.00     0.055 A 
ATOM    102  C   UNL A   1      48.069  30.703  27.551  1.00  0.00     0.041 A 
ATOM    103  F   UNL A   1      48.565  28.972  29.031  1.00  0.00    -0.206 F 
ATOM    104  C   UNL A   1      47.141  31.527  26.920  1.00  0.00     0.022 A 
BRANCH 101 105
ATOM    105  S   UNL A   1      44.581  32.426  26.393  1.00  0.00     0.124 S 
ATOM    106  O   UNL A   1      45.378  32.954  25.290  1.00  0.00    -0.237 OA
ATOM    107  O   UNL A   1      43.641  31.366  26.036  1.00  0.00    -0.237 OA
ATOM    108  O   UNL A   1      44.056  33.427  27.319  1.00  0.00    -0.744 OA
ENDBRANCH 101 105
ENDBRANCH  75  98
ENDBRANCH  49  50
ENDBRANCH  42  44
ENDBRANCH  41  42
ENDBRANCH  40  41
ENDBRANCH   1  40
TORSDOF 20
ENDMDL
MODEL 3
REMARK VINA RESULT:     -13.3      1.446      2.069
REMARK SMILES Cc1coc2cc3oc(=O)c(CC(=O)N[C@H](Cc4c[nH]c5ccc(O)cc45)C(=O)OCCOC(=O)c4ccc(-c5c6nc(c(-c7cc(S(=O)(=O)[O-])ccc7F)c7ccc([nH]7)c(-c7cc(S(=O)(=O)[O-])ccc7F)c7nc(c(-c8cc(S(=O)(=O)[O-])ccc8F)c8ccc5[nH]8)C=C7)C=C6)cc4)c(C)c3cc12
REMARK SMILES IDX 31 1 30 2 28 3 29 4 16 5 15 6 13 7 14 8 12 10 11 11 1 12
REMARK SMILES IDX 2 13 3 14 103 15 4 16 5 17 102 18 6 19 101 20 7 21 99 22
REMARK SMILES IDX 8 23 100 24 9 25 10 26 17 27 18 28 19 29 27 30 20 31 21 32
REMARK SMILES IDX 26 33 22 35 24 36 23 37 25 38 32 40 33 41 34 42 35 43 36 44
REMARK SMILES IDX 37 45 98 46 38 47 97 48 39 49 40 50 41 51 91 52 42 53 96 54
REMARK SMILES IDX 90 55 92 56 43 57 95 58 89 59 88 60 44 62 76 63 56 64 75 65
REMARK SMILES IDX 57 66 60 67 74 68 93 69 58 70 59 71 73 73 94 74 61 75 45 76
REMARK SMILES IDX 46 77 54 78 47 79 53 80 55 81 52 82 48 83 49 84 50 85 51 86
REMARK SMILES IDX 77 87 78 88 86 89 79 90 85 91 87 92 84 93 80 94 81 95 82 96
REMARK SMILES IDX 83 97 62 98 63 99 71 100 64 101 70 102 72 103 69 104 65 105
REMARK SMILES IDX 66 106 67 107 68 108
REMARK H PARENT 15 9 20 34 25 39 92 61 60 72
REMARK Flexibility Score: inf
ROOT
ATOM      1  C   UNL A   1      37.442  23.640  25.325  1.00  0.00     0.274 C 
ENDROOT
BRANCH   1   2
ATOM      2  O   UNL A   1      36.172  23.039  25.043  1.00  0.00    -0.461 OA
BRANCH   2   3
ATOM      3  C   UNL A   1      35.638  23.372  23.838  1.00  0.00     0.329 C 
ATOM      4  O   UNL A   1      36.212  23.187  22.769  1.00  0.00    -0.250 OA
BRANCH   3   5
ATOM      5  C   UNL A   1      34.170  23.817  23.972  1.00  0.00     0.196 C 
BRANCH   5   6
ATOM      6  N   UNL A   1      34.067  24.699  25.139  1.00  0.00    -0.342 N 
ATOM      7  C   UNL A   1      34.130  26.075  25.168  1.00  0.00     0.225 C 
ATOM      8  O   UNL A   1      34.505  26.599  26.222  1.00  0.00    -0.275 OA
ATOM      9  H   UNL A   1      33.938  24.254  26.007  1.00  0.00     0.164 HD
BRANCH   7  10
ATOM     10  C   UNL A   1      33.691  26.959  23.982  1.00  0.00     0.143 C 
BRANCH  10  11
ATOM     11  C   UNL A   1      32.338  27.599  24.025  1.00  0.00     0.051 A 
ATOM     12  C   UNL A   1      29.121  33.470  23.129  1.00  0.00     0.048 C 
ATOM     13  C   UNL A   1      28.660  32.132  22.700  1.00  0.00    -0.005 A 
ATOM     14  C   UNL A   1      27.723  31.822  21.736  1.00  0.00     0.199 A 
ATOM     15  C   UNL A   1      29.150  30.884  23.183  1.00  0.00     0.024 A 
ATOM     16  O   UNL A   1      27.564  30.478  21.628  1.00  0.00    -0.464 OA
ATOM     17  C   UNL A   1      28.433  29.903  22.505  1.00  0.00     0.137 A 
ATOM     18  C   UNL A   1      30.179  30.507  24.076  1.00  0.00     0.024 A 
ATOM     19  C   UNL A   1      28.625  28.540  22.665  1.00  0.00     0.095 A 
ATOM     20  C   UNL A   1      30.516  29.157  24.162  1.00  0.00     0.022 A 
ATOM     21  C   UNL A   1      29.712  28.212  23.480  1.00  0.00     0.142 A 
ATOM     22  C   UNL A   1      31.841  28.678  24.666  1.00  0.00    -0.029 A 
ATOM     23  O   UNL A   1      30.141  26.892  23.468  1.00  0.00    -0.422 OA
ATOM     24  C   UNL A   1      32.632  29.494  25.628  1.00  0.00     0.046 C 
ATOM     25  C   UNL A   1      31.408  27.091  23.011  1.00  0.00     0.340 A 
ATOM     26  O   UNL A   1      31.726  27.083  21.836  1.00  0.00    -0.246 OA
ENDBRANCH  10  11
ENDBRANCH   7  10
ENDBRANCH   5   6
BRANCH   5  27
ATOM     27  C   UNL A   1      33.160  22.657  23.824  1.00  0.00     0.074 C 
BRANCH  27  28
ATOM     28  C   UNL A   1      33.252  21.438  24.671  1.00  0.00    -0.020 A 
ATOM     29  C   UNL A   1      33.394  21.454  26.043  1.00  0.00     0.087 A 
ATOM     30  C   UNL A   1      32.934  20.086  24.305  1.00  0.00     0.006 A 
ATOM     31  N   UNL A   1      33.223  20.184  26.521  1.00  0.00    -0.361 N 
ATOM     32  C   UNL A   1      32.983  19.321  25.475  1.00  0.00     0.046 A 
ATOM     33  C   UNL A   1      32.544  19.448  23.104  1.00  0.00     0.056 A 
ATOM     34  H   UNL A   1      33.266  19.926  27.471  1.00  0.00     0.166 HD
ATOM     35  C   UNL A   1      32.751  17.939  25.485  1.00  0.00     0.030 A 
ATOM     36  C   UNL A   1      32.276  18.077  23.118  1.00  0.00     0.116 A 
ATOM     37  C   UNL A   1      32.403  17.323  24.279  1.00  0.00     0.048 A 
BRANCH  36  38
ATOM     38  O   UNL A   1      31.871  17.492  21.949  1.00  0.00    -0.508 OA
ATOM     39  H   UNL A   1      31.993  17.938  21.135  1.00  0.00     0.293 HD
ENDBRANCH  36  38
ENDBRANCH  27  28
ENDBRANCH   5  27
ENDBRANCH   3   5
ENDBRANCH   2   3
ENDBRANCH   1   2
BRANCH   1  40
ATOM     40  C   UNL A   1      38.444  22.519  25.629  1.00  0.00     0.275 C 
BRANCH  40  41
ATOM     41  O   UNL A   1      39.131  22.769  26.875  1.00  0.00    -0.458 OA
BRANCH  41  42
ATOM     42  C   UNL A   1      40.344  23.396  26.806  1.00  0.00     0.338 C 
ATOM     43  O   UNL A   1      41.163  23.279  25.927  1.00  0.00    -0.246 OA
BRANCH  42  44
ATOM     44  C   UNL A   1      40.412  24.447  27.863  1.00  0.00     0.060 A 
ATOM     45  C   UNL A   1      39.294  25.171  28.275  1.00  0.00     0.016 A 
ATOM     46  C   UNL A   1      41.683  24.837  28.298  1.00  0.00     0.016 A 
ATOM     47  C   UNL A   1      39.483  26.411  28.904  1.00  0.00     0.010 A 
ATOM     48  C   UNL A   1      41.866  26.077  28.926  1.00  0.00     0.010 A 
ATOM     49  C   UNL A   1      40.777  26.920  29.132  1.00  0.00    -0.014 A 
BRANCH  49  50
ATOM     50  C   UNL A   1      40.908  28.257  29.758  1.00  0.00     0.031 A 
ATOM     51  C   UNL A   1      41.937  29.086  29.090  1.00  0.00     0.074 A 
ATOM     52  C   UNL A   1      40.145  28.809  30.731  1.00  0.00     0.049 A 
ATOM     53  N   UNL A   1      42.982  29.657  29.591  1.00  0.00    -0.248 NA
ATOM     54  C   UNL A   1      41.833  29.156  27.624  1.00  0.00     0.031 C 
ATOM     55  C   UNL A   1      38.910  28.252  31.269  1.00  0.00     0.029 A 
ATOM     56  N   UNL A   1      40.253  30.010  31.404  1.00  0.00    -0.354 N 
ATOM     57  C   UNL A   1      43.559  30.329  28.519  1.00  0.00     0.074 A 
ATOM     58  C   UNL A   1      42.945  29.815  27.322  1.00  0.00     0.031 C 
ATOM     59  C   UNL A   1      38.325  29.133  32.102  1.00  0.00     0.029 A 
ATOM     60  C   UNL A   1      39.107  30.356  32.123  1.00  0.00     0.049 A 
ATOM     61  H   UNL A   1      41.062  30.571  31.379  1.00  0.00     0.167 HD
ATOM     62  C   UNL A   1      44.294  31.461  28.675  1.00  0.00     0.034 A 
ATOM     63  C   UNL A   1      38.713  31.576  32.581  1.00  0.00     0.034 A 
ATOM     64  C   UNL A   1      44.842  31.586  29.993  1.00  0.00     0.049 A 
ATOM     65  C   UNL A   1      39.873  32.493  32.602  1.00  0.00     0.074 A 
ATOM     66  C   UNL A   1      45.676  30.801  30.763  1.00  0.00     0.029 A 
ATOM     67  N   UNL A   1      44.295  32.513  30.842  1.00  0.00    -0.354 N 
ATOM     68  N   UNL A   1      40.839  32.460  33.475  1.00  0.00    -0.248 NA
ATOM     69  C   UNL A   1      40.157  33.239  31.386  1.00  0.00     0.031 C 
ATOM     70  C   UNL A   1      45.271  31.023  32.106  1.00  0.00     0.029 A 
ATOM     71  C   UNL A   1      44.230  31.952  32.093  1.00  0.00     0.049 A 
ATOM     72  H   UNL A   1      44.000  33.420  30.599  1.00  0.00     0.167 HD
ATOM     73  C   UNL A   1      41.975  32.752  32.737  1.00  0.00     0.074 A 
ATOM     74  C   UNL A   1      41.482  33.344  31.498  1.00  0.00     0.031 C 
ATOM     75  C   UNL A   1      43.189  32.224  33.065  1.00  0.00     0.034 A 
BRANCH  62  76
ATOM     76  C   UNL A   1      44.210  32.584  27.678  1.00  0.00     0.023 A 
ATOM     77  C   UNL A   1      43.593  33.814  27.994  1.00  0.00     0.031 A 
ATOM     78  C   UNL A   1      44.894  32.538  26.455  1.00  0.00     0.131 A 
ATOM     79  C   UNL A   1      43.565  34.883  27.099  1.00  0.00     0.055 A 
ATOM     80  C   UNL A   1      44.948  33.642  25.592  1.00  0.00     0.041 A 
ATOM     81  F   UNL A   1      45.566  31.437  26.085  1.00  0.00    -0.206 F 
ATOM     82  C   UNL A   1      44.265  34.816  25.902  1.00  0.00     0.022 A 
BRANCH  79  83
ATOM     83  S   UNL A   1      42.577  36.355  27.480  1.00  0.00     0.124 S 
ATOM     84  O   UNL A   1      43.124  37.333  26.546  1.00  0.00    -0.237 OA
ATOM     85  O   UNL A   1      41.223  35.888  27.193  1.00  0.00    -0.237 OA
ATOM     86  O   UNL A   1      42.856  36.599  28.893  1.00  0.00    -0.744 OA
ENDBRANCH  79  83
ENDBRANCH  62  76
BRANCH  63  87
ATOM     87  C   UNL A   1      37.307  32.080  32.618  1.00  0.00     0.023 A 
ATOM     88  C   UNL A   1      36.649  32.423  31.419  1.00  0.00     0.031 A 
ATOM     89  C   UNL A   1      36.663  32.461  33.807  1.00  0.00     0.131 A 
ATOM     90  C   UNL A   1      35.427  33.102  31.410  1.00  0.00     0.055 A 
ATOM     91  C   UNL A   1      35.443  33.159  33.804  1.00  0.00     0.041 A 
ATOM     92  F   UNL A   1      37.228  32.220  35.001  1.00  0.00    -0.206 F 
ATOM     93  C   UNL A   1      34.819  33.485  32.599  1.00  0.00     0.022 A 
BRANCH  90  94
ATOM     94  S   UNL A   1      34.666  33.501  29.811  1.00  0.00     0.124 S 
ATOM     95  O   UNL A   1      34.360  32.186  29.256  1.00  0.00    -0.237 OA
ATOM     96  O   UNL A   1      33.515  34.297  30.221  1.00  0.00    -0.237 OA
ATOM     97  O   UNL A   1      35.718  34.226  29.097  1.00  0.00    -0.744 OA
ENDBRANCH  90  94
ENDBRANCH  63  87
BRANCH  75  98
ATOM     98  C   UNL A   1      43.386  31.608  34.432  1.00  0.00     0.023 A 
ATOM     99  C   UNL A   1      42.992  30.264  34.589  1.00  0.00     0.031 A 
ATOM    100  C   UNL A   1      43.711  32.331  35.596  1.00  0.00     0.131 A 
ATOM    101  C   UNL A   1      42.883  29.700  35.865  1.00  0.00     0.055 A 
ATOM    102  C   UNL A   1      43.680  31.737  36.863  1.00  0.00     0.041 A 
ATOM    103  F   UNL A   1      43.971  33.646  35.558  1.00  0.00    -0.206 F 
ATOM    104  C   UNL A   1      43.244  30.422  37.004  1.00  0.00     0.022 A 
BRANCH 101 105
ATOM    105  S   UNL A   1      42.099  28.081  36.085  1.00  0.00     0.124 S 
ATOM    106  O   UNL A   1      40.726  28.444  36.422  1.00  0.00    -0.237 OA
ATOM    107  O   UNL A   1      42.280  27.466  34.772  1.00  0.00    -0.237 OA
ATOM    108  O   UNL A   1      42.864  27.460  37.164  1.00  0.00    -0.744 OA
ENDBRANCH 101 105
ENDBRANCH  75  98
ENDBRANCH  49  50
ENDBRANCH  42  44
ENDBRANCH  41  42
ENDBRANCH  40  41
ENDBRANCH   1  40
TORSDOF 20
ENDMDL
