MODEL 1
REMARK VINA RESULT:     -11.0      0.000      0.000
REMARK SMILES C[C@@H]1C[C@@H](C)CN(C(=O)CCn2ccc(C(=O)OCCOC(=O)c3ccc(-c4c5nc(c(-c6cc(S(=O)(=O)[O-])ccc6F)c6ccc([nH]6)c(-c6cc(S(=O)(=O)[O-])ccc6F)c6nc(c(-c7cc(S(=O)(=O)[O-])ccc7F)c7ccc4[nH]7)C=C6)C=C5)cc3)n2)C1
REMARK SMILES IDX 19 1 18 2 16 3 17 4 15 5 12 6 13 7 87 8 14 9 11 10 10 11
REMARK SMILES IDX 8 12 1 13 2 14 3 15 88 16 4 17 7 18 6 19 5 20 9 21 20 22
REMARK SMILES IDX 21 23 22 24 23 25 24 26 25 27 86 28 26 29 85 30 27 31 28 32
REMARK SMILES IDX 29 33 79 34 30 35 84 36 78 37 80 38 31 39 83 40 77 41 76 42
REMARK SMILES IDX 32 44 64 45 44 46 63 47 45 48 48 49 62 50 81 51 46 52 47 53
REMARK SMILES IDX 61 55 82 56 49 57 33 58 34 59 42 60 35 61 41 62 43 63 40 64
REMARK SMILES IDX 36 65 37 66 38 67 39 68 65 69 66 70 74 71 67 72 73 73 75 74
REMARK SMILES IDX 72 75 68 76 69 77 70 78 71 79 50 80 51 81 59 82 52 83 58 84
REMARK SMILES IDX 60 85 57 86 53 87 54 88 55 89 56 90
REMARK H PARENT 80 43 48 54
REMARK Flexibility Score: inf
ROOT
ATOM      1  C   UNL A   1      33.935  33.981  28.149  1.00  0.00     0.275 C 
ENDROOT
BRANCH   1   2
ATOM      2  O   UNL A   1      33.094  34.230  29.289  1.00  0.00    -0.457 OA
BRANCH   2   3
ATOM      3  C   UNL A   1      32.915  35.535  29.646  1.00  0.00     0.358 C 
ATOM      4  O   UNL A   1      32.336  36.367  28.950  1.00  0.00    -0.244 OA
BRANCH   3   5
ATOM      5  C   UNL A   1      33.448  35.859  30.981  1.00  0.00     0.170 A 
ATOM      6  N   UNL A   1      34.330  35.625  32.913  1.00  0.00    -0.271 N 
ATOM      7  C   UNL A   1      33.762  36.866  32.945  1.00  0.00     0.109 A 
ATOM      8  N   UNL A   1      34.245  35.040  31.700  1.00  0.00    -0.166 NA
ATOM      9  C   UNL A   1      33.184  37.051  31.712  1.00  0.00     0.057 A 
BRANCH   6  10
ATOM     10  C   UNL A   1      35.073  34.982  33.986  1.00  0.00     0.154 C 
BRANCH  10  11
ATOM     11  C   UNL A   1      36.008  33.854  33.549  1.00  0.00     0.124 C 
BRANCH  11  12
ATOM     12  C   UNL A   1      37.442  34.337  33.408  1.00  0.00     0.224 C 
ATOM     13  C   UNL A   1      40.406  32.539  32.505  1.00  0.00     0.009 C 
ATOM     14  C   UNL A   1      40.615  33.069  33.932  1.00  0.00     0.006 C 
ATOM     15  C   UNL A   1      40.303  31.988  34.989  1.00  0.00     0.010 C 
ATOM     16  C   UNL A   1      39.791  34.350  34.191  1.00  0.00     0.122 C 
ATOM     17  C   UNL A   1      38.796  31.815  35.197  1.00  0.00     0.006 C 
ATOM     18  N   UNL A   1      38.369  34.030  34.385  1.00  0.00    -0.342 N 
ATOM     19  C   UNL A   1      38.141  33.147  35.515  1.00  0.00     0.122 C 
ATOM     20  C   UNL A   1      38.458  30.815  36.274  1.00  0.00     0.009 C 
ATOM     21  O   UNL A   1      37.734  34.994  32.403  1.00  0.00    -0.275 OA
ENDBRANCH  11  12
ENDBRANCH  10  11
ENDBRANCH   6  10
ENDBRANCH   3   5
ENDBRANCH   2   3
ENDBRANCH   1   2
BRANCH   1  22
ATOM     22  C   UNL A   1      34.118  32.491  27.920  1.00  0.00     0.275 C 
BRANCH  22  23
ATOM     23  O   UNL A   1      35.458  32.178  27.509  1.00  0.00    -0.458 OA
BRANCH  23  24
ATOM     24  C   UNL A   1      35.757  30.899  27.812  1.00  0.00     0.338 C 
ATOM     25  O   UNL A   1      35.399  29.903  27.199  1.00  0.00    -0.246 OA
BRANCH  24  26
ATOM     26  C   UNL A   1      36.469  30.748  29.088  1.00  0.00     0.060 A 
ATOM     27  C   UNL A   1      37.519  31.645  29.287  1.00  0.00     0.016 A 
ATOM     28  C   UNL A   1      36.616  29.399  29.415  1.00  0.00     0.016 A 
ATOM     29  C   UNL A   1      38.802  31.149  29.415  1.00  0.00     0.010 A 
ATOM     30  C   UNL A   1      37.889  28.906  29.622  1.00  0.00     0.010 A 
ATOM     31  C   UNL A   1      38.987  29.767  29.500  1.00  0.00    -0.014 A 
BRANCH  31  32
ATOM     32  C   UNL A   1      40.345  29.252  29.671  1.00  0.00     0.031 A 
ATOM     33  C   UNL A   1      40.767  29.152  31.101  1.00  0.00     0.074 A 
ATOM     34  C   UNL A   1      41.025  28.696  28.647  1.00  0.00     0.049 A 
ATOM     35  N   UNL A   1      41.893  29.462  31.656  1.00  0.00    -0.248 NA
ATOM     36  C   UNL A   1      39.721  28.755  32.067  1.00  0.00     0.031 C 
ATOM     37  C   UNL A   1      40.560  28.521  27.266  1.00  0.00     0.029 A 
ATOM     38  N   UNL A   1      42.192  27.991  28.667  1.00  0.00    -0.354 N 
ATOM     39  C   UNL A   1      41.755  29.124  33.002  1.00  0.00     0.074 A 
ATOM     40  C   UNL A   1      40.359  28.879  33.225  1.00  0.00     0.031 C 
ATOM     41  C   UNL A   1      41.271  27.531  26.685  1.00  0.00     0.029 A 
ATOM     42  C   UNL A   1      42.299  27.086  27.612  1.00  0.00     0.049 A 
ATOM     43  H   UNL A   1      42.888  28.109  29.353  1.00  0.00     0.167 HD
ATOM     44  C   UNL A   1      42.817  28.856  33.808  1.00  0.00     0.034 A 
ATOM     45  C   UNL A   1      43.071  25.967  27.563  1.00  0.00     0.034 A 
ATOM     46  C   UNL A   1      44.026  29.450  33.304  1.00  0.00     0.049 A 
ATOM     47  C   UNL A   1      44.107  26.095  28.618  1.00  0.00     0.074 A 
ATOM     48  C   UNL A   1      44.420  30.749  33.043  1.00  0.00     0.029 A 
ATOM     49  N   UNL A   1      44.935  28.650  32.650  1.00  0.00    -0.354 N 
ATOM     50  N   UNL A   1      45.048  26.996  28.605  1.00  0.00    -0.248 NA
ATOM     51  C   UNL A   1      43.825  25.519  29.926  1.00  0.00     0.031 C 
ATOM     52  C   UNL A   1      45.209  30.664  31.862  1.00  0.00     0.029 A 
ATOM     53  C   UNL A   1      45.298  29.316  31.504  1.00  0.00     0.049 A 
ATOM     54  H   UNL A   1      45.262  27.771  32.946  1.00  0.00     0.167 HD
ATOM     55  C   UNL A   1      45.176  27.405  29.923  1.00  0.00     0.074 A 
ATOM     56  C   UNL A   1      44.478  26.387  30.703  1.00  0.00     0.031 C 
ATOM     57  C   UNL A   1      45.584  28.670  30.238  1.00  0.00     0.034 A 
BRANCH  44  58
ATOM     58  C   UNL A   1      42.799  27.806  34.895  1.00  0.00     0.023 A 
ATOM     59  C   UNL A   1      43.452  26.588  34.641  1.00  0.00     0.031 A 
ATOM     60  C   UNL A   1      41.963  27.828  36.038  1.00  0.00     0.131 A 
ATOM     61  C   UNL A   1      43.213  25.459  35.448  1.00  0.00     0.055 A 
ATOM     62  C   UNL A   1      41.789  26.728  36.879  1.00  0.00     0.041 A 
ATOM     63  F   UNL A   1      41.191  28.875  36.354  1.00  0.00    -0.206 F 
ATOM     64  C   UNL A   1      42.391  25.523  36.570  1.00  0.00     0.022 A 
BRANCH  61  65
ATOM     65  S   UNL A   1      43.845  23.854  34.896  1.00  0.00     0.124 S 
ATOM     66  O   UNL A   1      44.483  23.352  36.110  1.00  0.00    -0.237 OA
ATOM     67  O   UNL A   1      42.620  23.178  34.483  1.00  0.00    -0.237 OA
ATOM     68  O   UNL A   1      44.760  24.207  33.814  1.00  0.00    -0.744 OA
ENDBRANCH  61  65
ENDBRANCH  44  58
BRANCH  45  69
ATOM     69  C   UNL A   1      42.704  24.675  26.917  1.00  0.00     0.023 A 
ATOM     70  C   UNL A   1      43.594  23.948  26.100  1.00  0.00     0.031 A 
ATOM     71  C   UNL A   1      41.498  24.025  27.273  1.00  0.00     0.131 A 
ATOM     72  C   UNL A   1      43.250  22.648  25.656  1.00  0.00     0.055 A 
ATOM     73  C   UNL A   1      41.156  22.751  26.817  1.00  0.00     0.041 A 
ATOM     74  F   UNL A   1      40.642  24.577  28.148  1.00  0.00    -0.206 F 
ATOM     75  C   UNL A   1      42.035  22.054  26.007  1.00  0.00     0.022 A 
BRANCH  72  76
ATOM     76  S   UNL A   1      44.435  21.665  24.682  1.00  0.00     0.124 S 
ATOM     77  O   UNL A   1      45.667  21.814  25.449  1.00  0.00    -0.237 OA
ATOM     78  O   UNL A   1      43.822  20.341  24.687  1.00  0.00    -0.237 OA
ATOM     79  O   UNL A   1      44.439  22.330  23.378  1.00  0.00    -0.744 OA
ENDBRANCH  72  76
ENDBRANCH  45  69
BRANCH  57  80
ATOM     80  C   UNL A   1      46.140  29.548  29.135  1.00  0.00     0.023 A 
ATOM     81  C   UNL A   1      47.490  29.539  28.715  1.00  0.00     0.031 A 
ATOM     82  C   UNL A   1      45.230  30.310  28.383  1.00  0.00     0.131 A 
ATOM     83  C   UNL A   1      47.883  30.283  27.584  1.00  0.00     0.055 A 
ATOM     84  C   UNL A   1      45.618  31.030  27.254  1.00  0.00     0.041 A 
ATOM     85  F   UNL A   1      43.927  30.330  28.711  1.00  0.00    -0.206 F 
ATOM     86  C   UNL A   1      46.949  31.023  26.853  1.00  0.00     0.022 A 
BRANCH  83  87
ATOM     87  S   UNL A   1      49.624  30.303  27.045  1.00  0.00     0.124 S 
ATOM     88  O   UNL A   1      50.361  29.967  28.257  1.00  0.00    -0.237 OA
ATOM     89  O   UNL A   1      49.637  29.299  25.985  1.00  0.00    -0.237 OA
ATOM     90  O   UNL A   1      49.817  31.677  26.578  1.00  0.00    -0.744 OA
ENDBRANCH  83  87
ENDBRANCH  57  80
ENDBRANCH  31  32
ENDBRANCH  24  26
ENDBRANCH  23  24
ENDBRANCH  22  23
ENDBRANCH   1  22
TORSDOF 17
ENDMDL
MODEL 2
REMARK VINA RESULT:     -10.7      4.404      9.500
REMARK SMILES C[C@@H]1C[C@@H](C)CN(C(=O)CCn2ccc(C(=O)OCCOC(=O)c3ccc(-c4c5nc(c(-c6cc(S(=O)(=O)[O-])ccc6F)c6ccc([nH]6)c(-c6cc(S(=O)(=O)[O-])ccc6F)c6nc(c(-c7cc(S(=O)(=O)[O-])ccc7F)c7ccc4[nH]7)C=C6)C=C5)cc3)n2)C1
REMARK SMILES IDX 19 1 18 2 16 3 17 4 15 5 12 6 13 7 87 8 14 9 11 10 10 11
REMARK SMILES IDX 8 12 1 13 2 14 3 15 88 16 4 17 7 18 6 19 5 20 9 21 20 22
REMARK SMILES IDX 21 23 22 24 23 25 24 26 25 27 86 28 26 29 85 30 27 31 28 32
REMARK SMILES IDX 29 33 79 34 30 35 84 36 78 37 80 38 31 39 83 40 77 41 76 42
REMARK SMILES IDX 32 44 64 45 44 46 63 47 45 48 48 49 62 50 81 51 46 52 47 53
REMARK SMILES IDX 61 55 82 56 49 57 33 58 34 59 42 60 35 61 41 62 43 63 40 64
REMARK SMILES IDX 36 65 37 66 38 67 39 68 65 69 66 70 74 71 67 72 73 73 75 74
REMARK SMILES IDX 72 75 68 76 69 77 70 78 71 79 50 80 51 81 59 82 52 83 58 84
REMARK SMILES IDX 60 85 57 86 53 87 54 88 55 89 56 90
REMARK H PARENT 80 43 48 54
REMARK Flexibility Score: inf
ROOT
ATOM      1  C   UNL A   1      33.948  32.238  27.703  1.00  0.00     0.275 C 
ENDROOT
BRANCH   1   2
ATOM      2  O   UNL A   1      33.479  30.881  27.627  1.00  0.00    -0.457 OA
BRANCH   2   3
ATOM      3  C   UNL A   1      32.576  30.598  26.643  1.00  0.00     0.358 C 
ATOM      4  O   UNL A   1      31.517  31.204  26.484  1.00  0.00    -0.244 OA
BRANCH   3   5
ATOM      5  C   UNL A   1      33.004  29.512  25.744  1.00  0.00     0.170 A 
ATOM      6  N   UNL A   1      32.992  28.090  24.149  1.00  0.00    -0.271 N 
ATOM      7  C   UNL A   1      33.983  27.659  24.983  1.00  0.00     0.109 A 
ATOM      8  N   UNL A   1      32.456  29.267  24.534  1.00  0.00    -0.166 NA
ATOM      9  C   UNL A   1      34.019  28.556  26.024  1.00  0.00     0.057 A 
BRANCH   6  10
ATOM     10  C   UNL A   1      32.581  27.473  22.897  1.00  0.00     0.154 C 
BRANCH  10  11
ATOM     11  C   UNL A   1      31.852  26.136  23.037  1.00  0.00     0.124 C 
BRANCH  11  12
ATOM     12  C   UNL A   1      32.795  24.960  22.838  1.00  0.00     0.224 C 
ATOM     13  C   UNL A   1      32.083  21.473  22.426  1.00  0.00     0.009 C 
ATOM     14  C   UNL A   1      32.910  21.618  23.713  1.00  0.00     0.006 C 
ATOM     15  C   UNL A   1      32.009  21.635  24.966  1.00  0.00     0.010 C 
ATOM     16  C   UNL A   1      33.820  22.865  23.669  1.00  0.00     0.122 C 
ATOM     17  C   UNL A   1      31.335  22.996  25.163  1.00  0.00     0.006 C 
ATOM     18  N   UNL A   1      33.041  24.093  23.885  1.00  0.00    -0.342 N 
ATOM     19  C   UNL A   1      32.366  24.111  25.170  1.00  0.00     0.122 C 
ATOM     20  C   UNL A   1      30.502  23.068  26.418  1.00  0.00     0.009 C 
ATOM     21  O   UNL A   1      33.312  24.816  21.726  1.00  0.00    -0.275 OA
ENDBRANCH  11  12
ENDBRANCH  10  11
ENDBRANCH   6  10
ENDBRANCH   3   5
ENDBRANCH   2   3
ENDBRANCH   1   2
BRANCH   1  22
ATOM     22  C   UNL A   1      35.350  32.299  28.285  1.00  0.00     0.275 C 
BRANCH  22  23
ATOM     23  O   UNL A   1      36.210  31.308  27.700  1.00  0.00    -0.458 OA
BRANCH  23  24
ATOM     24  C   UNL A   1      36.962  30.718  28.651  1.00  0.00     0.338 C 
ATOM     25  O   UNL A   1      37.332  31.221  29.703  1.00  0.00    -0.246 OA
BRANCH  24  26
ATOM     26  C   UNL A   1      37.466  29.393  28.264  1.00  0.00     0.060 A 
ATOM     27  C   UNL A   1      37.755  28.539  29.330  1.00  0.00     0.016 A 
ATOM     28  C   UNL A   1      38.336  29.493  27.178  1.00  0.00     0.016 A 
ATOM     29  C   UNL A   1      39.059  28.114  29.505  1.00  0.00     0.010 A 
ATOM     30  C   UNL A   1      39.619  29.000  27.312  1.00  0.00     0.010 A 
ATOM     31  C   UNL A   1      40.007  28.420  28.526  1.00  0.00    -0.014 A 
BRANCH  31  32
ATOM     32  C   UNL A   1      41.375  27.935  28.703  1.00  0.00     0.031 A 
ATOM     33  C   UNL A   1      41.616  26.596  28.085  1.00  0.00     0.074 A 
ATOM     34  C   UNL A   1      42.359  28.742  29.154  1.00  0.00     0.049 A 
ATOM     35  N   UNL A   1      42.266  25.577  28.544  1.00  0.00    -0.248 NA
ATOM     36  C   UNL A   1      40.916  26.326  26.811  1.00  0.00     0.031 C 
ATOM     37  C   UNL A   1      42.244  30.156  29.529  1.00  0.00     0.029 A 
ATOM     38  N   UNL A   1      43.705  28.528  29.184  1.00  0.00    -0.354 N 
ATOM     39  C   UNL A   1      42.211  24.612  27.539  1.00  0.00     0.074 A 
ATOM     40  C   UNL A   1      41.224  25.053  26.597  1.00  0.00     0.031 C 
ATOM     41  C   UNL A   1      43.462  30.731  29.453  1.00  0.00     0.029 A 
ATOM     42  C   UNL A   1      44.445  29.709  29.133  1.00  0.00     0.049 A 
ATOM     43  H   UNL A   1      44.113  27.633  29.236  1.00  0.00     0.167 HD
ATOM     44  C   UNL A   1      43.128  23.614  27.424  1.00  0.00     0.034 A 
ATOM     45  C   UNL A   1      45.731  29.856  28.717  1.00  0.00     0.034 A 
ATOM     46  C   UNL A   1      43.790  23.358  28.675  1.00  0.00     0.049 A 
ATOM     47  C   UNL A   1      46.365  28.514  28.744  1.00  0.00     0.074 A 
ATOM     48  C   UNL A   1      43.356  22.956  29.924  1.00  0.00     0.029 A 
ATOM     49  N   UNL A   1      45.060  23.850  28.866  1.00  0.00    -0.354 N 
ATOM     50  N   UNL A   1      46.577  27.834  29.836  1.00  0.00    -0.248 NA
ATOM     51  C   UNL A   1      46.343  27.723  27.521  1.00  0.00     0.031 C 
ATOM     52  C   UNL A   1      44.163  23.682  30.845  1.00  0.00     0.029 A 
ATOM     53  C   UNL A   1      45.076  24.439  30.107  1.00  0.00     0.049 A 
ATOM     54  H   UNL A   1      45.814  23.790  28.235  1.00  0.00     0.167 HD
ATOM     55  C   UNL A   1      46.291  26.519  29.504  1.00  0.00     0.074 A 
ATOM     56  C   UNL A   1      46.259  26.497  28.044  1.00  0.00     0.031 C 
ATOM     57  C   UNL A   1      45.827  25.635  30.436  1.00  0.00     0.034 A 
BRANCH  44  58
ATOM     58  C   UNL A   1      43.623  23.080  26.100  1.00  0.00     0.023 A 
ATOM     59  C   UNL A   1      43.501  21.701  25.861  1.00  0.00     0.031 A 
ATOM     60  C   UNL A   1      44.439  23.793  25.186  1.00  0.00     0.131 A 
ATOM     61  C   UNL A   1      44.216  21.083  24.817  1.00  0.00     0.055 A 
ATOM     62  C   UNL A   1      45.085  23.187  24.106  1.00  0.00     0.041 A 
ATOM     63  F   UNL A   1      44.741  25.087  25.337  1.00  0.00    -0.206 F 
ATOM     64  C   UNL A   1      45.001  21.819  23.932  1.00  0.00     0.022 A 
BRANCH  61  65
ATOM     65  S   UNL A   1      44.253  19.275  24.748  1.00  0.00     0.124 S 
ATOM     66  O   UNL A   1      44.639  19.037  23.361  1.00  0.00    -0.237 OA
ATOM     67  O   UNL A   1      45.256  18.959  25.761  1.00  0.00    -0.237 OA
ATOM     68  O   UNL A   1      42.884  18.896  25.085  1.00  0.00    -0.744 OA
ENDBRANCH  61  65
ENDBRANCH  44  58
BRANCH  45  69
ATOM     69  C   UNL A   1      46.281  31.014  27.956  1.00  0.00     0.023 A 
ATOM     70  C   UNL A   1      45.512  31.768  27.046  1.00  0.00     0.031 A 
ATOM     71  C   UNL A   1      47.560  31.528  28.280  1.00  0.00     0.131 A 
ATOM     72  C   UNL A   1      46.038  32.956  26.486  1.00  0.00     0.055 A 
ATOM     73  C   UNL A   1      48.081  32.690  27.710  1.00  0.00     0.041 A 
ATOM     74  F   UNL A   1      48.319  30.958  29.230  1.00  0.00    -0.206 F 
ATOM     75  C   UNL A   1      47.317  33.414  26.810  1.00  0.00     0.022 A 
BRANCH  72  76
ATOM     76  S   UNL A   1      45.013  33.986  25.386  1.00  0.00     0.124 S 
ATOM     77  O   UNL A   1      46.005  34.850  24.755  1.00  0.00    -0.237 OA
ATOM     78  O   UNL A   1      44.378  32.992  24.529  1.00  0.00    -0.237 OA
ATOM     79  O   UNL A   1      44.103  34.668  26.307  1.00  0.00    -0.744 OA
ENDBRANCH  72  76
ENDBRANCH  45  69
BRANCH  57  80
ATOM     80  C   UNL A   1      45.865  26.037  31.897  1.00  0.00     0.023 A 
ATOM     81  C   UNL A   1      44.748  26.515  32.620  1.00  0.00     0.031 A 
ATOM     82  C   UNL A   1      47.044  25.778  32.616  1.00  0.00     0.131 A 
ATOM     83  C   UNL A   1      44.844  26.725  34.010  1.00  0.00     0.055 A 
ATOM     84  C   UNL A   1      47.130  25.968  33.995  1.00  0.00     0.041 A 
ATOM     85  F   UNL A   1      48.128  25.287  31.992  1.00  0.00    -0.206 F 
ATOM     86  C   UNL A   1      46.030  26.447  34.697  1.00  0.00     0.022 A 
BRANCH  83  87
ATOM     87  S   UNL A   1      43.422  27.366  34.953  1.00  0.00     0.124 S 
ATOM     88  O   UNL A   1      43.160  26.318  35.932  1.00  0.00    -0.237 OA
ATOM     89  O   UNL A   1      43.936  28.627  35.481  1.00  0.00    -0.237 OA
ATOM     90  O   UNL A   1      42.382  27.517  33.933  1.00  0.00    -0.744 OA
ENDBRANCH  83  87
ENDBRANCH  57  80
ENDBRANCH  31  32
ENDBRANCH  24  26
ENDBRANCH  23  24
ENDBRANCH  22  23
ENDBRANCH   1  22
TORSDOF 17
ENDMDL
MODEL 3
REMARK VINA RESULT:     -10.6      3.686     12.018
REMARK SMILES C[C@@H]1C[C@@H](C)CN(C(=O)CCn2ccc(C(=O)OCCOC(=O)c3ccc(-c4c5nc(c(-c6cc(S(=O)(=O)[O-])ccc6F)c6ccc([nH]6)c(-c6cc(S(=O)(=O)[O-])ccc6F)c6nc(c(-c7cc(S(=O)(=O)[O-])ccc7F)c7ccc4[nH]7)C=C6)C=C5)cc3)n2)C1
REMARK SMILES IDX 19 1 18 2 16 3 17 4 15 5 12 6 13 7 87 8 14 9 11 10 10 11
REMARK SMILES IDX 8 12 1 13 2 14 3 15 88 16 4 17 7 18 6 19 5 20 9 21 20 22
REMARK SMILES IDX 21 23 22 24 23 25 24 26 25 27 86 28 26 29 85 30 27 31 28 32
REMARK SMILES IDX 29 33 79 34 30 35 84 36 78 37 80 38 31 39 83 40 77 41 76 42
REMARK SMILES IDX 32 44 64 45 44 46 63 47 45 48 48 49 62 50 81 51 46 52 47 53
REMARK SMILES IDX 61 55 82 56 49 57 33 58 34 59 42 60 35 61 41 62 43 63 40 64
REMARK SMILES IDX 36 65 37 66 38 67 39 68 65 69 66 70 74 71 67 72 73 73 75 74
REMARK SMILES IDX 72 75 68 76 69 77 70 78 71 79 50 80 51 81 59 82 52 83 58 84
REMARK SMILES IDX 60 85 57 86 53 87 54 88 55 89 56 90
REMARK H PARENT 80 43 48 54
REMARK Flexibility Score: inf
ROOT
ATOM      1  C   UNL A   1      41.242  20.484  26.500  1.00  0.00     0.275 C 
ENDROOT
BRANCH   1   2
ATOM      2  O   UNL A   1      41.684  19.694  25.382  1.00  0.00    -0.457 OA
BRANCH   2   3
ATOM      3  C   UNL A   1      42.732  18.849  25.605  1.00  0.00     0.358 C 
ATOM      4  O   UNL A   1      42.610  17.677  25.959  1.00  0.00    -0.244 OA
BRANCH   3   5
ATOM      5  C   UNL A   1      44.048  19.457  25.342  1.00  0.00     0.170 A 
ATOM      6  N   UNL A   1      45.534  20.842  24.679  1.00  0.00    -0.271 N 
ATOM      7  C   UNL A   1      46.224  19.688  24.915  1.00  0.00     0.109 A 
ATOM      8  N   UNL A   1      44.234  20.758  25.031  1.00  0.00    -0.166 NA
ATOM      9  C   UNL A   1      45.294  18.772  25.346  1.00  0.00     0.057 A 
BRANCH   6  10
ATOM     10  C   UNL A   1      46.089  22.106  24.217  1.00  0.00     0.154 C 
BRANCH  10  11
ATOM     11  C   UNL A   1      45.428  23.358  24.795  1.00  0.00     0.124 C 
BRANCH  11  12
ATOM     12  C   UNL A   1      46.014  23.729  26.147  1.00  0.00     0.224 C 
ATOM     13  C   UNL A   1      45.208  26.437  28.350  1.00  0.00     0.009 C 
ATOM     14  C   UNL A   1      46.674  26.618  27.927  1.00  0.00     0.006 C 
ATOM     15  C   UNL A   1      46.807  27.626  26.765  1.00  0.00     0.010 C 
ATOM     16  C   UNL A   1      47.335  25.269  27.566  1.00  0.00     0.122 C 
ATOM     17  C   UNL A   1      46.423  27.001  25.422  1.00  0.00     0.006 C 
ATOM     18  N   UNL A   1      46.883  24.798  26.249  1.00  0.00    -0.342 N 
ATOM     19  C   UNL A   1      47.209  25.724  25.179  1.00  0.00     0.122 C 
ATOM     20  C   UNL A   1      46.609  27.939  24.257  1.00  0.00     0.009 C 
ATOM     21  O   UNL A   1      45.682  23.053  27.126  1.00  0.00    -0.275 OA
ENDBRANCH  11  12
ENDBRANCH  10  11
ENDBRANCH   6  10
ENDBRANCH   3   5
ENDBRANCH   2   3
ENDBRANCH   1   2
BRANCH   1  22
ATOM     22  C   UNL A   1      40.927  21.907  26.072  1.00  0.00     0.275 C 
BRANCH  22  23
ATOM     23  O   UNL A   1      42.086  22.752  26.150  1.00  0.00    -0.458 OA
BRANCH  23  24
ATOM     24  C   UNL A   1      41.728  24.049  26.059  1.00  0.00     0.338 C 
ATOM     25  O   UNL A   1      42.127  24.858  25.233  1.00  0.00    -0.246 OA
BRANCH  24  26
ATOM     26  C   UNL A   1      40.881  24.505  27.170  1.00  0.00     0.060 A 
ATOM     27  C   UNL A   1      40.079  25.610  26.883  1.00  0.00     0.016 A 
ATOM     28  C   UNL A   1      41.568  24.421  28.381  1.00  0.00     0.016 A 
ATOM     29  C   UNL A   1      40.279  26.779  27.593  1.00  0.00     0.010 A 
ATOM     30  C   UNL A   1      41.708  25.566  29.141  1.00  0.00     0.010 A 
ATOM     31  C   UNL A   1      41.161  26.768  28.676  1.00  0.00    -0.014 A 
BRANCH  31  32
ATOM     32  C   UNL A   1      41.340  28.000  29.444  1.00  0.00     0.031 A 
ATOM     33  C   UNL A   1      42.433  28.874  28.920  1.00  0.00     0.074 A 
ATOM     34  C   UNL A   1      40.436  28.399  30.363  1.00  0.00     0.049 A 
ATOM     35  N   UNL A   1      43.344  29.533  29.558  1.00  0.00    -0.248 NA
ATOM     36  C   UNL A   1      42.595  28.912  27.451  1.00  0.00     0.031 C 
ATOM     37  C   UNL A   1      39.193  27.714  30.738  1.00  0.00     0.029 A 
ATOM     38  N   UNL A   1      40.332  29.594  31.010  1.00  0.00    -0.354 N 
ATOM     39  C   UNL A   1      44.071  30.212  28.581  1.00  0.00     0.074 A 
ATOM     40  C   UNL A   1      43.691  29.649  27.318  1.00  0.00     0.031 C 
ATOM     41  C   UNL A   1      38.347  28.610  31.289  1.00  0.00     0.029 A 
ATOM     42  C   UNL A   1      39.026  29.891  31.400  1.00  0.00     0.049 A 
ATOM     43  H   UNL A   1      41.098  30.187  31.185  1.00  0.00     0.167 HD
ATOM     44  C   UNL A   1      44.784  31.340  28.842  1.00  0.00     0.034 A 
ATOM     45  C   UNL A   1      38.502  31.120  31.654  1.00  0.00     0.034 A 
ATOM     46  C   UNL A   1      45.127  31.438  30.236  1.00  0.00     0.049 A 
ATOM     47  C   UNL A   1      39.637  32.049  31.881  1.00  0.00     0.074 A 
ATOM     48  C   UNL A   1      45.863  30.648  31.099  1.00  0.00     0.029 A 
ATOM     49  N   UNL A   1      44.403  32.287  31.039  1.00  0.00    -0.354 N 
ATOM     50  N   UNL A   1      40.456  31.960  32.892  1.00  0.00    -0.248 NA
ATOM     51  C   UNL A   1      40.147  32.798  30.740  1.00  0.00     0.031 C 
ATOM     52  C   UNL A   1      45.171  30.716  32.341  1.00  0.00     0.029 A 
ATOM     53  C   UNL A   1      44.090  31.585  32.178  1.00  0.00     0.049 A 
ATOM     54  H   UNL A   1      44.156  33.218  30.837  1.00  0.00     0.167 HD
ATOM     55  C   UNL A   1      41.706  32.255  32.371  1.00  0.00     0.074 A 
ATOM     56  C   UNL A   1      41.439  32.868  31.072  1.00  0.00     0.031 C 
ATOM     57  C   UNL A   1      42.844  31.722  32.907  1.00  0.00     0.034 A 
BRANCH  44  58
ATOM     58  C   UNL A   1      44.909  32.495  27.875  1.00  0.00     0.023 A 
ATOM     59  C   UNL A   1      44.243  33.692  28.192  1.00  0.00     0.031 A 
ATOM     60  C   UNL A   1      45.411  32.402  26.553  1.00  0.00     0.131 A 
ATOM     61  C   UNL A   1      44.039  34.684  27.215  1.00  0.00     0.055 A 
ATOM     62  C   UNL A   1      45.273  33.423  25.610  1.00  0.00     0.041 A 
ATOM     63  F   UNL A   1      45.972  31.290  26.065  1.00  0.00    -0.206 F 
ATOM     64  C   UNL A   1      44.558  34.561  25.928  1.00  0.00     0.022 A 
BRANCH  61  65
ATOM     65  S   UNL A   1      42.924  36.057  27.599  1.00  0.00     0.124 S 
ATOM     66  O   UNL A   1      42.598  36.558  26.267  1.00  0.00    -0.237 OA
ATOM     67  O   UNL A   1      41.849  35.377  28.314  1.00  0.00    -0.237 OA
ATOM     68  O   UNL A   1      43.750  36.946  28.411  1.00  0.00    -0.744 OA
ENDBRANCH  61  65
ENDBRANCH  44  58
BRANCH  45  69
ATOM     69  C   UNL A   1      37.119  31.569  31.328  1.00  0.00     0.023 A 
ATOM     70  C   UNL A   1      36.315  32.291  32.234  1.00  0.00     0.031 A 
ATOM     71  C   UNL A   1      36.634  31.459  30.003  1.00  0.00     0.131 A 
ATOM     72  C   UNL A   1      35.081  32.838  31.809  1.00  0.00     0.055 A 
ATOM     73  C   UNL A   1      35.408  31.983  29.594  1.00  0.00     0.041 A 
ATOM     74  F   UNL A   1      37.380  30.904  29.033  1.00  0.00    -0.206 F 
ATOM     75  C   UNL A   1      34.625  32.681  30.498  1.00  0.00     0.022 A 
BRANCH  72  76
ATOM     76  S   UNL A   1      34.084  33.854  32.946  1.00  0.00     0.124 S 
ATOM     77  O   UNL A   1      35.042  34.175  33.997  1.00  0.00    -0.237 OA
ATOM     78  O   UNL A   1      33.663  34.958  32.091  1.00  0.00    -0.237 OA
ATOM     79  O   UNL A   1      33.005  32.952  33.353  1.00  0.00    -0.744 OA
ENDBRANCH  72  76
ENDBRANCH  45  69
BRANCH  57  80
ATOM     80  C   UNL A   1      42.749  31.001  34.237  1.00  0.00     0.023 A 
ATOM     81  C   UNL A   1      42.376  29.645  34.382  1.00  0.00     0.031 A 
ATOM     82  C   UNL A   1      43.202  31.678  35.383  1.00  0.00     0.131 A 
ATOM     83  C   UNL A   1      42.457  29.021  35.643  1.00  0.00     0.055 A 
ATOM     84  C   UNL A   1      43.299  31.052  36.625  1.00  0.00     0.041 A 
ATOM     85  F   UNL A   1      43.604  32.957  35.302  1.00  0.00    -0.206 F 
ATOM     86  C   UNL A   1      42.922  29.721  36.760  1.00  0.00     0.022 A 
BRANCH  83  87
ATOM     87  S   UNL A   1      41.956  27.281  35.852  1.00  0.00     0.124 S 
ATOM     88  O   UNL A   1      41.188  27.000  34.646  1.00  0.00    -0.237 OA
ATOM     89  O   UNL A   1      43.240  26.596  35.972  1.00  0.00    -0.237 OA
ATOM     90  O   UNL A   1      41.165  27.304  37.084  1.00  0.00    -0.744 OA
ENDBRANCH  83  87
ENDBRANCH  57  80
ENDBRANCH  31  32
ENDBRANCH  24  26
ENDBRANCH  23  24
ENDBRANCH  22  23
ENDBRANCH   1  22
TORSDOF 17
ENDMDL
