MODEL 1
REMARK VINA RESULT:      -9.8      0.000      0.000
REMARK SMILES CCC[C@@H](C)C[NH2+][C@@](C)(CC)C(=O)OCCOC(=O)c1ccc(-c2c3nc(c(-c4cc(S(=O)(=O)[O-])ccc4F)c4ccc([nH]4)c(-c4cc(S(=O)(=O)[O-])ccc4F)c4nc(c(-c5cc(S(=O)(=O)[O-])ccc5F)c5ccc2[nH]5)C=C4)C=C3)cc1
REMARK SMILES IDX 15 1 14 2 12 3 13 4 8 5 9 6 7 7 6 10 4 11 5 12 3 13 2 14
REMARK SMILES IDX 1 15 10 16 11 17 16 18 17 19 18 20 19 21 20 22 21 23 82 24
REMARK SMILES IDX 22 25 81 26 23 27 24 28 25 29 75 30 26 31 80 32 74 33 76 34
REMARK SMILES IDX 27 35 79 36 73 37 72 38 28 40 60 41 40 42 59 43 41 44 44 45
REMARK SMILES IDX 58 46 77 47 42 48 43 49 57 51 78 52 45 53 29 54 30 55 38 56
REMARK SMILES IDX 31 57 37 58 39 59 36 60 32 61 33 62 34 63 35 64 61 65 62 66
REMARK SMILES IDX 70 67 63 68 69 69 71 70 68 71 64 72 65 73 66 74 67 75 46 76
REMARK SMILES IDX 47 77 55 78 48 79 54 80 56 81 53 82 49 83 50 84 51 85 52 86
REMARK H PARENT 7 8 7 9 76 39 44 50
REMARK Flexibility Score: inf
ROOT
ATOM      1  C   UNL A   1      32.222  30.244  25.975  1.00  0.00     0.274 C 
ENDROOT
BRANCH   1   2
ATOM      2  O   UNL A   1      31.151  29.605  25.250  1.00  0.00    -0.457 OA
BRANCH   2   3
ATOM      3  C   UNL A   1      31.494  28.431  24.636  1.00  0.00     0.367 C 
ATOM      4  O   UNL A   1      31.845  27.439  25.266  1.00  0.00    -0.245 OA
BRANCH   3   5
ATOM      5  C   UNL A   1      31.556  28.561  23.076  1.00  0.00     0.191 C 
ATOM      6  C   UNL A   1      30.797  27.341  22.515  1.00  0.00     0.092 C 
BRANCH   5   7
ATOM      7  N   UNL A   1      30.943  29.847  22.619  1.00  0.00    -0.332 N 
ATOM      8  H   UNL A   1      30.901  30.475  23.422  1.00  0.00     0.347 HD
ATOM      9  H   UNL A   1      31.538  30.179  21.859  1.00  0.00     0.347 HD
BRANCH   7  10
ATOM     10  C   UNL A   1      29.591  29.754  22.049  1.00  0.00     0.264 C 
BRANCH  10  11
ATOM     11  C   UNL A   1      28.485  30.067  23.089  1.00  0.00     0.041 C 
ATOM     12  C   UNL A   1      27.295  29.131  22.840  1.00  0.00     0.013 C 
BRANCH  11  13
ATOM     13  C   UNL A   1      28.067  31.552  23.041  1.00  0.00     0.009 C 
BRANCH  13  14
ATOM     14  C   UNL A   1      28.660  32.378  21.893  1.00  0.00    -0.003 C 
ATOM     15  C   UNL A   1      27.743  32.473  20.685  1.00  0.00     0.004 C 
ENDBRANCH  13  14
ENDBRANCH  11  13
ENDBRANCH  10  11
ENDBRANCH   7  10
ENDBRANCH   5   7
BRANCH   5  16
ATOM     16  C   UNL A   1      33.005  28.485  22.506  1.00  0.00     0.077 C 
ATOM     17  C   UNL A   1      33.527  27.101  22.143  1.00  0.00     0.011 C 
ENDBRANCH   5  16
ENDBRANCH   3   5
ENDBRANCH   2   3
ENDBRANCH   1   2
BRANCH   1  18
ATOM     18  C   UNL A   1      31.872  31.664  26.420  1.00  0.00     0.275 C 
BRANCH  18  19
ATOM     19  O   UNL A   1      32.446  31.969  27.702  1.00  0.00    -0.458 OA
BRANCH  19  20
ATOM     20  C   UNL A   1      33.391  32.938  27.688  1.00  0.00     0.338 C 
ATOM     21  O   UNL A   1      33.224  34.127  27.478  1.00  0.00    -0.246 OA
BRANCH  20  22
ATOM     22  C   UNL A   1      34.696  32.375  28.063  1.00  0.00     0.060 A 
ATOM     23  C   UNL A   1      34.725  31.064  28.533  1.00  0.00     0.016 A 
ATOM     24  C   UNL A   1      35.845  33.168  28.103  1.00  0.00     0.016 A 
ATOM     25  C   UNL A   1      35.893  30.544  29.082  1.00  0.00     0.010 A 
ATOM     26  C   UNL A   1      37.025  32.639  28.644  1.00  0.00     0.010 A 
ATOM     27  C   UNL A   1      37.046  31.332  29.158  1.00  0.00    -0.014 A 
BRANCH  27  28
ATOM     28  C   UNL A   1      38.218  30.797  29.890  1.00  0.00     0.031 A 
ATOM     29  C   UNL A   1      38.444  31.221  31.314  1.00  0.00     0.074 A 
ATOM     30  C   UNL A   1      39.003  29.862  29.327  1.00  0.00     0.049 A 
ATOM     31  N   UNL A   1      39.373  30.846  32.155  1.00  0.00    -0.248 NA
ATOM     32  C   UNL A   1      37.484  32.190  31.863  1.00  0.00     0.031 C 
ATOM     33  C   UNL A   1      38.818  29.306  27.987  1.00  0.00     0.029 A 
ATOM     34  N   UNL A   1      40.087  29.186  29.825  1.00  0.00    -0.354 N 
ATOM     35  C   UNL A   1      39.110  31.530  33.336  1.00  0.00     0.074 A 
ATOM     36  C   UNL A   1      37.943  32.354  33.095  1.00  0.00     0.031 C 
ATOM     37  C   UNL A   1      39.744  28.352  27.781  1.00  0.00     0.029 A 
ATOM     38  C   UNL A   1      40.611  28.262  28.954  1.00  0.00     0.049 A 
ATOM     39  H   UNL A   1      40.456  29.349  30.724  1.00  0.00     0.167 HD
ATOM     40  C   UNL A   1      39.787  31.485  34.511  1.00  0.00     0.034 A 
ATOM     41  C   UNL A   1      41.676  27.446  29.087  1.00  0.00     0.034 A 
ATOM     42  C   UNL A   1      40.978  30.701  34.724  1.00  0.00     0.049 A 
ATOM     43  C   UNL A   1      42.471  27.488  30.371  1.00  0.00     0.074 A 
ATOM     44  C   UNL A   1      41.790  30.644  35.845  1.00  0.00     0.029 A 
ATOM     45  N   UNL A   1      41.536  29.838  33.789  1.00  0.00    -0.354 N 
ATOM     46  N   UNL A   1      42.247  28.182  31.463  1.00  0.00    -0.248 NA
ATOM     47  C   UNL A   1      43.668  26.638  30.434  1.00  0.00     0.031 C 
ATOM     48  C   UNL A   1      42.868  29.794  35.564  1.00  0.00     0.029 A 
ATOM     49  C   UNL A   1      42.695  29.268  34.294  1.00  0.00     0.049 A 
ATOM     50  H   UNL A   1      41.163  29.658  32.896  1.00  0.00     0.167 HD
ATOM     51  C   UNL A   1      43.271  27.844  32.344  1.00  0.00     0.074 A 
ATOM     52  C   UNL A   1      44.093  26.861  31.669  1.00  0.00     0.031 C 
ATOM     53  C   UNL A   1      43.516  28.306  33.597  1.00  0.00     0.034 A 
BRANCH  40  54
ATOM     54  C   UNL A   1      39.293  32.390  35.611  1.00  0.00     0.023 A 
ATOM     55  C   UNL A   1      39.725  33.724  35.723  1.00  0.00     0.031 A 
ATOM     56  C   UNL A   1      38.430  31.888  36.601  1.00  0.00     0.131 A 
ATOM     57  C   UNL A   1      39.345  34.488  36.838  1.00  0.00     0.055 A 
ATOM     58  C   UNL A   1      38.002  32.674  37.671  1.00  0.00     0.041 A 
ATOM     59  F   UNL A   1      38.008  30.615  36.556  1.00  0.00    -0.206 F 
ATOM     60  C   UNL A   1      38.472  33.978  37.803  1.00  0.00     0.022 A 
BRANCH  57  61
ATOM     61  S   UNL A   1      40.118  36.112  37.085  1.00  0.00     0.124 S 
ATOM     62  O   UNL A   1      39.907  36.744  35.785  1.00  0.00    -0.237 OA
ATOM     63  O   UNL A   1      39.348  36.661  38.196  1.00  0.00    -0.237 OA
ATOM     64  O   UNL A   1      41.510  35.787  37.393  1.00  0.00    -0.744 OA
ENDBRANCH  57  61
ENDBRANCH  40  54
BRANCH  41  65
ATOM     65  C   UNL A   1      42.100  26.555  27.969  1.00  0.00     0.023 A 
ATOM     66  C   UNL A   1      41.601  25.248  27.851  1.00  0.00     0.031 A 
ATOM     67  C   UNL A   1      43.076  26.974  27.046  1.00  0.00     0.131 A 
ATOM     68  C   UNL A   1      42.113  24.389  26.865  1.00  0.00     0.055 A 
ATOM     69  C   UNL A   1      43.544  26.134  26.034  1.00  0.00     0.041 A 
ATOM     70  F   UNL A   1      43.593  28.211  27.118  1.00  0.00    -0.206 F 
ATOM     71  C   UNL A   1      43.072  24.828  25.950  1.00  0.00     0.022 A 
BRANCH  68  72
ATOM     72  S   UNL A   1      41.576  22.656  26.855  1.00  0.00     0.124 S 
ATOM     73  O   UNL A   1      41.871  22.245  28.222  1.00  0.00    -0.237 OA
ATOM     74  O   UNL A   1      40.163  22.779  26.512  1.00  0.00    -0.237 OA
ATOM     75  O   UNL A   1      42.413  22.046  25.824  1.00  0.00    -0.744 OA
ENDBRANCH  68  72
ENDBRANCH  41  65
BRANCH  53  76
ATOM     76  C   UNL A   1      44.716  27.734  34.311  1.00  0.00     0.023 A 
ATOM     77  C   UNL A   1      44.615  26.583  35.115  1.00  0.00     0.031 A 
ATOM     78  C   UNL A   1      45.970  28.362  34.209  1.00  0.00     0.131 A 
ATOM     79  C   UNL A   1      45.734  26.128  35.828  1.00  0.00     0.055 A 
ATOM     80  C   UNL A   1      47.092  27.873  34.879  1.00  0.00     0.041 A 
ATOM     81  F   UNL A   1      46.122  29.463  33.456  1.00  0.00    -0.206 F 
ATOM     82  C   UNL A   1      46.975  26.759  35.706  1.00  0.00     0.022 A 
BRANCH  79  83
ATOM     83  S   UNL A   1      45.528  24.752  36.992  1.00  0.00     0.124 S 
ATOM     84  O   UNL A   1      46.910  24.390  37.288  1.00  0.00    -0.237 OA
ATOM     85  O   UNL A   1      44.785  25.376  38.082  1.00  0.00    -0.237 OA
ATOM     86  O   UNL A   1      44.779  23.760  36.223  1.00  0.00    -0.744 OA
ENDBRANCH  79  83
ENDBRANCH  53  76
ENDBRANCH  27  28
ENDBRANCH  20  22
ENDBRANCH  19  20
ENDBRANCH  18  19
ENDBRANCH   1  18
TORSDOF 20
ENDMDL
MODEL 2
REMARK VINA RESULT:      -9.7      1.630      2.036
REMARK SMILES CCC[C@@H](C)C[NH2+][C@@](C)(CC)C(=O)OCCOC(=O)c1ccc(-c2c3nc(c(-c4cc(S(=O)(=O)[O-])ccc4F)c4ccc([nH]4)c(-c4cc(S(=O)(=O)[O-])ccc4F)c4nc(c(-c5cc(S(=O)(=O)[O-])ccc5F)c5ccc2[nH]5)C=C4)C=C3)cc1
REMARK SMILES IDX 15 1 14 2 12 3 13 4 8 5 9 6 7 7 6 10 4 11 5 12 3 13 2 14
REMARK SMILES IDX 1 15 10 16 11 17 16 18 17 19 18 20 19 21 20 22 21 23 82 24
REMARK SMILES IDX 22 25 81 26 23 27 24 28 25 29 75 30 26 31 80 32 74 33 76 34
REMARK SMILES IDX 27 35 79 36 73 37 72 38 28 40 60 41 40 42 59 43 41 44 44 45
REMARK SMILES IDX 58 46 77 47 42 48 43 49 57 51 78 52 45 53 29 54 30 55 38 56
REMARK SMILES IDX 31 57 37 58 39 59 36 60 32 61 33 62 34 63 35 64 61 65 62 66
REMARK SMILES IDX 70 67 63 68 69 69 71 70 68 71 64 72 65 73 66 74 67 75 46 76
REMARK SMILES IDX 47 77 55 78 48 79 54 80 56 81 53 82 49 83 50 84 51 85 52 86
REMARK H PARENT 7 8 7 9 76 39 44 50
REMARK Flexibility Score: inf
ROOT
ATOM      1  C   UNL A   1      32.489  30.077  26.134  1.00  0.00     0.274 C 
ENDROOT
BRANCH   1   2
ATOM      2  O   UNL A   1      31.408  29.785  25.224  1.00  0.00    -0.457 OA
BRANCH   2   3
ATOM      3  C   UNL A   1      31.496  28.571  24.599  1.00  0.00     0.367 C 
ATOM      4  O   UNL A   1      31.726  27.533  25.211  1.00  0.00    -0.245 OA
BRANCH   3   5
ATOM      5  C   UNL A   1      31.449  28.690  23.038  1.00  0.00     0.191 C 
ATOM      6  C   UNL A   1      30.718  27.428  22.534  1.00  0.00     0.092 C 
BRANCH   5   7
ATOM      7  N   UNL A   1      30.742  29.940  22.616  1.00  0.00    -0.332 N 
ATOM      8  H   UNL A   1      30.736  30.578  23.411  1.00  0.00     0.347 HD
ATOM      9  H   UNL A   1      31.257  30.285  21.805  1.00  0.00     0.347 HD
BRANCH   7  10
ATOM     10  C   UNL A   1      29.354  29.776  22.159  1.00  0.00     0.264 C 
BRANCH  10  11
ATOM     11  C   UNL A   1      28.329  29.911  23.313  1.00  0.00     0.041 C 
ATOM     12  C   UNL A   1      27.222  28.866  23.115  1.00  0.00     0.013 C 
BRANCH  11  13
ATOM     13  C   UNL A   1      27.757  31.343  23.398  1.00  0.00     0.009 C 
BRANCH  13  14
ATOM     14  C   UNL A   1      28.360  32.363  22.425  1.00  0.00    -0.003 C 
ATOM     15  C   UNL A   1      29.079  33.507  23.121  1.00  0.00     0.004 C 
ENDBRANCH  13  14
ENDBRANCH  11  13
ENDBRANCH  10  11
ENDBRANCH   7  10
ENDBRANCH   5   7
BRANCH   5  16
ATOM     16  C   UNL A   1      32.859  28.683  22.373  1.00  0.00     0.077 C 
ATOM     17  C   UNL A   1      34.056  28.581  23.309  1.00  0.00     0.011 C 
ENDBRANCH   5  16
ENDBRANCH   3   5
ENDBRANCH   2   3
ENDBRANCH   1   2
BRANCH   1  18
ATOM     18  C   UNL A   1      32.358  31.452  26.789  1.00  0.00     0.275 C 
BRANCH  18  19
ATOM     19  O   UNL A   1      33.145  31.539  27.989  1.00  0.00    -0.458 OA
BRANCH  19  20
ATOM     20  C   UNL A   1      34.102  32.496  27.974  1.00  0.00     0.338 C 
ATOM     21  O   UNL A   1      33.940  33.698  27.854  1.00  0.00    -0.246 OA
BRANCH  20  22
ATOM     22  C   UNL A   1      35.420  31.895  28.222  1.00  0.00     0.060 A 
ATOM     23  C   UNL A   1      35.464  30.538  28.537  1.00  0.00     0.016 A 
ATOM     24  C   UNL A   1      36.574  32.678  28.301  1.00  0.00     0.016 A 
ATOM     25  C   UNL A   1      36.653  29.959  28.969  1.00  0.00     0.010 A 
ATOM     26  C   UNL A   1      37.775  32.091  28.724  1.00  0.00     0.010 A 
ATOM     27  C   UNL A   1      37.812  30.733  29.083  1.00  0.00    -0.014 A 
BRANCH  27  28
ATOM     28  C   UNL A   1      39.013  30.119  29.695  1.00  0.00     0.031 A 
ATOM     29  C   UNL A   1      39.414  30.527  31.085  1.00  0.00     0.074 A 
ATOM     30  C   UNL A   1      39.670  29.132  29.061  1.00  0.00     0.049 A 
ATOM     31  N   UNL A   1      40.396  30.088  31.829  1.00  0.00    -0.248 NA
ATOM     32  C   UNL A   1      38.585  31.560  31.722  1.00  0.00     0.031 C 
ATOM     33  C   UNL A   1      39.310  28.589  27.751  1.00  0.00     0.029 A 
ATOM     34  N   UNL A   1      40.751  28.382  29.450  1.00  0.00    -0.354 N 
ATOM     35  C   UNL A   1      40.304  30.790  33.025  1.00  0.00     0.074 A 
ATOM     36  C   UNL A   1      39.178  31.692  32.899  1.00  0.00     0.031 C 
ATOM     37  C   UNL A   1      40.142  27.573  27.458  1.00  0.00     0.029 A 
ATOM     38  C   UNL A   1      41.117  27.423  28.537  1.00  0.00     0.049 A 
ATOM     39  H   UNL A   1      41.220  28.519  30.306  1.00  0.00     0.167 HD
ATOM     40  C   UNL A   1      41.094  30.698  34.125  1.00  0.00     0.034 A 
ATOM     41  C   UNL A   1      42.131  26.535  28.566  1.00  0.00     0.034 A 
ATOM     42  C   UNL A   1      42.244  29.832  34.221  1.00  0.00     0.049 A 
ATOM     43  C   UNL A   1      43.055  26.522  29.761  1.00  0.00     0.074 A 
ATOM     44  C   UNL A   1      43.160  29.720  35.252  1.00  0.00     0.029 A 
ATOM     45  N   UNL A   1      42.641  28.933  33.239  1.00  0.00    -0.354 N 
ATOM     46  N   UNL A   1      42.993  27.230  30.865  1.00  0.00    -0.248 NA
ATOM     47  C   UNL A   1      44.191  25.591  29.707  1.00  0.00     0.031 C 
ATOM     48  C   UNL A   1      44.143  28.797  34.869  1.00  0.00     0.029 A 
ATOM     49  C   UNL A   1      43.804  28.284  33.627  1.00  0.00     0.049 A 
ATOM     50  H   UNL A   1      42.167  28.779  32.390  1.00  0.00     0.167 HD
ATOM     51  C   UNL A   1      44.076  26.823  31.639  1.00  0.00     0.074 A 
ATOM     52  C   UNL A   1      44.755  25.784  30.890  1.00  0.00     0.031 C 
ATOM     53  C   UNL A   1      44.481  27.267  32.857  1.00  0.00     0.034 A 
BRANCH  40  54
ATOM     54  C   UNL A   1      40.779  31.635  35.263  1.00  0.00     0.023 A 
ATOM     55  C   UNL A   1      39.646  31.458  36.077  1.00  0.00     0.031 A 
ATOM     56  C   UNL A   1      41.589  32.762  35.490  1.00  0.00     0.131 A 
ATOM     57  C   UNL A   1      39.318  32.428  37.036  1.00  0.00     0.055 A 
ATOM     58  C   UNL A   1      41.294  33.688  36.491  1.00  0.00     0.041 A 
ATOM     59  F   UNL A   1      42.667  32.993  34.726  1.00  0.00    -0.206 F 
ATOM     60  C   UNL A   1      40.144  33.533  37.262  1.00  0.00     0.022 A 
BRANCH  57  61
ATOM     61  S   UNL A   1      37.723  32.304  37.893  1.00  0.00     0.124 S 
ATOM     62  O   UNL A   1      38.046  32.855  39.207  1.00  0.00    -0.237 OA
ATOM     63  O   UNL A   1      36.850  33.117  37.054  1.00  0.00    -0.237 OA
ATOM     64  O   UNL A   1      37.438  30.869  37.881  1.00  0.00    -0.744 OA
ENDBRANCH  57  61
ENDBRANCH  40  54
BRANCH  41  65
ATOM     65  C   UNL A   1      42.375  25.617  27.417  1.00  0.00     0.023 A 
ATOM     66  C   UNL A   1      41.796  24.339  27.372  1.00  0.00     0.031 A 
ATOM     67  C   UNL A   1      43.260  25.977  26.384  1.00  0.00     0.131 A 
ATOM     68  C   UNL A   1      42.144  23.448  26.343  1.00  0.00     0.055 A 
ATOM     69  C   UNL A   1      43.562  25.107  25.335  1.00  0.00     0.041 A 
ATOM     70  F   UNL A   1      43.849  27.183  26.382  1.00  0.00    -0.206 F 
ATOM     71  C   UNL A   1      43.014  23.828  25.319  1.00  0.00     0.022 A 
BRANCH  68  72
ATOM     72  S   UNL A   1      41.516  21.747  26.414  1.00  0.00     0.124 S 
ATOM     73  O   UNL A   1      42.510  21.029  25.625  1.00  0.00    -0.237 OA
ATOM     74  O   UNL A   1      41.522  21.482  27.849  1.00  0.00    -0.237 OA
ATOM     75  O   UNL A   1      40.190  21.848  25.808  1.00  0.00    -0.744 OA
ENDBRANCH  68  72
ENDBRANCH  41  65
BRANCH  53  76
ATOM     76  C   UNL A   1      45.705  26.613  33.448  1.00  0.00     0.023 A 
ATOM     77  C   UNL A   1      45.612  25.448  34.232  1.00  0.00     0.031 A 
ATOM     78  C   UNL A   1      46.978  27.176  33.247  1.00  0.00     0.131 A 
ATOM     79  C   UNL A   1      46.763  24.915  34.832  1.00  0.00     0.055 A 
ATOM     80  C   UNL A   1      48.126  26.611  33.804  1.00  0.00     0.041 A 
ATOM     81  F   UNL A   1      47.124  28.287  32.508  1.00  0.00    -0.206 F 
ATOM     82  C   UNL A   1      48.021  25.483  34.613  1.00  0.00     0.022 A 
BRANCH  79  83
ATOM     83  S   UNL A   1      46.583  23.522  35.980  1.00  0.00     0.124 S 
ATOM     84  O   UNL A   1      45.548  24.004  36.889  1.00  0.00    -0.237 OA
ATOM     85  O   UNL A   1      46.193  22.434  35.090  1.00  0.00    -0.237 OA
ATOM     86  O   UNL A   1      47.914  23.391  36.572  1.00  0.00    -0.744 OA
ENDBRANCH  79  83
ENDBRANCH  53  76
ENDBRANCH  27  28
ENDBRANCH  20  22
ENDBRANCH  19  20
ENDBRANCH  18  19
ENDBRANCH   1  18
TORSDOF 20
ENDMDL
MODEL 3
REMARK VINA RESULT:      -9.4      5.547      8.452
REMARK SMILES CCC[C@@H](C)C[NH2+][C@@](C)(CC)C(=O)OCCOC(=O)c1ccc(-c2c3nc(c(-c4cc(S(=O)(=O)[O-])ccc4F)c4ccc([nH]4)c(-c4cc(S(=O)(=O)[O-])ccc4F)c4nc(c(-c5cc(S(=O)(=O)[O-])ccc5F)c5ccc2[nH]5)C=C4)C=C3)cc1
REMARK SMILES IDX 15 1 14 2 12 3 13 4 8 5 9 6 7 7 6 10 4 11 5 12 3 13 2 14
REMARK SMILES IDX 1 15 10 16 11 17 16 18 17 19 18 20 19 21 20 22 21 23 82 24
REMARK SMILES IDX 22 25 81 26 23 27 24 28 25 29 75 30 26 31 80 32 74 33 76 34
REMARK SMILES IDX 27 35 79 36 73 37 72 38 28 40 60 41 40 42 59 43 41 44 44 45
REMARK SMILES IDX 58 46 77 47 42 48 43 49 57 51 78 52 45 53 29 54 30 55 38 56
REMARK SMILES IDX 31 57 37 58 39 59 36 60 32 61 33 62 34 63 35 64 61 65 62 66
REMARK SMILES IDX 70 67 63 68 69 69 71 70 68 71 64 72 65 73 66 74 67 75 46 76
REMARK SMILES IDX 47 77 55 78 48 79 54 80 56 81 53 82 49 83 50 84 51 85 52 86
REMARK H PARENT 7 8 7 9 76 39 44 50
REMARK Flexibility Score: inf
ROOT
ATOM      1  C   UNL A   1      36.729  22.869  23.719  1.00  0.00     0.274 C 
ENDROOT
BRANCH   1   2
ATOM      2  O   UNL A   1      35.724  23.569  24.481  1.00  0.00    -0.457 OA
BRANCH   2   3
ATOM      3  C   UNL A   1      34.632  23.971  23.760  1.00  0.00     0.367 C 
ATOM      4  O   UNL A   1      34.565  23.835  22.542  1.00  0.00    -0.245 OA
BRANCH   3   5
ATOM      5  C   UNL A   1      33.593  24.761  24.625  1.00  0.00     0.191 C 
ATOM      6  C   UNL A   1      32.358  24.972  23.724  1.00  0.00     0.092 C 
BRANCH   5   7
ATOM      7  N   UNL A   1      33.243  24.004  25.868  1.00  0.00    -0.332 N 
ATOM      8  H   UNL A   1      34.114  23.742  26.329  1.00  0.00     0.347 HD
ATOM      9  H   UNL A   1      32.652  24.632  26.413  1.00  0.00     0.347 HD
BRANCH   7  10
ATOM     10  C   UNL A   1      32.448  22.781  25.679  1.00  0.00     0.264 C 
BRANCH  10  11
ATOM     11  C   UNL A   1      32.953  21.604  26.552  1.00  0.00     0.041 C 
ATOM     12  C   UNL A   1      34.336  21.964  27.113  1.00  0.00     0.013 C 
BRANCH  11  13
ATOM     13  C   UNL A   1      32.983  20.281  25.757  1.00  0.00     0.009 C 
BRANCH  13  14
ATOM     14  C   UNL A   1      32.354  20.326  24.359  1.00  0.00    -0.003 C 
ATOM     15  C   UNL A   1      32.531  19.035  23.578  1.00  0.00     0.004 C 
ENDBRANCH  13  14
ENDBRANCH  11  13
ENDBRANCH  10  11
ENDBRANCH   7  10
ENDBRANCH   5   7
BRANCH   5  16
ATOM     16  C   UNL A   1      34.087  26.179  25.044  1.00  0.00     0.077 C 
ATOM     17  C   UNL A   1      33.647  27.344  24.169  1.00  0.00     0.011 C 
ENDBRANCH   5  16
ENDBRANCH   3   5
ENDBRANCH   2   3
ENDBRANCH   1   2
BRANCH   1  18
ATOM     18  C   UNL A   1      37.211  21.591  24.406  1.00  0.00     0.275 C 
BRANCH  18  19
ATOM     19  O   UNL A   1      37.550  21.832  25.783  1.00  0.00    -0.458 OA
BRANCH  19  20
ATOM     20  C   UNL A   1      38.850  21.623  26.094  1.00  0.00     0.338 C 
ATOM     21  O   UNL A   1      39.503  20.613  25.893  1.00  0.00    -0.246 OA
BRANCH  20  22
ATOM     22  C   UNL A   1      39.439  22.849  26.650  1.00  0.00     0.060 A 
ATOM     23  C   UNL A   1      38.977  24.070  26.160  1.00  0.00     0.016 A 
ATOM     24  C   UNL A   1      40.532  22.803  27.519  1.00  0.00     0.016 A 
ATOM     25  C   UNL A   1      39.626  25.251  26.503  1.00  0.00     0.010 A 
ATOM     26  C   UNL A   1      41.177  23.995  27.875  1.00  0.00     0.010 A 
ATOM     27  C   UNL A   1      40.741  25.222  27.347  1.00  0.00    -0.014 A 
BRANCH  27  28
ATOM     28  C   UNL A   1      41.497  26.478  27.561  1.00  0.00     0.031 A 
ATOM     29  C   UNL A   1      40.908  27.543  28.442  1.00  0.00     0.074 A 
ATOM     30  C   UNL A   1      42.739  26.617  27.065  1.00  0.00     0.049 A 
ATOM     31  N   UNL A   1      41.411  28.696  28.803  1.00  0.00    -0.248 NA
ATOM     32  C   UNL A   1      39.576  27.262  28.998  1.00  0.00     0.031 C 
ATOM     33  C   UNL A   1      43.448  25.607  26.278  1.00  0.00     0.029 A 
ATOM     34  N   UNL A   1      43.640  27.644  27.184  1.00  0.00    -0.354 N 
ATOM     35  C   UNL A   1      40.460  29.279  29.632  1.00  0.00     0.074 A 
ATOM     36  C   UNL A   1      39.345  28.358  29.706  1.00  0.00     0.031 C 
ATOM     37  C   UNL A   1      44.686  26.058  26.008  1.00  0.00     0.029 A 
ATOM     38  C   UNL A   1      44.841  27.401  26.563  1.00  0.00     0.049 A 
ATOM     39  H   UNL A   1      43.443  28.479  27.669  1.00  0.00     0.167 HD
ATOM     40  C   UNL A   1      40.508  30.479  30.264  1.00  0.00     0.034 A 
ATOM     41  C   UNL A   1      45.936  28.181  26.449  1.00  0.00     0.034 A 
ATOM     42  C   UNL A   1      41.602  31.411  30.141  1.00  0.00     0.049 A 
ATOM     43  C   UNL A   1      45.924  29.552  27.080  1.00  0.00     0.074 A 
ATOM     44  C   UNL A   1      41.717  32.685  30.669  1.00  0.00     0.029 A 
ATOM     45  N   UNL A   1      42.771  31.170  29.431  1.00  0.00    -0.354 N 
ATOM     46  N   UNL A   1      44.995  30.118  27.816  1.00  0.00    -0.248 NA
ATOM     47  C   UNL A   1      47.109  30.392  26.858  1.00  0.00     0.031 C 
ATOM     48  C   UNL A   1      42.929  33.236  30.229  1.00  0.00     0.029 A 
ATOM     49  C   UNL A   1      43.600  32.281  29.482  1.00  0.00     0.049 A 
ATOM     50  H   UNL A   1      42.981  30.331  28.959  1.00  0.00     0.167 HD
ATOM     51  C   UNL A   1      45.489  31.377  28.150  1.00  0.00     0.074 A 
ATOM     52  C   UNL A   1      46.811  31.473  27.564  1.00  0.00     0.031 C 
ATOM     53  C   UNL A   1      44.906  32.368  28.871  1.00  0.00     0.034 A 
BRANCH  40  54
ATOM     54  C   UNL A   1      39.290  30.871  31.060  1.00  0.00     0.023 A 
ATOM     55  C   UNL A   1      38.246  31.626  30.495  1.00  0.00     0.031 A 
ATOM     56  C   UNL A   1      39.206  30.544  32.425  1.00  0.00     0.131 A 
ATOM     57  C   UNL A   1      37.197  32.083  31.307  1.00  0.00     0.055 A 
ATOM     58  C   UNL A   1      38.126  30.946  33.212  1.00  0.00     0.041 A 
ATOM     59  F   UNL A   1      40.186  29.849  33.021  1.00  0.00    -0.206 F 
ATOM     60  C   UNL A   1      37.120  31.733  32.658  1.00  0.00     0.022 A 
BRANCH  57  61
ATOM     61  S   UNL A   1      36.003  33.260  30.609  1.00  0.00     0.124 S 
ATOM     62  O   UNL A   1      36.682  33.683  29.387  1.00  0.00    -0.237 OA
ATOM     63  O   UNL A   1      34.815  32.434  30.430  1.00  0.00    -0.237 OA
ATOM     64  O   UNL A   1      35.895  34.291  31.641  1.00  0.00    -0.744 OA
ENDBRANCH  57  61
ENDBRANCH  40  54
BRANCH  41  65
ATOM     65  C   UNL A   1      47.120  27.724  25.666  1.00  0.00     0.023 A 
ATOM     66  C   UNL A   1      47.242  28.011  24.297  1.00  0.00     0.031 A 
ATOM     67  C   UNL A   1      48.110  26.921  26.262  1.00  0.00     0.131 A 
ATOM     68  C   UNL A   1      48.301  27.460  23.557  1.00  0.00     0.055 A 
ATOM     69  C   UNL A   1      49.190  26.419  25.534  1.00  0.00     0.041 A 
ATOM     70  F   UNL A   1      48.039  26.610  27.566  1.00  0.00    -0.206 F 
ATOM     71  C   UNL A   1      49.281  26.676  24.170  1.00  0.00     0.022 A 
BRANCH  68  72
ATOM     72  S   UNL A   1      48.328  27.703  21.760  1.00  0.00     0.124 S 
ATOM     73  O   UNL A   1      49.432  28.642  21.602  1.00  0.00    -0.237 OA
ATOM     74  O   UNL A   1      48.563  26.348  21.274  1.00  0.00    -0.237 OA
ATOM     75  O   UNL A   1      47.002  28.244  21.470  1.00  0.00    -0.744 OA
ENDBRANCH  68  72
ENDBRANCH  41  65
BRANCH  53  76
ATOM     76  C   UNL A   1      45.709  33.629  29.070  1.00  0.00     0.023 A 
ATOM     77  C   UNL A   1      45.693  34.670  28.123  1.00  0.00     0.031 A 
ATOM     78  C   UNL A   1      46.521  33.782  30.208  1.00  0.00     0.131 A 
ATOM     79  C   UNL A   1      46.515  35.792  28.303  1.00  0.00     0.055 A 
ATOM     80  C   UNL A   1      47.297  34.925  30.407  1.00  0.00     0.041 A 
ATOM     81  F   UNL A   1      46.574  32.820  31.143  1.00  0.00    -0.206 F 
ATOM     82  C   UNL A   1      47.309  35.932  29.445  1.00  0.00     0.022 A 
BRANCH  79  83
ATOM     83  S   UNL A   1      46.606  37.029  26.979  1.00  0.00     0.124 S 
ATOM     84  O   UNL A   1      47.924  37.617  27.198  1.00  0.00    -0.237 OA
ATOM     85  O   UNL A   1      46.466  36.211  25.779  1.00  0.00    -0.237 OA
ATOM     86  O   UNL A   1      45.478  37.916  27.258  1.00  0.00    -0.744 OA
ENDBRANCH  79  83
ENDBRANCH  53  76
ENDBRANCH  27  28
ENDBRANCH  20  22
ENDBRANCH  19  20
ENDBRANCH  18  19
ENDBRANCH   1  18
TORSDOF 20
ENDMDL
