MODEL 1
REMARK VINA RESULT:     -11.6      0.000      0.000
REMARK SMILES C=CCOc1ccccc1/C=C1\SC(=S)N(CC(=O)OCCOC(=O)c2ccc(-c3c4nc(c(-c5cc(S(=O)(=O)[O-])ccc5F)c5ccc([nH]5)c(-c5cc(S(=O)(=O)[O-])ccc5F)c5nc(c(-c6cc(S(=O)(=O)[O-])ccc6F)c6ccc3[nH]6)C=C5)C=C4)cc2)C1=O
REMARK SMILES IDX 21 1 20 2 18 3 19 4 17 5 16 6 11 7 12 8 13 9 89 10 14 11
REMARK SMILES IDX 90 12 15 13 10 14 5 15 6 16 7 17 9 18 8 19 4 20 3 21 2 22
REMARK SMILES IDX 1 23 22 24 23 25 24 26 25 27 26 28 27 29 88 30 28 31 87 32
REMARK SMILES IDX 29 33 30 34 31 35 81 36 32 37 86 38 80 39 82 40 33 41 85 42
REMARK SMILES IDX 79 43 78 44 34 46 66 47 46 48 65 49 47 50 50 51 64 52 83 53
REMARK SMILES IDX 48 54 49 55 63 57 84 58 51 59 35 60 36 61 44 62 37 63 43 64
REMARK SMILES IDX 45 65 42 66 38 67 39 68 40 69 41 70 67 71 68 72 76 73 69 74
REMARK SMILES IDX 75 75 77 76 74 77 70 78 71 79 72 80 73 81 52 82 53 83 61 84
REMARK SMILES IDX 54 85 60 86 62 87 59 88 55 89 56 90 57 91 58 92
REMARK H PARENT 82 45 50 56
REMARK Flexibility Score: inf
ROOT
ATOM      1  C   UNL A   1      35.130  21.822  24.261  1.00  0.00     0.274 C 
ENDROOT
BRANCH   1   2
ATOM      2  O   UNL A   1      33.744  21.428  24.286  1.00  0.00    -0.461 OA
BRANCH   2   3
ATOM      3  C   UNL A   1      32.872  22.333  23.760  1.00  0.00     0.326 C 
ATOM      4  O   UNL A   1      31.920  22.052  23.040  1.00  0.00    -0.250 OA
BRANCH   3   5
ATOM      5  C   UNL A   1      33.184  23.767  24.162  1.00  0.00     0.250 C 
BRANCH   5   6
ATOM      6  N   UNL A   1      32.031  24.662  24.190  1.00  0.00    -0.282 N 
ATOM      7  C   UNL A   1      30.464  27.469  22.559  1.00  0.00     0.033 C 
ATOM      8  C   UNL A   1      30.735  26.454  23.388  1.00  0.00     0.081 C 
ATOM      9  S   UNL A   1      29.986  26.062  24.882  1.00  0.00    -0.054 SA
ATOM     10  C   UNL A   1      31.885  25.551  23.141  1.00  0.00     0.266 C 
ATOM     11  C   UNL A   1      31.092  24.729  25.192  1.00  0.00     0.148 C 
ATOM     12  O   UNL A   1      32.628  25.621  22.173  1.00  0.00    -0.268 OA
ATOM     13  S   UNL A   1      30.953  23.748  26.533  1.00  0.00    -0.052 S 
BRANCH   7  14
ATOM     14  C   UNL A   1      29.639  28.630  22.912  1.00  0.00     0.018 A 
ATOM     15  C   UNL A   1      30.212  29.722  23.590  1.00  0.00     0.127 A 
ATOM     16  C   UNL A   1      29.435  30.822  23.955  1.00  0.00     0.047 A 
ATOM     17  C   UNL A   1      28.092  30.868  23.589  1.00  0.00     0.004 A 
ATOM     18  C   UNL A   1      28.295  28.692  22.535  1.00  0.00     0.012 A 
ATOM     19  C   UNL A   1      27.526  29.811  22.871  1.00  0.00     0.001 A 
BRANCH  15  20
ATOM     20  O   UNL A   1      31.537  29.699  23.959  1.00  0.00    -0.489 OA
BRANCH  20  21
ATOM     21  C   UNL A   1      31.686  29.702  25.390  1.00  0.00     0.257 C 
BRANCH  21  22
ATOM     22  C   UNL A   1      32.635  28.615  25.800  1.00  0.00     0.006 C 
ATOM     23  C   UNL A   1      33.648  28.169  25.044  1.00  0.00     0.007 C 
ENDBRANCH  21  22
ENDBRANCH  20  21
ENDBRANCH  15  20
ENDBRANCH   7  14
ENDBRANCH   5   6
ENDBRANCH   3   5
ENDBRANCH   2   3
ENDBRANCH   1   2
BRANCH   1  24
ATOM     24  C   UNL A   1      35.934  20.940  25.211  1.00  0.00     0.275 C 
BRANCH  24  25
ATOM     25  O   UNL A   1      36.869  21.752  25.938  1.00  0.00    -0.458 OA
BRANCH  25  26
ATOM     26  C   UNL A   1      38.175  21.452  25.733  1.00  0.00     0.338 C 
ATOM     27  O   UNL A   1      38.618  20.424  25.247  1.00  0.00    -0.246 OA
BRANCH  26  28
ATOM     28  C   UNL A   1      39.017  22.509  26.333  1.00  0.00     0.060 A 
ATOM     29  C   UNL A   1      40.114  22.218  27.152  1.00  0.00     0.016 A 
ATOM     30  C   UNL A   1      38.679  23.833  26.060  1.00  0.00     0.016 A 
ATOM     31  C   UNL A   1      40.863  23.256  27.716  1.00  0.00     0.010 A 
ATOM     32  C   UNL A   1      39.465  24.864  26.571  1.00  0.00     0.010 A 
ATOM     33  C   UNL A   1      40.558  24.590  27.411  1.00  0.00    -0.014 A 
BRANCH  33  34
ATOM     34  C   UNL A   1      41.344  25.735  27.945  1.00  0.00     0.031 A 
ATOM     35  C   UNL A   1      40.636  26.828  28.694  1.00  0.00     0.074 A 
ATOM     36  C   UNL A   1      42.650  25.861  27.646  1.00  0.00     0.049 A 
ATOM     37  N   UNL A   1      41.036  28.041  28.975  1.00  0.00    -0.248 NA
ATOM     38  C   UNL A   1      39.279  26.514  29.162  1.00  0.00     0.031 C 
ATOM     39  C   UNL A   1      43.458  24.863  26.945  1.00  0.00     0.029 A 
ATOM     40  N   UNL A   1      43.515  26.910  27.849  1.00  0.00    -0.354 N 
ATOM     41  C   UNL A   1      39.962  28.656  29.610  1.00  0.00     0.074 A 
ATOM     42  C   UNL A   1      38.890  27.682  29.650  1.00  0.00     0.031 C 
ATOM     43  C   UNL A   1      44.690  25.359  26.746  1.00  0.00     0.029 A 
ATOM     44  C   UNL A   1      44.734  26.733  27.236  1.00  0.00     0.049 A 
ATOM     45  H   UNL A   1      43.286  27.707  28.380  1.00  0.00     0.167 HD
ATOM     46  C   UNL A   1      39.882  29.917  30.105  1.00  0.00     0.034 A 
ATOM     47  C   UNL A   1      45.749  27.597  27.028  1.00  0.00     0.034 A 
ATOM     48  C   UNL A   1      40.970  30.866  30.056  1.00  0.00     0.049 A 
ATOM     49  C   UNL A   1      45.627  29.010  27.532  1.00  0.00     0.074 A 
ATOM     50  C   UNL A   1      41.021  32.150  30.573  1.00  0.00     0.029 A 
ATOM     51  N   UNL A   1      42.198  30.641  29.442  1.00  0.00    -0.354 N 
ATOM     52  N   UNL A   1      44.612  29.588  28.131  1.00  0.00    -0.248 NA
ATOM     53  C   UNL A   1      46.787  29.888  27.330  1.00  0.00     0.031 C 
ATOM     54  C   UNL A   1      42.244  32.724  30.208  1.00  0.00     0.029 A 
ATOM     55  C   UNL A   1      42.995  31.773  29.535  1.00  0.00     0.049 A 
ATOM     56  H   UNL A   1      42.462  29.800  29.005  1.00  0.00     0.167 HD
ATOM     57  C   UNL A   1      45.022  30.891  28.403  1.00  0.00     0.074 A 
ATOM     58  C   UNL A   1      46.377  31.011  27.904  1.00  0.00     0.031 C 
ATOM     59  C   UNL A   1      44.341  31.890  29.022  1.00  0.00     0.034 A 
BRANCH  46  60
ATOM     60  C   UNL A   1      38.553  30.354  30.677  1.00  0.00     0.023 A 
ATOM     61  C   UNL A   1      37.602  31.051  29.909  1.00  0.00     0.031 A 
ATOM     62  C   UNL A   1      38.253  30.119  32.032  1.00  0.00     0.131 A 
ATOM     63  C   UNL A   1      36.450  31.570  30.521  1.00  0.00     0.055 A 
ATOM     64  C   UNL A   1      37.061  30.557  32.612  1.00  0.00     0.041 A 
ATOM     65  F   UNL A   1      39.127  29.477  32.824  1.00  0.00    -0.206 F 
ATOM     66  C   UNL A   1      36.160  31.305  31.861  1.00  0.00     0.022 A 
BRANCH  63  67
ATOM     67  S   UNL A   1      35.428  32.742  29.586  1.00  0.00     0.124 S 
ATOM     68  O   UNL A   1      35.078  31.956  28.405  1.00  0.00    -0.237 OA
ATOM     69  O   UNL A   1      34.338  33.021  30.513  1.00  0.00    -0.237 OA
ATOM     70  O   UNL A   1      36.334  33.861  29.331  1.00  0.00    -0.744 OA
ENDBRANCH  63  67
ENDBRANCH  46  60
BRANCH  47  71
ATOM     71  C   UNL A   1      46.936  27.160  26.241  1.00  0.00     0.023 A 
ATOM     72  C   UNL A   1      47.117  27.565  24.911  1.00  0.00     0.031 A 
ATOM     73  C   UNL A   1      47.916  26.332  26.821  1.00  0.00     0.131 A 
ATOM     74  C   UNL A   1      48.243  27.126  24.196  1.00  0.00     0.055 A 
ATOM     75  C   UNL A   1      49.055  25.936  26.121  1.00  0.00     0.041 A 
ATOM     76  F   UNL A   1      47.790  25.921  28.093  1.00  0.00    -0.206 F 
ATOM     77  C   UNL A   1      49.220  26.328  24.796  1.00  0.00     0.022 A 
BRANCH  74  78
ATOM     78  S   UNL A   1      48.392  27.581  22.447  1.00  0.00     0.124 S 
ATOM     79  O   UNL A   1      47.153  28.317  22.224  1.00  0.00    -0.237 OA
ATOM     80  O   UNL A   1      49.618  28.371  22.441  1.00  0.00    -0.237 OA
ATOM     81  O   UNL A   1      48.485  26.290  21.767  1.00  0.00    -0.744 OA
ENDBRANCH  74  78
ENDBRANCH  47  71
BRANCH  59  82
ATOM     82  C   UNL A   1      45.077  33.189  29.247  1.00  0.00     0.023 A 
ATOM     83  C   UNL A   1      45.028  34.246  28.322  1.00  0.00     0.031 A 
ATOM     84  C   UNL A   1      45.830  33.371  30.421  1.00  0.00     0.131 A 
ATOM     85  C   UNL A   1      45.751  35.424  28.571  1.00  0.00     0.055 A 
ATOM     86  C   UNL A   1      46.504  34.563  30.688  1.00  0.00     0.041 A 
ATOM     87  F   UNL A   1      45.914  32.392  31.337  1.00  0.00    -0.206 F 
ATOM     88  C   UNL A   1      46.474  35.595  29.755  1.00  0.00     0.022 A 
BRANCH  85  89
ATOM     89  S   UNL A   1      45.792  36.714  27.295  1.00  0.00     0.124 S 
ATOM     90  O   UNL A   1      46.872  37.574  27.768  1.00  0.00    -0.237 OA
ATOM     91  O   UNL A   1      46.070  35.949  26.084  1.00  0.00    -0.237 OA
ATOM     92  O   UNL A   1      44.456  37.305  27.361  1.00  0.00    -0.744 OA
ENDBRANCH  85  89
ENDBRANCH  59  82
ENDBRANCH  33  34
ENDBRANCH  26  28
ENDBRANCH  25  26
ENDBRANCH  24  25
ENDBRANCH   1  24
TORSDOF 19
ENDMDL
MODEL 2
REMARK VINA RESULT:     -11.4      1.031      2.122
REMARK SMILES C=CCOc1ccccc1/C=C1\SC(=S)N(CC(=O)OCCOC(=O)c2ccc(-c3c4nc(c(-c5cc(S(=O)(=O)[O-])ccc5F)c5ccc([nH]5)c(-c5cc(S(=O)(=O)[O-])ccc5F)c5nc(c(-c6cc(S(=O)(=O)[O-])ccc6F)c6ccc3[nH]6)C=C5)C=C4)cc2)C1=O
REMARK SMILES IDX 21 1 20 2 18 3 19 4 17 5 16 6 11 7 12 8 13 9 89 10 14 11
REMARK SMILES IDX 90 12 15 13 10 14 5 15 6 16 7 17 9 18 8 19 4 20 3 21 2 22
REMARK SMILES IDX 1 23 22 24 23 25 24 26 25 27 26 28 27 29 88 30 28 31 87 32
REMARK SMILES IDX 29 33 30 34 31 35 81 36 32 37 86 38 80 39 82 40 33 41 85 42
REMARK SMILES IDX 79 43 78 44 34 46 66 47 46 48 65 49 47 50 50 51 64 52 83 53
REMARK SMILES IDX 48 54 49 55 63 57 84 58 51 59 35 60 36 61 44 62 37 63 43 64
REMARK SMILES IDX 45 65 42 66 38 67 39 68 40 69 41 70 67 71 68 72 76 73 69 74
REMARK SMILES IDX 75 75 77 76 74 77 70 78 71 79 72 80 73 81 52 82 53 83 61 84
REMARK SMILES IDX 54 85 60 86 62 87 59 88 55 89 56 90 57 91 58 92
REMARK H PARENT 82 45 50 56
REMARK Flexibility Score: inf
ROOT
ATOM      1  C   UNL A   1      34.784  20.664  25.504  1.00  0.00     0.274 C 
ENDROOT
BRANCH   1   2
ATOM      2  O   UNL A   1      33.923  20.380  24.384  1.00  0.00    -0.461 OA
BRANCH   2   3
ATOM      3  C   UNL A   1      32.644  20.836  24.504  1.00  0.00     0.326 C 
ATOM      4  O   UNL A   1      31.800  20.364  25.259  1.00  0.00    -0.250 OA
BRANCH   3   5
ATOM      5  C   UNL A   1      32.346  22.024  23.602  1.00  0.00     0.250 C 
BRANCH   5   6
ATOM      6  N   UNL A   1      32.666  23.327  24.177  1.00  0.00    -0.282 N 
ATOM      7  C   UNL A   1      31.314  26.147  25.971  1.00  0.00     0.033 C 
ATOM      8  C   UNL A   1      32.137  25.308  25.330  1.00  0.00     0.081 C 
ATOM      9  S   UNL A   1      33.722  25.605  24.740  1.00  0.00    -0.054 SA
ATOM     10  C   UNL A   1      31.687  23.956  24.924  1.00  0.00     0.266 C 
ATOM     11  C   UNL A   1      33.846  24.010  24.008  1.00  0.00     0.148 C 
ATOM     12  O   UNL A   1      30.585  23.487  25.171  1.00  0.00    -0.268 OA
ATOM     13  S   UNL A   1      35.230  23.489  23.236  1.00  0.00    -0.052 S 
BRANCH   7  14
ATOM     14  C   UNL A   1      31.508  27.599  26.050  1.00  0.00     0.018 A 
ATOM     15  C   UNL A   1      31.157  28.417  24.960  1.00  0.00     0.127 A 
ATOM     16  C   UNL A   1      31.358  29.797  25.010  1.00  0.00     0.047 A 
ATOM     17  C   UNL A   1      31.852  30.379  26.175  1.00  0.00     0.004 A 
ATOM     18  C   UNL A   1      31.987  28.194  27.220  1.00  0.00     0.012 A 
ATOM     19  C   UNL A   1      32.155  29.581  27.281  1.00  0.00     0.001 A 
BRANCH  15  20
ATOM     20  O   UNL A   1      30.665  27.864  23.800  1.00  0.00    -0.489 OA
BRANCH  20  21
ATOM     21  C   UNL A   1      30.358  28.875  22.823  1.00  0.00     0.257 C 
BRANCH  21  22
ATOM     22  C   UNL A   1      28.872  28.962  22.638  1.00  0.00     0.006 C 
ATOM     23  C   UNL A   1      28.110  29.966  23.095  1.00  0.00     0.007 C 
ENDBRANCH  21  22
ENDBRANCH  20  21
ENDBRANCH  15  20
ENDBRANCH   7  14
ENDBRANCH   5   6
ENDBRANCH   3   5
ENDBRANCH   2   3
ENDBRANCH   1   2
BRANCH   1  24
ATOM     24  C   UNL A   1      36.242  20.488  25.091  1.00  0.00     0.275 C 
BRANCH  24  25
ATOM     25  O   UNL A   1      37.053  21.452  25.782  1.00  0.00    -0.458 OA
BRANCH  25  26
ATOM     26  C   UNL A   1      38.385  21.200  25.768  1.00  0.00     0.338 C 
ATOM     27  O   UNL A   1      38.923  20.137  25.504  1.00  0.00    -0.246 OA
BRANCH  26  28
ATOM     28  C   UNL A   1      39.109  22.384  26.277  1.00  0.00     0.060 A 
ATOM     29  C   UNL A   1      38.762  23.690  25.909  1.00  0.00     0.016 A 
ATOM     30  C   UNL A   1      40.172  22.163  27.150  1.00  0.00     0.016 A 
ATOM     31  C   UNL A   1      39.494  24.775  26.400  1.00  0.00     0.010 A 
ATOM     32  C   UNL A   1      40.861  23.249  27.688  1.00  0.00     0.010 A 
ATOM     33  C   UNL A   1      40.537  24.565  27.312  1.00  0.00    -0.014 A 
BRANCH  33  34
ATOM     34  C   UNL A   1      41.325  25.682  27.902  1.00  0.00     0.031 A 
ATOM     35  C   UNL A   1      40.614  26.753  28.680  1.00  0.00     0.074 A 
ATOM     36  C   UNL A   1      42.637  25.806  27.629  1.00  0.00     0.049 A 
ATOM     37  N   UNL A   1      41.020  27.951  29.012  1.00  0.00    -0.248 NA
ATOM     38  C   UNL A   1      39.247  26.434  29.113  1.00  0.00     0.031 C 
ATOM     39  C   UNL A   1      43.447  24.828  26.905  1.00  0.00     0.029 A 
ATOM     40  N   UNL A   1      43.507  26.839  27.886  1.00  0.00    -0.354 N 
ATOM     41  C   UNL A   1      39.941  28.552  29.652  1.00  0.00     0.074 A 
ATOM     42  C   UNL A   1      38.860  27.587  29.639  1.00  0.00     0.031 C 
ATOM     43  C   UNL A   1      44.686  25.319  26.744  1.00  0.00     0.029 A 
ATOM     44  C   UNL A   1      44.735  26.673  27.287  1.00  0.00     0.049 A 
ATOM     45  H   UNL A   1      43.276  27.617  28.442  1.00  0.00     0.167 HD
ATOM     46  C   UNL A   1      39.864  29.794  30.194  1.00  0.00     0.034 A 
ATOM     47  C   UNL A   1      45.760  27.535  27.128  1.00  0.00     0.034 A 
ATOM     48  C   UNL A   1      40.961  30.734  30.199  1.00  0.00     0.049 A 
ATOM     49  C   UNL A   1      45.643  28.929  27.683  1.00  0.00     0.074 A 
ATOM     50  C   UNL A   1      41.015  31.996  30.764  1.00  0.00     0.029 A 
ATOM     51  N   UNL A   1      42.196  30.520  29.597  1.00  0.00    -0.354 N 
ATOM     52  N   UNL A   1      44.623  29.494  28.287  1.00  0.00    -0.248 NA
ATOM     53  C   UNL A   1      46.814  29.804  27.534  1.00  0.00     0.031 C 
ATOM     54  C   UNL A   1      42.248  32.572  30.441  1.00  0.00     0.029 A 
ATOM     55  C   UNL A   1      43.002  31.640  29.746  1.00  0.00     0.049 A 
ATOM     56  H   UNL A   1      42.461  29.693  29.133  1.00  0.00     0.167 HD
ATOM     57  C   UNL A   1      45.040  30.781  28.615  1.00  0.00     0.074 A 
ATOM     58  C   UNL A   1      46.404  30.908  28.143  1.00  0.00     0.031 C 
ATOM     59  C   UNL A   1      44.358  31.763  29.259  1.00  0.00     0.034 A 
BRANCH  46  60
ATOM     60  C   UNL A   1      38.529  30.222  30.760  1.00  0.00     0.023 A 
ATOM     61  C   UNL A   1      37.549  30.851  29.970  1.00  0.00     0.031 A 
ATOM     62  C   UNL A   1      38.252  30.048  32.129  1.00  0.00     0.131 A 
ATOM     63  C   UNL A   1      36.390  31.367  30.569  1.00  0.00     0.055 A 
ATOM     64  C   UNL A   1      37.054  30.481  32.701  1.00  0.00     0.041 A 
ATOM     65  F   UNL A   1      39.153  29.472  32.941  1.00  0.00    -0.206 F 
ATOM     66  C   UNL A   1      36.124  31.164  31.924  1.00  0.00     0.022 A 
BRANCH  63  67
ATOM     67  S   UNL A   1      35.324  32.461  29.589  1.00  0.00     0.124 S 
ATOM     68  O   UNL A   1      34.335  32.879  30.580  1.00  0.00    -0.237 OA
ATOM     69  O   UNL A   1      36.254  33.491  29.142  1.00  0.00    -0.237 OA
ATOM     70  O   UNL A   1      34.807  31.586  28.538  1.00  0.00    -0.744 OA
ENDBRANCH  63  67
ENDBRANCH  46  60
BRANCH  47  71
ATOM     71  C   UNL A   1      46.957  27.117  26.345  1.00  0.00     0.023 A 
ATOM     72  C   UNL A   1      47.130  27.515  25.012  1.00  0.00     0.031 A 
ATOM     73  C   UNL A   1      47.954  26.315  26.932  1.00  0.00     0.131 A 
ATOM     74  C   UNL A   1      48.264  27.094  24.300  1.00  0.00     0.055 A 
ATOM     75  C   UNL A   1      49.102  25.937  26.236  1.00  0.00     0.041 A 
ATOM     76  F   UNL A   1      47.836  25.912  28.207  1.00  0.00    -0.206 F 
ATOM     77  C   UNL A   1      49.258  26.322  24.907  1.00  0.00     0.022 A 
BRANCH  74  78
ATOM     78  S   UNL A   1      48.405  27.536  22.547  1.00  0.00     0.124 S 
ATOM     79  O   UNL A   1      49.631  28.325  22.537  1.00  0.00    -0.237 OA
ATOM     80  O   UNL A   1      48.478  26.227  21.908  1.00  0.00    -0.237 OA
ATOM     81  O   UNL A   1      47.177  28.285  22.286  1.00  0.00    -0.744 OA
ENDBRANCH  74  78
ENDBRANCH  47  71
BRANCH  59  82
ATOM     82  C   UNL A   1      45.101  33.046  29.546  1.00  0.00     0.023 A 
ATOM     83  C   UNL A   1      45.061  34.145  28.670  1.00  0.00     0.031 A 
ATOM     84  C   UNL A   1      45.853  33.169  30.729  1.00  0.00     0.131 A 
ATOM     85  C   UNL A   1      45.791  35.305  28.974  1.00  0.00     0.055 A 
ATOM     86  C   UNL A   1      46.533  34.343  31.051  1.00  0.00     0.041 A 
ATOM     87  F   UNL A   1      45.928  32.148  31.599  1.00  0.00    -0.206 F 
ATOM     88  C   UNL A   1      46.512  35.417  30.167  1.00  0.00     0.022 A 
BRANCH  85  89
ATOM     89  S   UNL A   1      45.844  36.652  27.759  1.00  0.00     0.124 S 
ATOM     90  O   UNL A   1      44.474  36.661  27.257  1.00  0.00    -0.237 OA
ATOM     91  O   UNL A   1      46.233  37.797  28.575  1.00  0.00    -0.237 OA
ATOM     92  O   UNL A   1      46.852  36.207  26.797  1.00  0.00    -0.744 OA
ENDBRANCH  85  89
ENDBRANCH  59  82
ENDBRANCH  33  34
ENDBRANCH  26  28
ENDBRANCH  25  26
ENDBRANCH  24  25
ENDBRANCH   1  24
TORSDOF 19
ENDMDL
MODEL 3
REMARK VINA RESULT:     -11.4      5.087     10.218
REMARK SMILES C=CCOc1ccccc1/C=C1\SC(=S)N(CC(=O)OCCOC(=O)c2ccc(-c3c4nc(c(-c5cc(S(=O)(=O)[O-])ccc5F)c5ccc([nH]5)c(-c5cc(S(=O)(=O)[O-])ccc5F)c5nc(c(-c6cc(S(=O)(=O)[O-])ccc6F)c6ccc3[nH]6)C=C5)C=C4)cc2)C1=O
REMARK SMILES IDX 21 1 20 2 18 3 19 4 17 5 16 6 11 7 12 8 13 9 89 10 14 11
REMARK SMILES IDX 90 12 15 13 10 14 5 15 6 16 7 17 9 18 8 19 4 20 3 21 2 22
REMARK SMILES IDX 1 23 22 24 23 25 24 26 25 27 26 28 27 29 88 30 28 31 87 32
REMARK SMILES IDX 29 33 30 34 31 35 81 36 32 37 86 38 80 39 82 40 33 41 85 42
REMARK SMILES IDX 79 43 78 44 34 46 66 47 46 48 65 49 47 50 50 51 64 52 83 53
REMARK SMILES IDX 48 54 49 55 63 57 84 58 51 59 35 60 36 61 44 62 37 63 43 64
REMARK SMILES IDX 45 65 42 66 38 67 39 68 40 69 41 70 67 71 68 72 76 73 69 74
REMARK SMILES IDX 75 75 77 76 74 77 70 78 71 79 72 80 73 81 52 82 53 83 61 84
REMARK SMILES IDX 54 85 60 86 62 87 59 88 55 89 56 90 57 91 58 92
REMARK H PARENT 82 45 50 56
REMARK Flexibility Score: inf
ROOT
ATOM      1  C   UNL A   1      31.957  28.630  24.544  1.00  0.00     0.274 C 
ENDROOT
BRANCH   1   2
ATOM      2  O   UNL A   1      30.866  27.757  24.892  1.00  0.00    -0.461 OA
BRANCH   2   3
ATOM      3  C   UNL A   1      31.229  26.533  25.368  1.00  0.00     0.326 C 
ATOM      4  O   UNL A   1      32.170  26.327  26.127  1.00  0.00    -0.250 OA
BRANCH   3   5
ATOM      5  C   UNL A   1      30.332  25.408  24.871  1.00  0.00     0.250 C 
BRANCH   5   6
ATOM      6  N   UNL A   1      31.041  24.233  24.371  1.00  0.00    -0.282 N 
ATOM      7  C   UNL A   1      32.070  20.873  25.173  1.00  0.00     0.033 C 
ATOM      8  C   UNL A   1      31.863  22.037  24.545  1.00  0.00     0.081 C 
ATOM      9  S   UNL A   1      32.588  22.617  23.100  1.00  0.00    -0.054 SA
ATOM     10  C   UNL A   1      31.003  23.086  25.141  1.00  0.00     0.266 C 
ATOM     11  C   UNL A   1      31.781  24.176  23.214  1.00  0.00     0.148 C 
ATOM     12  O   UNL A   1      30.391  22.968  26.193  1.00  0.00    -0.268 OA
ATOM     13  S   UNL A   1      31.952  25.356  22.048  1.00  0.00    -0.052 S 
BRANCH   7  14
ATOM     14  C   UNL A   1      33.186  19.964  24.889  1.00  0.00     0.018 A 
ATOM     15  C   UNL A   1      34.502  20.343  25.211  1.00  0.00     0.127 A 
ATOM     16  C   UNL A   1      35.577  19.501  24.925  1.00  0.00     0.047 A 
ATOM     17  C   UNL A   1      35.339  18.245  24.372  1.00  0.00     0.004 A 
ATOM     18  C   UNL A   1      32.955  18.696  24.351  1.00  0.00     0.012 A 
ATOM     19  C   UNL A   1      34.031  17.838  24.097  1.00  0.00     0.001 A 
BRANCH  15  20
ATOM     20  O   UNL A   1      34.760  21.578  25.760  1.00  0.00    -0.489 OA
BRANCH  20  21
ATOM     21  C   UNL A   1      36.123  21.982  25.532  1.00  0.00     0.257 C 
BRANCH  21  22
ATOM     22  C   UNL A   1      36.156  23.103  24.535  1.00  0.00     0.006 C 
ATOM     23  C   UNL A   1      36.705  23.015  23.315  1.00  0.00     0.007 C 
ENDBRANCH  21  22
ENDBRANCH  20  21
ENDBRANCH  15  20
ENDBRANCH   7  14
ENDBRANCH   5   6
ENDBRANCH   3   5
ENDBRANCH   2   3
ENDBRANCH   1   2
BRANCH   1  24
ATOM     24  C   UNL A   1      31.905  29.889  25.405  1.00  0.00     0.275 C 
BRANCH  24  25
ATOM     25  O   UNL A   1      33.217  30.169  25.920  1.00  0.00    -0.458 OA
BRANCH  25  26
ATOM     26  C   UNL A   1      33.257  31.064  26.937  1.00  0.00     0.338 C 
ATOM     27  O   UNL A   1      32.416  31.908  27.198  1.00  0.00    -0.246 OA
BRANCH  26  28
ATOM     28  C   UNL A   1      34.568  30.970  27.615  1.00  0.00     0.060 A 
ATOM     29  C   UNL A   1      35.402  32.081  27.790  1.00  0.00     0.016 A 
ATOM     30  C   UNL A   1      34.964  29.717  28.080  1.00  0.00     0.016 A 
ATOM     31  C   UNL A   1      36.644  31.933  28.416  1.00  0.00     0.010 A 
ATOM     32  C   UNL A   1      36.174  29.585  28.760  1.00  0.00     0.010 A 
ATOM     33  C   UNL A   1      37.031  30.686  28.926  1.00  0.00    -0.014 A 
BRANCH  33  34
ATOM     34  C   UNL A   1      38.320  30.477  29.639  1.00  0.00     0.031 A 
ATOM     35  C   UNL A   1      39.313  29.491  29.091  1.00  0.00     0.074 A 
ATOM     36  C   UNL A   1      38.540  31.060  30.832  1.00  0.00     0.049 A 
ATOM     37  N   UNL A   1      40.333  28.920  29.678  1.00  0.00    -0.248 NA
ATOM     38  C   UNL A   1      39.101  29.070  27.699  1.00  0.00     0.031 C 
ATOM     39  C   UNL A   1      37.668  32.050  31.464  1.00  0.00     0.029 A 
ATOM     40  N   UNL A   1      39.542  30.861  31.752  1.00  0.00    -0.354 N 
ATOM     41  C   UNL A   1      40.860  28.034  28.744  1.00  0.00     0.074 A 
ATOM     42  C   UNL A   1      40.028  28.134  27.562  1.00  0.00     0.031 C 
ATOM     43  C   UNL A   1      38.153  32.348  32.680  1.00  0.00     0.029 A 
ATOM     44  C   UNL A   1      39.323  31.516  32.942  1.00  0.00     0.049 A 
ATOM     45  H   UNL A   1      40.337  30.307  31.576  1.00  0.00     0.167 HD
ATOM     46  C   UNL A   1      41.934  27.214  28.868  1.00  0.00     0.034 A 
ATOM     47  C   UNL A   1      39.947  31.410  34.133  1.00  0.00     0.034 A 
ATOM     48  C   UNL A   1      42.751  27.140  30.058  1.00  0.00     0.049 A 
ATOM     49  C   UNL A   1      41.102  30.456  34.277  1.00  0.00     0.074 A 
ATOM     50  C   UNL A   1      43.892  26.388  30.278  1.00  0.00     0.029 A 
ATOM     51  N   UNL A   1      42.505  27.835  31.237  1.00  0.00    -0.354 N 
ATOM     52  N   UNL A   1      41.598  29.620  33.393  1.00  0.00    -0.248 NA
ATOM     53  C   UNL A   1      41.781  30.427  35.579  1.00  0.00     0.031 C 
ATOM     54  C   UNL A   1      44.290  26.569  31.606  1.00  0.00     0.029 A 
ATOM     55  C   UNL A   1      43.450  27.500  32.197  1.00  0.00     0.049 A 
ATOM     56  H   UNL A   1      41.768  28.473  31.372  1.00  0.00     0.167 HD
ATOM     57  C   UNL A   1      42.665  28.988  34.024  1.00  0.00     0.074 A 
ATOM     58  C   UNL A   1      42.741  29.539  35.362  1.00  0.00     0.031 C 
ATOM     59  C   UNL A   1      43.511  28.045  33.534  1.00  0.00     0.034 A 
BRANCH  46  60
ATOM     60  C   UNL A   1      42.237  26.288  27.712  1.00  0.00     0.023 A 
ATOM     61  C   UNL A   1      41.724  24.980  27.648  1.00  0.00     0.031 A 
ATOM     62  C   UNL A   1      43.101  26.703  26.681  1.00  0.00     0.131 A 
ATOM     63  C   UNL A   1      42.154  24.107  26.637  1.00  0.00     0.055 A 
ATOM     64  C   UNL A   1      43.451  25.858  25.626  1.00  0.00     0.041 A 
ATOM     65  F   UNL A   1      43.640  27.932  26.694  1.00  0.00    -0.206 F 
ATOM     66  C   UNL A   1      42.993  24.544  25.611  1.00  0.00     0.022 A 
BRANCH  63  67
ATOM     67  S   UNL A   1      41.741  22.345  26.783  1.00  0.00     0.124 S 
ATOM     68  O   UNL A   1      40.306  22.397  27.056  1.00  0.00    -0.237 OA
ATOM     69  O   UNL A   1      42.124  21.822  25.478  1.00  0.00    -0.237 OA
ATOM     70  O   UNL A   1      42.563  21.892  27.904  1.00  0.00    -0.744 OA
ENDBRANCH  63  67
ENDBRANCH  46  60
BRANCH  47  71
ATOM     71  C   UNL A   1      39.437  32.182  35.300  1.00  0.00     0.023 A 
ATOM     72  C   UNL A   1      39.872  33.491  35.554  1.00  0.00     0.031 A 
ATOM     73  C   UNL A   1      38.492  31.616  36.177  1.00  0.00     0.131 A 
ATOM     74  C   UNL A   1      39.378  34.185  36.670  1.00  0.00     0.055 A 
ATOM     75  C   UNL A   1      37.970  32.326  37.258  1.00  0.00     0.041 A 
ATOM     76  F   UNL A   1      38.041  30.368  35.974  1.00  0.00    -0.206 F 
ATOM     77  C   UNL A   1      38.419  33.618  37.513  1.00  0.00     0.022 A 
BRANCH  74  78
ATOM     78  S   UNL A   1      40.041  35.834  37.031  1.00  0.00     0.124 S 
ATOM     79  O   UNL A   1      39.299  36.196  38.233  1.00  0.00    -0.237 OA
ATOM     80  O   UNL A   1      41.462  35.558  37.212  1.00  0.00    -0.237 OA
ATOM     81  O   UNL A   1      39.707  36.604  35.834  1.00  0.00    -0.744 OA
ENDBRANCH  74  78
ENDBRANCH  47  71
BRANCH  59  82
ATOM     82  C   UNL A   1      44.635  27.592  34.435  1.00  0.00     0.023 A 
ATOM     83  C   UNL A   1      44.572  26.393  35.165  1.00  0.00     0.031 A 
ATOM     84  C   UNL A   1      45.798  28.376  34.549  1.00  0.00     0.131 A 
ATOM     85  C   UNL A   1      45.636  26.032  36.007  1.00  0.00     0.055 A 
ATOM     86  C   UNL A   1      46.875  27.986  35.346  1.00  0.00     0.041 A 
ATOM     87  F   UNL A   1      45.910  29.533  33.876  1.00  0.00    -0.206 F 
ATOM     88  C   UNL A   1      46.794  26.812  36.088  1.00  0.00     0.022 A 
BRANCH  85  89
ATOM     89  S   UNL A   1      45.467  24.558  37.052  1.00  0.00     0.124 S 
ATOM     90  O   UNL A   1      46.842  24.337  37.489  1.00  0.00    -0.237 OA
ATOM     91  O   UNL A   1      44.534  25.006  38.079  1.00  0.00    -0.237 OA
ATOM     92  O   UNL A   1      44.940  23.546  36.136  1.00  0.00    -0.744 OA
ENDBRANCH  85  89
ENDBRANCH  59  82
ENDBRANCH  33  34
ENDBRANCH  26  28
ENDBRANCH  25  26
ENDBRANCH  24  25
ENDBRANCH   1  24
TORSDOF 19
ENDMDL
