MODEL 1
REMARK VINA RESULT:     -12.7      0.000      0.000
REMARK SMILES Cc1nnc(SCC(=O)Nc2cccc(C(=O)OCCOC(=O)c3ccc(-c4c5nc(c(-c6cc(S(=O)(=O)[O-])ccc6F)c6ccc([nH]6)c(-c6cc(S(=O)(=O)[O-])ccc6F)c6nc(c(-c7cc(S(=O)(=O)[O-])ccc7F)c7ccc4[nH]7)C=C6)C=C5)cc3)c2)n1-c1ccccc1
REMARK SMILES IDX 19 1 18 2 16 3 17 4 15 5 11 6 12 7 87 8 13 9 14 10 10 11
REMARK SMILES IDX 8 12 9 13 7 15 6 16 5 17 1 18 2 19 3 20 88 21 4 22 89 23
REMARK SMILES IDX 90 24 94 25 91 26 93 27 92 28 20 29 21 30 22 31 23 32 24 33
REMARK SMILES IDX 25 34 86 35 26 36 85 37 27 38 28 39 29 40 79 41 30 42 84 43
REMARK SMILES IDX 78 44 80 45 31 46 83 47 77 48 76 49 32 51 64 52 44 53 63 54
REMARK SMILES IDX 45 55 48 56 62 57 81 58 46 59 47 60 61 62 82 63 49 64 33 65
REMARK SMILES IDX 34 66 42 67 35 68 41 69 43 70 40 71 36 72 37 73 38 74 39 75
REMARK SMILES IDX 65 76 66 77 74 78 67 79 73 80 75 81 72 82 68 83 69 84 70 85
REMARK SMILES IDX 71 86 50 87 51 88 59 89 52 90 58 91 60 92 57 93 53 94 54 95
REMARK SMILES IDX 55 96 56 97
REMARK H PARENT 10 14 80 50 48 61
REMARK Flexibility Score: inf
ROOT
ATOM      1  C   UNL A   1      34.056  29.253  27.028  1.00  0.00     0.275 C 
ENDROOT
BRANCH   1   2
ATOM      2  O   UNL A   1      33.243  28.956  25.885  1.00  0.00    -0.458 OA
BRANCH   2   3
ATOM      3  C   UNL A   1      31.915  29.202  25.979  1.00  0.00     0.338 C 
ATOM      4  O   UNL A   1      31.392  30.195  26.468  1.00  0.00    -0.246 OA
BRANCH   3   5
ATOM      5  C   UNL A   1      31.152  28.094  25.347  1.00  0.00     0.062 A 
ATOM      6  C   UNL A   1      30.086  25.936  25.511  1.00  0.00     0.042 A 
ATOM      7  C   UNL A   1      29.749  25.985  24.160  1.00  0.00     0.026 A 
ATOM      8  C   UNL A   1      30.859  26.937  26.067  1.00  0.00     0.041 A 
ATOM      9  C   UNL A   1      30.079  27.113  23.410  1.00  0.00     0.003 A 
ATOM     10  C   UNL A   1      30.755  28.181  24.010  1.00  0.00     0.016 A 
BRANCH   6  11
ATOM     11  N   UNL A   1      29.597  24.883  26.277  1.00  0.00    -0.325 N 
ATOM     12  C   UNL A   1      30.276  23.803  26.755  1.00  0.00     0.234 C 
ATOM     13  O   UNL A   1      29.701  23.212  27.678  1.00  0.00    -0.274 OA
ATOM     14  H   UNL A   1      28.638  24.923  26.502  1.00  0.00     0.169 HD
BRANCH  12  15
ATOM     15  C   UNL A   1      31.732  23.491  26.441  1.00  0.00     0.178 C 
BRANCH  15  16
ATOM     16  S   UNL A   1      32.235  21.965  25.639  1.00  0.00    -0.076 SA
BRANCH  16  17
ATOM     17  C   UNL A   1      33.914  22.007  25.239  1.00  0.00     0.196 A 
ATOM     18  C   UNL A   1      36.745  22.797  23.100  1.00  0.00     0.090 C 
ATOM     19  C   UNL A   1      35.753  22.281  24.072  1.00  0.00     0.135 A 
ATOM     20  N   UNL A   1      35.912  21.228  24.848  1.00  0.00    -0.134 NA
ATOM     21  N   UNL A   1      34.501  22.817  24.292  1.00  0.00    -0.274 N 
ATOM     22  N   UNL A   1      34.755  21.050  25.569  1.00  0.00    -0.123 NA
BRANCH  21  23
ATOM     23  C   UNL A   1      33.945  23.945  23.680  1.00  0.00     0.049 A 
ATOM     24  C   UNL A   1      33.300  23.771  22.458  1.00  0.00     0.027 A 
ATOM     25  C   UNL A   1      34.195  25.213  24.202  1.00  0.00     0.027 A 
ATOM     26  C   UNL A   1      33.002  24.890  21.686  1.00  0.00     0.002 A 
ATOM     27  C   UNL A   1      33.845  26.328  23.443  1.00  0.00     0.002 A 
ATOM     28  C   UNL A   1      33.282  26.165  22.174  1.00  0.00     0.000 A 
ENDBRANCH  21  23
ENDBRANCH  16  17
ENDBRANCH  15  16
ENDBRANCH  12  15
ENDBRANCH   6  11
ENDBRANCH   3   5
ENDBRANCH   2   3
ENDBRANCH   1   2
BRANCH   1  29
ATOM     29  C   UNL A   1      34.042  30.747  27.322  1.00  0.00     0.275 C 
BRANCH  29  30
ATOM     30  O   UNL A   1      35.349  31.225  27.646  1.00  0.00    -0.458 OA
BRANCH  30  31
ATOM     31  C   UNL A   1      35.546  31.524  28.946  1.00  0.00     0.338 C 
ATOM     32  O   UNL A   1      34.920  32.338  29.625  1.00  0.00    -0.246 OA
BRANCH  31  33
ATOM     33  C   UNL A   1      36.738  30.838  29.435  1.00  0.00     0.060 A 
ATOM     34  C   UNL A   1      37.923  31.572  29.560  1.00  0.00     0.016 A 
ATOM     35  C   UNL A   1      36.720  29.442  29.558  1.00  0.00     0.016 A 
ATOM     36  C   UNL A   1      39.116  30.889  29.700  1.00  0.00     0.010 A 
ATOM     37  C   UNL A   1      37.909  28.765  29.679  1.00  0.00     0.010 A 
ATOM     38  C   UNL A   1      39.101  29.491  29.700  1.00  0.00    -0.014 A 
BRANCH  38  39
ATOM     39  C   UNL A   1      40.353  28.779  29.890  1.00  0.00     0.031 A 
ATOM     40  C   UNL A   1      40.736  28.629  31.314  1.00  0.00     0.074 A 
ATOM     41  C   UNL A   1      40.980  28.141  28.883  1.00  0.00     0.049 A 
ATOM     42  N   UNL A   1      41.820  29.021  31.894  1.00  0.00    -0.248 NA
ATOM     43  C   UNL A   1      39.719  28.104  32.242  1.00  0.00     0.031 C 
ATOM     44  C   UNL A   1      40.504  27.991  27.505  1.00  0.00     0.029 A 
ATOM     45  N   UNL A   1      42.102  27.369  28.911  1.00  0.00    -0.354 N 
ATOM     46  C   UNL A   1      41.723  28.571  33.206  1.00  0.00     0.074 A 
ATOM     47  C   UNL A   1      40.347  28.220  33.410  1.00  0.00     0.031 C 
ATOM     48  C   UNL A   1      41.197  27.000  26.906  1.00  0.00     0.029 A 
ATOM     49  C   UNL A   1      42.225  26.518  27.817  1.00  0.00     0.049 A 
ATOM     50  H   UNL A   1      42.764  27.407  29.639  1.00  0.00     0.167 HD
ATOM     51  C   UNL A   1      42.837  28.264  33.924  1.00  0.00     0.034 A 
ATOM     52  C   UNL A   1      43.042  25.438  27.701  1.00  0.00     0.034 A 
ATOM     53  C   UNL A   1      44.003  28.922  33.375  1.00  0.00     0.049 A 
ATOM     54  C   UNL A   1      44.118  25.583  28.712  1.00  0.00     0.074 A 
ATOM     55  C   UNL A   1      44.310  30.239  33.082  1.00  0.00     0.029 A 
ATOM     56  N   UNL A   1      44.932  28.170  32.691  1.00  0.00    -0.354 N 
ATOM     57  N   UNL A   1      45.037  26.507  28.663  1.00  0.00    -0.248 NA
ATOM     58  C   UNL A   1      43.918  24.985  30.024  1.00  0.00     0.031 C 
ATOM     59  C   UNL A   1      45.057  30.186  31.871  1.00  0.00     0.029 A 
ATOM     60  C   UNL A   1      45.238  28.844  31.533  1.00  0.00     0.049 A 
ATOM     61  H   UNL A   1      45.308  27.306  32.978  1.00  0.00     0.167 HD
ATOM     62  C   UNL A   1      45.207  26.913  29.977  1.00  0.00     0.074 A 
ATOM     63  C   UNL A   1      44.582  25.863  30.779  1.00  0.00     0.031 C 
ATOM     64  C   UNL A   1      45.575  28.195  30.279  1.00  0.00     0.034 A 
BRANCH  51  65
ATOM     65  C   UNL A   1      42.928  27.068  34.854  1.00  0.00     0.023 A 
ATOM     66  C   UNL A   1      43.702  25.983  34.407  1.00  0.00     0.031 A 
ATOM     67  C   UNL A   1      42.088  26.800  35.962  1.00  0.00     0.131 A 
ATOM     68  C   UNL A   1      43.515  24.696  34.935  1.00  0.00     0.055 A 
ATOM     69  C   UNL A   1      41.964  25.532  36.536  1.00  0.00     0.041 A 
ATOM     70  F   UNL A   1      41.276  27.713  36.506  1.00  0.00    -0.206 F 
ATOM     71  C   UNL A   1      42.647  24.459  35.995  1.00  0.00     0.022 A 
BRANCH  68  72
ATOM     72  S   UNL A   1      44.271  23.306  34.058  1.00  0.00     0.124 S 
ATOM     73  O   UNL A   1      45.456  23.940  33.489  1.00  0.00    -0.237 OA
ATOM     74  O   UNL A   1      44.502  22.359  35.143  1.00  0.00    -0.237 OA
ATOM     75  O   UNL A   1      43.244  22.917  33.095  1.00  0.00    -0.744 OA
ENDBRANCH  68  72
ENDBRANCH  51  65
BRANCH  52  76
ATOM     76  C   UNL A   1      42.781  24.176  26.955  1.00  0.00     0.023 A 
ATOM     77  C   UNL A   1      43.723  23.611  26.070  1.00  0.00     0.031 A 
ATOM     78  C   UNL A   1      41.664  23.373  27.281  1.00  0.00     0.131 A 
ATOM     79  C   UNL A   1      43.524  22.310  25.550  1.00  0.00     0.055 A 
ATOM     80  C   UNL A   1      41.461  22.099  26.751  1.00  0.00     0.041 A 
ATOM     81  F   UNL A   1      40.767  23.765  28.201  1.00  0.00    -0.206 F 
ATOM     82  C   UNL A   1      42.398  21.556  25.888  1.00  0.00     0.022 A 
BRANCH  79  83
ATOM     83  S   UNL A   1      44.797  21.526  24.510  1.00  0.00     0.124 S 
ATOM     84  O   UNL A   1      44.299  20.162  24.383  1.00  0.00    -0.237 OA
ATOM     85  O   UNL A   1      44.767  22.344  23.303  1.00  0.00    -0.237 OA
ATOM     86  O   UNL A   1      46.018  21.662  25.306  1.00  0.00    -0.744 OA
ENDBRANCH  79  83
ENDBRANCH  52  76
BRANCH  64  87
ATOM     87  C   UNL A   1      46.159  29.064  29.182  1.00  0.00     0.023 A 
ATOM     88  C   UNL A   1      45.493  30.145  28.560  1.00  0.00     0.031 A 
ATOM     89  C   UNL A   1      47.498  28.832  28.816  1.00  0.00     0.131 A 
ATOM     90  C   UNL A   1      46.161  30.924  27.595  1.00  0.00     0.055 A 
ATOM     91  C   UNL A   1      48.163  29.622  27.880  1.00  0.00     0.041 A 
ATOM     92  F   UNL A   1      48.200  27.838  29.387  1.00  0.00    -0.206 F 
ATOM     93  C   UNL A   1      47.492  30.666  27.256  1.00  0.00     0.022 A 
BRANCH  90  94
ATOM     94  S   UNL A   1      45.299  32.273  26.725  1.00  0.00     0.124 S 
ATOM     95  O   UNL A   1      44.954  33.208  27.789  1.00  0.00    -0.237 OA
ATOM     96  O   UNL A   1      46.311  32.729  25.775  1.00  0.00    -0.237 OA
ATOM     97  O   UNL A   1      44.152  31.598  26.112  1.00  0.00    -0.744 OA
ENDBRANCH  90  94
ENDBRANCH  64  87
ENDBRANCH  38  39
ENDBRANCH  31  33
ENDBRANCH  30  31
ENDBRANCH  29  30
ENDBRANCH   1  29
TORSDOF 19
ENDMDL
MODEL 2
REMARK VINA RESULT:     -12.6      3.727      9.376
REMARK SMILES Cc1nnc(SCC(=O)Nc2cccc(C(=O)OCCOC(=O)c3ccc(-c4c5nc(c(-c6cc(S(=O)(=O)[O-])ccc6F)c6ccc([nH]6)c(-c6cc(S(=O)(=O)[O-])ccc6F)c6nc(c(-c7cc(S(=O)(=O)[O-])ccc7F)c7ccc4[nH]7)C=C6)C=C5)cc3)c2)n1-c1ccccc1
REMARK SMILES IDX 19 1 18 2 16 3 17 4 15 5 11 6 12 7 87 8 13 9 14 10 10 11
REMARK SMILES IDX 8 12 9 13 7 15 6 16 5 17 1 18 2 19 3 20 88 21 4 22 89 23
REMARK SMILES IDX 90 24 94 25 91 26 93 27 92 28 20 29 21 30 22 31 23 32 24 33
REMARK SMILES IDX 25 34 86 35 26 36 85 37 27 38 28 39 29 40 79 41 30 42 84 43
REMARK SMILES IDX 78 44 80 45 31 46 83 47 77 48 76 49 32 51 64 52 44 53 63 54
REMARK SMILES IDX 45 55 48 56 62 57 81 58 46 59 47 60 61 62 82 63 49 64 33 65
REMARK SMILES IDX 34 66 42 67 35 68 41 69 43 70 40 71 36 72 37 73 38 74 39 75
REMARK SMILES IDX 65 76 66 77 74 78 67 79 73 80 75 81 72 82 68 83 69 84 70 85
REMARK SMILES IDX 71 86 50 87 51 88 59 89 52 90 58 91 60 92 57 93 53 94 54 95
REMARK SMILES IDX 55 96 56 97
REMARK H PARENT 10 14 80 50 48 61
REMARK Flexibility Score: inf
ROOT
ATOM      1  C   UNL A   1      37.803  21.508  24.806  1.00  0.00     0.275 C 
ENDROOT
BRANCH   1   2
ATOM      2  O   UNL A   1      36.469  21.757  25.267  1.00  0.00    -0.458 OA
BRANCH   2   3
ATOM      3  C   UNL A   1      35.881  22.917  24.891  1.00  0.00     0.338 C 
ATOM      4  O   UNL A   1      36.290  24.048  25.121  1.00  0.00    -0.246 OA
BRANCH   3   5
ATOM      5  C   UNL A   1      34.659  22.627  24.095  1.00  0.00     0.062 A 
ATOM      6  C   UNL A   1      33.212  23.133  22.233  1.00  0.00     0.042 A 
ATOM      7  C   UNL A   1      32.342  22.114  22.614  1.00  0.00     0.026 A 
ATOM      8  C   UNL A   1      34.303  23.442  23.022  1.00  0.00     0.041 A 
ATOM      9  C   UNL A   1      32.655  21.320  23.717  1.00  0.00     0.003 A 
ATOM     10  C   UNL A   1      33.828  21.557  24.441  1.00  0.00     0.016 A 
BRANCH   6  11
ATOM     11  N   UNL A   1      32.969  23.796  21.034  1.00  0.00    -0.325 N 
ATOM     12  C   UNL A   1      32.840  25.136  20.825  1.00  0.00     0.234 C 
ATOM     13  O   UNL A   1      32.975  25.478  19.643  1.00  0.00    -0.274 OA
ATOM     14  H   UNL A   1      32.879  23.225  20.237  1.00  0.00     0.169 HD
BRANCH  12  15
ATOM     15  C   UNL A   1      32.841  26.186  21.925  1.00  0.00     0.178 C 
BRANCH  15  16
ATOM     16  S   UNL A   1      31.324  26.873  22.599  1.00  0.00    -0.076 SA
BRANCH  16  17
ATOM     17  C   UNL A   1      31.639  27.738  24.059  1.00  0.00     0.196 A 
ATOM     18  C   UNL A   1      31.530  28.223  27.660  1.00  0.00     0.090 C 
ATOM     19  C   UNL A   1      31.589  28.297  26.182  1.00  0.00     0.135 A 
ATOM     20  N   UNL A   1      31.584  29.403  25.466  1.00  0.00    -0.134 NA
ATOM     21  N   UNL A   1      31.633  27.211  25.332  1.00  0.00    -0.274 N 
ATOM     22  N   UNL A   1      31.603  29.052  24.137  1.00  0.00    -0.123 NA
BRANCH  21  23
ATOM     23  C   UNL A   1      31.664  25.859  25.688  1.00  0.00     0.049 A 
ATOM     24  C   UNL A   1      30.451  25.183  25.781  1.00  0.00     0.027 A 
ATOM     25  C   UNL A   1      32.860  25.278  26.106  1.00  0.00     0.027 A 
ATOM     26  C   UNL A   1      30.415  23.943  26.411  1.00  0.00     0.002 A 
ATOM     27  C   UNL A   1      32.819  24.013  26.689  1.00  0.00     0.002 A 
ATOM     28  C   UNL A   1      31.595  23.363  26.873  1.00  0.00     0.000 A 
ENDBRANCH  21  23
ENDBRANCH  16  17
ENDBRANCH  15  16
ENDBRANCH  12  15
ENDBRANCH   6  11
ENDBRANCH   3   5
ENDBRANCH   2   3
ENDBRANCH   1   2
BRANCH   1  29
ATOM     29  C   UNL A   1      38.796  21.617  25.955  1.00  0.00     0.275 C 
BRANCH  29  30
ATOM     30  O   UNL A   1      39.073  22.982  26.276  1.00  0.00    -0.458 OA
BRANCH  30  31
ATOM     31  C   UNL A   1      40.330  23.229  26.697  1.00  0.00     0.338 C 
ATOM     32  O   UNL A   1      41.317  22.506  26.558  1.00  0.00    -0.246 OA
BRANCH  31  33
ATOM     33  C   UNL A   1      40.351  24.447  27.502  1.00  0.00     0.060 A 
ATOM     34  C   UNL A   1      39.299  25.359  27.355  1.00  0.00     0.016 A 
ATOM     35  C   UNL A   1      41.508  24.767  28.225  1.00  0.00     0.016 A 
ATOM     36  C   UNL A   1      39.458  26.641  27.844  1.00  0.00     0.010 A 
ATOM     37  C   UNL A   1      41.670  26.048  28.695  1.00  0.00     0.010 A 
ATOM     38  C   UNL A   1      40.665  26.987  28.459  1.00  0.00    -0.014 A 
BRANCH  38  39
ATOM     39  C   UNL A   1      40.810  28.323  29.009  1.00  0.00     0.031 A 
ATOM     40  C   UNL A   1      41.940  29.083  28.423  1.00  0.00     0.074 A 
ATOM     41  C   UNL A   1      39.880  28.879  29.810  1.00  0.00     0.049 A 
ATOM     42  N   UNL A   1      42.947  29.611  29.033  1.00  0.00    -0.248 NA
ATOM     43  C   UNL A   1      42.038  29.136  26.954  1.00  0.00     0.031 C 
ATOM     44  C   UNL A   1      38.589  28.301  30.191  1.00  0.00     0.029 A 
ATOM     45  N   UNL A   1      39.827  30.136  30.335  1.00  0.00    -0.354 N 
ATOM     46  C   UNL A   1      43.673  30.274  28.048  1.00  0.00     0.074 A 
ATOM     47  C   UNL A   1      43.198  29.769  26.792  1.00  0.00     0.031 C 
ATOM     48  C   UNL A   1      37.796  29.279  30.678  1.00  0.00     0.029 A 
ATOM     49  C   UNL A   1      38.552  30.521  30.736  1.00  0.00     0.049 A 
ATOM     50  H   UNL A   1      40.617  30.718  30.420  1.00  0.00     0.167 HD
ATOM     51  C   UNL A   1      44.405  31.381  28.344  1.00  0.00     0.034 A 
ATOM     52  C   UNL A   1      38.119  31.782  31.007  1.00  0.00     0.034 A 
ATOM     53  C   UNL A   1      44.720  31.429  29.756  1.00  0.00     0.049 A 
ATOM     54  C   UNL A   1      39.317  32.616  31.274  1.00  0.00     0.074 A 
ATOM     55  C   UNL A   1      45.327  30.547  30.633  1.00  0.00     0.029 A 
ATOM     56  N   UNL A   1      44.070  32.345  30.553  1.00  0.00    -0.354 N 
ATOM     57  N   UNL A   1      40.086  32.465  32.315  1.00  0.00    -0.248 NA
ATOM     58  C   UNL A   1      39.927  33.326  30.158  1.00  0.00     0.031 C 
ATOM     59  C   UNL A   1      44.605  30.679  31.853  1.00  0.00     0.029 A 
ATOM     60  C   UNL A   1      43.655  31.687  31.686  1.00  0.00     0.049 A 
ATOM     61  H   UNL A   1      43.928  33.298  30.348  1.00  0.00     0.167 HD
ATOM     62  C   UNL A   1      41.374  32.650  31.840  1.00  0.00     0.074 A 
ATOM     63  C   UNL A   1      41.206  33.292  30.539  1.00  0.00     0.031 C 
ATOM     64  C   UNL A   1      42.437  32.005  32.410  1.00  0.00     0.034 A 
BRANCH  51  65
ATOM     65  C   UNL A   1      44.481  32.598  27.442  1.00  0.00     0.023 A 
ATOM     66  C   UNL A   1      43.844  33.763  27.906  1.00  0.00     0.031 A 
ATOM     67  C   UNL A   1      44.846  32.608  26.075  1.00  0.00     0.131 A 
ATOM     68  C   UNL A   1      43.465  34.781  27.016  1.00  0.00     0.055 A 
ATOM     69  C   UNL A   1      44.536  33.661  25.209  1.00  0.00     0.041 A 
ATOM     70  F   UNL A   1      45.447  31.579  25.467  1.00  0.00    -0.206 F 
ATOM     71  C   UNL A   1      43.801  34.737  25.668  1.00  0.00     0.022 A 
BRANCH  68  72
ATOM     72  S   UNL A   1      42.333  36.054  27.625  1.00  0.00     0.124 S 
ATOM     73  O   UNL A   1      41.050  35.367  27.521  1.00  0.00    -0.237 OA
ATOM     74  O   UNL A   1      42.838  36.279  28.975  1.00  0.00    -0.237 OA
ATOM     75  O   UNL A   1      42.532  37.159  26.690  1.00  0.00    -0.744 OA
ENDBRANCH  68  72
ENDBRANCH  51  65
BRANCH  52  76
ATOM     76  C   UNL A   1      36.761  32.346  30.776  1.00  0.00     0.023 A 
ATOM     77  C   UNL A   1      35.933  32.782  31.832  1.00  0.00     0.031 A 
ATOM     78  C   UNL A   1      36.339  32.677  29.468  1.00  0.00     0.131 A 
ATOM     79  C   UNL A   1      34.747  33.503  31.559  1.00  0.00     0.055 A 
ATOM     80  C   UNL A   1      35.158  33.372  29.203  1.00  0.00     0.041 A 
ATOM     81  F   UNL A   1      37.107  32.413  28.399  1.00  0.00    -0.206 F 
ATOM     82  C   UNL A   1      34.360  33.797  30.250  1.00  0.00     0.022 A 
BRANCH  79  83
ATOM     83  S   UNL A   1      33.742  34.177  32.920  1.00  0.00     0.124 S 
ATOM     84  O   UNL A   1      34.754  34.734  33.809  1.00  0.00    -0.237 OA
ATOM     85  O   UNL A   1      32.882  35.134  32.234  1.00  0.00    -0.237 OA
ATOM     86  O   UNL A   1      33.045  33.001  33.444  1.00  0.00    -0.744 OA
ENDBRANCH  79  83
ENDBRANCH  52  76
BRANCH  64  87
ATOM     87  C   UNL A   1      42.265  31.386  33.784  1.00  0.00     0.023 A 
ATOM     88  C   UNL A   1      42.387  30.009  34.076  1.00  0.00     0.031 A 
ATOM     89  C   UNL A   1      42.053  32.261  34.866  1.00  0.00     0.131 A 
ATOM     90  C   UNL A   1      42.269  29.555  35.405  1.00  0.00     0.055 A 
ATOM     91  C   UNL A   1      41.964  31.812  36.182  1.00  0.00     0.041 A 
ATOM     92  F   UNL A   1      41.955  33.586  34.664  1.00  0.00    -0.206 F 
ATOM     93  C   UNL A   1      42.061  30.453  36.456  1.00  0.00     0.022 A 
BRANCH  90  94
ATOM     94  S   UNL A   1      42.347  27.778  35.795  1.00  0.00     0.124 S 
ATOM     95  O   UNL A   1      42.640  27.748  37.223  1.00  0.00    -0.237 OA
ATOM     96  O   UNL A   1      41.017  27.315  35.405  1.00  0.00    -0.237 OA
ATOM     97  O   UNL A   1      43.432  27.293  34.940  1.00  0.00    -0.744 OA
ENDBRANCH  90  94
ENDBRANCH  64  87
ENDBRANCH  38  39
ENDBRANCH  31  33
ENDBRANCH  30  31
ENDBRANCH  29  30
ENDBRANCH   1  29
TORSDOF 19
ENDMDL
MODEL 3
REMARK VINA RESULT:     -12.4      3.586      9.084
REMARK SMILES Cc1nnc(SCC(=O)Nc2cccc(C(=O)OCCOC(=O)c3ccc(-c4c5nc(c(-c6cc(S(=O)(=O)[O-])ccc6F)c6ccc([nH]6)c(-c6cc(S(=O)(=O)[O-])ccc6F)c6nc(c(-c7cc(S(=O)(=O)[O-])ccc7F)c7ccc4[nH]7)C=C6)C=C5)cc3)c2)n1-c1ccccc1
REMARK SMILES IDX 19 1 18 2 16 3 17 4 15 5 11 6 12 7 87 8 13 9 14 10 10 11
REMARK SMILES IDX 8 12 9 13 7 15 6 16 5 17 1 18 2 19 3 20 88 21 4 22 89 23
REMARK SMILES IDX 90 24 94 25 91 26 93 27 92 28 20 29 21 30 22 31 23 32 24 33
REMARK SMILES IDX 25 34 86 35 26 36 85 37 27 38 28 39 29 40 79 41 30 42 84 43
REMARK SMILES IDX 78 44 80 45 31 46 83 47 77 48 76 49 32 51 64 52 44 53 63 54
REMARK SMILES IDX 45 55 48 56 62 57 81 58 46 59 47 60 61 62 82 63 49 64 33 65
REMARK SMILES IDX 34 66 42 67 35 68 41 69 43 70 40 71 36 72 37 73 38 74 39 75
REMARK SMILES IDX 65 76 66 77 74 78 67 79 73 80 75 81 72 82 68 83 69 84 70 85
REMARK SMILES IDX 71 86 50 87 51 88 59 89 52 90 58 91 60 92 57 93 53 94 54 95
REMARK SMILES IDX 55 96 56 97
REMARK H PARENT 10 14 80 50 48 61
REMARK Flexibility Score: inf
ROOT
ATOM      1  C   UNL A   1      37.637  21.828  24.787  1.00  0.00     0.275 C 
ENDROOT
BRANCH   1   2
ATOM      2  O   UNL A   1      36.312  21.517  25.237  1.00  0.00    -0.458 OA
BRANCH   2   3
ATOM      3  C   UNL A   1      35.435  22.542  25.361  1.00  0.00     0.338 C 
ATOM      4  O   UNL A   1      35.554  23.516  26.093  1.00  0.00    -0.246 OA
BRANCH   3   5
ATOM      5  C   UNL A   1      34.295  22.344  24.428  1.00  0.00     0.062 A 
ATOM      6  C   UNL A   1      33.155  22.905  22.378  1.00  0.00     0.042 A 
ATOM      7  C   UNL A   1      32.135  22.007  22.684  1.00  0.00     0.026 A 
ATOM      8  C   UNL A   1      34.169  23.135  23.288  1.00  0.00     0.041 A 
ATOM      9  C   UNL A   1      32.218  21.243  23.847  1.00  0.00     0.003 A 
ATOM     10  C   UNL A   1      33.312  21.389  24.705  1.00  0.00     0.016 A 
BRANCH   6  11
ATOM     11  N   UNL A   1      33.138  23.527  21.134  1.00  0.00    -0.325 N 
ATOM     12  C   UNL A   1      32.791  24.811  20.839  1.00  0.00     0.234 C 
ATOM     13  O   UNL A   1      33.190  25.201  19.734  1.00  0.00    -0.274 OA
ATOM     14  H   UNL A   1      33.411  22.968  20.369  1.00  0.00     0.169 HD
BRANCH  12  15
ATOM     15  C   UNL A   1      32.243  25.810  21.846  1.00  0.00     0.178 C 
BRANCH  15  16
ATOM     16  S   UNL A   1      33.279  27.049  22.632  1.00  0.00    -0.076 SA
BRANCH  16  17
ATOM     17  C   UNL A   1      33.046  27.046  24.343  1.00  0.00     0.196 A 
ATOM     18  C   UNL A   1      31.573  28.243  27.443  1.00  0.00     0.090 C 
ATOM     19  C   UNL A   1      32.378  27.673  26.338  1.00  0.00     0.135 A 
ATOM     20  N   UNL A   1      33.591  27.170  26.450  1.00  0.00    -0.134 NA
ATOM     21  N   UNL A   1      31.985  27.607  25.017  1.00  0.00    -0.274 N 
ATOM     22  N   UNL A   1      34.013  26.789  25.198  1.00  0.00    -0.123 NA
BRANCH  21  23
ATOM     23  C   UNL A   1      30.764  28.025  24.478  1.00  0.00     0.049 A 
ATOM     24  C   UNL A   1      29.779  27.063  24.275  1.00  0.00     0.027 A 
ATOM     25  C   UNL A   1      30.625  29.328  24.001  1.00  0.00     0.027 A 
ATOM     26  C   UNL A   1      28.682  27.377  23.478  1.00  0.00     0.002 A 
ATOM     27  C   UNL A   1      29.496  29.646  23.248  1.00  0.00     0.002 A 
ATOM     28  C   UNL A   1      28.545  28.663  22.958  1.00  0.00     0.000 A 
ENDBRANCH  21  23
ENDBRANCH  16  17
ENDBRANCH  15  16
ENDBRANCH  12  15
ENDBRANCH   6  11
ENDBRANCH   3   5
ENDBRANCH   2   3
ENDBRANCH   1   2
BRANCH   1  29
ATOM     29  C   UNL A   1      38.606  21.873  25.960  1.00  0.00     0.275 C 
BRANCH  29  30
ATOM     30  O   UNL A   1      38.944  23.218  26.304  1.00  0.00    -0.458 OA
BRANCH  30  31
ATOM     31  C   UNL A   1      40.218  23.406  26.705  1.00  0.00     0.338 C 
ATOM     32  O   UNL A   1      41.175  22.656  26.515  1.00  0.00    -0.246 OA
BRANCH  31  33
ATOM     33  C   UNL A   1      40.299  24.591  27.553  1.00  0.00     0.060 A 
ATOM     34  C   UNL A   1      39.277  25.544  27.465  1.00  0.00     0.016 A 
ATOM     35  C   UNL A   1      41.482  24.842  28.262  1.00  0.00     0.016 A 
ATOM     36  C   UNL A   1      39.492  26.800  27.999  1.00  0.00     0.010 A 
ATOM     37  C   UNL A   1      41.700  26.098  28.776  1.00  0.00     0.010 A 
ATOM     38  C   UNL A   1      40.724  27.079  28.598  1.00  0.00    -0.014 A 
BRANCH  38  39
ATOM     39  C   UNL A   1      40.929  28.388  29.196  1.00  0.00     0.031 A 
ATOM     40  C   UNL A   1      42.054  29.142  28.593  1.00  0.00     0.074 A 
ATOM     41  C   UNL A   1      40.049  28.934  30.057  1.00  0.00     0.049 A 
ATOM     42  N   UNL A   1      43.099  29.618  29.179  1.00  0.00    -0.248 NA
ATOM     43  C   UNL A   1      42.091  29.253  27.123  1.00  0.00     0.031 C 
ATOM     44  C   UNL A   1      38.759  28.374  30.469  1.00  0.00     0.029 A 
ATOM     45  N   UNL A   1      40.052  30.169  30.633  1.00  0.00    -0.354 N 
ATOM     46  C   UNL A   1      43.801  30.302  28.192  1.00  0.00     0.074 A 
ATOM     47  C   UNL A   1      43.260  29.862  26.937  1.00  0.00     0.031 C 
ATOM     48  C   UNL A   1      38.014  29.351  31.029  1.00  0.00     0.029 A 
ATOM     49  C   UNL A   1      38.806  30.570  31.105  1.00  0.00     0.049 A 
ATOM     50  H   UNL A   1      40.860  30.726  30.708  1.00  0.00     0.167 HD
ATOM     51  C   UNL A   1      44.575  31.377  28.500  1.00  0.00     0.034 A 
ATOM     52  C   UNL A   1      38.420  31.829  31.444  1.00  0.00     0.034 A 
ATOM     53  C   UNL A   1      44.951  31.358  29.898  1.00  0.00     0.049 A 
ATOM     54  C   UNL A   1      39.650  32.620  31.693  1.00  0.00     0.074 A 
ATOM     55  C   UNL A   1      45.569  30.425  30.712  1.00  0.00     0.029 A 
ATOM     56  N   UNL A   1      44.359  32.258  30.758  1.00  0.00    -0.354 N 
ATOM     57  N   UNL A   1      40.457  32.406  32.693  1.00  0.00    -0.248 NA
ATOM     58  C   UNL A   1      40.232  33.360  30.582  1.00  0.00     0.031 C 
ATOM     59  C   UNL A   1      44.903  30.526  31.966  1.00  0.00     0.029 A 
ATOM     60  C   UNL A   1      43.974  31.564  31.880  1.00  0.00     0.049 A 
ATOM     61  H   UNL A   1      44.235  33.221  30.598  1.00  0.00     0.167 HD
ATOM     62  C   UNL A   1      41.729  32.578  32.171  1.00  0.00     0.074 A 
ATOM     63  C   UNL A   1      41.525  33.277  30.905  1.00  0.00     0.031 C 
ATOM     64  C   UNL A   1      42.797  31.883  32.668  1.00  0.00     0.034 A 
BRANCH  51  65
ATOM     65  C   UNL A   1      44.646  32.628  27.645  1.00  0.00     0.023 A 
ATOM     66  C   UNL A   1      44.025  33.778  28.163  1.00  0.00     0.031 A 
ATOM     67  C   UNL A   1      44.992  32.689  26.274  1.00  0.00     0.131 A 
ATOM     68  C   UNL A   1      43.640  34.833  27.319  1.00  0.00     0.055 A 
ATOM     69  C   UNL A   1      44.676  33.777  25.455  1.00  0.00     0.041 A 
ATOM     70  F   UNL A   1      45.576  31.681  25.618  1.00  0.00    -0.206 F 
ATOM     71  C   UNL A   1      43.956  34.840  25.966  1.00  0.00     0.022 A 
BRANCH  68  72
ATOM     72  S   UNL A   1      42.526  36.088  27.995  1.00  0.00     0.124 S 
ATOM     73  O   UNL A   1      41.224  35.529  27.648  1.00  0.00    -0.237 OA
ATOM     74  O   UNL A   1      42.881  36.070  29.410  1.00  0.00    -0.237 OA
ATOM     75  O   UNL A   1      42.904  37.299  27.270  1.00  0.00    -0.744 OA
ENDBRANCH  68  72
ENDBRANCH  51  65
BRANCH  52  76
ATOM     76  C   UNL A   1      37.069  32.436  31.295  1.00  0.00     0.023 A 
ATOM     77  C   UNL A   1      36.626  33.012  30.086  1.00  0.00     0.031 A 
ATOM     78  C   UNL A   1      36.091  32.254  32.300  1.00  0.00     0.131 A 
ATOM     79  C   UNL A   1      35.271  33.383  29.925  1.00  0.00     0.055 A 
ATOM     80  C   UNL A   1      34.759  32.640  32.144  1.00  0.00     0.041 A 
ATOM     81  F   UNL A   1      36.376  31.612  33.444  1.00  0.00    -0.206 F 
ATOM     82  C   UNL A   1      34.340  33.199  30.950  1.00  0.00     0.022 A 
BRANCH  79  83
ATOM     83  S   UNL A   1      34.667  34.009  28.324  1.00  0.00     0.124 S 
ATOM     84  O   UNL A   1      34.771  35.453  28.495  1.00  0.00    -0.237 OA
ATOM     85  O   UNL A   1      35.593  33.398  27.377  1.00  0.00    -0.237 OA
ATOM     86  O   UNL A   1      33.298  33.496  28.253  1.00  0.00    -0.744 OA
ENDBRANCH  79  83
ENDBRANCH  52  76
BRANCH  64  87
ATOM     87  C   UNL A   1      42.666  31.212  34.022  1.00  0.00     0.023 A 
ATOM     88  C   UNL A   1      42.386  29.842  34.228  1.00  0.00     0.031 A 
ATOM     89  C   UNL A   1      42.928  31.997  35.162  1.00  0.00     0.131 A 
ATOM     90  C   UNL A   1      42.352  29.316  35.534  1.00  0.00     0.055 A 
ATOM     91  C   UNL A   1      42.918  31.468  36.450  1.00  0.00     0.041 A 
ATOM     92  F   UNL A   1      43.227  33.301  35.038  1.00  0.00    -0.206 F 
ATOM     93  C   UNL A   1      42.619  30.125  36.643  1.00  0.00     0.022 A 
BRANCH  90  94
ATOM     94  S   UNL A   1      41.919  27.572  35.827  1.00  0.00     0.124 S 
ATOM     95  O   UNL A   1      41.182  27.190  34.628  1.00  0.00    -0.237 OA
ATOM     96  O   UNL A   1      43.230  26.949  35.997  1.00  0.00    -0.237 OA
ATOM     97  O   UNL A   1      41.111  27.626  37.047  1.00  0.00    -0.744 OA
ENDBRANCH  90  94
ENDBRANCH  64  87
ENDBRANCH  38  39
ENDBRANCH  31  33
ENDBRANCH  30  31
ENDBRANCH  29  30
ENDBRANCH   1  29
TORSDOF 19
ENDMDL
