MODEL 1
REMARK VINA RESULT:     -11.2      0.000      0.000
REMARK SMILES CC(C)(C[S@](=O)c1cccc(Cl)c1)C(=O)OCCOC(=O)c1ccc(-c2c3nc(c(-c4cc(S(=O)(=O)[O-])ccc4F)c4ccc([nH]4)c(-c4cc(S(=O)(=O)[O-])ccc4F)c4nc(c(-c5cc(S(=O)(=O)[O-])ccc5F)c5ccc2[nH]5)C=C4)C=C3)cc1
REMARK SMILES IDX 17 1 16 2 14 3 15 4 2 5 1 6 3 7 4 8 5 9 6 10 7 11 8 12 13 13
REMARK SMILES IDX 9 14 11 15 10 16 12 17 18 18 19 19 20 20 21 21 22 22 23 23
REMARK SMILES IDX 84 24 24 25 83 26 25 27 26 28 27 29 77 30 28 31 82 32 76 33
REMARK SMILES IDX 78 34 29 35 81 36 75 37 74 38 30 40 62 41 42 42 61 43 43 44
REMARK SMILES IDX 46 45 60 46 79 47 44 48 45 49 59 51 80 52 47 53 31 54 32 55
REMARK SMILES IDX 40 56 33 57 39 58 41 59 38 60 34 61 35 62 36 63 37 64 63 65
REMARK SMILES IDX 64 66 72 67 65 68 71 69 73 70 70 71 66 72 67 73 68 74 69 75
REMARK SMILES IDX 48 76 49 77 57 78 50 79 56 80 58 81 55 82 51 83 52 84 53 85
REMARK SMILES IDX 54 86
REMARK H PARENT 78 39 46 50
REMARK Flexibility Score: inf
ROOT
ATOM      1  C   UNL A   1      35.778  20.023  24.999  1.00  0.00     0.274 C 
ENDROOT
BRANCH   1   2
ATOM      2  O   UNL A   1      35.250  21.358  25.213  1.00  0.00    -0.462 OA
BRANCH   2   3
ATOM      3  C   UNL A   1      34.085  21.419  25.910  1.00  0.00     0.312 C 
ATOM      4  O   UNL A   1      34.023  21.247  27.126  1.00  0.00    -0.252 OA
BRANCH   3   5
ATOM      5  C   UNL A   1      32.823  21.464  25.040  1.00  0.00     0.074 C 
ATOM      6  C   UNL A   1      32.515  20.101  24.390  1.00  0.00     0.024 C 
ATOM      7  C   UNL A   1      33.328  22.347  23.855  1.00  0.00     0.024 C 
BRANCH   5   8
ATOM      8  C   UNL A   1      31.573  22.174  25.590  1.00  0.00     0.128 C 
BRANCH   8   9
ATOM      9  S   UNL A   1      31.508  23.513  26.812  1.00  0.00     0.054 S 
ATOM     10  O   UNL A   1      30.085  23.665  27.251  1.00  0.00    -0.254 OA
BRANCH   9  11
ATOM     11  C   UNL A   1      31.940  25.038  25.974  1.00  0.00     0.040 A 
ATOM     12  C   UNL A   1      33.218  25.542  26.071  1.00  0.00     0.018 A 
ATOM     13  C   UNL A   1      30.934  25.766  25.271  1.00  0.00     0.038 A 
ATOM     14  C   UNL A   1      33.520  26.657  25.327  1.00  0.00     0.003 A 
ATOM     15  C   UNL A   1      31.047  27.043  24.458  1.00  0.00     0.042 A 
ATOM     16  C   UNL A   1      32.535  27.296  24.521  1.00  0.00     0.020 A 
ATOM     17  Cl  UNL A   1      29.297  28.217  23.158  1.00  0.00    -0.084 Cl
ENDBRANCH   9  11
ENDBRANCH   8   9
ENDBRANCH   5   8
ENDBRANCH   3   5
ENDBRANCH   2   3
ENDBRANCH   1   2
BRANCH   1  18
ATOM     18  C   UNL A   1      37.290  20.024  24.816  1.00  0.00     0.275 C 
BRANCH  18  19
ATOM     19  O   UNL A   1      37.839  21.005  25.703  1.00  0.00    -0.458 OA
BRANCH  19  20
ATOM     20  C   UNL A   1      39.151  20.834  25.928  1.00  0.00     0.338 C 
ATOM     21  O   UNL A   1      39.862  19.921  25.542  1.00  0.00    -0.246 OA
BRANCH  20  22
ATOM     22  C   UNL A   1      39.713  21.988  26.634  1.00  0.00     0.060 A 
ATOM     23  C   UNL A   1      40.956  21.942  27.987  1.00  0.00     0.016 A 
ATOM     24  C   UNL A   1      38.964  23.569  26.170  1.00  0.00     0.016 A 
ATOM     25  C   UNL A   1      41.528  23.502  28.749  1.00  0.00     0.010 A 
ATOM     26  C   UNL A   1      39.575  25.108  26.876  1.00  0.00     0.010 A 
ATOM     27  C   UNL A   1      40.917  25.116  28.115  1.00  0.00    -0.014 A 
BRANCH  27  28
ATOM     28  C   UNL A   1      41.543  26.434  28.459  1.00  0.00     0.031 A 
ATOM     29  C   UNL A   1      40.699  27.531  29.088  1.00  0.00     0.074 A 
ATOM     30  C   UNL A   1      42.833  26.655  28.125  1.00  0.00     0.049 A 
ATOM     31  N   UNL A   1      41.017  28.769  29.373  1.00  0.00    -0.248 NA
ATOM     32  C   UNL A   1      39.309  27.207  29.458  1.00  0.00     0.031 C 
ATOM     33  C   UNL A   1      43.733  25.693  27.479  1.00  0.00     0.029 A 
ATOM     34  N   UNL A   1      43.618  27.777  28.247  1.00  0.00    -0.354 N 
ATOM     35  C   UNL A   1      39.878  29.341  29.943  1.00  0.00     0.074 A 
ATOM     36  C   UNL A   1      38.846  28.345  29.935  1.00  0.00     0.031 C 
ATOM     37  C   UNL A   1      44.941  26.241  27.301  1.00  0.00     0.029 A 
ATOM     38  C   UNL A   1      44.876  27.634  27.697  1.00  0.00     0.049 A 
ATOM     39  H   UNL A   1      43.313  28.604  28.685  1.00  0.00     0.167 HD
ATOM     40  C   UNL A   1      39.693  30.591  30.428  1.00  0.00     0.034 A 
ATOM     41  C   UNL A   1      45.848  28.537  27.465  1.00  0.00     0.034 A 
ATOM     42  C   UNL A   1      40.700  31.605  30.321  1.00  0.00     0.049 A 
ATOM     43  C   UNL A   1      45.581  29.953  27.884  1.00  0.00     0.074 A 
ATOM     44  C   UNL A   1      40.641  32.930  30.703  1.00  0.00     0.029 A 
ATOM     45  N   UNL A   1      41.947  31.403  29.738  1.00  0.00    -0.354 N 
ATOM     46  N   UNL A   1      44.502  30.452  28.444  1.00  0.00    -0.248 NA
ATOM     47  C   UNL A   1      46.651  30.926  27.648  1.00  0.00     0.031 C 
ATOM     48  C   UNL A   1      41.817  33.549  30.270  1.00  0.00     0.029 A 
ATOM     49  C   UNL A   1      42.652  32.589  29.715  1.00  0.00     0.049 A 
ATOM     50  H   UNL A   1      42.277  30.542  29.394  1.00  0.00     0.167 HD
ATOM     51  C   UNL A   1      44.776  31.795  28.662  1.00  0.00     0.074 A 
ATOM     52  C   UNL A   1      46.126  32.021  28.177  1.00  0.00     0.031 C 
ATOM     53  C   UNL A   1      43.995  32.758  29.216  1.00  0.00     0.034 A 
BRANCH  40  54
ATOM     54  C   UNL A   1      38.331  30.917  31.004  1.00  0.00     0.023 A 
ATOM     55  C   UNL A   1      37.310  31.481  30.214  1.00  0.00     0.031 A 
ATOM     56  C   UNL A   1      38.079  30.754  32.377  1.00  0.00     0.131 A 
ATOM     57  C   UNL A   1      36.121  31.931  30.815  1.00  0.00     0.055 A 
ATOM     58  C   UNL A   1      36.863  31.129  32.955  1.00  0.00     0.041 A 
ATOM     59  F   UNL A   1      39.026  30.263  33.192  1.00  0.00    -0.206 F 
ATOM     60  C   UNL A   1      35.881  31.735  32.176  1.00  0.00     0.022 A 
BRANCH  57  61
ATOM     61  S   UNL A   1      34.964  32.919  29.824  1.00  0.00     0.124 S 
ATOM     62  O   UNL A   1      35.857  33.910  29.226  1.00  0.00    -0.237 OA
ATOM     63  O   UNL A   1      34.406  31.931  28.909  1.00  0.00    -0.237 OA
ATOM     64  O   UNL A   1      34.030  33.451  30.815  1.00  0.00    -0.744 OA
ENDBRANCH  57  61
ENDBRANCH  40  54
BRANCH  41  65
ATOM     65  C   UNL A   1      47.113  28.135  26.773  1.00  0.00     0.023 A 
ATOM     66  C   UNL A   1      47.185  28.075  25.373  1.00  0.00     0.031 A 
ATOM     67  C   UNL A   1      48.275  27.812  27.500  1.00  0.00     0.131 A 
ATOM     68  C   UNL A   1      48.380  27.680  24.746  1.00  0.00     0.055 A 
ATOM     69  C   UNL A   1      49.478  27.480  26.871  1.00  0.00     0.041 A 
ATOM     70  F   UNL A   1      48.272  27.850  28.842  1.00  0.00    -0.206 F 
ATOM     71  C   UNL A   1      49.532  27.401  25.484  1.00  0.00     0.022 A 
BRANCH  68  72
ATOM     72  S   UNL A   1      48.383  27.456  22.946  1.00  0.00     0.124 S 
ATOM     73  O   UNL A   1      49.665  28.045  22.574  1.00  0.00    -0.237 OA
ATOM     74  O   UNL A   1      48.283  26.006  22.822  1.00  0.00    -0.237 OA
ATOM     75  O   UNL A   1      47.205  28.201  22.508  1.00  0.00    -0.744 OA
ENDBRANCH  68  72
ENDBRANCH  41  65
BRANCH  53  76
ATOM     76  C   UNL A   1      44.614  34.115  29.375  1.00  0.00     0.023 A 
ATOM     77  C   UNL A   1      44.420  35.126  28.425  1.00  0.00     0.031 A 
ATOM     78  C   UNL A   1      45.391  34.396  30.513  1.00  0.00     0.131 A 
ATOM     79  C   UNL A   1      45.046  36.364  28.602  1.00  0.00     0.055 A 
ATOM     80  C   UNL A   1      45.949  35.653  30.719  1.00  0.00     0.041 A 
ATOM     81  F   UNL A   1      45.604  33.453  31.446  1.00  0.00    -0.206 F 
ATOM     82  C   UNL A   1      45.788  36.643  29.753  1.00  0.00     0.022 A 
BRANCH  79  83
ATOM     83  S   UNL A   1      44.957  37.573  27.256  1.00  0.00     0.124 S 
ATOM     84  O   UNL A   1      45.921  37.033  26.303  1.00  0.00    -0.237 OA
ATOM     85  O   UNL A   1      43.555  37.496  26.858  1.00  0.00    -0.237 OA
ATOM     86  O   UNL A   1      45.351  38.826  27.897  1.00  0.00    -0.744 OA
ENDBRANCH  79  83
ENDBRANCH  53  76
ENDBRANCH  27  28
ENDBRANCH  20  22
ENDBRANCH  19  20
ENDBRANCH  18  19
ENDBRANCH   1  18
TORSDOF 17
ENDMDL
MODEL 2
REMARK VINA RESULT:     -11.2      1.473      2.006
REMARK SMILES CC(C)(C[S@](=O)c1cccc(Cl)c1)C(=O)OCCOC(=O)c1ccc(-c2c3nc(c(-c4cc(S(=O)(=O)[O-])ccc4F)c4ccc([nH]4)c(-c4cc(S(=O)(=O)[O-])ccc4F)c4nc(c(-c5cc(S(=O)(=O)[O-])ccc5F)c5ccc2[nH]5)C=C4)C=C3)cc1
REMARK SMILES IDX 17 1 16 2 14 3 15 4 2 5 1 6 3 7 4 8 5 9 6 10 7 11 8 12 13 13
REMARK SMILES IDX 9 14 11 15 10 16 12 17 18 18 19 19 20 20 21 21 22 22 23 23
REMARK SMILES IDX 84 24 24 25 83 26 25 27 26 28 27 29 77 30 28 31 82 32 76 33
REMARK SMILES IDX 78 34 29 35 81 36 75 37 74 38 30 40 62 41 42 42 61 43 43 44
REMARK SMILES IDX 46 45 60 46 79 47 44 48 45 49 59 51 80 52 47 53 31 54 32 55
REMARK SMILES IDX 40 56 33 57 39 58 41 59 38 60 34 61 35 62 36 63 37 64 63 65
REMARK SMILES IDX 64 66 72 67 65 68 71 69 73 70 70 71 66 72 67 73 68 74 69 75
REMARK SMILES IDX 48 76 49 77 57 78 50 79 56 80 58 81 55 82 51 83 52 84 53 85
REMARK SMILES IDX 54 86
REMARK H PARENT 78 39 46 50
REMARK Flexibility Score: inf
ROOT
ATOM      1  C   UNL A   1      34.443  20.652  25.114  1.00  0.00     0.274 C 
ENDROOT
BRANCH   1   2
ATOM      2  O   UNL A   1      34.276  22.064  24.820  1.00  0.00    -0.462 OA
BRANCH   2   3
ATOM      3  C   UNL A   1      33.523  22.759  25.713  1.00  0.00     0.312 C 
ATOM      4  O   UNL A   1      33.311  22.367  26.858  1.00  0.00    -0.252 OA
BRANCH   3   5
ATOM      5  C   UNL A   1      32.748  23.938  25.112  1.00  0.00     0.074 C 
ATOM      6  C   UNL A   1      32.011  24.760  26.187  1.00  0.00     0.024 C 
ATOM      7  C   UNL A   1      31.608  23.176  24.365  1.00  0.00     0.024 C 
BRANCH   5   8
ATOM      8  C   UNL A   1      33.440  24.809  24.047  1.00  0.00     0.128 C 
BRANCH   8   9
ATOM      9  S   UNL A   1      32.698  25.540  22.562  1.00  0.00     0.054 S 
ATOM     10  O   UNL A   1      33.811  25.961  21.653  1.00  0.00    -0.254 OA
BRANCH   9  11
ATOM     11  C   UNL A   1      31.858  27.045  23.056  1.00  0.00     0.040 A 
ATOM     12  C   UNL A   1      30.785  27.509  22.327  1.00  0.00     0.018 A 
ATOM     13  C   UNL A   1      32.355  27.800  24.161  1.00  0.00     0.038 A 
ATOM     14  C   UNL A   1      30.117  28.609  22.809  1.00  0.00     0.003 A 
ATOM     15  C   UNL A   1      31.810  29.067  24.795  1.00  0.00     0.042 A 
ATOM     16  C   UNL A   1      30.546  29.273  23.994  1.00  0.00     0.020 A 
ATOM     17  Cl  UNL A   1      32.637  30.287  26.784  1.00  0.00    -0.084 Cl
ENDBRANCH   9  11
ENDBRANCH   8   9
ENDBRANCH   5   8
ENDBRANCH   3   5
ENDBRANCH   2   3
ENDBRANCH   1   2
BRANCH   1  18
ATOM     18  C   UNL A   1      35.892  20.205  24.983  1.00  0.00     0.275 C 
BRANCH  18  19
ATOM     19  O   UNL A   1      36.725  21.267  25.459  1.00  0.00    -0.458 OA
BRANCH  19  20
ATOM     20  C   UNL A   1      38.029  20.950  25.468  1.00  0.00     0.338 C 
ATOM     21  O   UNL A   1      38.575  20.021  24.896  1.00  0.00    -0.246 OA
BRANCH  20  22
ATOM     22  C   UNL A   1      38.807  21.964  26.184  1.00  0.00     0.060 A 
ATOM     23  C   UNL A   1      40.320  21.673  27.186  1.00  0.00     0.016 A 
ATOM     24  C   UNL A   1      38.072  23.617  26.146  1.00  0.00     0.016 A 
ATOM     25  C   UNL A   1      41.146  23.078  28.014  1.00  0.00     0.010 A 
ATOM     26  C   UNL A   1      38.921  25.010  26.907  1.00  0.00     0.010 A 
ATOM     27  C   UNL A   1      40.508  24.787  27.785  1.00  0.00    -0.014 A 
BRANCH  27  28
ATOM     28  C   UNL A   1      41.276  26.018  28.163  1.00  0.00     0.031 A 
ATOM     29  C   UNL A   1      40.572  27.157  28.882  1.00  0.00     0.074 A 
ATOM     30  C   UNL A   1      42.567  26.129  27.780  1.00  0.00     0.049 A 
ATOM     31  N   UNL A   1      41.024  28.342  29.211  1.00  0.00    -0.248 NA
ATOM     32  C   UNL A   1      39.174  26.952  29.300  1.00  0.00     0.031 C 
ATOM     33  C   UNL A   1      43.338  25.120  27.047  1.00  0.00     0.029 A 
ATOM     34  N   UNL A   1      43.464  27.161  27.919  1.00  0.00    -0.354 N 
ATOM     35  C   UNL A   1      39.972  28.992  29.861  1.00  0.00     0.074 A 
ATOM     36  C   UNL A   1      38.847  28.103  29.853  1.00  0.00     0.031 C 
ATOM     37  C   UNL A   1      44.586  25.556  26.839  1.00  0.00     0.029 A 
ATOM     38  C   UNL A   1      44.678  26.925  27.304  1.00  0.00     0.049 A 
ATOM     39  H   UNL A   1      43.261  27.990  28.410  1.00  0.00     0.167 HD
ATOM     40  C   UNL A   1      39.934  30.226  30.414  1.00  0.00     0.034 A 
ATOM     41  C   UNL A   1      45.724  27.740  27.072  1.00  0.00     0.034 A 
ATOM     42  C   UNL A   1      41.032  31.142  30.309  1.00  0.00     0.049 A 
ATOM     43  C   UNL A   1      45.618  29.152  27.571  1.00  0.00     0.074 A 
ATOM     44  C   UNL A   1      41.121  32.444  30.757  1.00  0.00     0.029 A 
ATOM     45  N   UNL A   1      42.227  30.850  29.659  1.00  0.00    -0.354 N 
ATOM     46  N   UNL A   1      44.618  29.724  28.204  1.00  0.00    -0.248 NA
ATOM     47  C   UNL A   1      46.768  30.027  27.332  1.00  0.00     0.031 C 
ATOM     48  C   UNL A   1      42.334  32.968  30.300  1.00  0.00     0.029 A 
ATOM     49  C   UNL A   1      43.045  31.961  29.661  1.00  0.00     0.049 A 
ATOM     50  H   UNL A   1      42.454  29.980  29.259  1.00  0.00     0.167 HD
ATOM     51  C   UNL A   1      45.034  31.020  28.473  1.00  0.00     0.074 A 
ATOM     52  C   UNL A   1      46.378  31.139  27.937  1.00  0.00     0.031 C 
ATOM     53  C   UNL A   1      44.376  32.024  29.109  1.00  0.00     0.034 A 
BRANCH  40  54
ATOM     54  C   UNL A   1      38.636  30.653  31.068  1.00  0.00     0.023 A 
ATOM     55  C   UNL A   1      37.592  31.241  30.326  1.00  0.00     0.031 A 
ATOM     56  C   UNL A   1      38.475  30.562  32.461  1.00  0.00     0.131 A 
ATOM     57  C   UNL A   1      36.476  31.783  30.987  1.00  0.00     0.055 A 
ATOM     58  C   UNL A   1      37.325  31.028  33.104  1.00  0.00     0.041 A 
ATOM     59  F   UNL A   1      39.450  30.051  33.230  1.00  0.00    -0.206 F 
ATOM     60  C   UNL A   1      36.323  31.657  32.369  1.00  0.00     0.022 A 
BRANCH  57  61
ATOM     61  S   UNL A   1      35.305  32.793  30.035  1.00  0.00     0.124 S 
ATOM     62  O   UNL A   1      34.750  31.809  29.107  1.00  0.00    -0.237 OA
ATOM     63  O   UNL A   1      34.395  33.280  31.065  1.00  0.00    -0.237 OA
ATOM     64  O   UNL A   1      36.152  33.812  29.419  1.00  0.00    -0.744 OA
ENDBRANCH  57  61
ENDBRANCH  40  54
BRANCH  41  65
ATOM     65  C   UNL A   1      46.912  27.253  26.303  1.00  0.00     0.023 A 
ATOM     66  C   UNL A   1      47.129  27.651  24.975  1.00  0.00     0.031 A 
ATOM     67  C   UNL A   1      47.859  26.389  26.887  1.00  0.00     0.131 A 
ATOM     68  C   UNL A   1      48.245  27.169  24.269  1.00  0.00     0.055 A 
ATOM     69  C   UNL A   1      48.999  25.961  26.201  1.00  0.00     0.041 A 
ATOM     70  F   UNL A   1      47.710  25.972  28.154  1.00  0.00    -0.206 F 
ATOM     71  C   UNL A   1      49.191  26.343  24.878  1.00  0.00     0.022 A 
BRANCH  68  72
ATOM     72  S   UNL A   1      48.398  27.574  22.507  1.00  0.00     0.124 S 
ATOM     73  O   UNL A   1      49.627  28.359  22.487  1.00  0.00    -0.237 OA
ATOM     74  O   UNL A   1      48.473  26.250  21.898  1.00  0.00    -0.237 OA
ATOM     75  O   UNL A   1      47.176  28.321  22.221  1.00  0.00    -0.744 OA
ENDBRANCH  68  72
ENDBRANCH  41  65
BRANCH  53  76
ATOM     76  C   UNL A   1      45.133  33.304  29.304  1.00  0.00     0.023 A 
ATOM     77  C   UNL A   1      45.181  34.288  28.307  1.00  0.00     0.031 A 
ATOM     78  C   UNL A   1      45.796  33.541  30.521  1.00  0.00     0.131 A 
ATOM     79  C   UNL A   1      45.929  35.450  28.525  1.00  0.00     0.055 A 
ATOM     80  C   UNL A   1      46.475  34.732  30.759  1.00  0.00     0.041 A 
ATOM     81  F   UNL A   1      45.777  32.622  31.501  1.00  0.00    -0.206 F 
ATOM     82  C   UNL A   1      46.555  35.690  29.752  1.00  0.00     0.022 A 
BRANCH  79  83
ATOM     83  S   UNL A   1      46.152  36.600  27.144  1.00  0.00     0.124 S 
ATOM     84  O   UNL A   1      45.106  37.586  27.403  1.00  0.00    -0.237 OA
ATOM     85  O   UNL A   1      47.523  37.060  27.337  1.00  0.00    -0.237 OA
ATOM     86  O   UNL A   1      45.938  35.762  25.966  1.00  0.00    -0.744 OA
ENDBRANCH  79  83
ENDBRANCH  53  76
ENDBRANCH  27  28
ENDBRANCH  20  22
ENDBRANCH  19  20
ENDBRANCH  18  19
ENDBRANCH   1  18
TORSDOF 17
ENDMDL
MODEL 3
REMARK VINA RESULT:     -11.1      1.874      2.344
REMARK SMILES CC(C)(C[S@](=O)c1cccc(Cl)c1)C(=O)OCCOC(=O)c1ccc(-c2c3nc(c(-c4cc(S(=O)(=O)[O-])ccc4F)c4ccc([nH]4)c(-c4cc(S(=O)(=O)[O-])ccc4F)c4nc(c(-c5cc(S(=O)(=O)[O-])ccc5F)c5ccc2[nH]5)C=C4)C=C3)cc1
REMARK SMILES IDX 17 1 16 2 14 3 15 4 2 5 1 6 3 7 4 8 5 9 6 10 7 11 8 12 13 13
REMARK SMILES IDX 9 14 11 15 10 16 12 17 18 18 19 19 20 20 21 21 22 22 23 23
REMARK SMILES IDX 84 24 24 25 83 26 25 27 26 28 27 29 77 30 28 31 82 32 76 33
REMARK SMILES IDX 78 34 29 35 81 36 75 37 74 38 30 40 62 41 42 42 61 43 43 44
REMARK SMILES IDX 46 45 60 46 79 47 44 48 45 49 59 51 80 52 47 53 31 54 32 55
REMARK SMILES IDX 40 56 33 57 39 58 41 59 38 60 34 61 35 62 36 63 37 64 63 65
REMARK SMILES IDX 64 66 72 67 65 68 71 69 73 70 70 71 66 72 67 73 68 74 69 75
REMARK SMILES IDX 48 76 49 77 57 78 50 79 56 80 58 81 55 82 51 83 52 84 53 85
REMARK SMILES IDX 54 86
REMARK H PARENT 78 39 46 50
REMARK Flexibility Score: inf
ROOT
ATOM      1  C   UNL A   1      34.664  20.883  24.597  1.00  0.00     0.274 C 
ENDROOT
BRANCH   1   2
ATOM      2  O   UNL A   1      33.977  21.515  25.709  1.00  0.00    -0.462 OA
BRANCH   2   3
ATOM      3  C   UNL A   1      32.643  21.707  25.536  1.00  0.00     0.312 C 
ATOM      4  O   UNL A   1      31.877  20.808  25.195  1.00  0.00    -0.252 OA
BRANCH   3   5
ATOM      5  C   UNL A   1      32.203  23.176  25.546  1.00  0.00     0.074 C 
ATOM      6  C   UNL A   1      33.170  24.068  26.347  1.00  0.00     0.024 C 
ATOM      7  C   UNL A   1      30.932  23.083  26.450  1.00  0.00     0.024 C 
BRANCH   5   8
ATOM      8  C   UNL A   1      31.735  23.815  24.226  1.00  0.00     0.128 C 
BRANCH   8   9
ATOM      9  S   UNL A   1      32.765  24.532  22.917  1.00  0.00     0.054 S 
ATOM     10  O   UNL A   1      34.125  23.915  23.014  1.00  0.00    -0.254 OA
BRANCH   9  11
ATOM     11  C   UNL A   1      32.977  26.274  23.282  1.00  0.00     0.040 A 
ATOM     12  C   UNL A   1      33.609  27.098  22.377  1.00  0.00     0.018 A 
ATOM     13  C   UNL A   1      32.557  26.787  24.546  1.00  0.00     0.038 A 
ATOM     14  C   UNL A   1      33.653  28.441  22.662  1.00  0.00     0.003 A 
ATOM     15  C   UNL A   1      32.588  28.209  25.077  1.00  0.00     0.042 A 
ATOM     16  C   UNL A   1      33.107  28.957  23.872  1.00  0.00     0.020 A 
ATOM     17  Cl  UNL A   1      31.746  29.078  27.237  1.00  0.00    -0.084 Cl
ENDBRANCH   9  11
ENDBRANCH   8   9
ENDBRANCH   5   8
ENDBRANCH   3   5
ENDBRANCH   2   3
ENDBRANCH   1   2
BRANCH   1  18
ATOM     18  C   UNL A   1      35.956  20.203  25.031  1.00  0.00     0.275 C 
BRANCH  18  19
ATOM     19  O   UNL A   1      37.013  21.162  24.927  1.00  0.00    -0.458 OA
BRANCH  19  20
ATOM     20  C   UNL A   1      38.198  20.685  25.339  1.00  0.00     0.338 C 
ATOM     21  O   UNL A   1      38.692  19.597  25.092  1.00  0.00    -0.246 OA
BRANCH  20  22
ATOM     22  C   UNL A   1      38.947  21.710  26.071  1.00  0.00     0.060 A 
ATOM     23  C   UNL A   1      40.391  21.431  27.173  1.00  0.00     0.016 A 
ATOM     24  C   UNL A   1      38.241  23.372  25.937  1.00  0.00     0.016 A 
ATOM     25  C   UNL A   1      41.187  22.850  28.006  1.00  0.00     0.010 A 
ATOM     26  C   UNL A   1      39.063  24.776  26.705  1.00  0.00     0.010 A 
ATOM     27  C   UNL A   1      40.590  24.560  27.686  1.00  0.00    -0.014 A 
BRANCH  27  28
ATOM     28  C   UNL A   1      41.353  25.791  28.072  1.00  0.00     0.031 A 
ATOM     29  C   UNL A   1      40.641  26.927  28.789  1.00  0.00     0.074 A 
ATOM     30  C   UNL A   1      42.646  25.906  27.699  1.00  0.00     0.049 A 
ATOM     31  N   UNL A   1      41.088  28.112  29.124  1.00  0.00    -0.248 NA
ATOM     32  C   UNL A   1      39.240  26.718  29.196  1.00  0.00     0.031 C 
ATOM     33  C   UNL A   1      43.425  24.900  26.970  1.00  0.00     0.029 A 
ATOM     34  N   UNL A   1      43.540  26.940  27.847  1.00  0.00    -0.354 N 
ATOM     35  C   UNL A   1      40.030  28.758  29.767  1.00  0.00     0.074 A 
ATOM     36  C   UNL A   1      38.906  27.867  29.749  1.00  0.00     0.031 C 
ATOM     37  C   UNL A   1      44.674  25.339  26.772  1.00  0.00     0.029 A 
ATOM     38  C   UNL A   1      44.759  26.708  27.241  1.00  0.00     0.049 A 
ATOM     39  H   UNL A   1      43.331  27.767  28.338  1.00  0.00     0.167 HD
ATOM     40  C   UNL A   1      39.984  29.991  30.323  1.00  0.00     0.034 A 
ATOM     41  C   UNL A   1      45.805  27.526  27.018  1.00  0.00     0.034 A 
ATOM     42  C   UNL A   1      41.081  30.909  30.228  1.00  0.00     0.049 A 
ATOM     43  C   UNL A   1      45.692  28.936  27.519  1.00  0.00     0.074 A 
ATOM     44  C   UNL A   1      41.164  32.211  30.680  1.00  0.00     0.029 A 
ATOM     45  N   UNL A   1      42.282  30.622  29.587  1.00  0.00    -0.354 N 
ATOM     46  N   UNL A   1      44.686  29.504  28.146  1.00  0.00    -0.248 NA
ATOM     47  C   UNL A   1      46.842  29.814  27.291  1.00  0.00     0.031 C 
ATOM     48  C   UNL A   1      42.379  32.738  30.233  1.00  0.00     0.029 A 
ATOM     49  C   UNL A   1      43.098  31.735  29.597  1.00  0.00     0.049 A 
ATOM     50  H   UNL A   1      42.514  29.754  29.186  1.00  0.00     0.167 HD
ATOM     51  C   UNL A   1      45.097  30.800  28.421  1.00  0.00     0.074 A 
ATOM     52  C   UNL A   1      46.445  30.924  27.896  1.00  0.00     0.031 C 
ATOM     53  C   UNL A   1      44.432  31.802  29.055  1.00  0.00     0.034 A 
BRANCH  40  54
ATOM     54  C   UNL A   1      38.681  30.414  30.968  1.00  0.00     0.023 A 
ATOM     55  C   UNL A   1      37.753  31.233  30.294  1.00  0.00     0.031 A 
ATOM     56  C   UNL A   1      38.404  30.076  32.304  1.00  0.00     0.131 A 
ATOM     57  C   UNL A   1      36.639  31.748  30.980  1.00  0.00     0.055 A 
ATOM     58  C   UNL A   1      37.252  30.525  32.955  1.00  0.00     0.041 A 
ATOM     59  F   UNL A   1      39.268  29.334  33.015  1.00  0.00    -0.206 F 
ATOM     60  C   UNL A   1      36.369  31.378  32.299  1.00  0.00     0.022 A 
BRANCH  57  61
ATOM     61  S   UNL A   1      35.639  33.033  30.177  1.00  0.00     0.124 S 
ATOM     62  O   UNL A   1      35.288  33.887  31.310  1.00  0.00    -0.237 OA
ATOM     63  O   UNL A   1      36.573  33.606  29.214  1.00  0.00    -0.237 OA
ATOM     64  O   UNL A   1      34.524  32.288  29.597  1.00  0.00    -0.744 OA
ENDBRANCH  57  61
ENDBRANCH  40  54
BRANCH  41  65
ATOM     65  C   UNL A   1      47.000  27.044  26.256  1.00  0.00     0.023 A 
ATOM     66  C   UNL A   1      48.075  26.425  26.912  1.00  0.00     0.031 A 
ATOM     67  C   UNL A   1      47.083  27.184  24.857  1.00  0.00     0.131 A 
ATOM     68  C   UNL A   1      49.193  25.993  26.176  1.00  0.00     0.055 A 
ATOM     69  C   UNL A   1      48.169  26.699  24.124  1.00  0.00     0.041 A 
ATOM     70  F   UNL A   1      46.087  27.768  24.171  1.00  0.00    -0.206 F 
ATOM     71  C   UNL A   1      49.239  26.108  24.786  1.00  0.00     0.022 A 
BRANCH  68  72
ATOM     72  S   UNL A   1      50.629  25.350  27.078  1.00  0.00     0.124 S 
ATOM     73  O   UNL A   1      51.092  26.537  27.789  1.00  0.00    -0.237 OA
ATOM     74  O   UNL A   1      50.028  24.304  27.899  1.00  0.00    -0.237 OA
ATOM     75  O   UNL A   1      51.514  24.876  26.016  1.00  0.00    -0.744 OA
ENDBRANCH  68  72
ENDBRANCH  41  65
BRANCH  53  76
ATOM     76  C   UNL A   1      45.185  33.083  29.259  1.00  0.00     0.023 A 
ATOM     77  C   UNL A   1      45.017  34.178  28.400  1.00  0.00     0.031 A 
ATOM     78  C   UNL A   1      46.068  33.206  30.347  1.00  0.00     0.131 A 
ATOM     79  C   UNL A   1      45.768  35.339  28.614  1.00  0.00     0.055 A 
ATOM     80  C   UNL A   1      46.754  34.390  30.596  1.00  0.00     0.041 A 
ATOM     81  F   UNL A   1      46.259  32.179  31.191  1.00  0.00    -0.206 F 
ATOM     82  C   UNL A   1      46.616  35.462  29.718  1.00  0.00     0.022 A 
BRANCH  79  83
ATOM     83  S   UNL A   1      45.692  36.652  27.368  1.00  0.00     0.124 S 
ATOM     84  O   UNL A   1      45.724  37.853  28.196  1.00  0.00    -0.237 OA
ATOM     85  O   UNL A   1      46.887  36.396  26.570  1.00  0.00    -0.237 OA
ATOM     86  O   UNL A   1      44.425  36.401  26.686  1.00  0.00    -0.744 OA
ENDBRANCH  79  83
ENDBRANCH  53  76
ENDBRANCH  27  28
ENDBRANCH  20  22
ENDBRANCH  19  20
ENDBRANCH  18  19
ENDBRANCH   1  18
TORSDOF 17
ENDMDL
