MODEL 1
REMARK VINA RESULT:     -11.6      0.000      0.000
REMARK SMILES O=C(C[C@@H](C(=O)OCCOC(=O)c1ccc(-c2c3nc(c(-c4cc(S(=O)(=O)[O-])ccc4F)c4ccc([nH]4)c(-c4cc(S(=O)(=O)[O-])ccc4F)c4nc(c(-c5cc(S(=O)(=O)[O-])ccc5F)c5ccc2[nH]5)C=C4)C=C3)cc1)c1ccccc1)Nc1cc(C(F)(F)F)ccc1-n1cncn1
REMARK SMILES IDX 8 1 7 2 5 3 6 4 4 5 3 6 2 7 1 8 82 9 83 11 84 12 92 13 85 14
REMARK SMILES IDX 91 15 90 16 93 17 94 18 97 19 95 20 96 21 86 22 87 23 88 24
REMARK SMILES IDX 89 25 76 26 77 27 81 28 78 29 80 30 79 31 9 32 10 33 11 34
REMARK SMILES IDX 12 35 13 36 14 37 75 38 15 39 74 40 16 41 17 42 18 43 68 44
REMARK SMILES IDX 19 45 73 46 67 47 69 48 20 49 72 50 66 51 65 52 21 54 53 55
REMARK SMILES IDX 33 56 52 57 34 58 37 59 51 60 70 61 35 62 36 63 50 65 71 66
REMARK SMILES IDX 38 67 22 68 23 69 31 70 24 71 30 72 32 73 29 74 25 75 26 76
REMARK SMILES IDX 27 77 28 78 54 79 55 80 63 81 56 82 62 83 64 84 61 85 57 86
REMARK SMILES IDX 58 87 59 88 60 89 39 90 40 91 48 92 41 93 47 94 49 95 46 96
REMARK SMILES IDX 42 97 43 98 44 99 45 100
REMARK H PARENT 82 10 69 53 37 64
REMARK Flexibility Score: inf
ROOT
ATOM      1  C   UNL A   1      36.166  22.542  23.759  1.00  0.00     0.274 C 
ENDROOT
BRANCH   1   2
ATOM      2  O   UNL A   1      35.248  23.505  24.336  1.00  0.00    -0.462 OA
BRANCH   2   3
ATOM      3  C   UNL A   1      34.166  23.840  23.570  1.00  0.00     0.314 C 
ATOM      4  O   UNL A   1      34.297  24.495  22.545  1.00  0.00    -0.252 OA
BRANCH   3   5
ATOM      5  C   UNL A   1      32.811  23.366  24.188  1.00  0.00     0.138 C 
BRANCH   5   6
ATOM      6  C   UNL A   1      32.759  23.666  25.704  1.00  0.00     0.120 C 
BRANCH   6   7
ATOM      7  C   UNL A   1      32.512  25.113  26.078  1.00  0.00     0.225 C 
ATOM      8  O   UNL A   1      31.710  25.424  26.953  1.00  0.00    -0.275 OA
ATOM      9  N   UNL A   1      33.276  26.023  25.366  1.00  0.00    -0.324 N 
ATOM     10  H   UNL A   1      33.845  25.689  24.637  1.00  0.00     0.170 HD
BRANCH   9  11
ATOM     11  C   UNL A   1      33.273  27.404  25.641  1.00  0.00     0.067 A 
ATOM     12  C   UNL A   1      34.207  27.850  26.585  1.00  0.00     0.041 A 
ATOM     13  C   UNL A   1      32.475  28.342  24.966  1.00  0.00     0.090 A 
ATOM     14  C   UNL A   1      34.415  29.219  26.814  1.00  0.00     0.058 A 
ATOM     15  C   UNL A   1      32.686  29.714  25.182  1.00  0.00     0.031 A 
ATOM     16  C   UNL A   1      33.647  30.147  26.100  1.00  0.00     0.015 A 
BRANCH  13  17
ATOM     17  N   UNL A   1      31.391  27.952  24.140  1.00  0.00    -0.219 N 
ATOM     18  C   UNL A   1      31.242  28.119  22.782  1.00  0.00     0.226 A 
ATOM     19  N   UNL A   1      30.345  27.222  24.610  1.00  0.00    -0.155 NA
ATOM     20  N   UNL A   1      30.070  27.679  22.389  1.00  0.00    -0.223 NA
ATOM     21  C   UNL A   1      29.543  27.186  23.543  1.00  0.00     0.246 A 
ENDBRANCH  13  17
BRANCH  14  22
ATOM     22  C   UNL A   1      35.501  29.656  27.765  1.00  0.00     0.416 C 
ATOM     23  F   UNL A   1      35.620  31.012  27.829  1.00  0.00    -0.166 F 
ATOM     24  F   UNL A   1      35.268  29.246  29.042  1.00  0.00    -0.166 F 
ATOM     25  F   UNL A   1      36.738  29.189  27.440  1.00  0.00    -0.166 F 
ENDBRANCH  14  22
ENDBRANCH   9  11
ENDBRANCH   6   7
ENDBRANCH   5   6
BRANCH   5  26
ATOM     26  C   UNL A   1      32.540  21.868  23.861  1.00  0.00    -0.033 A 
ATOM     27  C   UNL A   1      32.176  21.485  22.553  1.00  0.00     0.004 A 
ATOM     28  C   UNL A   1      32.656  20.827  24.805  1.00  0.00     0.004 A 
ATOM     29  C   UNL A   1      32.069  20.141  22.178  1.00  0.00     0.000 A 
ATOM     30  C   UNL A   1      32.512  19.482  24.439  1.00  0.00     0.000 A 
ATOM     31  C   UNL A   1      32.247  19.137  23.119  1.00  0.00     0.000 A 
ENDBRANCH   5  26
ENDBRANCH   3   5
ENDBRANCH   2   3
ENDBRANCH   1   2
BRANCH   1  32
ATOM     32  C   UNL A   1      36.344  21.301  24.646  1.00  0.00     0.275 C 
BRANCH  32  33
ATOM     33  O   UNL A   1      36.958  21.640  25.902  1.00  0.00    -0.458 OA
BRANCH  33  34
ATOM     34  C   UNL A   1      38.294  21.421  25.969  1.00  0.00     0.338 C 
ATOM     35  O   UNL A   1      38.866  20.422  25.554  1.00  0.00    -0.246 OA
BRANCH  34  36
ATOM     36  C   UNL A   1      38.980  22.665  26.384  1.00  0.00     0.060 A 
ATOM     37  C   UNL A   1      40.163  22.528  27.112  1.00  0.00     0.016 A 
ATOM     38  C   UNL A   1      38.525  23.939  26.031  1.00  0.00     0.016 A 
ATOM     39  C   UNL A   1      40.932  23.645  27.429  1.00  0.00     0.010 A 
ATOM     40  C   UNL A   1      39.280  25.067  26.387  1.00  0.00     0.010 A 
ATOM     41  C   UNL A   1      40.498  24.923  27.071  1.00  0.00    -0.014 A 
BRANCH  41  42
ATOM     42  C   UNL A   1      41.293  26.095  27.509  1.00  0.00     0.031 A 
ATOM     43  C   UNL A   1      40.638  27.135  28.370  1.00  0.00     0.074 A 
ATOM     44  C   UNL A   1      42.605  26.186  27.218  1.00  0.00     0.049 A 
ATOM     45  N   UNL A   1      41.126  28.255  28.834  1.00  0.00    -0.248 NA
ATOM     46  C   UNL A   1      39.251  26.862  28.776  1.00  0.00     0.031 C 
ATOM     47  C   UNL A   1      43.379  25.178  26.494  1.00  0.00     0.029 A 
ATOM     48  N   UNL A   1      43.519  27.170  27.505  1.00  0.00    -0.354 N 
ATOM     49  C   UNL A   1      40.109  28.823  29.593  1.00  0.00     0.074 A 
ATOM     50  C   UNL A   1      38.974  27.928  29.512  1.00  0.00     0.031 C 
ATOM     51  C   UNL A   1      44.650  25.605  26.381  1.00  0.00     0.029 A 
ATOM     52  C   UNL A   1      44.770  26.934  26.980  1.00  0.00     0.049 A 
ATOM     53  H   UNL A   1      43.301  27.970  28.036  1.00  0.00     0.167 HD
ATOM     54  C   UNL A   1      40.122  29.986  30.288  1.00  0.00     0.034 A 
ATOM     55  C   UNL A   1      45.868  27.718  26.955  1.00  0.00     0.034 A 
ATOM     56  C   UNL A   1      41.247  30.887  30.327  1.00  0.00     0.049 A 
ATOM     57  C   UNL A   1      45.805  29.084  27.607  1.00  0.00     0.074 A 
ATOM     58  C   UNL A   1      41.343  32.119  30.952  1.00  0.00     0.029 A 
ATOM     59  N   UNL A   1      42.468  30.664  29.704  1.00  0.00    -0.354 N 
ATOM     60  N   UNL A   1      44.822  29.636  28.282  1.00  0.00    -0.248 NA
ATOM     61  C   UNL A   1      46.999  29.935  27.490  1.00  0.00     0.031 C 
ATOM     62  C   UNL A   1      42.592  32.671  30.646  1.00  0.00     0.029 A 
ATOM     63  C   UNL A   1      43.309  31.749  29.901  1.00  0.00     0.049 A 
ATOM     64  H   UNL A   1      42.703  29.853  29.197  1.00  0.00     0.167 HD
ATOM     65  C   UNL A   1      45.295  30.882  28.694  1.00  0.00     0.074 A 
ATOM     66  C   UNL A   1      46.653  30.992  28.209  1.00  0.00     0.031 C 
ATOM     67  C   UNL A   1      44.664  31.848  29.411  1.00  0.00     0.034 A 
BRANCH  54  68
ATOM     68  C   UNL A   1      38.848  30.379  30.988  1.00  0.00     0.023 A 
ATOM     69  C   UNL A   1      37.951  31.306  30.431  1.00  0.00     0.031 A 
ATOM     70  C   UNL A   1      38.547  29.843  32.253  1.00  0.00     0.131 A 
ATOM     71  C   UNL A   1      36.826  31.713  31.163  1.00  0.00     0.055 A 
ATOM     72  C   UNL A   1      37.388  30.198  32.945  1.00  0.00     0.041 A 
ATOM     73  F   UNL A   1      39.384  28.978  32.845  1.00  0.00    -0.206 F 
ATOM     74  C   UNL A   1      36.525  31.147  32.405  1.00  0.00     0.022 A 
BRANCH  71  75
ATOM     75  S   UNL A   1      35.832  33.093  30.533  1.00  0.00     0.124 S 
ATOM     76  O   UNL A   1      34.539  32.449  30.313  1.00  0.00    -0.237 OA
ATOM     77  O   UNL A   1      35.891  34.052  31.630  1.00  0.00    -0.237 OA
ATOM     78  O   UNL A   1      36.536  33.494  29.316  1.00  0.00    -0.744 OA
ENDBRANCH  71  75
ENDBRANCH  54  68
BRANCH  55  79
ATOM     79  C   UNL A   1      47.103  27.296  26.226  1.00  0.00     0.023 A 
ATOM     80  C   UNL A   1      47.357  27.718  24.910  1.00  0.00     0.031 A 
ATOM     81  C   UNL A   1      47.993  26.367  26.797  1.00  0.00     0.131 A 
ATOM     82  C   UNL A   1      48.427  27.162  24.188  1.00  0.00     0.055 A 
ATOM     83  C   UNL A   1      49.095  25.870  26.099  1.00  0.00     0.041 A 
ATOM     84  F   UNL A   1      47.795  25.913  28.045  1.00  0.00    -0.206 F 
ATOM     85  C   UNL A   1      49.306  26.252  24.779  1.00  0.00     0.022 A 
BRANCH  82  86
ATOM     86  S   UNL A   1      48.576  27.543  22.420  1.00  0.00     0.124 S 
ATOM     87  O   UNL A   1      47.360  28.313  22.181  1.00  0.00    -0.237 OA
ATOM     88  O   UNL A   1      49.828  28.290  22.375  1.00  0.00    -0.237 OA
ATOM     89  O   UNL A   1      48.614  26.225  21.790  1.00  0.00    -0.744 OA
ENDBRANCH  82  86
ENDBRANCH  55  79
BRANCH  67  90
ATOM     90  C   UNL A   1      45.459  33.086  29.759  1.00  0.00     0.023 A 
ATOM     91  C   UNL A   1      45.412  34.248  28.969  1.00  0.00     0.031 A 
ATOM     92  C   UNL A   1      46.273  33.101  30.906  1.00  0.00     0.131 A 
ATOM     93  C   UNL A   1      46.203  35.357  29.307  1.00  0.00     0.055 A 
ATOM     94  C   UNL A   1      47.011  34.227  31.271  1.00  0.00     0.041 A 
ATOM     95  F   UNL A   1      46.358  32.020  31.697  1.00  0.00    -0.206 F 
ATOM     96  C   UNL A   1      46.988  35.360  30.464  1.00  0.00     0.022 A 
BRANCH  93  97
ATOM     97  S   UNL A   1      46.260  36.771  28.171  1.00  0.00     0.124 S 
ATOM     98  O   UNL A   1      45.156  36.477  27.264  1.00  0.00    -0.237 OA
ATOM     99  O   UNL A   1      46.062  37.903  29.071  1.00  0.00    -0.237 OA
ATOM    100  O   UNL A   1      47.593  36.680  27.577  1.00  0.00    -0.744 OA
ENDBRANCH  93  97
ENDBRANCH  67  90
ENDBRANCH  41  42
ENDBRANCH  34  36
ENDBRANCH  33  34
ENDBRANCH  32  33
ENDBRANCH   1  32
TORSDOF 20
ENDMDL
MODEL 2
REMARK VINA RESULT:     -11.4      2.388      7.909
REMARK SMILES O=C(C[C@@H](C(=O)OCCOC(=O)c1ccc(-c2c3nc(c(-c4cc(S(=O)(=O)[O-])ccc4F)c4ccc([nH]4)c(-c4cc(S(=O)(=O)[O-])ccc4F)c4nc(c(-c5cc(S(=O)(=O)[O-])ccc5F)c5ccc2[nH]5)C=C4)C=C3)cc1)c1ccccc1)Nc1cc(C(F)(F)F)ccc1-n1cncn1
REMARK SMILES IDX 8 1 7 2 5 3 6 4 4 5 3 6 2 7 1 8 82 9 83 11 84 12 92 13 85 14
REMARK SMILES IDX 91 15 90 16 93 17 94 18 97 19 95 20 96 21 86 22 87 23 88 24
REMARK SMILES IDX 89 25 76 26 77 27 81 28 78 29 80 30 79 31 9 32 10 33 11 34
REMARK SMILES IDX 12 35 13 36 14 37 75 38 15 39 74 40 16 41 17 42 18 43 68 44
REMARK SMILES IDX 19 45 73 46 67 47 69 48 20 49 72 50 66 51 65 52 21 54 53 55
REMARK SMILES IDX 33 56 52 57 34 58 37 59 51 60 70 61 35 62 36 63 50 65 71 66
REMARK SMILES IDX 38 67 22 68 23 69 31 70 24 71 30 72 32 73 29 74 25 75 26 76
REMARK SMILES IDX 27 77 28 78 54 79 55 80 63 81 56 82 62 83 64 84 61 85 57 86
REMARK SMILES IDX 58 87 59 88 60 89 39 90 40 91 48 92 41 93 47 94 49 95 46 96
REMARK SMILES IDX 42 97 43 98 44 99 45 100
REMARK H PARENT 82 10 69 53 37 64
REMARK Flexibility Score: inf
ROOT
ATOM      1  C   UNL A   1      36.893  19.343  25.003  1.00  0.00     0.274 C 
ENDROOT
BRANCH   1   2
ATOM      2  O   UNL A   1      35.848  20.104  24.344  1.00  0.00    -0.462 OA
BRANCH   2   3
ATOM      3  C   UNL A   1      34.793  20.484  25.127  1.00  0.00     0.314 C 
ATOM      4  O   UNL A   1      34.973  21.070  26.186  1.00  0.00    -0.252 OA
BRANCH   3   5
ATOM      5  C   UNL A   1      33.413  20.025  24.556  1.00  0.00     0.138 C 
BRANCH   5   6
ATOM      6  C   UNL A   1      32.250  20.748  25.274  1.00  0.00     0.120 C 
BRANCH   6   7
ATOM      7  C   UNL A   1      32.303  22.262  25.248  1.00  0.00     0.225 C 
ATOM      8  O   UNL A   1      32.311  22.924  26.281  1.00  0.00    -0.275 OA
ATOM      9  N   UNL A   1      32.363  22.807  23.977  1.00  0.00    -0.324 N 
ATOM     10  H   UNL A   1      32.287  22.205  23.203  1.00  0.00     0.170 HD
BRANCH   9  11
ATOM     11  C   UNL A   1      32.529  24.186  23.743  1.00  0.00     0.067 A 
ATOM     12  C   UNL A   1      31.357  24.926  23.546  1.00  0.00     0.041 A 
ATOM     13  C   UNL A   1      33.764  24.853  23.797  1.00  0.00     0.090 A 
ATOM     14  C   UNL A   1      31.382  26.328  23.476  1.00  0.00     0.058 A 
ATOM     15  C   UNL A   1      33.796  26.257  23.739  1.00  0.00     0.031 A 
ATOM     16  C   UNL A   1      32.614  26.987  23.578  1.00  0.00     0.015 A 
BRANCH  13  17
ATOM     17  N   UNL A   1      34.997  24.155  23.810  1.00  0.00    -0.219 N 
ATOM     18  C   UNL A   1      35.914  24.048  24.831  1.00  0.00     0.226 A 
ATOM     19  N   UNL A   1      35.397  23.365  22.777  1.00  0.00    -0.155 NA
ATOM     20  N   UNL A   1      36.963  23.365  24.439  1.00  0.00    -0.223 NA
ATOM     21  C   UNL A   1      36.623  23.011  23.170  1.00  0.00     0.246 A 
ENDBRANCH  13  17
BRANCH  14  22
ATOM     22  C   UNL A   1      30.085  27.090  23.364  1.00  0.00     0.416 C 
ATOM     23  F   UNL A   1      29.961  27.730  22.167  1.00  0.00    -0.166 F 
ATOM     24  F   UNL A   1      28.997  26.278  23.463  1.00  0.00    -0.166 F 
ATOM     25  F   UNL A   1      29.927  28.049  24.318  1.00  0.00    -0.166 F 
ENDBRANCH  14  22
ENDBRANCH   9  11
ENDBRANCH   6   7
ENDBRANCH   5   6
BRANCH   5  26
ATOM     26  C   UNL A   1      33.276  18.475  24.598  1.00  0.00    -0.033 A 
ATOM     27  C   UNL A   1      33.782  17.692  23.539  1.00  0.00     0.004 A 
ATOM     28  C   UNL A   1      32.682  17.770  25.665  1.00  0.00     0.004 A 
ATOM     29  C   UNL A   1      33.816  16.294  23.604  1.00  0.00     0.000 A 
ATOM     30  C   UNL A   1      32.681  16.369  25.712  1.00  0.00     0.000 A 
ATOM     31  C   UNL A   1      33.274  15.632  24.696  1.00  0.00     0.000 A 
ENDBRANCH   5  26
ENDBRANCH   3   5
ENDBRANCH   2   3
ENDBRANCH   1   2
BRANCH   1  32
ATOM     32  C   UNL A   1      38.242  20.076  24.995  1.00  0.00     0.275 C 
BRANCH  32  33
ATOM     33  O   UNL A   1      38.862  20.047  26.292  1.00  0.00    -0.458 OA
BRANCH  33  34
ATOM     34  C   UNL A   1      40.217  20.060  26.284  1.00  0.00     0.338 C 
ATOM     35  O   UNL A   1      40.928  19.166  25.846  1.00  0.00    -0.246 OA
BRANCH  34  36
ATOM     36  C   UNL A   1      40.702  21.410  26.648  1.00  0.00     0.060 A 
ATOM     37  C   UNL A   1      40.445  22.445  25.746  1.00  0.00     0.016 A 
ATOM     38  C   UNL A   1      41.343  21.687  27.860  1.00  0.00     0.016 A 
ATOM     39  C   UNL A   1      40.758  23.762  26.073  1.00  0.00     0.010 A 
ATOM     40  C   UNL A   1      41.694  23.010  28.170  1.00  0.00     0.010 A 
ATOM     41  C   UNL A   1      41.384  24.056  27.285  1.00  0.00    -0.014 A 
BRANCH  41  42
ATOM     42  C   UNL A   1      41.789  25.456  27.557  1.00  0.00     0.031 A 
ATOM     43  C   UNL A   1      43.124  25.934  27.067  1.00  0.00     0.074 A 
ATOM     44  C   UNL A   1      40.940  26.316  28.155  1.00  0.00     0.049 A 
ATOM     45  N   UNL A   1      43.697  27.098  27.224  1.00  0.00    -0.248 NA
ATOM     46  C   UNL A   1      43.908  24.973  26.277  1.00  0.00     0.031 C 
ATOM     47  C   UNL A   1      39.572  26.000  28.565  1.00  0.00     0.029 A 
ATOM     48  N   UNL A   1      41.103  27.631  28.512  1.00  0.00    -0.354 N 
ATOM     49  C   UNL A   1      44.909  27.015  26.549  1.00  0.00     0.074 A 
ATOM     50  C   UNL A   1      44.992  25.680  25.996  1.00  0.00     0.031 C 
ATOM     51  C   UNL A   1      39.026  27.092  29.131  1.00  0.00     0.029 A 
ATOM     52  C   UNL A   1      40.017  28.166  29.169  1.00  0.00     0.049 A 
ATOM     53  H   UNL A   1      41.920  28.146  28.317  1.00  0.00     0.167 HD
ATOM     54  C   UNL A   1      45.866  27.964  26.410  1.00  0.00     0.034 A 
ATOM     55  C   UNL A   1      39.861  29.368  29.763  1.00  0.00     0.034 A 
ATOM     56  C   UNL A   1      45.788  29.277  27.002  1.00  0.00     0.049 A 
ATOM     57  C   UNL A   1      41.010  30.355  29.727  1.00  0.00     0.074 A 
ATOM     58  C   UNL A   1      46.729  30.292  26.972  1.00  0.00     0.029 A 
ATOM     59  N   UNL A   1      44.716  29.754  27.744  1.00  0.00    -0.354 N 
ATOM     60  N   UNL A   1      42.174  30.250  29.127  1.00  0.00    -0.248 NA
ATOM     61  C   UNL A   1      40.824  31.621  30.451  1.00  0.00     0.031 C 
ATOM     62  C   UNL A   1      46.257  31.352  27.755  1.00  0.00     0.029 A 
ATOM     63  C   UNL A   1      44.987  31.034  28.204  1.00  0.00     0.049 A 
ATOM     64  H   UNL A   1      43.884  29.256  27.917  1.00  0.00     0.167 HD
ATOM     65  C   UNL A   1      42.841  31.449  29.377  1.00  0.00     0.074 A 
ATOM     66  C   UNL A   1      41.944  32.267  30.165  1.00  0.00     0.031 C 
ATOM     67  C   UNL A   1      44.082  31.841  28.991  1.00  0.00     0.034 A 
BRANCH  54  68
ATOM     68  C   UNL A   1      47.111  27.576  25.657  1.00  0.00     0.023 A 
ATOM     69  C   UNL A   1      47.282  27.885  24.297  1.00  0.00     0.031 A 
ATOM     70  C   UNL A   1      48.127  26.852  26.304  1.00  0.00     0.131 A 
ATOM     71  C   UNL A   1      48.415  27.420  23.613  1.00  0.00     0.055 A 
ATOM     72  C   UNL A   1      49.287  26.455  25.637  1.00  0.00     0.041 A 
ATOM     73  F   UNL A   1      48.002  26.504  27.595  1.00  0.00    -0.206 F 
ATOM     74  C   UNL A   1      49.430  26.728  24.280  1.00  0.00     0.022 A 
BRANCH  71  75
ATOM     75  S   UNL A   1      48.483  27.610  21.812  1.00  0.00     0.124 S 
ATOM     76  O   UNL A   1      47.178  28.202  21.528  1.00  0.00    -0.237 OA
ATOM     77  O   UNL A   1      49.635  28.486  21.629  1.00  0.00    -0.237 OA
ATOM     78  O   UNL A   1      48.658  26.242  21.328  1.00  0.00    -0.744 OA
ENDBRANCH  71  75
ENDBRANCH  54  68
BRANCH  55  79
ATOM     79  C   UNL A   1      38.616  29.699  30.521  1.00  0.00     0.023 A 
ATOM     80  C   UNL A   1      37.636  30.551  29.982  1.00  0.00     0.031 A 
ATOM     81  C   UNL A   1      38.443  29.260  31.846  1.00  0.00     0.131 A 
ATOM     82  C   UNL A   1      36.568  30.988  30.785  1.00  0.00     0.055 A 
ATOM     83  C   UNL A   1      37.343  29.644  32.617  1.00  0.00     0.041 A 
ATOM     84  F   UNL A   1      39.353  28.459  32.422  1.00  0.00    -0.206 F 
ATOM     85  C   UNL A   1      36.408  30.529  32.093  1.00  0.00     0.022 A 
BRANCH  82  86
ATOM     86  S   UNL A   1      35.464  32.274  30.138  1.00  0.00     0.124 S 
ATOM     87  O   UNL A   1      36.381  33.396  29.973  1.00  0.00    -0.237 OA
ATOM     88  O   UNL A   1      34.972  31.662  28.908  1.00  0.00    -0.237 OA
ATOM     89  O   UNL A   1      34.468  32.432  31.196  1.00  0.00    -0.744 OA
ENDBRANCH  82  86
ENDBRANCH  55  79
BRANCH  67  90
ATOM     90  C   UNL A   1      44.521  33.237  29.369  1.00  0.00     0.023 A 
ATOM     91  C   UNL A   1      45.225  33.501  30.558  1.00  0.00     0.031 A 
ATOM     92  C   UNL A   1      44.230  34.321  28.521  1.00  0.00     0.131 A 
ATOM     93  C   UNL A   1      45.570  34.821  30.888  1.00  0.00     0.055 A 
ATOM     94  C   UNL A   1      44.630  35.623  28.825  1.00  0.00     0.041 A 
ATOM     95  F   UNL A   1      43.560  34.129  27.373  1.00  0.00    -0.206 F 
ATOM     96  C   UNL A   1      45.293  35.880  30.020  1.00  0.00     0.022 A 
BRANCH  93  97
ATOM     97  S   UNL A   1      46.314  35.150  32.510  1.00  0.00     0.124 S 
ATOM     98  O   UNL A   1      47.636  34.549  32.366  1.00  0.00    -0.237 OA
ATOM     99  O   UNL A   1      46.281  36.608  32.579  1.00  0.00    -0.237 OA
ATOM    100  O   UNL A   1      45.420  34.468  33.443  1.00  0.00    -0.744 OA
ENDBRANCH  93  97
ENDBRANCH  67  90
ENDBRANCH  41  42
ENDBRANCH  34  36
ENDBRANCH  33  34
ENDBRANCH  32  33
ENDBRANCH   1  32
TORSDOF 20
ENDMDL
MODEL 3
REMARK VINA RESULT:     -11.2      2.433      7.871
REMARK SMILES O=C(C[C@@H](C(=O)OCCOC(=O)c1ccc(-c2c3nc(c(-c4cc(S(=O)(=O)[O-])ccc4F)c4ccc([nH]4)c(-c4cc(S(=O)(=O)[O-])ccc4F)c4nc(c(-c5cc(S(=O)(=O)[O-])ccc5F)c5ccc2[nH]5)C=C4)C=C3)cc1)c1ccccc1)Nc1cc(C(F)(F)F)ccc1-n1cncn1
REMARK SMILES IDX 8 1 7 2 5 3 6 4 4 5 3 6 2 7 1 8 82 9 83 11 84 12 92 13 85 14
REMARK SMILES IDX 91 15 90 16 93 17 94 18 97 19 95 20 96 21 86 22 87 23 88 24
REMARK SMILES IDX 89 25 76 26 77 27 81 28 78 29 80 30 79 31 9 32 10 33 11 34
REMARK SMILES IDX 12 35 13 36 14 37 75 38 15 39 74 40 16 41 17 42 18 43 68 44
REMARK SMILES IDX 19 45 73 46 67 47 69 48 20 49 72 50 66 51 65 52 21 54 53 55
REMARK SMILES IDX 33 56 52 57 34 58 37 59 51 60 70 61 35 62 36 63 50 65 71 66
REMARK SMILES IDX 38 67 22 68 23 69 31 70 24 71 30 72 32 73 29 74 25 75 26 76
REMARK SMILES IDX 27 77 28 78 54 79 55 80 63 81 56 82 62 83 64 84 61 85 57 86
REMARK SMILES IDX 58 87 59 88 60 89 39 90 40 91 48 92 41 93 47 94 49 95 46 96
REMARK SMILES IDX 42 97 43 98 44 99 45 100
REMARK H PARENT 82 10 69 53 37 64
REMARK Flexibility Score: inf
ROOT
ATOM      1  C   UNL A   1      36.810  19.644  25.078  1.00  0.00     0.274 C 
ENDROOT
BRANCH   1   2
ATOM      2  O   UNL A   1      35.828  20.609  24.621  1.00  0.00    -0.462 OA
BRANCH   2   3
ATOM      3  C   UNL A   1      34.697  20.722  25.382  1.00  0.00     0.314 C 
ATOM      4  O   UNL A   1      34.753  21.103  26.543  1.00  0.00    -0.252 OA
BRANCH   3   5
ATOM      5  C   UNL A   1      33.408  20.255  24.631  1.00  0.00     0.138 C 
BRANCH   5   6
ATOM      6  C   UNL A   1      32.152  20.950  25.204  1.00  0.00     0.120 C 
BRANCH   6   7
ATOM      7  C   UNL A   1      32.211  22.463  25.267  1.00  0.00     0.225 C 
ATOM      8  O   UNL A   1      32.191  23.065  26.336  1.00  0.00    -0.275 OA
ATOM      9  N   UNL A   1      32.311  23.080  24.031  1.00  0.00    -0.324 N 
ATOM     10  H   UNL A   1      32.254  22.523  23.222  1.00  0.00     0.170 HD
BRANCH   9  11
ATOM     11  C   UNL A   1      32.488  24.470  23.882  1.00  0.00     0.067 A 
ATOM     12  C   UNL A   1      31.332  25.217  23.626  1.00  0.00     0.041 A 
ATOM     13  C   UNL A   1      33.710  25.134  24.071  1.00  0.00     0.090 A 
ATOM     14  C   UNL A   1      31.356  26.620  23.629  1.00  0.00     0.058 A 
ATOM     15  C   UNL A   1      33.740  26.539  24.086  1.00  0.00     0.031 A 
ATOM     16  C   UNL A   1      32.572  27.275  23.866  1.00  0.00     0.015 A 
BRANCH  13  17
ATOM     17  N   UNL A   1      34.942  24.437  24.151  1.00  0.00    -0.219 N 
ATOM     18  C   UNL A   1      35.779  24.291  25.233  1.00  0.00     0.226 A 
ATOM     19  N   UNL A   1      35.422  23.690  23.121  1.00  0.00    -0.155 NA
ATOM     20  N   UNL A   1      36.857  23.625  24.896  1.00  0.00    -0.223 NA
ATOM     21  C   UNL A   1      36.616  23.322  23.592  1.00  0.00     0.246 A 
ENDBRANCH  13  17
BRANCH  14  22
ATOM     22  C   UNL A   1      30.069  27.386  23.449  1.00  0.00     0.416 C 
ATOM     23  F   UNL A   1      29.897  27.819  22.168  1.00  0.00    -0.166 F 
ATOM     24  F   UNL A   1      28.972  26.631  23.734  1.00  0.00    -0.166 F 
ATOM     25  F   UNL A   1      29.975  28.496  24.233  1.00  0.00    -0.166 F 
ENDBRANCH  14  22
ENDBRANCH   9  11
ENDBRANCH   6   7
ENDBRANCH   5   6
BRANCH   5  26
ATOM     26  C   UNL A   1      33.290  18.702  24.634  1.00  0.00    -0.033 A 
ATOM     27  C   UNL A   1      33.660  17.964  23.490  1.00  0.00     0.004 A 
ATOM     28  C   UNL A   1      32.846  17.953  25.742  1.00  0.00     0.004 A 
ATOM     29  C   UNL A   1      33.713  16.566  23.498  1.00  0.00     0.000 A 
ATOM     30  C   UNL A   1      32.862  16.551  25.737  1.00  0.00     0.000 A 
ATOM     31  C   UNL A   1      33.324  15.858  24.625  1.00  0.00     0.000 A 
ENDBRANCH   5  26
ENDBRANCH   3   5
ENDBRANCH   2   3
ENDBRANCH   1   2
BRANCH   1  32
ATOM     32  C   UNL A   1      38.227  20.234  25.129  1.00  0.00     0.275 C 
BRANCH  32  33
ATOM     33  O   UNL A   1      38.874  19.935  26.378  1.00  0.00    -0.458 OA
BRANCH  33  34
ATOM     34  C   UNL A   1      40.229  19.939  26.340  1.00  0.00     0.338 C 
ATOM     35  O   UNL A   1      40.924  19.047  25.873  1.00  0.00    -0.246 OA
BRANCH  34  36
ATOM     36  C   UNL A   1      40.732  21.281  26.713  1.00  0.00     0.060 A 
ATOM     37  C   UNL A   1      40.699  22.270  25.729  1.00  0.00     0.016 A 
ATOM     38  C   UNL A   1      41.175  21.596  28.001  1.00  0.00     0.016 A 
ATOM     39  C   UNL A   1      41.035  23.586  26.037  1.00  0.00     0.010 A 
ATOM     40  C   UNL A   1      41.554  22.914  28.300  1.00  0.00     0.010 A 
ATOM     41  C   UNL A   1      41.466  23.919  27.323  1.00  0.00    -0.014 A 
BRANCH  41  42
ATOM     42  C   UNL A   1      41.908  25.309  27.589  1.00  0.00     0.031 A 
ATOM     43  C   UNL A   1      43.294  25.720  27.186  1.00  0.00     0.074 A 
ATOM     44  C   UNL A   1      41.055  26.218  28.101  1.00  0.00     0.049 A 
ATOM     45  N   UNL A   1      43.902  26.864  27.356  1.00  0.00    -0.248 NA
ATOM     46  C   UNL A   1      44.091  24.706  26.480  1.00  0.00     0.031 C 
ATOM     47  C   UNL A   1      39.649  25.969  28.418  1.00  0.00     0.029 A 
ATOM     48  N   UNL A   1      41.247  27.535  28.437  1.00  0.00    -0.354 N 
ATOM     49  C   UNL A   1      45.155  26.713  26.773  1.00  0.00     0.074 A 
ATOM     50  C   UNL A   1      45.222  25.361  26.261  1.00  0.00     0.031 C 
ATOM     51  C   UNL A   1      39.109  27.096  28.915  1.00  0.00     0.029 A 
ATOM     52  C   UNL A   1      40.140  28.131  28.999  1.00  0.00     0.049 A 
ATOM     53  H   UNL A   1      42.096  28.011  28.289  1.00  0.00     0.167 HD
ATOM     54  C   UNL A   1      46.158  27.619  26.681  1.00  0.00     0.034 A 
ATOM     55  C   UNL A   1      39.992  29.354  29.550  1.00  0.00     0.034 A 
ATOM     56  C   UNL A   1      46.093  28.950  27.233  1.00  0.00     0.049 A 
ATOM     57  C   UNL A   1      41.180  30.293  29.574  1.00  0.00     0.074 A 
ATOM     58  C   UNL A   1      47.076  29.926  27.247  1.00  0.00     0.029 A 
ATOM     59  N   UNL A   1      44.991  29.490  27.882  1.00  0.00    -0.354 N 
ATOM     60  N   UNL A   1      42.379  30.126  29.064  1.00  0.00    -0.248 NA
ATOM     61  C   UNL A   1      40.996  31.585  30.251  1.00  0.00     0.031 C 
ATOM     62  C   UNL A   1      46.593  31.025  27.967  1.00  0.00     0.029 A 
ATOM     63  C   UNL A   1      45.281  30.770  28.330  1.00  0.00     0.049 A 
ATOM     64  H   UNL A   1      44.129  29.031  28.006  1.00  0.00     0.167 HD
ATOM     65  C   UNL A   1      43.076  31.303  29.332  1.00  0.00     0.074 A 
ATOM     66  C   UNL A   1      42.160  32.178  30.031  1.00  0.00     0.031 C 
ATOM     67  C   UNL A   1      44.357  31.634  29.028  1.00  0.00     0.034 A 
BRANCH  54  68
ATOM     68  C   UNL A   1      47.437  27.161  26.031  1.00  0.00     0.023 A 
ATOM     69  C   UNL A   1      48.410  26.433  26.737  1.00  0.00     0.031 A 
ATOM     70  C   UNL A   1      47.701  27.492  24.690  1.00  0.00     0.131 A 
ATOM     71  C   UNL A   1      49.626  26.111  26.117  1.00  0.00     0.055 A 
ATOM     72  C   UNL A   1      48.883  27.106  24.056  1.00  0.00     0.041 A 
ATOM     73  F   UNL A   1      46.821  28.213  23.978  1.00  0.00    -0.206 F 
ATOM     74  C   UNL A   1      49.859  26.421  24.774  1.00  0.00     0.022 A 
BRANCH  71  75
ATOM     75  S   UNL A   1      50.955  25.403  27.126  1.00  0.00     0.124 S 
ATOM     76  O   UNL A   1      50.221  24.450  27.955  1.00  0.00    -0.237 OA
ATOM     77  O   UNL A   1      51.843  24.828  26.123  1.00  0.00    -0.237 OA
ATOM     78  O   UNL A   1      51.493  26.558  27.845  1.00  0.00    -0.744 OA
ENDBRANCH  71  75
ENDBRANCH  54  68
BRANCH  55  79
ATOM     79  C   UNL A   1      38.710  29.756  30.206  1.00  0.00     0.023 A 
ATOM     80  C   UNL A   1      37.853  30.703  29.620  1.00  0.00     0.031 A 
ATOM     81  C   UNL A   1      38.380  29.282  31.490  1.00  0.00     0.131 A 
ATOM     82  C   UNL A   1      36.751  31.194  30.342  1.00  0.00     0.055 A 
ATOM     83  C   UNL A   1      37.246  29.724  32.175  1.00  0.00     0.041 A 
ATOM     84  F   UNL A   1      39.168  28.390  32.110  1.00  0.00    -0.206 F 
ATOM     85  C   UNL A   1      36.435  30.700  31.608  1.00  0.00     0.022 A 
BRANCH  82  86
ATOM     86  S   UNL A   1      35.814  32.589  29.656  1.00  0.00     0.124 S 
ATOM     87  O   UNL A   1      34.477  32.331  30.178  1.00  0.00    -0.237 OA
ATOM     88  O   UNL A   1      36.516  33.734  30.224  1.00  0.00    -0.237 OA
ATOM     89  O   UNL A   1      35.963  32.421  28.211  1.00  0.00    -0.744 OA
ENDBRANCH  82  86
ENDBRANCH  55  79
BRANCH  67  90
ATOM     90  C   UNL A   1      44.825  33.022  29.402  1.00  0.00     0.023 A 
ATOM     91  C   UNL A   1      44.670  34.119  28.537  1.00  0.00     0.031 A 
ATOM     92  C   UNL A   1      45.433  33.247  30.651  1.00  0.00     0.131 A 
ATOM     93  C   UNL A   1      45.162  35.380  28.911  1.00  0.00     0.055 A 
ATOM     94  C   UNL A   1      45.865  34.515  31.042  1.00  0.00     0.041 A 
ATOM     95  F   UNL A   1      45.607  32.237  31.517  1.00  0.00    -0.206 F 
ATOM     96  C   UNL A   1      45.742  35.588  30.165  1.00  0.00     0.022 A 
BRANCH  93  97
ATOM     97  S   UNL A   1      45.111  36.732  27.702  1.00  0.00     0.124 S 
ATOM     98  O   UNL A   1      46.529  37.005  27.489  1.00  0.00    -0.237 OA
ATOM     99  O   UNL A   1      44.405  36.121  26.580  1.00  0.00    -0.237 OA
ATOM    100  O   UNL A   1      44.374  37.786  28.396  1.00  0.00    -0.744 OA
ENDBRANCH  93  97
ENDBRANCH  67  90
ENDBRANCH  41  42
ENDBRANCH  34  36
ENDBRANCH  33  34
ENDBRANCH  32  33
ENDBRANCH   1  32
TORSDOF 20
ENDMDL
