MODEL 1
REMARK VINA RESULT:     -11.6      0.000      0.000
REMARK SMILES CCC[C@@]1(C(=O)OCCOC(=O)c2ccc(-c3c4nc(c(-c5cc(S(=O)(=O)[O-])ccc5F)c5ccc([nH]5)c(-c5cc(S(=O)(=O)[O-])ccc5F)c5nc(c(-c6cc(S(=O)(=O)[O-])ccc6F)c6ccc3[nH]6)C=C5)C=C4)cc2)CCN(C(=O)[C@@H]2CC[NH2+][C@@H]2C)C1
REMARK SMILES IDX 9 1 8 2 7 3 5 4 6 5 4 6 76 7 87 8 77 9 78 10 3 11 2 12 1 13
REMARK SMILES IDX 79 14 80 15 81 16 82 17 85 18 83 19 84 20 86 21 10 24 11 25
REMARK SMILES IDX 12 26 13 27 14 28 75 29 15 30 74 31 16 32 17 33 18 34 68 35
REMARK SMILES IDX 19 36 73 37 67 38 69 39 20 40 72 41 66 42 65 43 21 45 53 46
REMARK SMILES IDX 33 47 52 48 34 49 37 50 51 51 70 52 35 53 36 54 50 56 71 57
REMARK SMILES IDX 38 58 22 59 23 60 31 61 24 62 30 63 32 64 29 65 25 66 26 67
REMARK SMILES IDX 27 68 28 69 54 70 55 71 63 72 56 73 62 74 64 75 61 76 57 77
REMARK SMILES IDX 58 78 59 79 60 80 39 81 40 82 48 83 41 84 47 85 49 86 46 87
REMARK SMILES IDX 42 88 43 89 44 90 45 91
REMARK H PARENT 84 22 84 23 69 44 37 55
REMARK Flexibility Score: inf
ROOT
ATOM      1  C   UNL A   1      36.244  21.004  25.298  1.00  0.00     0.275 C 
ENDROOT
BRANCH   1   2
ATOM      2  C   UNL A   1      35.108  21.829  25.920  1.00  0.00     0.274 C 
BRANCH   2   3
ATOM      3  O   UNL A   1      34.440  22.716  24.994  1.00  0.00    -0.462 OA
BRANCH   3   4
ATOM      4  C   UNL A   1      33.270  22.242  24.494  1.00  0.00     0.314 C 
ATOM      5  O   UNL A   1      33.191  21.183  23.882  1.00  0.00    -0.252 OA
BRANCH   4   6
ATOM      6  C   UNL A   1      32.064  23.152  24.719  1.00  0.00     0.087 C 
ATOM      7  C   UNL A   1      31.358  23.619  23.434  1.00  0.00     0.042 C 
ATOM      8  C   UNL A   1      32.521  24.483  25.342  1.00  0.00     0.138 C 
ATOM      9  C   UNL A   1      32.060  24.928  23.054  1.00  0.00     0.120 C 
ATOM     10  N   UNL A   1      32.465  25.508  24.317  1.00  0.00    -0.341 N 
BRANCH   6  11
ATOM     11  C   UNL A   1      31.091  22.453  25.716  1.00  0.00     0.020 C 
BRANCH  11  12
ATOM     12  C   UNL A   1      30.252  23.343  26.648  1.00  0.00    -0.002 C 
ATOM     13  C   UNL A   1      29.168  22.596  27.425  1.00  0.00     0.004 C 
ENDBRANCH  11  12
ENDBRANCH   6  11
BRANCH  10  14
ATOM     14  C   UNL A   1      32.890  26.769  24.673  1.00  0.00     0.231 C 
ATOM     15  O   UNL A   1      33.924  26.886  25.349  1.00  0.00    -0.274 OA
BRANCH  14  16
ATOM     16  C   UNL A   1      32.189  28.060  24.260  1.00  0.00     0.142 C 
ATOM     17  C   UNL A   1      30.693  28.038  24.018  1.00  0.00     0.081 C 
ATOM     18  C   UNL A   1      32.794  28.834  23.083  1.00  0.00     0.192 C 
ATOM     19  C   UNL A   1      30.555  28.351  22.542  1.00  0.00     0.261 C 
ATOM     20  N   UNL A   1      31.654  29.268  22.238  1.00  0.00    -0.343 N 
ATOM     21  C   UNL A   1      33.849  28.136  22.241  1.00  0.00     0.076 C 
ATOM     22  H   UNL A   1      31.389  30.226  22.466  1.00  0.00     0.346 HD
ATOM     23  H   UNL A   1      31.894  29.247  21.247  1.00  0.00     0.346 HD
ENDBRANCH  14  16
ENDBRANCH  10  14
ENDBRANCH   4   6
ENDBRANCH   3   4
ENDBRANCH   2   3
ENDBRANCH   1   2
BRANCH   1  24
ATOM     24  O   UNL A   1      37.416  21.788  25.007  1.00  0.00    -0.458 OA
BRANCH  24  25
ATOM     25  C   UNL A   1      38.525  21.391  25.674  1.00  0.00     0.338 C 
ATOM     26  O   UNL A   1      39.029  20.282  25.630  1.00  0.00    -0.246 OA
BRANCH  25  27
ATOM     27  C   UNL A   1      39.138  22.507  26.411  1.00  0.00     0.060 A 
ATOM     28  C   UNL A   1      38.739  23.810  26.103  1.00  0.00     0.016 A 
ATOM     29  C   UNL A   1      40.217  22.288  27.263  1.00  0.00     0.016 A 
ATOM     30  C   UNL A   1      39.444  24.902  26.579  1.00  0.00     0.010 A 
ATOM     31  C   UNL A   1      40.900  23.390  27.787  1.00  0.00     0.010 A 
ATOM     32  C   UNL A   1      40.530  24.701  27.427  1.00  0.00    -0.014 A 
BRANCH  32  33
ATOM     33  C   UNL A   1      41.320  25.861  27.886  1.00  0.00     0.031 A 
ATOM     34  C   UNL A   1      40.648  26.918  28.706  1.00  0.00     0.074 A 
ATOM     35  C   UNL A   1      42.627  25.948  27.580  1.00  0.00     0.049 A 
ATOM     36  N   UNL A   1      41.048  28.129  28.982  1.00  0.00    -0.248 NA
ATOM     37  C   UNL A   1      39.345  26.559  29.287  1.00  0.00     0.031 C 
ATOM     38  C   UNL A   1      43.408  24.913  26.900  1.00  0.00     0.029 A 
ATOM     39  N   UNL A   1      43.525  26.962  27.788  1.00  0.00    -0.354 N 
ATOM     40  C   UNL A   1      40.022  28.701  29.727  1.00  0.00     0.074 A 
ATOM     41  C   UNL A   1      38.988  27.697  29.865  1.00  0.00     0.031 C 
ATOM     42  C   UNL A   1      44.664  25.353  26.729  1.00  0.00     0.029 A 
ATOM     43  C   UNL A   1      44.747  26.730  27.202  1.00  0.00     0.049 A 
ATOM     44  H   UNL A   1      43.317  27.774  28.304  1.00  0.00     0.167 HD
ATOM     45  C   UNL A   1      39.957  29.960  30.226  1.00  0.00     0.034 A 
ATOM     46  C   UNL A   1      45.787  27.563  27.003  1.00  0.00     0.034 A 
ATOM     47  C   UNL A   1      41.020  30.923  30.073  1.00  0.00     0.049 A 
ATOM     48  C   UNL A   1      45.660  28.987  27.477  1.00  0.00     0.074 A 
ATOM     49  C   UNL A   1      41.068  32.239  30.495  1.00  0.00     0.029 A 
ATOM     50  N   UNL A   1      42.235  30.663  29.446  1.00  0.00    -0.354 N 
ATOM     51  N   UNL A   1      44.648  29.565  28.084  1.00  0.00    -0.248 NA
ATOM     52  C   UNL A   1      46.802  29.875  27.228  1.00  0.00     0.031 C 
ATOM     53  C   UNL A   1      42.286  32.789  30.077  1.00  0.00     0.029 A 
ATOM     54  C   UNL A   1      43.028  31.798  29.454  1.00  0.00     0.049 A 
ATOM     55  H   UNL A   1      42.493  29.799  29.054  1.00  0.00     0.167 HD
ATOM     56  C   UNL A   1      45.044  30.879  28.313  1.00  0.00     0.074 A 
ATOM     57  C   UNL A   1      46.386  31.006  27.780  1.00  0.00     0.031 C 
ATOM     58  C   UNL A   1      44.365  31.888  28.915  1.00  0.00     0.034 A 
BRANCH  45  59
ATOM     59  C   UNL A   1      38.666  30.378  30.884  1.00  0.00     0.023 A 
ATOM     60  C   UNL A   1      37.621  30.990  30.171  1.00  0.00     0.031 A 
ATOM     61  C   UNL A   1      38.503  30.203  32.271  1.00  0.00     0.131 A 
ATOM     62  C   UNL A   1      36.489  31.462  30.857  1.00  0.00     0.055 A 
ATOM     63  C   UNL A   1      37.345  30.611  32.935  1.00  0.00     0.041 A 
ATOM     64  F   UNL A   1      39.478  29.651  33.009  1.00  0.00    -0.206 F 
ATOM     65  C   UNL A   1      36.336  31.256  32.231  1.00  0.00     0.022 A 
BRANCH  62  66
ATOM     66  S   UNL A   1      35.275  32.465  29.955  1.00  0.00     0.124 S 
ATOM     67  O   UNL A   1      34.867  31.550  28.892  1.00  0.00    -0.237 OA
ATOM     68  O   UNL A   1      34.274  32.746  30.977  1.00  0.00    -0.237 OA
ATOM     69  O   UNL A   1      36.050  33.621  29.507  1.00  0.00    -0.744 OA
ENDBRANCH  62  66
ENDBRANCH  45  59
BRANCH  46  70
ATOM     70  C   UNL A   1      46.982  27.103  26.242  1.00  0.00     0.023 A 
ATOM     71  C   UNL A   1      48.056  26.468  26.886  1.00  0.00     0.031 A 
ATOM     72  C   UNL A   1      47.076  27.311  24.853  1.00  0.00     0.131 A 
ATOM     73  C   UNL A   1      49.189  26.092  26.147  1.00  0.00     0.055 A 
ATOM     74  C   UNL A   1      48.183  26.888  24.114  1.00  0.00     0.041 A 
ATOM     75  F   UNL A   1      46.079  27.915  24.187  1.00  0.00    -0.206 F 
ATOM     76  C   UNL A   1      49.253  26.284  24.764  1.00  0.00     0.022 A 
BRANCH  73  77
ATOM     77  S   UNL A   1      50.616  25.406  27.032  1.00  0.00     0.124 S 
ATOM     78  O   UNL A   1      50.015  24.279  27.736  1.00  0.00    -0.237 OA
ATOM     79  O   UNL A   1      51.520  25.072  25.936  1.00  0.00    -0.237 OA
ATOM     80  O   UNL A   1      51.052  26.511  27.882  1.00  0.00    -0.744 OA
ENDBRANCH  73  77
ENDBRANCH  46  70
BRANCH  58  81
ATOM     81  C   UNL A   1      45.099  33.190  29.088  1.00  0.00     0.023 A 
ATOM     82  C   UNL A   1      45.274  34.089  28.024  1.00  0.00     0.031 A 
ATOM     83  C   UNL A   1      45.616  33.535  30.350  1.00  0.00     0.131 A 
ATOM     84  C   UNL A   1      45.983  35.282  28.234  1.00  0.00     0.055 A 
ATOM     85  C   UNL A   1      46.280  34.742  30.563  1.00  0.00     0.041 A 
ATOM     86  F   UNL A   1      45.472  32.706  31.396  1.00  0.00    -0.206 F 
ATOM     87  C   UNL A   1      46.472  35.621  29.500  1.00  0.00     0.022 A 
BRANCH  84  88
ATOM     88  S   UNL A   1      46.295  36.374  26.821  1.00  0.00     0.124 S 
ATOM     89  O   UNL A   1      45.896  35.534  25.696  1.00  0.00    -0.237 OA
ATOM     90  O   UNL A   1      45.429  37.514  27.104  1.00  0.00    -0.237 OA
ATOM     91  O   UNL A   1      47.727  36.650  26.910  1.00  0.00    -0.744 OA
ENDBRANCH  84  88
ENDBRANCH  58  81
ENDBRANCH  32  33
ENDBRANCH  25  27
ENDBRANCH  24  25
ENDBRANCH   1  24
TORSDOF 18
ENDMDL
MODEL 2
REMARK VINA RESULT:     -11.6      1.669      2.189
REMARK SMILES CCC[C@@]1(C(=O)OCCOC(=O)c2ccc(-c3c4nc(c(-c5cc(S(=O)(=O)[O-])ccc5F)c5ccc([nH]5)c(-c5cc(S(=O)(=O)[O-])ccc5F)c5nc(c(-c6cc(S(=O)(=O)[O-])ccc6F)c6ccc3[nH]6)C=C5)C=C4)cc2)CCN(C(=O)[C@@H]2CC[NH2+][C@@H]2C)C1
REMARK SMILES IDX 9 1 8 2 7 3 5 4 6 5 4 6 76 7 87 8 77 9 78 10 3 11 2 12 1 13
REMARK SMILES IDX 79 14 80 15 81 16 82 17 85 18 83 19 84 20 86 21 10 24 11 25
REMARK SMILES IDX 12 26 13 27 14 28 75 29 15 30 74 31 16 32 17 33 18 34 68 35
REMARK SMILES IDX 19 36 73 37 67 38 69 39 20 40 72 41 66 42 65 43 21 45 53 46
REMARK SMILES IDX 33 47 52 48 34 49 37 50 51 51 70 52 35 53 36 54 50 56 71 57
REMARK SMILES IDX 38 58 22 59 23 60 31 61 24 62 30 63 32 64 29 65 25 66 26 67
REMARK SMILES IDX 27 68 28 69 54 70 55 71 63 72 56 73 62 74 64 75 61 76 57 77
REMARK SMILES IDX 58 78 59 79 60 80 39 81 40 82 48 83 41 84 47 85 49 86 46 87
REMARK SMILES IDX 42 88 43 89 44 90 45 91
REMARK H PARENT 84 22 84 23 69 44 37 55
REMARK Flexibility Score: inf
ROOT
ATOM      1  C   UNL A   1      36.438  20.992  25.072  1.00  0.00     0.275 C 
ENDROOT
BRANCH   1   2
ATOM      2  C   UNL A   1      35.493  21.616  26.109  1.00  0.00     0.274 C 
BRANCH   2   3
ATOM      3  O   UNL A   1      34.088  21.449  25.810  1.00  0.00    -0.462 OA
BRANCH   3   4
ATOM      4  C   UNL A   1      33.284  22.436  26.281  1.00  0.00     0.314 C 
ATOM      5  O   UNL A   1      32.998  22.549  27.468  1.00  0.00    -0.252 OA
BRANCH   4   6
ATOM      6  C   UNL A   1      32.731  23.375  25.211  1.00  0.00     0.087 C 
ATOM      7  C   UNL A   1      33.799  24.122  24.393  1.00  0.00     0.042 C 
ATOM      8  C   UNL A   1      31.962  24.531  25.875  1.00  0.00     0.138 C 
ATOM      9  C   UNL A   1      34.047  25.423  25.165  1.00  0.00     0.120 C 
ATOM     10  N   UNL A   1      32.776  25.729  25.787  1.00  0.00    -0.341 N 
BRANCH   6  11
ATOM     11  C   UNL A   1      31.738  22.578  24.312  1.00  0.00     0.020 C 
BRANCH  11  12
ATOM     12  C   UNL A   1      32.249  22.061  22.956  1.00  0.00    -0.002 C 
ATOM     13  C   UNL A   1      32.232  20.540  22.814  1.00  0.00     0.004 C 
ENDBRANCH  11  12
ENDBRANCH   6  11
BRANCH  10  14
ATOM     14  C   UNL A   1      32.274  26.868  26.378  1.00  0.00     0.231 C 
ATOM     15  O   UNL A   1      31.354  26.760  27.203  1.00  0.00    -0.274 OA
BRANCH  14  16
ATOM     16  C   UNL A   1      32.799  28.275  26.113  1.00  0.00     0.142 C 
ATOM     17  C   UNL A   1      32.822  29.278  27.250  1.00  0.00     0.081 C 
ATOM     18  C   UNL A   1      32.214  29.021  24.907  1.00  0.00     0.192 C 
ATOM     19  C   UNL A   1      31.844  30.349  26.815  1.00  0.00     0.261 C 
ATOM     20  N   UNL A   1      31.965  30.413  25.358  1.00  0.00    -0.343 N 
ATOM     21  C   UNL A   1      30.975  28.441  24.248  1.00  0.00     0.076 C 
ATOM     22  H   UNL A   1      32.744  31.015  25.093  1.00  0.00     0.346 HD
ATOM     23  H   UNL A   1      31.123  30.798  24.930  1.00  0.00     0.346 HD
ENDBRANCH  14  16
ENDBRANCH  10  14
ENDBRANCH   4   6
ENDBRANCH   3   4
ENDBRANCH   2   3
ENDBRANCH   1   2
BRANCH   1  24
ATOM     24  O   UNL A   1      37.655  21.741  24.895  1.00  0.00    -0.458 OA
BRANCH  24  25
ATOM     25  C   UNL A   1      38.675  21.331  25.685  1.00  0.00     0.338 C 
ATOM     26  O   UNL A   1      39.128  20.201  25.742  1.00  0.00    -0.246 OA
BRANCH  25  27
ATOM     27  C   UNL A   1      39.267  22.456  26.426  1.00  0.00     0.060 A 
ATOM     28  C   UNL A   1      38.839  23.752  26.126  1.00  0.00     0.016 A 
ATOM     29  C   UNL A   1      40.354  22.255  27.273  1.00  0.00     0.016 A 
ATOM     30  C   UNL A   1      39.523  24.856  26.606  1.00  0.00     0.010 A 
ATOM     31  C   UNL A   1      41.015  23.369  27.801  1.00  0.00     0.010 A 
ATOM     32  C   UNL A   1      40.616  24.673  27.449  1.00  0.00    -0.014 A 
BRANCH  32  33
ATOM     33  C   UNL A   1      41.384  25.848  27.911  1.00  0.00     0.031 A 
ATOM     34  C   UNL A   1      40.689  26.891  28.731  1.00  0.00     0.074 A 
ATOM     35  C   UNL A   1      42.689  25.960  27.608  1.00  0.00     0.049 A 
ATOM     36  N   UNL A   1      41.066  28.109  29.009  1.00  0.00    -0.248 NA
ATOM     37  C   UNL A   1      39.393  26.507  29.308  1.00  0.00     0.031 C 
ATOM     38  C   UNL A   1      43.491  24.940  26.928  1.00  0.00     0.029 A 
ATOM     39  N   UNL A   1      43.568  26.990  27.820  1.00  0.00    -0.354 N 
ATOM     40  C   UNL A   1      40.028  28.661  29.752  1.00  0.00     0.074 A 
ATOM     41  C   UNL A   1      39.013  27.637  29.886  1.00  0.00     0.031 C 
ATOM     42  C   UNL A   1      44.739  25.403  26.761  1.00  0.00     0.029 A 
ATOM     43  C   UNL A   1      44.796  26.781  27.236  1.00  0.00     0.049 A 
ATOM     44  H   UNL A   1      43.344  27.797  28.336  1.00  0.00     0.167 HD
ATOM     45  C   UNL A   1      39.938  29.917  30.252  1.00  0.00     0.034 A 
ATOM     46  C   UNL A   1      45.820  27.634  27.041  1.00  0.00     0.034 A 
ATOM     47  C   UNL A   1      40.984  30.900  30.103  1.00  0.00     0.049 A 
ATOM     48  C   UNL A   1      45.665  29.055  27.516  1.00  0.00     0.074 A 
ATOM     49  C   UNL A   1      41.006  32.217  30.527  1.00  0.00     0.029 A 
ATOM     50  N   UNL A   1      42.205  30.664  29.479  1.00  0.00    -0.354 N 
ATOM     51  N   UNL A   1      44.642  29.613  28.122  1.00  0.00    -0.248 NA
ATOM     52  C   UNL A   1      46.792  29.964  27.271  1.00  0.00     0.031 C 
ATOM     53  C   UNL A   1      42.215  32.790  30.113  1.00  0.00     0.029 A 
ATOM     54  C   UNL A   1      42.977  31.813  29.490  1.00  0.00     0.049 A 
ATOM     55  H   UNL A   1      42.480  29.805  29.086  1.00  0.00     0.167 HD
ATOM     56  C   UNL A   1      45.012  30.933  28.353  1.00  0.00     0.074 A 
ATOM     57  C   UNL A   1      46.352  31.086  27.823  1.00  0.00     0.031 C 
ATOM     58  C   UNL A   1      44.313  31.929  28.955  1.00  0.00     0.034 A 
BRANCH  45  59
ATOM     59  C   UNL A   1      38.638  30.311  30.908  1.00  0.00     0.023 A 
ATOM     60  C   UNL A   1      37.616  30.978  30.212  1.00  0.00     0.031 A 
ATOM     61  C   UNL A   1      38.444  30.053  32.278  1.00  0.00     0.131 A 
ATOM     62  C   UNL A   1      36.475  31.422  30.903  1.00  0.00     0.055 A 
ATOM     63  C   UNL A   1      37.276  30.433  32.942  1.00  0.00     0.041 A 
ATOM     64  F   UNL A   1      39.396  29.444  33.000  1.00  0.00    -0.206 F 
ATOM     65  C   UNL A   1      36.289  31.134  32.257  1.00  0.00     0.022 A 
BRANCH  62  66
ATOM     66  S   UNL A   1      35.292  32.493  30.039  1.00  0.00     0.124 S 
ATOM     67  O   UNL A   1      36.127  33.642  29.697  1.00  0.00    -0.237 OA
ATOM     68  O   UNL A   1      34.865  31.657  28.923  1.00  0.00    -0.237 OA
ATOM     69  O   UNL A   1      34.267  32.756  31.047  1.00  0.00    -0.744 OA
ENDBRANCH  62  66
ENDBRANCH  45  59
BRANCH  46  70
ATOM     70  C   UNL A   1      47.026  27.197  26.282  1.00  0.00     0.023 A 
ATOM     71  C   UNL A   1      47.227  27.589  24.949  1.00  0.00     0.031 A 
ATOM     72  C   UNL A   1      47.987  26.359  26.876  1.00  0.00     0.131 A 
ATOM     73  C   UNL A   1      48.349  27.119  24.246  1.00  0.00     0.055 A 
ATOM     74  C   UNL A   1      49.127  25.937  26.190  1.00  0.00     0.041 A 
ATOM     75  F   UNL A   1      47.843  25.953  28.148  1.00  0.00    -0.206 F 
ATOM     76  C   UNL A   1      49.307  26.308  24.862  1.00  0.00     0.022 A 
BRANCH  73  77
ATOM     77  S   UNL A   1      48.505  27.526  22.486  1.00  0.00     0.124 S 
ATOM     78  O   UNL A   1      48.558  26.201  21.878  1.00  0.00    -0.237 OA
ATOM     79  O   UNL A   1      47.289  28.296  22.245  1.00  0.00    -0.237 OA
ATOM     80  O   UNL A   1      49.747  28.292  22.422  1.00  0.00    -0.744 OA
ENDBRANCH  73  77
ENDBRANCH  46  70
BRANCH  58  81
ATOM     81  C   UNL A   1      45.022  33.244  29.131  1.00  0.00     0.023 A 
ATOM     82  C   UNL A   1      45.029  34.223  28.125  1.00  0.00     0.031 A 
ATOM     83  C   UNL A   1      45.688  33.519  30.339  1.00  0.00     0.131 A 
ATOM     84  C   UNL A   1      45.721  35.427  28.333  1.00  0.00     0.055 A 
ATOM     85  C   UNL A   1      46.336  34.734  30.557  1.00  0.00     0.041 A 
ATOM     86  F   UNL A   1      45.708  32.612  31.329  1.00  0.00    -0.206 F 
ATOM     87  C   UNL A   1      46.361  35.693  29.548  1.00  0.00     0.022 A 
BRANCH  84  88
ATOM     88  S   UNL A   1      45.811  36.628  26.978  1.00  0.00     0.124 S 
ATOM     89  O   UNL A   1      46.906  37.491  27.411  1.00  0.00    -0.237 OA
ATOM     90  O   UNL A   1      46.085  35.781  25.822  1.00  0.00    -0.237 OA
ATOM     91  O   UNL A   1      44.490  37.254  26.986  1.00  0.00    -0.744 OA
ENDBRANCH  84  88
ENDBRANCH  58  81
ENDBRANCH  32  33
ENDBRANCH  25  27
ENDBRANCH  24  25
ENDBRANCH   1  24
TORSDOF 18
ENDMDL
MODEL 3
REMARK VINA RESULT:     -11.5      5.073     10.018
REMARK SMILES CCC[C@@]1(C(=O)OCCOC(=O)c2ccc(-c3c4nc(c(-c5cc(S(=O)(=O)[O-])ccc5F)c5ccc([nH]5)c(-c5cc(S(=O)(=O)[O-])ccc5F)c5nc(c(-c6cc(S(=O)(=O)[O-])ccc6F)c6ccc3[nH]6)C=C5)C=C4)cc2)CCN(C(=O)[C@@H]2CC[NH2+][C@@H]2C)C1
REMARK SMILES IDX 9 1 8 2 7 3 5 4 6 5 4 6 76 7 87 8 77 9 78 10 3 11 2 12 1 13
REMARK SMILES IDX 79 14 80 15 81 16 82 17 85 18 83 19 84 20 86 21 10 24 11 25
REMARK SMILES IDX 12 26 13 27 14 28 75 29 15 30 74 31 16 32 17 33 18 34 68 35
REMARK SMILES IDX 19 36 73 37 67 38 69 39 20 40 72 41 66 42 65 43 21 45 53 46
REMARK SMILES IDX 33 47 52 48 34 49 37 50 51 51 70 52 35 53 36 54 50 56 71 57
REMARK SMILES IDX 38 58 22 59 23 60 31 61 24 62 30 63 32 64 29 65 25 66 26 67
REMARK SMILES IDX 27 68 28 69 54 70 55 71 63 72 56 73 62 74 64 75 61 76 57 77
REMARK SMILES IDX 58 78 59 79 60 80 39 81 40 82 48 83 41 84 47 85 49 86 46 87
REMARK SMILES IDX 42 88 43 89 44 90 45 91
REMARK H PARENT 84 22 84 23 69 44 37 55
REMARK Flexibility Score: inf
ROOT
ATOM      1  C   UNL A   1      31.783  30.787  26.367  1.00  0.00     0.275 C 
ENDROOT
BRANCH   1   2
ATOM      2  C   UNL A   1      31.594  29.722  25.278  1.00  0.00     0.274 C 
BRANCH   2   3
ATOM      3  O   UNL A   1      31.884  28.372  25.709  1.00  0.00    -0.462 OA
BRANCH   3   4
ATOM      4  C   UNL A   1      32.710  27.676  24.886  1.00  0.00     0.314 C 
ATOM      5  O   UNL A   1      33.810  28.094  24.543  1.00  0.00    -0.252 OA
BRANCH   4   6
ATOM      6  C   UNL A   1      32.145  26.347  24.389  1.00  0.00     0.087 C 
ATOM      7  C   UNL A   1      31.396  25.526  25.452  1.00  0.00     0.042 C 
ATOM      8  C   UNL A   1      33.296  25.402  23.998  1.00  0.00     0.138 C 
ATOM      9  C   UNL A   1      32.469  24.637  26.091  1.00  0.00     0.120 C 
ATOM     10  N   UNL A   1      33.419  24.387  25.027  1.00  0.00    -0.341 N 
BRANCH   6  11
ATOM     11  C   UNL A   1      31.279  26.615  23.121  1.00  0.00     0.020 C 
BRANCH  11  12
ATOM     12  C   UNL A   1      29.794  26.962  23.322  1.00  0.00    -0.002 C 
ATOM     13  C   UNL A   1      29.394  28.342  22.801  1.00  0.00     0.004 C 
ENDBRANCH  11  12
ENDBRANCH   6  11
BRANCH  10  14
ATOM     14  C   UNL A   1      34.438  23.471  24.880  1.00  0.00     0.231 C 
ATOM     15  O   UNL A   1      35.610  23.877  24.854  1.00  0.00    -0.274 OA
BRANCH  14  16
ATOM     16  C   UNL A   1      34.230  21.963  24.780  1.00  0.00     0.142 C 
ATOM     17  C   UNL A   1      32.995  21.437  24.075  1.00  0.00     0.081 C 
ATOM     18  C   UNL A   1      34.346  21.157  26.079  1.00  0.00     0.192 C 
ATOM     19  C   UNL A   1      32.216  20.737  25.169  1.00  0.00     0.261 C 
ATOM     20  N   UNL A   1      33.229  20.180  26.067  1.00  0.00    -0.343 N 
ATOM     21  C   UNL A   1      34.371  21.924  27.391  1.00  0.00     0.076 C 
ATOM     22  H   UNL A   1      33.553  19.277  25.719  1.00  0.00     0.346 HD
ATOM     23  H   UNL A   1      32.855  20.028  27.003  1.00  0.00     0.346 HD
ENDBRANCH  14  16
ENDBRANCH  10  14
ENDBRANCH   4   6
ENDBRANCH   3   4
ENDBRANCH   2   3
ENDBRANCH   1   2
BRANCH   1  24
ATOM     24  O   UNL A   1      32.900  30.516  27.234  1.00  0.00    -0.458 OA
BRANCH  24  25
ATOM     25  C   UNL A   1      33.636  31.610  27.543  1.00  0.00     0.338 C 
ATOM     26  O   UNL A   1      33.228  32.756  27.597  1.00  0.00    -0.246 OA
BRANCH  25  27
ATOM     27  C   UNL A   1      35.013  31.244  27.915  1.00  0.00     0.060 A 
ATOM     28  C   UNL A   1      35.259  29.945  28.367  1.00  0.00     0.016 A 
ATOM     29  C   UNL A   1      36.009  32.213  27.990  1.00  0.00     0.016 A 
ATOM     30  C   UNL A   1      36.467  29.614  28.957  1.00  0.00     0.010 A 
ATOM     31  C   UNL A   1      37.249  31.868  28.539  1.00  0.00     0.010 A 
ATOM     32  C   UNL A   1      37.473  30.573  29.046  1.00  0.00    -0.014 A 
BRANCH  32  33
ATOM     33  C   UNL A   1      38.738  30.238  29.731  1.00  0.00     0.031 A 
ATOM     34  C   UNL A   1      39.670  29.255  29.093  1.00  0.00     0.074 A 
ATOM     35  C   UNL A   1      39.046  30.827  30.900  1.00  0.00     0.049 A 
ATOM     36  N   UNL A   1      40.677  28.612  29.617  1.00  0.00    -0.248 NA
ATOM     37  C   UNL A   1      39.426  28.954  27.675  1.00  0.00     0.031 C 
ATOM     38  C   UNL A   1      38.272  31.893  31.540  1.00  0.00     0.029 A 
ATOM     39  N   UNL A   1      40.084  30.602  31.765  1.00  0.00    -0.354 N 
ATOM     40  C   UNL A   1      41.159  27.786  28.608  1.00  0.00     0.074 A 
ATOM     41  C   UNL A   1      40.337  28.020  27.439  1.00  0.00     0.031 C 
ATOM     42  C   UNL A   1      38.852  32.215  32.707  1.00  0.00     0.029 A 
ATOM     43  C   UNL A   1      39.978  31.316  32.936  1.00  0.00     0.049 A 
ATOM     44  H   UNL A   1      40.830  29.990  31.570  1.00  0.00     0.167 HD
ATOM     45  C   UNL A   1      42.185  26.902  28.673  1.00  0.00     0.034 A 
ATOM     46  C   UNL A   1      40.665  31.202  34.089  1.00  0.00     0.034 A 
ATOM     47  C   UNL A   1      42.986  26.712  29.858  1.00  0.00     0.049 A 
ATOM     48  C   UNL A   1      41.737  30.147  34.177  1.00  0.00     0.074 A 
ATOM     49  C   UNL A   1      44.027  25.827  30.071  1.00  0.00     0.029 A 
ATOM     50  N   UNL A   1      42.831  27.433  31.038  1.00  0.00    -0.354 N 
ATOM     51  N   UNL A   1      42.124  29.288  33.262  1.00  0.00    -0.248 NA
ATOM     52  C   UNL A   1      42.454  30.035  35.453  1.00  0.00     0.031 C 
ATOM     53  C   UNL A   1      44.465  25.975  31.393  1.00  0.00     0.029 A 
ATOM     54  C   UNL A   1      43.743  27.000  31.986  1.00  0.00     0.049 A 
ATOM     55  H   UNL A   1      42.169  28.148  31.180  1.00  0.00     0.167 HD
ATOM     56  C   UNL A   1      43.149  28.550  33.844  1.00  0.00     0.074 A 
ATOM     57  C   UNL A   1      43.319  29.066  35.188  1.00  0.00     0.031 C 
ATOM     58  C   UNL A   1      43.888  27.541  33.316  1.00  0.00     0.034 A 
BRANCH  45  59
ATOM     59  C   UNL A   1      42.420  26.023  27.470  1.00  0.00     0.023 A 
ATOM     60  C   UNL A   1      41.918  24.713  27.386  1.00  0.00     0.031 A 
ATOM     61  C   UNL A   1      43.210  26.496  26.406  1.00  0.00     0.131 A 
ATOM     62  C   UNL A   1      42.264  23.901  26.292  1.00  0.00     0.055 A 
ATOM     63  C   UNL A   1      43.492  25.707  25.289  1.00  0.00     0.041 A 
ATOM     64  F   UNL A   1      43.740  27.728  26.444  1.00  0.00    -0.206 F 
ATOM     65  C   UNL A   1      43.029  24.398  25.234  1.00  0.00     0.022 A 
BRANCH  62  66
ATOM     66  S   UNL A   1      41.810  22.145  26.330  1.00  0.00     0.124 S 
ATOM     67  O   UNL A   1      42.253  21.752  27.666  1.00  0.00    -0.237 OA
ATOM     68  O   UNL A   1      40.367  22.186  26.121  1.00  0.00    -0.237 OA
ATOM     69  O   UNL A   1      42.582  21.567  25.232  1.00  0.00    -0.744 OA
ENDBRANCH  62  66
ENDBRANCH  45  59
BRANCH  46  70
ATOM     70  C   UNL A   1      40.294  32.032  35.269  1.00  0.00     0.023 A 
ATOM     71  C   UNL A   1      39.297  31.617  36.165  1.00  0.00     0.031 A 
ATOM     72  C   UNL A   1      40.921  33.269  35.506  1.00  0.00     0.131 A 
ATOM     73  C   UNL A   1      38.936  32.446  37.240  1.00  0.00     0.055 A 
ATOM     74  C   UNL A   1      40.595  34.066  36.605  1.00  0.00     0.041 A 
ATOM     75  F   UNL A   1      41.880  33.716  34.679  1.00  0.00    -0.206 F 
ATOM     76  C   UNL A   1      39.588  33.660  37.474  1.00  0.00     0.022 A 
BRANCH  73  77
ATOM     77  S   UNL A   1      37.547  31.947  38.294  1.00  0.00     0.124 S 
ATOM     78  O   UNL A   1      36.552  32.966  37.977  1.00  0.00    -0.237 OA
ATOM     79  O   UNL A   1      37.266  30.601  37.808  1.00  0.00    -0.237 OA
ATOM     80  O   UNL A   1      38.103  32.016  39.644  1.00  0.00    -0.744 OA
ENDBRANCH  73  77
ENDBRANCH  46  70
BRANCH  58  81
ATOM     81  C   UNL A   1      44.992  26.988  34.177  1.00  0.00     0.023 A 
ATOM     82  C   UNL A   1      44.803  25.858  34.988  1.00  0.00     0.031 A 
ATOM     83  C   UNL A   1      46.257  27.602  34.165  1.00  0.00     0.131 A 
ATOM     84  C   UNL A   1      45.861  25.393  35.785  1.00  0.00     0.055 A 
ATOM     85  C   UNL A   1      47.316  27.109  34.925  1.00  0.00     0.041 A 
ATOM     86  F   UNL A   1      46.482  28.685  33.404  1.00  0.00    -0.206 F 
ATOM     87  C   UNL A   1      47.120  26.003  35.746  1.00  0.00     0.022 A 
BRANCH  84  88
ATOM     88  S   UNL A   1      45.562  24.002  36.909  1.00  0.00     0.124 S 
ATOM     89  O   UNL A   1      44.748  23.116  36.084  1.00  0.00    -0.237 OA
ATOM     90  O   UNL A   1      46.913  23.538  37.204  1.00  0.00    -0.237 OA
ATOM     91  O   UNL A   1      44.861  24.617  38.036  1.00  0.00    -0.744 OA
ENDBRANCH  84  88
ENDBRANCH  58  81
ENDBRANCH  32  33
ENDBRANCH  25  27
ENDBRANCH  24  25
ENDBRANCH   1  24
TORSDOF 18
ENDMDL
