MODEL 1
REMARK VINA RESULT:     -12.1      0.000      0.000
REMARK SMILES O=C1CN(S(=O)(=O)c2ccc(CC(=O)OCCOC(=O)c3ccc(-c4c5nc(c(-c6cc(S(=O)(=O)[O-])ccc6F)c6ccc([nH]6)c(-c6cc(S(=O)(=O)[O-])ccc6F)c6nc(c(-c7cc(S(=O)(=O)[O-])ccc7F)c7ccc4[nH]7)C=C6)C=C5)cc3)cc2)CCN1
REMARK SMILES IDX 16 1 15 2 13 3 14 4 12 5 11 6 8 7 9 8 85 9 10 10 84 11 5 12
REMARK SMILES IDX 6 13 7 14 4 15 1 16 2 17 3 18 88 19 87 20 86 22 17 23 18 24
REMARK SMILES IDX 19 25 20 26 21 27 22 28 83 29 23 30 82 31 24 32 25 33 26 34
REMARK SMILES IDX 76 35 27 36 81 37 75 38 77 39 28 40 80 41 74 42 73 43 29 45
REMARK SMILES IDX 61 46 41 47 60 48 42 49 45 50 59 51 78 52 43 53 44 54 58 56
REMARK SMILES IDX 79 57 46 58 30 59 31 60 39 61 32 62 38 63 40 64 37 65 33 66
REMARK SMILES IDX 34 67 35 68 36 69 62 70 63 71 71 72 64 73 70 74 72 75 69 76
REMARK SMILES IDX 65 77 66 78 67 79 68 80 47 81 48 82 56 83 49 84 55 85 57 86
REMARK SMILES IDX 54 87 50 88 51 89 52 90 53 91
REMARK H PARENT 88 21 77 44 45 55
REMARK Flexibility Score: inf
ROOT
ATOM      1  C   UNL A   1      35.047  20.503  25.288  1.00  0.00     0.274 C 
ENDROOT
BRANCH   1   2
ATOM      2  O   UNL A   1      34.294  19.479  24.610  1.00  0.00    -0.462 OA
BRANCH   2   3
ATOM      3  C   UNL A   1      32.948  19.663  24.558  1.00  0.00     0.310 C 
ATOM      4  O   UNL A   1      32.161  19.243  25.401  1.00  0.00    -0.252 OA
BRANCH   3   5
ATOM      5  C   UNL A   1      32.469  20.394  23.323  1.00  0.00     0.158 C 
BRANCH   5   6
ATOM      6  C   UNL A   1      32.420  21.901  23.392  1.00  0.00    -0.037 A 
ATOM      7  C   UNL A   1      32.385  24.700  23.504  1.00  0.00     0.082 A 
ATOM      8  C   UNL A   1      31.686  23.965  24.461  1.00  0.00     0.022 A 
ATOM      9  C   UNL A   1      33.113  24.045  22.503  1.00  0.00     0.022 A 
ATOM     10  C   UNL A   1      31.704  22.567  24.401  1.00  0.00     0.006 A 
ATOM     11  C   UNL A   1      33.114  22.655  22.438  1.00  0.00     0.006 A 
BRANCH   7  12
ATOM     12  S   UNL A   1      32.540  26.460  23.653  1.00  0.00     0.243 S 
ATOM     13  O   UNL A   1      32.539  27.000  22.307  1.00  0.00    -0.207 OA
ATOM     14  O   UNL A   1      33.639  26.754  24.546  1.00  0.00    -0.207 OA
BRANCH  12  15
ATOM     15  N   UNL A   1      31.108  26.981  24.437  1.00  0.00    -0.187 NA
ATOM     16  O   UNL A   1      29.667  28.990  21.774  1.00  0.00    -0.274 OA
ATOM     17  C   UNL A   1      30.189  28.720  22.854  1.00  0.00     0.235 C 
ATOM     18  C   UNL A   1      29.978  27.385  23.555  1.00  0.00     0.202 C 
ATOM     19  N   UNL A   1      30.904  29.675  23.537  1.00  0.00    -0.354 N 
ATOM     20  C   UNL A   1      31.714  29.395  24.714  1.00  0.00     0.132 C 
ATOM     21  H   UNL A   1      30.866  30.603  23.211  1.00  0.00     0.163 HD
ATOM     22  C   UNL A   1      31.349  28.083  25.428  1.00  0.00     0.124 C 
ENDBRANCH  12  15
ENDBRANCH   7  12
ENDBRANCH   5   6
ENDBRANCH   3   5
ENDBRANCH   2   3
ENDBRANCH   1   2
BRANCH   1  23
ATOM     23  C   UNL A   1      36.541  20.401  24.981  1.00  0.00     0.275 C 
BRANCH  23  24
ATOM     24  O   UNL A   1      37.258  21.514  25.540  1.00  0.00    -0.458 OA
BRANCH  24  25
ATOM     25  C   UNL A   1      38.559  21.269  25.820  1.00  0.00     0.338 C 
ATOM     26  O   UNL A   1      39.194  20.259  25.576  1.00  0.00    -0.246 OA
BRANCH  25  27
ATOM     27  C   UNL A   1      39.161  22.447  26.455  1.00  0.00     0.060 A 
ATOM     28  C   UNL A   1      38.706  23.719  26.103  1.00  0.00     0.016 A 
ATOM     29  C   UNL A   1      40.270  22.294  27.284  1.00  0.00     0.016 A 
ATOM     30  C   UNL A   1      39.390  24.850  26.540  1.00  0.00     0.010 A 
ATOM     31  C   UNL A   1      40.924  23.431  27.765  1.00  0.00     0.010 A 
ATOM     32  C   UNL A   1      40.505  24.718  27.378  1.00  0.00    -0.014 A 
BRANCH  32  33
ATOM     33  C   UNL A   1      41.268  25.913  27.819  1.00  0.00     0.031 A 
ATOM     34  C   UNL A   1      40.578  26.984  28.617  1.00  0.00     0.074 A 
ATOM     35  C   UNL A   1      42.568  26.043  27.491  1.00  0.00     0.049 A 
ATOM     36  N   UNL A   1      41.000  28.178  28.942  1.00  0.00    -0.248 NA
ATOM     37  C   UNL A   1      39.227  26.667  29.106  1.00  0.00     0.031 C 
ATOM     38  C   UNL A   1      43.364  25.044  26.775  1.00  0.00     0.029 A 
ATOM     39  N   UNL A   1      43.446  27.076  27.705  1.00  0.00    -0.354 N 
ATOM     40  C   UNL A   1      39.959  28.768  29.652  1.00  0.00     0.074 A 
ATOM     41  C   UNL A   1      38.875  27.807  29.682  1.00  0.00     0.031 C 
ATOM     42  C   UNL A   1      44.611  25.511  26.612  1.00  0.00     0.029 A 
ATOM     43  C   UNL A   1      44.683  26.871  27.139  1.00  0.00     0.049 A 
ATOM     44  H   UNL A   1      43.213  27.885  28.215  1.00  0.00     0.167 HD
ATOM     45  C   UNL A   1      39.917  29.996  30.229  1.00  0.00     0.034 A 
ATOM     46  C   UNL A   1      45.739  27.700  27.017  1.00  0.00     0.034 A 
ATOM     47  C   UNL A   1      41.011  30.937  30.187  1.00  0.00     0.049 A 
ATOM     48  C   UNL A   1      45.631  29.098  27.574  1.00  0.00     0.074 A 
ATOM     49  C   UNL A   1      41.075  32.211  30.726  1.00  0.00     0.029 A 
ATOM     50  N   UNL A   1      42.235  30.708  29.570  1.00  0.00    -0.354 N 
ATOM     51  N   UNL A   1      44.628  29.662  28.207  1.00  0.00    -0.248 NA
ATOM     52  C   UNL A   1      46.799  29.971  27.402  1.00  0.00     0.031 C 
ATOM     53  C   UNL A   1      42.308  32.774  30.379  1.00  0.00     0.029 A 
ATOM     54  C   UNL A   1      43.049  31.824  29.695  1.00  0.00     0.049 A 
ATOM     55  H   UNL A   1      42.488  29.875  29.111  1.00  0.00     0.167 HD
ATOM     56  C   UNL A   1      45.062  30.943  28.541  1.00  0.00     0.074 A 
ATOM     57  C   UNL A   1      46.418  31.062  28.049  1.00  0.00     0.031 C 
ATOM     58  C   UNL A   1      44.403  31.928  29.203  1.00  0.00     0.034 A 
BRANCH  45  59
ATOM     59  C   UNL A   1      38.629  30.405  30.904  1.00  0.00     0.023 A 
ATOM     60  C   UNL A   1      37.601  31.061  30.204  1.00  0.00     0.031 A 
ATOM     61  C   UNL A   1      38.433  30.153  32.274  1.00  0.00     0.131 A 
ATOM     62  C   UNL A   1      36.458  31.504  30.888  1.00  0.00     0.055 A 
ATOM     63  C   UNL A   1      37.259  30.524  32.932  1.00  0.00     0.041 A 
ATOM     64  F   UNL A   1      39.387  29.550  33.001  1.00  0.00    -0.206 F 
ATOM     65  C   UNL A   1      36.269  31.217  32.242  1.00  0.00     0.022 A 
BRANCH  62  66
ATOM     66  S   UNL A   1      35.288  32.580  30.017  1.00  0.00     0.124 S 
ATOM     67  O   UNL A   1      34.317  32.873  31.067  1.00  0.00    -0.237 OA
ATOM     68  O   UNL A   1      36.133  33.694  29.601  1.00  0.00    -0.237 OA
ATOM     69  O   UNL A   1      34.788  31.738  28.932  1.00  0.00    -0.744 OA
ENDBRANCH  62  66
ENDBRANCH  45  59
BRANCH  46  70
ATOM     70  C   UNL A   1      46.970  27.262  26.298  1.00  0.00     0.023 A 
ATOM     71  C   UNL A   1      47.220  27.675  24.980  1.00  0.00     0.031 A 
ATOM     72  C   UNL A   1      47.884  26.373  26.895  1.00  0.00     0.131 A 
ATOM     73  C   UNL A   1      48.321  27.157  24.282  1.00  0.00     0.055 A 
ATOM     74  C   UNL A   1      49.014  25.913  26.218  1.00  0.00     0.041 A 
ATOM     75  F   UNL A   1      47.693  25.943  28.152  1.00  0.00    -0.206 F 
ATOM     76  C   UNL A   1      49.229  26.292  24.897  1.00  0.00     0.022 A 
BRANCH  73  77
ATOM     77  S   UNL A   1      48.488  27.547  22.519  1.00  0.00     0.124 S 
ATOM     78  O   UNL A   1      48.555  26.215  21.928  1.00  0.00    -0.237 OA
ATOM     79  O   UNL A   1      47.268  28.304  22.260  1.00  0.00    -0.237 OA
ATOM     80  O   UNL A   1      49.725  28.321  22.457  1.00  0.00    -0.744 OA
ENDBRANCH  73  77
ENDBRANCH  46  70
BRANCH  58  81
ATOM     81  C   UNL A   1      45.172  33.193  29.493  1.00  0.00     0.023 A 
ATOM     82  C   UNL A   1      45.265  34.241  28.562  1.00  0.00     0.031 A 
ATOM     83  C   UNL A   1      45.832  33.343  30.728  1.00  0.00     0.131 A 
ATOM     84  C   UNL A   1      46.046  35.370  28.858  1.00  0.00     0.055 A 
ATOM     85  C   UNL A   1      46.555  34.494  31.040  1.00  0.00     0.041 A 
ATOM     86  F   UNL A   1      45.779  32.372  31.653  1.00  0.00    -0.206 F 
ATOM     87  C   UNL A   1      46.677  35.510  30.097  1.00  0.00     0.022 A 
BRANCH  84  88
ATOM     88  S   UNL A   1      46.304  36.616  27.564  1.00  0.00     0.124 S 
ATOM     89  O   UNL A   1      47.716  36.942  27.733  1.00  0.00    -0.237 OA
ATOM     90  O   UNL A   1      45.959  35.881  26.351  1.00  0.00    -0.237 OA
ATOM     91  O   UNL A   1      45.372  37.683  27.924  1.00  0.00    -0.744 OA
ENDBRANCH  84  88
ENDBRANCH  58  81
ENDBRANCH  32  33
ENDBRANCH  25  27
ENDBRANCH  24  25
ENDBRANCH  23  24
ENDBRANCH   1  23
TORSDOF 17
ENDMDL
MODEL 2
REMARK VINA RESULT:     -12.0      1.357      7.707
REMARK SMILES O=C1CN(S(=O)(=O)c2ccc(CC(=O)OCCOC(=O)c3ccc(-c4c5nc(c(-c6cc(S(=O)(=O)[O-])ccc6F)c6ccc([nH]6)c(-c6cc(S(=O)(=O)[O-])ccc6F)c6nc(c(-c7cc(S(=O)(=O)[O-])ccc7F)c7ccc4[nH]7)C=C6)C=C5)cc3)cc2)CCN1
REMARK SMILES IDX 16 1 15 2 13 3 14 4 12 5 11 6 8 7 9 8 85 9 10 10 84 11 5 12
REMARK SMILES IDX 6 13 7 14 4 15 1 16 2 17 3 18 88 19 87 20 86 22 17 23 18 24
REMARK SMILES IDX 19 25 20 26 21 27 22 28 83 29 23 30 82 31 24 32 25 33 26 34
REMARK SMILES IDX 76 35 27 36 81 37 75 38 77 39 28 40 80 41 74 42 73 43 29 45
REMARK SMILES IDX 61 46 41 47 60 48 42 49 45 50 59 51 78 52 43 53 44 54 58 56
REMARK SMILES IDX 79 57 46 58 30 59 31 60 39 61 32 62 38 63 40 64 37 65 33 66
REMARK SMILES IDX 34 67 35 68 36 69 62 70 63 71 71 72 64 73 70 74 72 75 69 76
REMARK SMILES IDX 65 77 66 78 67 79 68 80 47 81 48 82 56 83 49 84 55 85 57 86
REMARK SMILES IDX 54 87 50 88 51 89 52 90 53 91
REMARK H PARENT 88 21 77 44 45 55
REMARK Flexibility Score: inf
ROOT
ATOM      1  C   UNL A   1      37.850  19.782  24.716  1.00  0.00     0.274 C 
ENDROOT
BRANCH   1   2
ATOM      2  O   UNL A   1      37.485  21.164  24.901  1.00  0.00    -0.462 OA
BRANCH   2   3
ATOM      3  C   UNL A   1      36.190  21.398  25.241  1.00  0.00     0.310 C 
ATOM      4  O   UNL A   1      35.261  20.639  24.984  1.00  0.00    -0.252 OA
BRANCH   3   5
ATOM      5  C   UNL A   1      35.960  22.727  25.926  1.00  0.00     0.158 C 
BRANCH   5   6
ATOM      6  C   UNL A   1      34.890  23.621  25.348  1.00  0.00    -0.037 A 
ATOM      7  C   UNL A   1      32.864  25.251  24.306  1.00  0.00     0.082 A 
ATOM      8  C   UNL A   1      33.917  24.852  23.483  1.00  0.00     0.022 A 
ATOM      9  C   UNL A   1      32.810  24.828  25.639  1.00  0.00     0.022 A 
ATOM     10  C   UNL A   1      34.928  24.039  24.007  1.00  0.00     0.006 A 
ATOM     11  C   UNL A   1      33.827  24.034  26.160  1.00  0.00     0.006 A 
BRANCH   7  12
ATOM     12  S   UNL A   1      31.473  26.123  23.635  1.00  0.00     0.243 S 
ATOM     13  O   UNL A   1      30.281  25.460  24.127  1.00  0.00    -0.207 OA
ATOM     14  O   UNL A   1      31.671  26.285  22.212  1.00  0.00    -0.207 OA
BRANCH  12  15
ATOM     15  N   UNL A   1      31.536  27.688  24.329  1.00  0.00    -0.187 NA
ATOM     16  O   UNL A   1      29.893  29.576  21.694  1.00  0.00    -0.274 OA
ATOM     17  C   UNL A   1      30.792  29.184  22.436  1.00  0.00     0.235 C 
ATOM     18  C   UNL A   1      30.526  28.670  23.844  1.00  0.00     0.202 C 
ATOM     19  N   UNL A   1      32.108  29.307  22.057  1.00  0.00    -0.354 N 
ATOM     20  C   UNL A   1      33.219  28.699  22.775  1.00  0.00     0.132 C 
ATOM     21  H   UNL A   1      32.310  29.836  21.252  1.00  0.00     0.163 HD
ATOM     22  C   UNL A   1      32.893  28.321  24.229  1.00  0.00     0.124 C 
ENDBRANCH  12  15
ENDBRANCH   7  12
ENDBRANCH   5   6
ENDBRANCH   3   5
ENDBRANCH   2   3
ENDBRANCH   1   2
BRANCH   1  23
ATOM     23  C   UNL A   1      38.828  19.309  25.791  1.00  0.00     0.275 C 
BRANCH  23  24
ATOM     24  O   UNL A   1      40.023  20.108  25.789  1.00  0.00    -0.458 OA
BRANCH  24  25
ATOM     25  C   UNL A   1      40.610  20.256  26.999  1.00  0.00     0.338 C 
ATOM     26  O   UNL A   1      40.971  19.378  27.762  1.00  0.00    -0.246 OA
BRANCH  25  27
ATOM     27  C   UNL A   1      40.806  21.682  27.285  1.00  0.00     0.060 A 
ATOM     28  C   UNL A   1      40.189  22.632  26.470  1.00  0.00     0.016 A 
ATOM     29  C   UNL A   1      41.716  22.070  28.265  1.00  0.00     0.016 A 
ATOM     30  C   UNL A   1      40.515  23.979  26.598  1.00  0.00     0.010 A 
ATOM     31  C   UNL A   1      42.003  23.428  28.429  1.00  0.00     0.010 A 
ATOM     32  C   UNL A   1      41.425  24.391  27.581  1.00  0.00    -0.014 A 
BRANCH  32  33
ATOM     33  C   UNL A   1      41.813  25.819  27.703  1.00  0.00     0.031 A 
ATOM     34  C   UNL A   1      43.126  26.285  27.135  1.00  0.00     0.074 A 
ATOM     35  C   UNL A   1      41.000  26.689  28.333  1.00  0.00     0.049 A 
ATOM     36  N   UNL A   1      43.736  27.431  27.288  1.00  0.00    -0.248 NA
ATOM     37  C   UNL A   1      43.849  25.324  26.289  1.00  0.00     0.031 C 
ATOM     38  C   UNL A   1      39.675  26.372  28.869  1.00  0.00     0.029 A 
ATOM     39  N   UNL A   1      41.175  28.015  28.640  1.00  0.00    -0.354 N 
ATOM     40  C   UNL A   1      44.929  27.324  26.579  1.00  0.00     0.074 A 
ATOM     41  C   UNL A   1      44.965  25.987  26.022  1.00  0.00     0.031 C 
ATOM     42  C   UNL A   1      39.157  27.472  29.437  1.00  0.00     0.029 A 
ATOM     43  C   UNL A   1      40.141  28.548  29.376  1.00  0.00     0.049 A 
ATOM     44  H   UNL A   1      41.963  28.535  28.362  1.00  0.00     0.167 HD
ATOM     45  C   UNL A   1      45.897  28.258  26.407  1.00  0.00     0.034 A 
ATOM     46  C   UNL A   1      40.020  29.750  29.973  1.00  0.00     0.034 A 
ATOM     47  C   UNL A   1      45.839  29.586  26.972  1.00  0.00     0.049 A 
ATOM     48  C   UNL A   1      41.156  30.736  29.855  1.00  0.00     0.074 A 
ATOM     49  C   UNL A   1      46.767  30.608  26.873  1.00  0.00     0.029 A 
ATOM     50  N   UNL A   1      44.792  30.077  27.745  1.00  0.00    -0.354 N 
ATOM     51  N   UNL A   1      42.299  30.611  29.219  1.00  0.00    -0.248 NA
ATOM     52  C   UNL A   1      40.988  32.026  30.537  1.00  0.00     0.031 C 
ATOM     53  C   UNL A   1      46.314  31.689  27.637  1.00  0.00     0.029 A 
ATOM     54  C   UNL A   1      45.064  31.375  28.147  1.00  0.00     0.049 A 
ATOM     55  H   UNL A   1      43.977  29.575  27.973  1.00  0.00     0.167 HD
ATOM     56  C   UNL A   1      42.964  31.822  29.393  1.00  0.00     0.074 A 
ATOM     57  C   UNL A   1      42.093  32.664  30.184  1.00  0.00     0.031 C 
ATOM     58  C   UNL A   1      44.182  32.206  28.933  1.00  0.00     0.034 A 
BRANCH  45  59
ATOM     59  C   UNL A   1      47.123  27.854  25.622  1.00  0.00     0.023 A 
ATOM     60  C   UNL A   1      47.238  28.112  24.244  1.00  0.00     0.031 A 
ATOM     61  C   UNL A   1      48.184  27.183  26.256  1.00  0.00     0.131 A 
ATOM     62  C   UNL A   1      48.354  27.640  23.534  1.00  0.00     0.055 A 
ATOM     63  C   UNL A   1      49.328  26.786  25.560  1.00  0.00     0.041 A 
ATOM     64  F   UNL A   1      48.122  26.888  27.564  1.00  0.00    -0.206 F 
ATOM     65  C   UNL A   1      49.411  27.002  24.188  1.00  0.00     0.022 A 
BRANCH  62  66
ATOM     66  S   UNL A   1      48.339  27.748  21.724  1.00  0.00     0.124 S 
ATOM     67  O   UNL A   1      49.386  28.735  21.479  1.00  0.00    -0.237 OA
ATOM     68  O   UNL A   1      48.645  26.380  21.323  1.00  0.00    -0.237 OA
ATOM     69  O   UNL A   1      46.983  28.199  21.418  1.00  0.00    -0.744 OA
ENDBRANCH  62  66
ENDBRANCH  45  59
BRANCH  46  70
ATOM     70  C   UNL A   1      38.809  30.081  30.778  1.00  0.00     0.023 A 
ATOM     71  C   UNL A   1      37.731  30.775  30.206  1.00  0.00     0.031 A 
ATOM     72  C   UNL A   1      38.737  29.766  32.148  1.00  0.00     0.131 A 
ATOM     73  C   UNL A   1      36.655  31.180  31.009  1.00  0.00     0.055 A 
ATOM     74  C   UNL A   1      37.634  30.113  32.929  1.00  0.00     0.041 A 
ATOM     75  F   UNL A   1      39.741  29.106  32.748  1.00  0.00    -0.206 F 
ATOM     76  C   UNL A   1      36.590  30.840  32.363  1.00  0.00     0.022 A 
BRANCH  73  77
ATOM     77  S   UNL A   1      35.390  32.255  30.282  1.00  0.00     0.124 S 
ATOM     78  O   UNL A   1      34.417  32.342  31.365  1.00  0.00    -0.237 OA
ATOM     79  O   UNL A   1      36.149  33.469  30.001  1.00  0.00    -0.237 OA
ATOM     80  O   UNL A   1      34.948  31.512  29.103  1.00  0.00    -0.744 OA
ENDBRANCH  73  77
ENDBRANCH  46  70
BRANCH  58  81
ATOM     81  C   UNL A   1      44.606  33.627  29.216  1.00  0.00     0.023 A 
ATOM     82  C   UNL A   1      44.347  34.677  28.319  1.00  0.00     0.031 A 
ATOM     83  C   UNL A   1      45.294  33.928  30.407  1.00  0.00     0.131 A 
ATOM     84  C   UNL A   1      44.820  35.968  28.601  1.00  0.00     0.055 A 
ATOM     85  C   UNL A   1      45.706  35.225  30.710  1.00  0.00     0.041 A 
ATOM     86  F   UNL A   1      45.571  32.963  31.298  1.00  0.00    -0.206 F 
ATOM     87  C   UNL A   1      45.482  36.252  29.798  1.00  0.00     0.022 A 
BRANCH  84  88
ATOM     88  S   UNL A   1      44.639  37.258  27.338  1.00  0.00     0.124 S 
ATOM     89  O   UNL A   1      45.850  37.079  26.544  1.00  0.00    -0.237 OA
ATOM     90  O   UNL A   1      43.388  36.884  26.686  1.00  0.00    -0.237 OA
ATOM     91  O   UNL A   1      44.584  38.495  28.116  1.00  0.00    -0.744 OA
ENDBRANCH  84  88
ENDBRANCH  58  81
ENDBRANCH  32  33
ENDBRANCH  25  27
ENDBRANCH  24  25
ENDBRANCH  23  24
ENDBRANCH   1  23
TORSDOF 17
ENDMDL
MODEL 3
REMARK VINA RESULT:     -11.9      1.561      2.042
REMARK SMILES O=C1CN(S(=O)(=O)c2ccc(CC(=O)OCCOC(=O)c3ccc(-c4c5nc(c(-c6cc(S(=O)(=O)[O-])ccc6F)c6ccc([nH]6)c(-c6cc(S(=O)(=O)[O-])ccc6F)c6nc(c(-c7cc(S(=O)(=O)[O-])ccc7F)c7ccc4[nH]7)C=C6)C=C5)cc3)cc2)CCN1
REMARK SMILES IDX 16 1 15 2 13 3 14 4 12 5 11 6 8 7 9 8 85 9 10 10 84 11 5 12
REMARK SMILES IDX 6 13 7 14 4 15 1 16 2 17 3 18 88 19 87 20 86 22 17 23 18 24
REMARK SMILES IDX 19 25 20 26 21 27 22 28 83 29 23 30 82 31 24 32 25 33 26 34
REMARK SMILES IDX 76 35 27 36 81 37 75 38 77 39 28 40 80 41 74 42 73 43 29 45
REMARK SMILES IDX 61 46 41 47 60 48 42 49 45 50 59 51 78 52 43 53 44 54 58 56
REMARK SMILES IDX 79 57 46 58 30 59 31 60 39 61 32 62 38 63 40 64 37 65 33 66
REMARK SMILES IDX 34 67 35 68 36 69 62 70 63 71 71 72 64 73 70 74 72 75 69 76
REMARK SMILES IDX 65 77 66 78 67 79 68 80 47 81 48 82 56 83 49 84 55 85 57 86
REMARK SMILES IDX 54 87 50 88 51 89 52 90 53 91
REMARK H PARENT 88 21 77 44 45 55
REMARK Flexibility Score: inf
ROOT
ATOM      1  C   UNL A   1      35.132  20.423  25.094  1.00  0.00     0.274 C 
ENDROOT
BRANCH   1   2
ATOM      2  O   UNL A   1      34.334  19.403  24.463  1.00  0.00    -0.462 OA
BRANCH   2   3
ATOM      3  C   UNL A   1      32.988  19.563  24.547  1.00  0.00     0.310 C 
ATOM      4  O   UNL A   1      32.290  19.091  25.440  1.00  0.00    -0.252 OA
BRANCH   3   5
ATOM      5  C   UNL A   1      32.381  20.336  23.395  1.00  0.00     0.158 C 
BRANCH   5   6
ATOM      6  C   UNL A   1      32.320  21.838  23.533  1.00  0.00    -0.037 A 
ATOM      7  C   UNL A   1      32.151  24.620  23.817  1.00  0.00     0.082 A 
ATOM      8  C   UNL A   1      32.705  24.079  22.657  1.00  0.00     0.022 A 
ATOM      9  C   UNL A   1      31.667  23.780  24.827  1.00  0.00     0.022 A 
ATOM     10  C   UNL A   1      32.789  22.689  22.519  1.00  0.00     0.006 A 
ATOM     11  C   UNL A   1      31.769  22.398  24.693  1.00  0.00     0.006 A 
BRANCH   7  12
ATOM     12  S   UNL A   1      31.857  26.363  23.950  1.00  0.00     0.243 S 
ATOM     13  O   UNL A   1      30.604  26.527  24.662  1.00  0.00    -0.207 OA
ATOM     14  O   UNL A   1      32.026  26.963  22.645  1.00  0.00    -0.207 OA
BRANCH  12  15
ATOM     15  N   UNL A   1      33.116  26.966  24.943  1.00  0.00    -0.187 NA
ATOM     16  O   UNL A   1      31.186  27.841  27.894  1.00  0.00    -0.274 OA
ATOM     17  C   UNL A   1      31.874  27.991  26.886  1.00  0.00     0.235 C 
ATOM     18  C   UNL A   1      32.872  26.944  26.412  1.00  0.00     0.202 C 
ATOM     19  N   UNL A   1      31.851  29.184  26.202  1.00  0.00    -0.354 N 
ATOM     20  C   UNL A   1      32.475  29.385  24.902  1.00  0.00     0.132 C 
ATOM     21  H   UNL A   1      31.385  29.946  26.616  1.00  0.00     0.163 HD
ATOM     22  C   UNL A   1      33.557  28.348  24.559  1.00  0.00     0.124 C 
ENDBRANCH  12  15
ENDBRANCH   7  12
ENDBRANCH   5   6
ENDBRANCH   3   5
ENDBRANCH   2   3
ENDBRANCH   1   2
BRANCH   1  23
ATOM     23  C   UNL A   1      36.627  20.123  24.978  1.00  0.00     0.275 C 
BRANCH  23  24
ATOM     24  O   UNL A   1      37.412  21.270  25.346  1.00  0.00    -0.458 OA
BRANCH  24  25
ATOM     25  C   UNL A   1      38.651  20.985  25.806  1.00  0.00     0.338 C 
ATOM     26  O   UNL A   1      39.249  19.927  25.727  1.00  0.00    -0.246 OA
BRANCH  25  27
ATOM     27  C   UNL A   1      39.242  22.182  26.416  1.00  0.00     0.060 A 
ATOM     28  C   UNL A   1      38.757  23.441  26.057  1.00  0.00     0.016 A 
ATOM     29  C   UNL A   1      40.367  22.060  27.228  1.00  0.00     0.016 A 
ATOM     30  C   UNL A   1      39.427  24.590  26.468  1.00  0.00     0.010 A 
ATOM     31  C   UNL A   1      41.008  23.215  27.684  1.00  0.00     0.010 A 
ATOM     32  C   UNL A   1      40.558  24.489  27.288  1.00  0.00    -0.014 A 
BRANCH  32  33
ATOM     33  C   UNL A   1      41.306  25.703  27.701  1.00  0.00     0.031 A 
ATOM     34  C   UNL A   1      40.605  26.780  28.483  1.00  0.00     0.074 A 
ATOM     35  C   UNL A   1      42.602  25.847  27.363  1.00  0.00     0.049 A 
ATOM     36  N   UNL A   1      41.010  27.986  28.782  1.00  0.00    -0.248 NA
ATOM     37  C   UNL A   1      39.261  26.452  28.986  1.00  0.00     0.031 C 
ATOM     38  C   UNL A   1      43.409  24.846  26.662  1.00  0.00     0.029 A 
ATOM     39  N   UNL A   1      43.466  26.896  27.552  1.00  0.00    -0.354 N 
ATOM     40  C   UNL A   1      39.965  28.574  29.487  1.00  0.00     0.074 A 
ATOM     41  C   UNL A   1      38.895  27.598  29.542  1.00  0.00     0.031 C 
ATOM     42  C   UNL A   1      44.647  25.328  26.481  1.00  0.00     0.029 A 
ATOM     43  C   UNL A   1      44.702  26.698  26.982  1.00  0.00     0.049 A 
ATOM     44  H   UNL A   1      43.224  27.712  28.047  1.00  0.00     0.167 HD
ATOM     45  C   UNL A   1      39.908  29.812  30.040  1.00  0.00     0.034 A 
ATOM     46  C   UNL A   1      45.744  27.541  26.837  1.00  0.00     0.034 A 
ATOM     47  C   UNL A   1      40.988  30.769  29.974  1.00  0.00     0.049 A 
ATOM     48  C   UNL A   1      45.619  28.947  27.368  1.00  0.00     0.074 A 
ATOM     49  C   UNL A   1      41.035  32.053  30.487  1.00  0.00     0.029 A 
ATOM     50  N   UNL A   1      42.212  30.546  29.354  1.00  0.00    -0.354 N 
ATOM     51  N   UNL A   1      44.611  29.509  27.996  1.00  0.00    -0.248 NA
ATOM     52  C   UNL A   1      46.773  29.835  27.172  1.00  0.00     0.031 C 
ATOM     53  C   UNL A   1      42.258  32.628  30.122  1.00  0.00     0.029 A 
ATOM     54  C   UNL A   1      43.009  31.676  29.451  1.00  0.00     0.049 A 
ATOM     55  H   UNL A   1      42.474  29.707  28.909  1.00  0.00     0.167 HD
ATOM     56  C   UNL A   1      45.028  30.802  28.302  1.00  0.00     0.074 A 
ATOM     57  C   UNL A   1      46.380  30.932  27.800  1.00  0.00     0.031 C 
ATOM     58  C   UNL A   1      44.358  31.790  28.949  1.00  0.00     0.034 A 
BRANCH  45  59
ATOM     59  C   UNL A   1      38.618  30.215  30.715  1.00  0.00     0.023 A 
ATOM     60  C   UNL A   1      37.598  30.890  30.021  1.00  0.00     0.031 A 
ATOM     61  C   UNL A   1      38.413  29.938  32.079  1.00  0.00     0.131 A 
ATOM     62  C   UNL A   1      36.453  31.326  30.707  1.00  0.00     0.055 A 
ATOM     63  C   UNL A   1      37.236  30.303  32.737  1.00  0.00     0.041 A 
ATOM     64  F   UNL A   1      39.359  29.316  32.800  1.00  0.00    -0.206 F 
ATOM     65  C   UNL A   1      36.254  31.014  32.055  1.00  0.00     0.022 A 
BRANCH  62  66
ATOM     66  S   UNL A   1      35.295  32.426  29.850  1.00  0.00     0.124 S 
ATOM     67  O   UNL A   1      34.813  31.565  28.773  1.00  0.00    -0.237 OA
ATOM     68  O   UNL A   1      34.328  32.743  30.894  1.00  0.00    -0.237 OA
ATOM     69  O   UNL A   1      36.135  33.541  29.418  1.00  0.00    -0.744 OA
ENDBRANCH  62  66
ENDBRANCH  45  59
BRANCH  46  70
ATOM     70  C   UNL A   1      46.978  27.108  26.119  1.00  0.00     0.023 A 
ATOM     71  C   UNL A   1      48.027  26.478  26.806  1.00  0.00     0.031 A 
ATOM     72  C   UNL A   1      47.154  27.374  24.748  1.00  0.00     0.131 A 
ATOM     73  C   UNL A   1      49.225  26.186  26.137  1.00  0.00     0.055 A 
ATOM     74  C   UNL A   1      48.323  27.023  24.072  1.00  0.00     0.041 A 
ATOM     75  F   UNL A   1      46.184  27.978  24.042  1.00  0.00    -0.206 F 
ATOM     76  C   UNL A   1      49.375  26.439  24.772  1.00  0.00     0.022 A 
BRANCH  73  77
ATOM     77  S   UNL A   1      50.629  25.571  27.106  1.00  0.00     0.124 S 
ATOM     78  O   UNL A   1      51.676  25.494  26.093  1.00  0.00    -0.237 OA
ATOM     79  O   UNL A   1      50.784  26.616  28.112  1.00  0.00    -0.237 OA
ATOM     80  O   UNL A   1      50.155  24.286  27.614  1.00  0.00    -0.744 OA
ENDBRANCH  73  77
ENDBRANCH  46  70
BRANCH  58  81
ATOM     81  C   UNL A   1      45.110  33.072  29.211  1.00  0.00     0.023 A 
ATOM     82  C   UNL A   1      45.075  34.155  28.315  1.00  0.00     0.031 A 
ATOM     83  C   UNL A   1      45.885  33.204  30.378  1.00  0.00     0.131 A 
ATOM     84  C   UNL A   1      45.843  35.300  28.575  1.00  0.00     0.055 A 
ATOM     85  C   UNL A   1      46.597  34.369  30.661  1.00  0.00     0.041 A 
ATOM     86  F   UNL A   1      45.957  32.199  31.266  1.00  0.00    -0.206 F 
ATOM     87  C   UNL A   1      46.590  35.421  29.750  1.00  0.00     0.022 A 
BRANCH  84  88
ATOM     88  S   UNL A   1      45.929  36.599  27.311  1.00  0.00     0.124 S 
ATOM     89  O   UNL A   1      46.423  35.863  26.152  1.00  0.00    -0.237 OA
ATOM     90  O   UNL A   1      44.544  37.052  27.235  1.00  0.00    -0.237 OA
ATOM     91  O   UNL A   1      46.866  37.568  27.876  1.00  0.00    -0.744 OA
ENDBRANCH  84  88
ENDBRANCH  58  81
ENDBRANCH  32  33
ENDBRANCH  25  27
ENDBRANCH  24  25
ENDBRANCH  23  24
ENDBRANCH   1  23
TORSDOF 17
ENDMDL
