MODEL 1
REMARK VINA RESULT:     -11.5      0.000      0.000
REMARK SMILES CC[C@H]1CC[C@](Cc2cccnc2)(C(=O)OCCOC(=O)c2ccc(-c3c4nc(c(-c5cc(S(=O)(=O)[O-])ccc5F)c5ccc([nH]5)c(-c5cc(S(=O)(=O)[O-])ccc5F)c5nc(c(-c6cc(S(=O)(=O)[O-])ccc6F)c6ccc3[nH]6)C=C5)C=C4)cc2)C1
REMARK SMILES IDX 18 1 17 2 16 3 14 4 15 5 6 6 3 7 4 8 85 9 5 10 2 11 1 12
REMARK SMILES IDX 7 13 8 14 9 15 13 16 10 17 12 18 11 19 19 20 20 21 21 22
REMARK SMILES IDX 22 23 23 24 84 25 24 26 83 27 25 28 26 29 27 30 77 31 28 32
REMARK SMILES IDX 82 33 76 34 78 35 29 36 81 37 75 38 74 39 30 41 62 42 42 43
REMARK SMILES IDX 61 44 43 45 46 46 60 47 79 48 44 49 45 50 59 52 80 53 47 54
REMARK SMILES IDX 31 55 32 56 40 57 33 58 39 59 41 60 38 61 34 62 35 63 36 64
REMARK SMILES IDX 37 65 63 66 64 67 72 68 65 69 71 70 73 71 70 72 66 73 67 74
REMARK SMILES IDX 68 75 69 76 48 77 49 78 57 79 50 80 56 81 58 82 55 83 51 84
REMARK SMILES IDX 52 85 53 86 54 87
REMARK H PARENT 78 40 46 51
REMARK Flexibility Score: inf
ROOT
ATOM      1  C   UNL A   1      31.700  29.672  25.899  1.00  0.00     0.275 C 
ENDROOT
BRANCH   1   2
ATOM      2  C   UNL A   1      31.029  29.705  24.528  1.00  0.00     0.274 C 
BRANCH   2   3
ATOM      3  O   UNL A   1      31.772  28.906  23.583  1.00  0.00    -0.462 OA
BRANCH   3   4
ATOM      4  C   UNL A   1      31.059  28.045  22.803  1.00  0.00     0.312 C 
ATOM      5  O   UNL A   1      30.209  28.408  21.998  1.00  0.00    -0.252 OA
BRANCH   4   6
ATOM      6  C   UNL A   1      31.381  26.559  23.101  1.00  0.00     0.072 C 
ATOM      7  C   UNL A   1      33.832  26.038  23.034  1.00  0.00    -0.010 C 
ATOM      8  C   UNL A   1      33.278  26.174  21.620  1.00  0.00     0.005 C 
ATOM      9  C   UNL A   1      32.674  26.466  23.953  1.00  0.00     0.022 C 
ATOM     10  C   UNL A   1      31.774  25.926  21.751  1.00  0.00     0.019 C 
BRANCH   7  11
ATOM     11  C   UNL A   1      34.429  24.663  23.398  1.00  0.00     0.000 C 
ATOM     12  C   UNL A   1      34.535  24.325  24.876  1.00  0.00     0.004 C 
ENDBRANCH   7  11
BRANCH   6  13
ATOM     13  C   UNL A   1      30.153  25.892  23.790  1.00  0.00     0.056 C 
BRANCH  13  14
ATOM     14  C   UNL A   1      30.403  24.795  24.795  1.00  0.00    -0.029 A 
ATOM     15  C   UNL A   1      30.914  23.550  24.411  1.00  0.00     0.007 A 
ATOM     16  C   UNL A   1      30.136  24.976  26.149  1.00  0.00     0.114 A 
ATOM     17  C   UNL A   1      31.066  22.540  25.354  1.00  0.00     0.020 A 
ATOM     18  N   UNL A   1      30.289  24.020  27.095  1.00  0.00    -0.264 NA
ATOM     19  C   UNL A   1      30.737  22.818  26.669  1.00  0.00     0.111 A 
ENDBRANCH  13  14
ENDBRANCH   6  13
ENDBRANCH   4   6
ENDBRANCH   3   4
ENDBRANCH   2   3
ENDBRANCH   1   2
BRANCH   1  20
ATOM     20  O   UNL A   1      32.912  30.442  25.845  1.00  0.00    -0.458 OA
BRANCH  20  21
ATOM     21  C   UNL A   1      33.157  31.245  26.903  1.00  0.00     0.338 C 
ATOM     22  O   UNL A   1      32.395  32.067  27.397  1.00  0.00    -0.246 OA
BRANCH  21  23
ATOM     23  C   UNL A   1      34.506  30.975  27.430  1.00  0.00     0.060 A 
ATOM     24  C   UNL A   1      34.900  29.665  27.691  1.00  0.00     0.016 A 
ATOM     25  C   UNL A   1      35.340  32.032  27.782  1.00  0.00     0.016 A 
ATOM     26  C   UNL A   1      36.062  29.413  28.419  1.00  0.00     0.010 A 
ATOM     27  C   UNL A   1      36.571  31.766  28.396  1.00  0.00     0.010 A 
ATOM     28  C   UNL A   1      36.929  30.456  28.767  1.00  0.00    -0.014 A 
BRANCH  28  29
ATOM     29  C   UNL A   1      38.172  30.203  29.560  1.00  0.00     0.031 A 
ATOM     30  C   UNL A   1      39.266  29.339  28.979  1.00  0.00     0.074 A 
ATOM     31  C   UNL A   1      38.342  30.730  30.791  1.00  0.00     0.049 A 
ATOM     32  N   UNL A   1      40.271  28.754  29.576  1.00  0.00    -0.248 NA
ATOM     33  C   UNL A   1      39.194  29.078  27.533  1.00  0.00     0.031 C 
ATOM     34  C   UNL A   1      37.414  31.641  31.466  1.00  0.00     0.029 A 
ATOM     35  N   UNL A   1      39.364  30.576  31.698  1.00  0.00    -0.354 N 
ATOM     36  C   UNL A   1      40.903  27.989  28.600  1.00  0.00     0.074 A 
ATOM     37  C   UNL A   1      40.164  28.190  27.371  1.00  0.00     0.031 C 
ATOM     38  C   UNL A   1      37.926  31.994  32.653  1.00  0.00     0.029 A 
ATOM     39  C   UNL A   1      39.158  31.249  32.881  1.00  0.00     0.049 A 
ATOM     40  H   UNL A   1      40.167  30.035  31.518  1.00  0.00     0.167 HD
ATOM     41  C   UNL A   1      41.992  27.188  28.723  1.00  0.00     0.034 A 
ATOM     42  C   UNL A   1      39.838  31.223  34.044  1.00  0.00     0.034 A 
ATOM     43  C   UNL A   1      42.758  27.056  29.941  1.00  0.00     0.049 A 
ATOM     44  C   UNL A   1      41.028  30.310  34.171  1.00  0.00     0.074 A 
ATOM     45  C   UNL A   1      43.882  26.283  30.177  1.00  0.00     0.029 A 
ATOM     46  N   UNL A   1      42.492  27.735  31.123  1.00  0.00    -0.354 N 
ATOM     47  N   UNL A   1      41.545  29.499  33.277  1.00  0.00    -0.248 NA
ATOM     48  C   UNL A   1      41.709  30.289  35.472  1.00  0.00     0.031 C 
ATOM     49  C   UNL A   1      44.266  26.457  31.511  1.00  0.00     0.029 A 
ATOM     50  C   UNL A   1      43.420  27.387  32.093  1.00  0.00     0.049 A 
ATOM     51  H   UNL A   1      41.752  28.371  31.254  1.00  0.00     0.167 HD
ATOM     52  C   UNL A   1      42.616  28.874  33.910  1.00  0.00     0.074 A 
ATOM     53  C   UNL A   1      42.685  29.421  35.249  1.00  0.00     0.031 C 
ATOM     54  C   UNL A   1      43.462  27.928  33.430  1.00  0.00     0.034 A 
BRANCH  41  55
ATOM     55  C   UNL A   1      42.371  26.339  27.532  1.00  0.00     0.023 A 
ATOM     56  C   UNL A   1      41.936  25.010  27.385  1.00  0.00     0.031 A 
ATOM     57  C   UNL A   1      43.221  26.865  26.541  1.00  0.00     0.131 A 
ATOM     58  C   UNL A   1      42.412  24.234  26.317  1.00  0.00     0.055 A 
ATOM     59  C   UNL A   1      43.626  26.112  25.438  1.00  0.00     0.041 A 
ATOM     60  F   UNL A   1      43.686  28.121  26.637  1.00  0.00    -0.206 F 
ATOM     61  C   UNL A   1      43.233  24.781  25.329  1.00  0.00     0.022 A 
BRANCH  58  62
ATOM     62  S   UNL A   1      42.058  22.454  26.315  1.00  0.00     0.124 S 
ATOM     63  O   UNL A   1      40.607  22.440  26.146  1.00  0.00    -0.237 OA
ATOM     64  O   UNL A   1      42.838  21.978  25.179  1.00  0.00    -0.237 OA
ATOM     65  O   UNL A   1      42.530  22.009  27.626  1.00  0.00    -0.744 OA
ENDBRANCH  58  62
ENDBRANCH  41  55
BRANCH  42  66
ATOM     66  C   UNL A   1      39.356  32.012  35.215  1.00  0.00     0.023 A 
ATOM     67  C   UNL A   1      39.798  33.325  35.437  1.00  0.00     0.031 A 
ATOM     68  C   UNL A   1      38.465  31.449  36.147  1.00  0.00     0.131 A 
ATOM     69  C   UNL A   1      39.369  34.023  36.578  1.00  0.00     0.055 A 
ATOM     70  C   UNL A   1      38.000  32.164  37.250  1.00  0.00     0.041 A 
ATOM     71  F   UNL A   1      38.016  30.193  35.985  1.00  0.00    -0.206 F 
ATOM     72  C   UNL A   1      38.460  33.458  37.476  1.00  0.00     0.022 A 
BRANCH  69  73
ATOM     73  S   UNL A   1      40.071  35.661  36.912  1.00  0.00     0.124 S 
ATOM     74  O   UNL A   1      39.427  36.010  38.174  1.00  0.00    -0.237 OA
ATOM     75  O   UNL A   1      41.499  35.371  36.980  1.00  0.00    -0.237 OA
ATOM     76  O   UNL A   1      39.653  36.452  35.757  1.00  0.00    -0.744 OA
ENDBRANCH  69  73
ENDBRANCH  42  66
BRANCH  54  77
ATOM     77  C   UNL A   1      44.550  27.461  34.361  1.00  0.00     0.023 A 
ATOM     78  C   UNL A   1      44.428  26.270  35.097  1.00  0.00     0.031 A 
ATOM     79  C   UNL A   1      45.710  28.236  34.538  1.00  0.00     0.131 A 
ATOM     80  C   UNL A   1      45.425  25.913  36.017  1.00  0.00     0.055 A 
ATOM     81  C   UNL A   1      46.722  27.851  35.418  1.00  0.00     0.041 A 
ATOM     82  F   UNL A   1      45.874  29.384  33.860  1.00  0.00    -0.206 F 
ATOM     83  C   UNL A   1      46.577  26.690  36.173  1.00  0.00     0.022 A 
BRANCH  80  84
ATOM     84  S   UNL A   1      45.158  24.463  37.074  1.00  0.00     0.124 S 
ATOM     85  O   UNL A   1      44.547  23.518  36.144  1.00  0.00    -0.237 OA
ATOM     86  O   UNL A   1      46.513  24.142  37.511  1.00  0.00    -0.237 OA
ATOM     87  O   UNL A   1      44.272  24.962  38.124  1.00  0.00    -0.744 OA
ENDBRANCH  80  84
ENDBRANCH  54  77
ENDBRANCH  28  29
ENDBRANCH  21  23
ENDBRANCH  20  21
ENDBRANCH   1  20
TORSDOF 17
ENDMDL
MODEL 2
REMARK VINA RESULT:     -11.4      4.823      9.908
REMARK SMILES CC[C@H]1CC[C@](Cc2cccnc2)(C(=O)OCCOC(=O)c2ccc(-c3c4nc(c(-c5cc(S(=O)(=O)[O-])ccc5F)c5ccc([nH]5)c(-c5cc(S(=O)(=O)[O-])ccc5F)c5nc(c(-c6cc(S(=O)(=O)[O-])ccc6F)c6ccc3[nH]6)C=C5)C=C4)cc2)C1
REMARK SMILES IDX 18 1 17 2 16 3 14 4 15 5 6 6 3 7 4 8 85 9 5 10 2 11 1 12
REMARK SMILES IDX 7 13 8 14 9 15 13 16 10 17 12 18 11 19 19 20 20 21 21 22
REMARK SMILES IDX 22 23 23 24 84 25 24 26 83 27 25 28 26 29 27 30 77 31 28 32
REMARK SMILES IDX 82 33 76 34 78 35 29 36 81 37 75 38 74 39 30 41 62 42 42 43
REMARK SMILES IDX 61 44 43 45 46 46 60 47 79 48 44 49 45 50 59 52 80 53 47 54
REMARK SMILES IDX 31 55 32 56 40 57 33 58 39 59 41 60 38 61 34 62 35 63 36 64
REMARK SMILES IDX 37 65 63 66 64 67 72 68 65 69 71 70 73 71 70 72 66 73 67 74
REMARK SMILES IDX 68 75 69 76 48 77 49 78 57 79 50 80 56 81 58 82 55 83 51 84
REMARK SMILES IDX 52 85 53 86 54 87
REMARK H PARENT 78 40 46 51
REMARK Flexibility Score: inf
ROOT
ATOM      1  C   UNL A   1      35.955  20.693  25.101  1.00  0.00     0.275 C 
ENDROOT
BRANCH   1   2
ATOM      2  C   UNL A   1      34.813  21.180  25.988  1.00  0.00     0.274 C 
BRANCH   2   3
ATOM      3  O   UNL A   1      34.809  22.621  26.062  1.00  0.00    -0.462 OA
BRANCH   3   4
ATOM      4  C   UNL A   1      33.613  23.249  25.882  1.00  0.00     0.312 C 
ATOM      5  O   UNL A   1      32.553  22.824  26.327  1.00  0.00    -0.252 OA
BRANCH   4   6
ATOM      6  C   UNL A   1      33.726  24.510  24.989  1.00  0.00     0.072 C 
ATOM      7  C   UNL A   1      32.708  24.215  22.716  1.00  0.00    -0.010 C 
ATOM      8  C   UNL A   1      34.058  23.509  22.791  1.00  0.00     0.005 C 
ATOM      9  C   UNL A   1      32.427  24.678  24.157  1.00  0.00     0.022 C 
ATOM     10  C   UNL A   1      34.808  24.193  23.936  1.00  0.00     0.019 C 
BRANCH   7  11
ATOM     11  C   UNL A   1      32.591  25.345  21.674  1.00  0.00     0.000 C 
ATOM     12  C   UNL A   1      31.552  26.423  21.936  1.00  0.00     0.004 C 
ENDBRANCH   7  11
BRANCH   6  13
ATOM     13  C   UNL A   1      34.040  25.749  25.879  1.00  0.00     0.056 C 
BRANCH  13  14
ATOM     14  C   UNL A   1      33.387  27.064  25.534  1.00  0.00    -0.029 A 
ATOM     15  C   UNL A   1      32.325  27.577  26.287  1.00  0.00     0.007 A 
ATOM     16  C   UNL A   1      33.815  27.826  24.450  1.00  0.00     0.114 A 
ATOM     17  C   UNL A   1      31.703  28.758  25.899  1.00  0.00     0.020 A 
ATOM     18  N   UNL A   1      33.243  28.986  24.055  1.00  0.00    -0.264 NA
ATOM     19  C   UNL A   1      32.188  29.416  24.782  1.00  0.00     0.111 A 
ENDBRANCH  13  14
ENDBRANCH   6  13
ENDBRANCH   4   6
ENDBRANCH   3   4
ENDBRANCH   2   3
ENDBRANCH   1   2
BRANCH   1  20
ATOM     20  O   UNL A   1      37.000  21.680  25.100  1.00  0.00    -0.458 OA
BRANCH  20  21
ATOM     21  C   UNL A   1      38.199  21.280  25.574  1.00  0.00     0.338 C 
ATOM     22  O   UNL A   1      38.710  20.174  25.451  1.00  0.00    -0.246 OA
BRANCH  21  23
ATOM     23  C   UNL A   1      38.859  22.403  26.265  1.00  0.00     0.060 A 
ATOM     24  C   UNL A   1      38.380  23.699  26.098  1.00  0.00     0.016 A 
ATOM     25  C   UNL A   1      40.032  22.185  26.983  1.00  0.00     0.016 A 
ATOM     26  C   UNL A   1      39.133  24.788  26.532  1.00  0.00     0.010 A 
ATOM     27  C   UNL A   1      40.718  23.276  27.532  1.00  0.00     0.010 A 
ATOM     28  C   UNL A   1      40.305  24.597  27.275  1.00  0.00    -0.014 A 
BRANCH  28  29
ATOM     29  C   UNL A   1      41.132  25.756  27.735  1.00  0.00     0.031 A 
ATOM     30  C   UNL A   1      40.507  26.821  28.604  1.00  0.00     0.074 A 
ATOM     31  C   UNL A   1      42.432  25.874  27.391  1.00  0.00     0.049 A 
ATOM     32  N   UNL A   1      40.928  28.030  28.872  1.00  0.00    -0.248 NA
ATOM     33  C   UNL A   1      39.219  26.483  29.228  1.00  0.00     0.031 C 
ATOM     34  C   UNL A   1      43.203  24.899  26.617  1.00  0.00     0.029 A 
ATOM     35  N   UNL A   1      43.340  26.873  27.652  1.00  0.00    -0.354 N 
ATOM     36  C   UNL A   1      39.920  28.627  29.625  1.00  0.00     0.074 A 
ATOM     37  C   UNL A   1      38.870  27.641  29.770  1.00  0.00     0.031 C 
ATOM     38  C   UNL A   1      44.469  25.325  26.503  1.00  0.00     0.029 A 
ATOM     39  C   UNL A   1      44.577  26.655  27.090  1.00  0.00     0.049 A 
ATOM     40  H   UNL A   1      43.125  27.670  28.190  1.00  0.00     0.167 HD
ATOM     41  C   UNL A   1      39.875  29.884  30.137  1.00  0.00     0.034 A 
ATOM     42  C   UNL A   1      45.659  27.454  26.992  1.00  0.00     0.034 A 
ATOM     43  C   UNL A   1      40.964  30.828  30.041  1.00  0.00     0.049 A 
ATOM     44  C   UNL A   1      45.582  28.852  27.543  1.00  0.00     0.074 A 
ATOM     45  C   UNL A   1      41.032  32.122  30.530  1.00  0.00     0.029 A 
ATOM     46  N   UNL A   1      42.187  30.572  29.435  1.00  0.00    -0.354 N 
ATOM     47  N   UNL A   1      44.580  29.447  28.148  1.00  0.00    -0.248 NA
ATOM     48  C   UNL A   1      46.774  29.694  27.375  1.00  0.00     0.031 C 
ATOM     49  C   UNL A   1      42.274  32.662  30.178  1.00  0.00     0.029 A 
ATOM     50  C   UNL A   1      43.008  31.686  29.525  1.00  0.00     0.049 A 
ATOM     51  H   UNL A   1      42.435  29.722  29.003  1.00  0.00     0.167 HD
ATOM     52  C   UNL A   1      45.025  30.735  28.434  1.00  0.00     0.074 A 
ATOM     53  C   UNL A   1      46.391  30.820  27.961  1.00  0.00     0.031 C 
ATOM     54  C   UNL A   1      44.361  31.759  29.029  1.00  0.00     0.034 A 
BRANCH  41  55
ATOM     55  C   UNL A   1      38.582  30.328  30.778  1.00  0.00     0.023 A 
ATOM     56  C   UNL A   1      37.560  30.964  30.052  1.00  0.00     0.031 A 
ATOM     57  C   UNL A   1      38.389  30.145  32.160  1.00  0.00     0.131 A 
ATOM     58  C   UNL A   1      36.429  31.457  30.722  1.00  0.00     0.055 A 
ATOM     59  C   UNL A   1      37.225  30.566  32.806  1.00  0.00     0.041 A 
ATOM     60  F   UNL A   1      39.337  29.562  32.912  1.00  0.00    -0.206 F 
ATOM     61  C   UNL A   1      36.243  31.242  32.088  1.00  0.00     0.022 A 
BRANCH  58  62
ATOM     62  S   UNL A   1      35.273  32.514  29.806  1.00  0.00     0.124 S 
ATOM     63  O   UNL A   1      36.163  33.555  29.297  1.00  0.00    -0.237 OA
ATOM     64  O   UNL A   1      34.727  31.598  28.812  1.00  0.00    -0.237 OA
ATOM     65  O   UNL A   1      34.329  32.958  30.831  1.00  0.00    -0.744 OA
ENDBRANCH  58  62
ENDBRANCH  41  55
BRANCH  42  66
ATOM     66  C   UNL A   1      46.874  26.990  26.261  1.00  0.00     0.023 A 
ATOM     67  C   UNL A   1      47.936  26.371  26.938  1.00  0.00     0.031 A 
ATOM     68  C   UNL A   1      46.999  27.185  24.874  1.00  0.00     0.131 A 
ATOM     69  C   UNL A   1      49.090  25.994  26.230  1.00  0.00     0.055 A 
ATOM     70  C   UNL A   1      48.123  26.760  24.166  1.00  0.00     0.041 A 
ATOM     71  F   UNL A   1      46.013  27.776  24.179  1.00  0.00    -0.206 F 
ATOM     72  C   UNL A   1      49.183  26.169  24.847  1.00  0.00     0.022 A 
BRANCH  69  73
ATOM     73  S   UNL A   1      50.502  25.333  27.156  1.00  0.00     0.124 S 
ATOM     74  O   UNL A   1      50.911  26.492  27.942  1.00  0.00    -0.237 OA
ATOM     75  O   UNL A   1      49.890  24.237  27.900  1.00  0.00    -0.237 OA
ATOM     76  O   UNL A   1      51.435  24.927  26.108  1.00  0.00    -0.744 OA
ENDBRANCH  69  73
ENDBRANCH  42  66
BRANCH  54  77
ATOM     77  C   UNL A   1      45.130  33.039  29.224  1.00  0.00     0.023 A 
ATOM     78  C   UNL A   1      45.136  34.049  28.247  1.00  0.00     0.031 A 
ATOM     79  C   UNL A   1      45.893  33.235  30.388  1.00  0.00     0.131 A 
ATOM     80  C   UNL A   1      45.933  35.190  28.428  1.00  0.00     0.055 A 
ATOM     81  C   UNL A   1      46.645  34.394  30.586  1.00  0.00     0.041 A 
ATOM     82  F   UNL A   1      45.923  32.299  31.351  1.00  0.00    -0.206 F 
ATOM     83  C   UNL A   1      46.678  35.374  29.597  1.00  0.00     0.022 A 
BRANCH  80  84
ATOM     84  S   UNL A   1      46.053  36.394  27.077  1.00  0.00     0.124 S 
ATOM     85  O   UNL A   1      44.794  37.120  27.204  1.00  0.00    -0.237 OA
ATOM     86  O   UNL A   1      47.258  37.138  27.428  1.00  0.00    -0.237 OA
ATOM     87  O   UNL A   1      46.169  35.559  25.882  1.00  0.00    -0.744 OA
ENDBRANCH  80  84
ENDBRANCH  54  77
ENDBRANCH  28  29
ENDBRANCH  21  23
ENDBRANCH  20  21
ENDBRANCH   1  20
TORSDOF 17
ENDMDL
MODEL 3
REMARK VINA RESULT:     -11.2      1.714      2.627
REMARK SMILES CC[C@H]1CC[C@](Cc2cccnc2)(C(=O)OCCOC(=O)c2ccc(-c3c4nc(c(-c5cc(S(=O)(=O)[O-])ccc5F)c5ccc([nH]5)c(-c5cc(S(=O)(=O)[O-])ccc5F)c5nc(c(-c6cc(S(=O)(=O)[O-])ccc6F)c6ccc3[nH]6)C=C5)C=C4)cc2)C1
REMARK SMILES IDX 18 1 17 2 16 3 14 4 15 5 6 6 3 7 4 8 85 9 5 10 2 11 1 12
REMARK SMILES IDX 7 13 8 14 9 15 13 16 10 17 12 18 11 19 19 20 20 21 21 22
REMARK SMILES IDX 22 23 23 24 84 25 24 26 83 27 25 28 26 29 27 30 77 31 28 32
REMARK SMILES IDX 82 33 76 34 78 35 29 36 81 37 75 38 74 39 30 41 62 42 42 43
REMARK SMILES IDX 61 44 43 45 46 46 60 47 79 48 44 49 45 50 59 52 80 53 47 54
REMARK SMILES IDX 31 55 32 56 40 57 33 58 39 59 41 60 38 61 34 62 35 63 36 64
REMARK SMILES IDX 37 65 63 66 64 67 72 68 65 69 71 70 73 71 70 72 66 73 67 74
REMARK SMILES IDX 68 75 69 76 48 77 49 78 57 79 50 80 56 81 58 82 55 83 51 84
REMARK SMILES IDX 52 85 53 86 54 87
REMARK H PARENT 78 40 46 51
REMARK Flexibility Score: inf
ROOT
ATOM      1  C   UNL A   1      32.230  29.874  25.355  1.00  0.00     0.275 C 
ENDROOT
BRANCH   1   2
ATOM      2  C   UNL A   1      31.419  28.603  25.119  1.00  0.00     0.274 C 
BRANCH   2   3
ATOM      3  O   UNL A   1      32.178  27.440  25.509  1.00  0.00    -0.462 OA
BRANCH   3   4
ATOM      4  C   UNL A   1      32.369  26.477  24.562  1.00  0.00     0.312 C 
ATOM      5  O   UNL A   1      32.116  26.637  23.374  1.00  0.00    -0.252 OA
BRANCH   4   6
ATOM      6  C   UNL A   1      32.862  25.136  25.162  1.00  0.00     0.072 C 
ATOM      7  C   UNL A   1      31.177  23.289  24.993  1.00  0.00    -0.010 C 
ATOM      8  C   UNL A   1      30.801  24.251  26.115  1.00  0.00     0.005 C 
ATOM      9  C   UNL A   1      32.367  23.957  24.284  1.00  0.00     0.022 C 
ATOM     10  C   UNL A   1      32.104  24.958  26.493  1.00  0.00     0.019 C 
BRANCH   7  11
ATOM     11  C   UNL A   1      31.454  21.831  25.417  1.00  0.00     0.000 C 
ATOM     12  C   UNL A   1      32.279  20.981  24.465  1.00  0.00     0.004 C 
ENDBRANCH   7  11
BRANCH   6  13
ATOM     13  C   UNL A   1      34.413  25.174  25.307  1.00  0.00     0.056 C 
BRANCH  13  14
ATOM     14  C   UNL A   1      35.177  23.879  25.182  1.00  0.00    -0.029 A 
ATOM     15  C   UNL A   1      35.946  23.587  24.050  1.00  0.00     0.007 A 
ATOM     16  C   UNL A   1      35.150  22.919  26.190  1.00  0.00     0.114 A 
ATOM     17  C   UNL A   1      36.580  22.355  23.939  1.00  0.00     0.020 A 
ATOM     18  N   UNL A   1      35.769  21.718  26.120  1.00  0.00    -0.264 NA
ATOM     19  C   UNL A   1      36.458  21.460  24.987  1.00  0.00     0.111 A 
ENDBRANCH  13  14
ENDBRANCH   6  13
ENDBRANCH   4   6
ENDBRANCH   3   4
ENDBRANCH   2   3
ENDBRANCH   1   2
BRANCH   1  20
ATOM     20  O   UNL A   1      32.392  30.069  26.770  1.00  0.00    -0.458 OA
BRANCH  20  21
ATOM     21  C   UNL A   1      32.982  31.223  27.150  1.00  0.00     0.338 C 
ATOM     22  O   UNL A   1      32.489  32.344  27.134  1.00  0.00    -0.246 OA
BRANCH  21  23
ATOM     23  C   UNL A   1      34.346  30.947  27.635  1.00  0.00     0.060 A 
ATOM     24  C   UNL A   1      34.696  29.658  28.027  1.00  0.00     0.016 A 
ATOM     25  C   UNL A   1      35.244  31.995  27.819  1.00  0.00     0.016 A 
ATOM     26  C   UNL A   1      35.885  29.432  28.718  1.00  0.00     0.010 A 
ATOM     27  C   UNL A   1      36.495  31.739  28.396  1.00  0.00     0.010 A 
ATOM     28  C   UNL A   1      36.815  30.464  28.898  1.00  0.00    -0.014 A 
BRANCH  28  29
ATOM     29  C   UNL A   1      38.089  30.240  29.651  1.00  0.00     0.031 A 
ATOM     30  C   UNL A   1      39.158  29.351  29.062  1.00  0.00     0.074 A 
ATOM     31  C   UNL A   1      38.308  30.816  30.851  1.00  0.00     0.049 A 
ATOM     32  N   UNL A   1      40.187  28.789  29.642  1.00  0.00    -0.248 NA
ATOM     33  C   UNL A   1      39.029  29.033  27.631  1.00  0.00     0.031 C 
ATOM     34  C   UNL A   1      37.407  31.755  31.526  1.00  0.00     0.029 A 
ATOM     35  N   UNL A   1      39.365  30.697  31.723  1.00  0.00    -0.354 N 
ATOM     36  C   UNL A   1      40.780  27.985  28.672  1.00  0.00     0.074 A 
ATOM     37  C   UNL A   1      39.992  28.137  27.467  1.00  0.00     0.031 C 
ATOM     38  C   UNL A   1      37.966  32.155  32.677  1.00  0.00     0.029 A 
ATOM     39  C   UNL A   1      39.205  31.417  32.885  1.00  0.00     0.049 A 
ATOM     40  H   UNL A   1      40.160  30.148  31.533  1.00  0.00     0.167 HD
ATOM     41  C   UNL A   1      41.872  27.187  28.784  1.00  0.00     0.034 A 
ATOM     42  C   UNL A   1      39.931  31.436  34.021  1.00  0.00     0.034 A 
ATOM     43  C   UNL A   1      42.686  27.104  29.975  1.00  0.00     0.049 A 
ATOM     44  C   UNL A   1      41.125  30.527  34.137  1.00  0.00     0.074 A 
ATOM     45  C   UNL A   1      43.818  26.338  30.197  1.00  0.00     0.029 A 
ATOM     46  N   UNL A   1      42.467  27.830  31.139  1.00  0.00    -0.354 N 
ATOM     47  N   UNL A   1      41.607  29.681  33.256  1.00  0.00    -0.248 NA
ATOM     48  C   UNL A   1      41.858  30.558  35.409  1.00  0.00     0.031 C 
ATOM     49  C   UNL A   1      44.255  26.565  31.507  1.00  0.00     0.029 A 
ATOM     50  C   UNL A   1      43.433  27.519  32.084  1.00  0.00     0.049 A 
ATOM     51  H   UNL A   1      41.733  28.471  31.273  1.00  0.00     0.167 HD
ATOM     52  C   UNL A   1      42.702  29.080  33.871  1.00  0.00     0.074 A 
ATOM     53  C   UNL A   1      42.824  29.680  35.183  1.00  0.00     0.031 C 
ATOM     54  C   UNL A   1      43.528  28.113  33.396  1.00  0.00     0.034 A 
BRANCH  41  55
ATOM     55  C   UNL A   1      42.203  26.291  27.615  1.00  0.00     0.023 A 
ATOM     56  C   UNL A   1      41.737  24.968  27.523  1.00  0.00     0.031 A 
ATOM     57  C   UNL A   1      43.040  26.764  26.586  1.00  0.00     0.131 A 
ATOM     58  C   UNL A   1      42.169  24.145  26.471  1.00  0.00     0.055 A 
ATOM     59  C   UNL A   1      43.401  25.965  25.500  1.00  0.00     0.041 A 
ATOM     60  F   UNL A   1      43.533  28.013  26.627  1.00  0.00    -0.206 F 
ATOM     61  C   UNL A   1      42.978  24.641  25.446  1.00  0.00     0.022 A 
BRANCH  58  62
ATOM     62  S   UNL A   1      41.779  22.375  26.539  1.00  0.00     0.124 S 
ATOM     63  O   UNL A   1      42.351  21.995  27.829  1.00  0.00    -0.237 OA
ATOM     64  O   UNL A   1      40.323  22.369  26.460  1.00  0.00    -0.237 OA
ATOM     65  O   UNL A   1      42.469  21.825  25.373  1.00  0.00    -0.744 OA
ENDBRANCH  58  62
ENDBRANCH  41  55
BRANCH  42  66
ATOM     66  C   UNL A   1      39.497  32.273  35.177  1.00  0.00     0.023 A 
ATOM     67  C   UNL A   1      38.770  31.718  36.242  1.00  0.00     0.031 A 
ATOM     68  C   UNL A   1      39.782  33.649  35.219  1.00  0.00     0.131 A 
ATOM     69  C   UNL A   1      38.328  32.543  37.290  1.00  0.00     0.055 A 
ATOM     70  C   UNL A   1      39.389  34.454  36.288  1.00  0.00     0.041 A 
ATOM     71  F   UNL A   1      40.471  34.231  34.223  1.00  0.00    -0.206 F 
ATOM     72  C   UNL A   1      38.647  33.902  37.328  1.00  0.00     0.022 A 
BRANCH  69  73
ATOM     73  S   UNL A   1      37.266  31.825  38.573  1.00  0.00     0.124 S 
ATOM     74  O   UNL A   1      38.111  31.942  39.757  1.00  0.00    -0.237 OA
ATOM     75  O   UNL A   1      36.101  32.702  38.528  1.00  0.00    -0.237 OA
ATOM     76  O   UNL A   1      37.036  30.462  38.101  1.00  0.00    -0.744 OA
ENDBRANCH  69  73
ENDBRANCH  42  66
BRANCH  54  77
ATOM     77  C   UNL A   1      44.652  27.682  34.301  1.00  0.00     0.023 A 
ATOM     78  C   UNL A   1      44.500  26.618  35.207  1.00  0.00     0.031 A 
ATOM     79  C   UNL A   1      45.880  28.367  34.278  1.00  0.00     0.131 A 
ATOM     80  C   UNL A   1      45.542  26.303  36.093  1.00  0.00     0.055 A 
ATOM     81  C   UNL A   1      46.930  28.016  35.127  1.00  0.00     0.041 A 
ATOM     82  F   UNL A   1      46.075  29.392  33.433  1.00  0.00    -0.206 F 
ATOM     83  C   UNL A   1      46.760  26.987  36.050  1.00  0.00     0.022 A 
BRANCH  80  84
ATOM     84  S   UNL A   1      45.255  25.040  37.362  1.00  0.00     0.124 S 
ATOM     85  O   UNL A   1      45.727  25.711  38.570  1.00  0.00    -0.237 OA
ATOM     86  O   UNL A   1      43.813  24.829  37.272  1.00  0.00    -0.237 OA
ATOM     87  O   UNL A   1      46.073  23.913  36.918  1.00  0.00    -0.744 OA
ENDBRANCH  80  84
ENDBRANCH  54  77
ENDBRANCH  28  29
ENDBRANCH  21  23
ENDBRANCH  20  21
ENDBRANCH   1  20
TORSDOF 17
ENDMDL
