MODEL 1
REMARK VINA RESULT:     -12.5      0.000      0.000
REMARK SMILES O=C(OCCOC(=O)[C@@H]1[C@H](C(=O)Nc2ccc(Cn3cncn3)cc2)[C@@H]2C=C[C@H]1CC2)c1ccc(-c2c3nc(c(-c4cc(S(=O)(=O)[O-])ccc4F)c4ccc([nH]4)c(-c4cc(S(=O)(=O)[O-])ccc4F)c4nc(c(-c5cc(S(=O)(=O)[O-])ccc5F)c5ccc2[nH]5)C=C4)C=C3)cc1
REMARK SMILES IDX 5 1 4 2 3 3 2 4 1 5 32 6 33 7 94 8 34 9 93 10 35 11 36 12
REMARK SMILES IDX 37 13 87 14 38 15 92 16 86 17 88 18 39 19 91 20 85 21 84 22
REMARK SMILES IDX 40 24 72 25 52 26 71 27 53 28 56 29 70 30 89 31 54 32 55 33
REMARK SMILES IDX 69 35 90 36 57 37 41 38 42 39 50 40 43 41 49 42 51 43 48 44
REMARK SMILES IDX 44 45 45 46 46 47 47 48 73 49 74 50 82 51 75 52 81 53 83 54
REMARK SMILES IDX 80 55 76 56 77 57 78 58 79 59 58 60 59 61 67 62 60 63 66 64
REMARK SMILES IDX 68 65 65 66 61 67 62 68 63 69 64 70 6 71 7 72 8 73 9 74
REMARK SMILES IDX 10 75 29 76 26 77 28 78 30 79 27 80 31 81 11 82 12 83 13 84
REMARK SMILES IDX 14 86 15 87 25 88 16 89 24 90 17 91 18 92 19 93 20 94 23 95
REMARK SMILES IDX 21 96 22 97
REMARK H PARENT 88 23 56 34 13 85
REMARK Flexibility Score: inf
ROOT
ATOM      1  C   UNL A   1      34.153  29.136  26.106  1.00  0.00     0.274 C 
ENDROOT
BRANCH   1   2
ATOM      2  C   UNL A   1      34.663  29.994  27.263  1.00  0.00     0.275 C 
BRANCH   2   3
ATOM      3  O   UNL A   1      35.441  29.299  28.251  1.00  0.00    -0.458 OA
BRANCH   3   4
ATOM      4  C   UNL A   1      36.540  29.938  28.698  1.00  0.00     0.338 C 
ATOM      5  O   UNL A   1      36.514  31.027  29.267  1.00  0.00    -0.246 OA
BRANCH   4   6
ATOM      6  C   UNL A   1      37.771  29.156  28.474  1.00  0.00     0.060 A 
ATOM      7  C   UNL A   1      38.189  28.157  29.368  1.00  0.00     0.016 A 
ATOM      8  C   UNL A   1      38.535  29.478  27.347  1.00  0.00     0.016 A 
ATOM      9  C   UNL A   1      39.440  27.595  29.218  1.00  0.00     0.010 A 
ATOM     10  C   UNL A   1      39.794  28.930  27.208  1.00  0.00     0.010 A 
ATOM     11  C   UNL A   1      40.258  28.053  28.188  1.00  0.00    -0.014 A 
BRANCH  11  12
ATOM     12  C   UNL A   1      41.635  27.599  28.160  1.00  0.00     0.031 A 
ATOM     13  C   UNL A   1      41.842  26.327  27.432  1.00  0.00     0.074 A 
ATOM     14  C   UNL A   1      42.621  28.358  28.678  1.00  0.00     0.049 A 
ATOM     15  N   UNL A   1      42.154  25.174  27.922  1.00  0.00    -0.248 NA
ATOM     16  C   UNL A   1      41.477  26.284  26.007  1.00  0.00     0.031 C 
ATOM     17  C   UNL A   1      42.525  29.728  29.189  1.00  0.00     0.029 A 
ATOM     18  N   UNL A   1      43.953  28.103  28.759  1.00  0.00    -0.354 N 
ATOM     19  C   UNL A   1      42.305  24.328  26.828  1.00  0.00     0.074 A 
ATOM     20  C   UNL A   1      41.648  24.989  25.736  1.00  0.00     0.031 C 
ATOM     21  C   UNL A   1      43.766  30.257  29.288  1.00  0.00     0.029 A 
ATOM     22  C   UNL A   1      44.745  29.230  28.970  1.00  0.00     0.049 A 
ATOM     23  H   UNL A   1      44.328  27.197  28.677  1.00  0.00     0.167 HD
ATOM     24  C   UNL A   1      43.212  23.310  26.855  1.00  0.00     0.034 A 
ATOM     25  C   UNL A   1      46.096  29.322  28.811  1.00  0.00     0.034 A 
ATOM     26  C   UNL A   1      43.593  23.004  28.222  1.00  0.00     0.049 A 
ATOM     27  C   UNL A   1      46.626  27.935  28.896  1.00  0.00     0.074 A 
ATOM     28  C   UNL A   1      42.897  22.644  29.362  1.00  0.00     0.029 A 
ATOM     29  N   UNL A   1      44.828  23.425  28.673  1.00  0.00    -0.354 N 
ATOM     30  N   UNL A   1      46.564  27.219  29.988  1.00  0.00    -0.248 NA
ATOM     31  C   UNL A   1      46.726  27.167  27.661  1.00  0.00     0.031 C 
ATOM     32  C   UNL A   1      43.533  23.359  30.421  1.00  0.00     0.029 A 
ATOM     33  C   UNL A   1      44.637  24.029  29.891  1.00  0.00     0.049 A 
ATOM     34  H   UNL A   1      45.688  23.315  28.207  1.00  0.00     0.167 HD
ATOM     35  C   UNL A   1      46.178  25.954  29.568  1.00  0.00     0.074 A 
ATOM     36  C   UNL A   1      46.378  25.959  28.118  1.00  0.00     0.031 C 
ATOM     37  C   UNL A   1      45.449  25.126  30.379  1.00  0.00     0.034 A 
BRANCH  24  38
ATOM     38  C   UNL A   1      44.091  22.922  25.674  1.00  0.00     0.023 A 
ATOM     39  C   UNL A   1      44.176  21.545  25.397  1.00  0.00     0.031 A 
ATOM     40  C   UNL A   1      45.078  23.722  25.056  1.00  0.00     0.131 A 
ATOM     41  C   UNL A   1      45.302  21.003  24.761  1.00  0.00     0.055 A 
ATOM     42  C   UNL A   1      46.163  23.184  24.355  1.00  0.00     0.041 A 
ATOM     43  F   UNL A   1      45.099  25.055  25.136  1.00  0.00    -0.206 F 
ATOM     44  C   UNL A   1      46.310  21.812  24.251  1.00  0.00     0.022 A 
BRANCH  41  45
ATOM     45  S   UNL A   1      45.527  19.210  24.844  1.00  0.00     0.124 S 
ATOM     46  O   UNL A   1      44.434  18.836  25.735  1.00  0.00    -0.237 OA
ATOM     47  O   UNL A   1      45.378  18.828  23.444  1.00  0.00    -0.237 OA
ATOM     48  O   UNL A   1      46.870  19.064  25.395  1.00  0.00    -0.744 OA
ENDBRANCH  41  45
ENDBRANCH  24  38
BRANCH  25  49
ATOM     49  C   UNL A   1      46.844  30.474  28.217  1.00  0.00     0.023 A 
ATOM     50  C   UNL A   1      46.239  31.484  27.433  1.00  0.00     0.031 A 
ATOM     51  C   UNL A   1      48.181  30.712  28.618  1.00  0.00     0.131 A 
ATOM     52  C   UNL A   1      46.968  32.649  27.079  1.00  0.00     0.055 A 
ATOM     53  C   UNL A   1      48.894  31.860  28.263  1.00  0.00     0.041 A 
ATOM     54  F   UNL A   1      48.821  29.870  29.444  1.00  0.00    -0.206 F 
ATOM     55  C   UNL A   1      48.287  32.839  27.497  1.00  0.00     0.022 A 
BRANCH  52  56
ATOM     56  S   UNL A   1      46.188  33.995  26.121  1.00  0.00     0.124 S 
ATOM     57  O   UNL A   1      45.192  33.279  25.333  1.00  0.00    -0.237 OA
ATOM     58  O   UNL A   1      45.679  34.875  27.168  1.00  0.00    -0.237 OA
ATOM     59  O   UNL A   1      47.297  34.551  25.344  1.00  0.00    -0.744 OA
ENDBRANCH  52  56
ENDBRANCH  25  49
BRANCH  37  60
ATOM     60  C   UNL A   1      45.307  25.478  31.844  1.00  0.00     0.023 A 
ATOM     61  C   UNL A   1      46.235  25.140  32.856  1.00  0.00     0.031 A 
ATOM     62  C   UNL A   1      44.233  26.315  32.197  1.00  0.00     0.131 A 
ATOM     63  C   UNL A   1      46.058  25.635  34.165  1.00  0.00     0.055 A 
ATOM     64  C   UNL A   1      44.072  26.816  33.486  1.00  0.00     0.041 A 
ATOM     65  F   UNL A   1      43.336  26.697  31.271  1.00  0.00    -0.206 F 
ATOM     66  C   UNL A   1      44.983  26.472  34.477  1.00  0.00     0.022 A 
BRANCH  63  67
ATOM     67  S   UNL A   1      47.220  25.190  35.497  1.00  0.00     0.124 S 
ATOM     68  O   UNL A   1      46.402  25.263  36.703  1.00  0.00    -0.237 OA
ATOM     69  O   UNL A   1      47.658  23.854  35.100  1.00  0.00    -0.237 OA
ATOM     70  O   UNL A   1      48.257  26.220  35.401  1.00  0.00    -0.744 OA
ENDBRANCH  63  67
ENDBRANCH  37  60
ENDBRANCH  11  12
ENDBRANCH   4   6
ENDBRANCH   3   4
ENDBRANCH   2   3
ENDBRANCH   1   2
BRANCH   1  71
ATOM     71  O   UNL A   1      33.903  27.769  26.532  1.00  0.00    -0.462 OA
BRANCH  71  72
ATOM     72  C   UNL A   1      33.853  26.868  25.517  1.00  0.00     0.310 C 
ATOM     73  O   UNL A   1      34.674  25.967  25.375  1.00  0.00    -0.252 OA
BRANCH  72  74
ATOM     74  C   UNL A   1      32.767  27.097  24.464  1.00  0.00     0.119 C 
ATOM     75  C   UNL A   1      31.362  27.104  25.135  1.00  0.00     0.100 C 
ATOM     76  C   UNL A   1      32.651  26.401  23.056  1.00  0.00     0.026 C 
ATOM     77  C   UNL A   1      30.270  26.770  24.083  1.00  0.00     0.025 C 
ATOM     78  C   UNL A   1      31.713  25.197  23.017  1.00  0.00    -0.027 C 
ATOM     79  C   UNL A   1      31.850  27.390  22.158  1.00  0.00     0.009 C 
ATOM     80  C   UNL A   1      30.500  25.379  23.564  1.00  0.00    -0.027 C 
ATOM     81  C   UNL A   1      30.473  27.688  22.837  1.00  0.00     0.009 C 
BRANCH  75  82
ATOM     82  C   UNL A   1      31.106  26.458  26.529  1.00  0.00     0.228 C 
ATOM     83  O   UNL A   1      30.712  27.216  27.436  1.00  0.00    -0.274 OA
ATOM     84  N   UNL A   1      31.097  25.135  26.876  1.00  0.00    -0.326 N 
ATOM     85  H   UNL A   1      30.673  24.989  27.752  1.00  0.00     0.169 HD
BRANCH  84  86
ATOM     86  C   UNL A   1      31.537  23.932  26.301  1.00  0.00     0.041 A 
ATOM     87  C   UNL A   1      30.634  23.014  25.776  1.00  0.00     0.026 A 
ATOM     88  C   UNL A   1      32.861  23.576  26.248  1.00  0.00     0.026 A 
ATOM     89  C   UNL A   1      31.104  21.904  25.038  1.00  0.00     0.008 A 
ATOM     90  C   UNL A   1      33.355  22.461  25.593  1.00  0.00     0.008 A 
ATOM     91  C   UNL A   1      32.479  21.664  24.886  1.00  0.00    -0.026 A 
BRANCH  91  92
ATOM     92  C   UNL A   1      33.071  20.634  23.965  1.00  0.00     0.181 C 
BRANCH  92  93
ATOM     93  N   UNL A   1      32.831  19.293  24.444  1.00  0.00    -0.249 N 
ATOM     94  C   UNL A   1      32.802  18.153  23.706  1.00  0.00     0.220 A 
ATOM     95  N   UNL A   1      32.662  19.030  25.752  1.00  0.00    -0.160 NA
ATOM     96  N   UNL A   1      32.611  17.122  24.498  1.00  0.00    -0.224 NA
ATOM     97  C   UNL A   1      32.528  17.701  25.735  1.00  0.00     0.246 A 
ENDBRANCH  92  93
ENDBRANCH  91  92
ENDBRANCH  84  86
ENDBRANCH  75  82
ENDBRANCH  72  74
ENDBRANCH  71  72
ENDBRANCH   1  71
TORSDOF 18
ENDMDL
MODEL 2
REMARK VINA RESULT:     -12.4      2.153      7.011
REMARK SMILES O=C(OCCOC(=O)[C@@H]1[C@H](C(=O)Nc2ccc(Cn3cncn3)cc2)[C@@H]2C=C[C@H]1CC2)c1ccc(-c2c3nc(c(-c4cc(S(=O)(=O)[O-])ccc4F)c4ccc([nH]4)c(-c4cc(S(=O)(=O)[O-])ccc4F)c4nc(c(-c5cc(S(=O)(=O)[O-])ccc5F)c5ccc2[nH]5)C=C4)C=C3)cc1
REMARK SMILES IDX 5 1 4 2 3 3 2 4 1 5 32 6 33 7 94 8 34 9 93 10 35 11 36 12
REMARK SMILES IDX 37 13 87 14 38 15 92 16 86 17 88 18 39 19 91 20 85 21 84 22
REMARK SMILES IDX 40 24 72 25 52 26 71 27 53 28 56 29 70 30 89 31 54 32 55 33
REMARK SMILES IDX 69 35 90 36 57 37 41 38 42 39 50 40 43 41 49 42 51 43 48 44
REMARK SMILES IDX 44 45 45 46 46 47 47 48 73 49 74 50 82 51 75 52 81 53 83 54
REMARK SMILES IDX 80 55 76 56 77 57 78 58 79 59 58 60 59 61 67 62 60 63 66 64
REMARK SMILES IDX 68 65 65 66 61 67 62 68 63 69 64 70 6 71 7 72 8 73 9 74
REMARK SMILES IDX 10 75 29 76 26 77 28 78 30 79 27 80 31 81 11 82 12 83 13 84
REMARK SMILES IDX 14 86 15 87 25 88 16 89 24 90 17 91 18 92 19 93 20 94 23 95
REMARK SMILES IDX 21 96 22 97
REMARK H PARENT 88 23 56 34 13 85
REMARK Flexibility Score: inf
ROOT
ATOM      1  C   UNL A   1      32.435  30.542  27.070  1.00  0.00     0.274 C 
ENDROOT
BRANCH   1   2
ATOM      2  C   UNL A   1      33.573  31.498  27.421  1.00  0.00     0.275 C 
BRANCH   2   3
ATOM      3  O   UNL A   1      34.764  30.880  27.933  1.00  0.00    -0.458 OA
BRANCH   3   4
ATOM      4  C   UNL A   1      35.824  31.693  28.111  1.00  0.00     0.338 C 
ATOM      5  O   UNL A   1      35.831  32.884  27.810  1.00  0.00    -0.246 OA
BRANCH   4   6
ATOM      6  C   UNL A   1      36.956  31.002  28.759  1.00  0.00     0.060 A 
ATOM      7  C   UNL A   1      38.175  31.649  29.011  1.00  0.00     0.016 A 
ATOM      8  C   UNL A   1      36.779  29.651  29.079  1.00  0.00     0.016 A 
ATOM      9  C   UNL A   1      39.260  30.910  29.436  1.00  0.00     0.010 A 
ATOM     10  C   UNL A   1      37.869  28.907  29.485  1.00  0.00     0.010 A 
ATOM     11  C   UNL A   1      39.111  29.533  29.584  1.00  0.00    -0.014 A 
BRANCH  11  12
ATOM     12  C   UNL A   1      40.300  28.743  29.838  1.00  0.00     0.031 A 
ATOM     13  C   UNL A   1      40.633  28.588  31.273  1.00  0.00     0.074 A 
ATOM     14  C   UNL A   1      40.954  28.137  28.828  1.00  0.00     0.049 A 
ATOM     15  N   UNL A   1      41.626  29.103  31.916  1.00  0.00    -0.248 NA
ATOM     16  C   UNL A   1      39.641  27.934  32.142  1.00  0.00     0.031 C 
ATOM     17  C   UNL A   1      40.546  28.043  27.424  1.00  0.00     0.029 A 
ATOM     18  N   UNL A   1      42.080  27.378  28.862  1.00  0.00    -0.354 N 
ATOM     19  C   UNL A   1      41.538  28.599  33.211  1.00  0.00     0.074 A 
ATOM     20  C   UNL A   1      40.196  28.106  33.342  1.00  0.00     0.031 C 
ATOM     21  C   UNL A   1      41.268  27.076  26.811  1.00  0.00     0.029 A 
ATOM     22  C   UNL A   1      42.269  26.575  27.739  1.00  0.00     0.049 A 
ATOM     23  H   UNL A   1      42.711  27.394  29.617  1.00  0.00     0.167 HD
ATOM     24  C   UNL A   1      42.663  28.364  33.945  1.00  0.00     0.034 A 
ATOM     25  C   UNL A   1      43.130  25.524  27.620  1.00  0.00     0.034 A 
ATOM     26  C   UNL A   1      43.792  29.094  33.394  1.00  0.00     0.049 A 
ATOM     27  C   UNL A   1      44.173  25.714  28.662  1.00  0.00     0.074 A 
ATOM     28  C   UNL A   1      44.039  30.428  33.121  1.00  0.00     0.029 A 
ATOM     29  N   UNL A   1      44.741  28.397  32.674  1.00  0.00    -0.354 N 
ATOM     30  N   UNL A   1      45.016  26.713  28.647  1.00  0.00    -0.248 NA
ATOM     31  C   UNL A   1      43.941  25.126  29.975  1.00  0.00     0.031 C 
ATOM     32  C   UNL A   1      44.741  30.422  31.878  1.00  0.00     0.029 A 
ATOM     33  C   UNL A   1      44.971  29.094  31.515  1.00  0.00     0.049 A 
ATOM     34  H   UNL A   1      45.173  27.554  32.941  1.00  0.00     0.167 HD
ATOM     35  C   UNL A   1      45.074  27.156  29.960  1.00  0.00     0.074 A 
ATOM     36  C   UNL A   1      44.460  26.086  30.748  1.00  0.00     0.031 C 
ATOM     37  C   UNL A   1      45.334  28.466  30.259  1.00  0.00     0.034 A 
BRANCH  24  38
ATOM     38  C   UNL A   1      42.858  27.147  34.839  1.00  0.00     0.023 A 
ATOM     39  C   UNL A   1      43.750  26.170  34.361  1.00  0.00     0.031 A 
ATOM     40  C   UNL A   1      42.015  26.730  35.893  1.00  0.00     0.131 A 
ATOM     41  C   UNL A   1      43.622  24.826  34.743  1.00  0.00     0.055 A 
ATOM     42  C   UNL A   1      41.943  25.401  36.327  1.00  0.00     0.041 A 
ATOM     43  F   UNL A   1      41.170  27.548  36.526  1.00  0.00    -0.206 F 
ATOM     44  C   UNL A   1      42.711  24.428  35.713  1.00  0.00     0.022 A 
BRANCH  41  45
ATOM     45  S   UNL A   1      44.504  23.591  33.760  1.00  0.00     0.124 S 
ATOM     46  O   UNL A   1      43.499  23.270  32.753  1.00  0.00    -0.237 OA
ATOM     47  O   UNL A   1      45.661  24.351  33.297  1.00  0.00    -0.237 OA
ATOM     48  O   UNL A   1      44.793  22.535  34.724  1.00  0.00    -0.744 OA
ENDBRANCH  41  45
ENDBRANCH  24  38
BRANCH  25  49
ATOM     49  C   UNL A   1      42.856  24.224  26.931  1.00  0.00     0.023 A 
ATOM     50  C   UNL A   1      43.753  23.609  26.027  1.00  0.00     0.031 A 
ATOM     51  C   UNL A   1      41.754  23.438  27.347  1.00  0.00     0.131 A 
ATOM     52  C   UNL A   1      43.519  22.284  25.575  1.00  0.00     0.055 A 
ATOM     53  C   UNL A   1      41.528  22.136  26.897  1.00  0.00     0.041 A 
ATOM     54  F   UNL A   1      40.894  23.882  28.278  1.00  0.00    -0.206 F 
ATOM     55  C   UNL A   1      42.415  21.549  26.013  1.00  0.00     0.022 A 
BRANCH  52  56
ATOM     56  S   UNL A   1      44.697  21.448  24.456  1.00  0.00     0.124 S 
ATOM     57  O   UNL A   1      44.172  20.088  24.411  1.00  0.00    -0.237 OA
ATOM     58  O   UNL A   1      44.582  22.231  23.232  1.00  0.00    -0.237 OA
ATOM     59  O   UNL A   1      45.981  21.584  25.147  1.00  0.00    -0.744 OA
ENDBRANCH  52  56
ENDBRANCH  25  49
BRANCH  37  60
ATOM     60  C   UNL A   1      45.840  29.380  29.164  1.00  0.00     0.023 A 
ATOM     61  C   UNL A   1      45.061  30.343  28.481  1.00  0.00     0.031 A 
ATOM     62  C   UNL A   1      47.222  29.354  28.901  1.00  0.00     0.131 A 
ATOM     63  C   UNL A   1      45.675  31.225  27.570  1.00  0.00     0.055 A 
ATOM     64  C   UNL A   1      47.828  30.240  28.014  1.00  0.00     0.041 A 
ATOM     65  F   UNL A   1      48.020  28.483  29.544  1.00  0.00    -0.206 F 
ATOM     66  C   UNL A   1      47.054  31.176  27.340  1.00  0.00     0.022 A 
BRANCH  63  67
ATOM     67  S   UNL A   1      44.692  32.454  26.650  1.00  0.00     0.124 S 
ATOM     68  O   UNL A   1      45.696  33.225  25.927  1.00  0.00    -0.237 OA
ATOM     69  O   UNL A   1      43.820  31.612  25.834  1.00  0.00    -0.237 OA
ATOM     70  O   UNL A   1      44.001  33.196  27.708  1.00  0.00    -0.744 OA
ENDBRANCH  63  67
ENDBRANCH  37  60
ENDBRANCH  11  12
ENDBRANCH   4   6
ENDBRANCH   3   4
ENDBRANCH   2   3
ENDBRANCH   1   2
BRANCH   1  71
ATOM     71  O   UNL A   1      32.920  29.180  26.907  1.00  0.00    -0.462 OA
BRANCH  71  72
ATOM     72  C   UNL A   1      31.939  28.249  26.780  1.00  0.00     0.310 C 
ATOM     73  O   UNL A   1      31.449  27.653  27.734  1.00  0.00    -0.252 OA
BRANCH  72  74
ATOM     74  C   UNL A   1      31.537  27.884  25.350  1.00  0.00     0.119 C 
ATOM     75  C   UNL A   1      32.270  26.586  24.901  1.00  0.00     0.100 C 
ATOM     76  C   UNL A   1      31.434  28.859  24.117  1.00  0.00     0.026 C 
ATOM     77  C   UNL A   1      32.330  26.520  23.352  1.00  0.00     0.025 C 
ATOM     78  C   UNL A   1      32.667  28.878  23.218  1.00  0.00    -0.027 C 
ATOM     79  C   UNL A   1      30.407  28.206  23.145  1.00  0.00     0.009 C 
ATOM     80  C   UNL A   1      33.140  27.677  22.843  1.00  0.00    -0.027 C 
ATOM     81  C   UNL A   1      30.898  26.767  22.780  1.00  0.00     0.009 C 
BRANCH  75  82
ATOM     82  C   UNL A   1      33.568  26.084  25.600  1.00  0.00     0.228 C 
ATOM     83  O   UNL A   1      34.302  26.950  26.114  1.00  0.00    -0.274 OA
ATOM     84  N   UNL A   1      33.955  24.802  25.878  1.00  0.00    -0.326 N 
ATOM     85  H   UNL A   1      34.688  24.773  26.534  1.00  0.00     0.169 HD
BRANCH  84  86
ATOM     86  C   UNL A   1      33.571  23.515  25.468  1.00  0.00     0.041 A 
ATOM     87  C   UNL A   1      32.298  23.025  25.733  1.00  0.00     0.026 A 
ATOM     88  C   UNL A   1      34.425  22.659  24.818  1.00  0.00     0.026 A 
ATOM     89  C   UNL A   1      31.872  21.808  25.152  1.00  0.00     0.008 A 
ATOM     90  C   UNL A   1      34.065  21.430  24.293  1.00  0.00     0.008 A 
ATOM     91  C   UNL A   1      32.745  21.038  24.366  1.00  0.00    -0.026 A 
BRANCH  91  92
ATOM     92  C   UNL A   1      32.331  19.843  23.552  1.00  0.00     0.181 C 
BRANCH  92  93
ATOM     93  N   UNL A   1      32.692  18.606  24.203  1.00  0.00    -0.249 N 
ATOM     94  C   UNL A   1      33.660  17.732  23.822  1.00  0.00     0.220 A 
ATOM     95  N   UNL A   1      32.106  18.213  25.348  1.00  0.00    -0.160 NA
ATOM     96  N   UNL A   1      33.732  16.751  24.692  1.00  0.00    -0.224 NA
ATOM     97  C   UNL A   1      32.767  17.081  25.604  1.00  0.00     0.246 A 
ENDBRANCH  92  93
ENDBRANCH  91  92
ENDBRANCH  84  86
ENDBRANCH  75  82
ENDBRANCH  72  74
ENDBRANCH  71  72
ENDBRANCH   1  71
TORSDOF 18
ENDMDL
MODEL 3
REMARK VINA RESULT:     -12.4      2.381      7.126
REMARK SMILES O=C(OCCOC(=O)[C@@H]1[C@H](C(=O)Nc2ccc(Cn3cncn3)cc2)[C@@H]2C=C[C@H]1CC2)c1ccc(-c2c3nc(c(-c4cc(S(=O)(=O)[O-])ccc4F)c4ccc([nH]4)c(-c4cc(S(=O)(=O)[O-])ccc4F)c4nc(c(-c5cc(S(=O)(=O)[O-])ccc5F)c5ccc2[nH]5)C=C4)C=C3)cc1
REMARK SMILES IDX 5 1 4 2 3 3 2 4 1 5 32 6 33 7 94 8 34 9 93 10 35 11 36 12
REMARK SMILES IDX 37 13 87 14 38 15 92 16 86 17 88 18 39 19 91 20 85 21 84 22
REMARK SMILES IDX 40 24 72 25 52 26 71 27 53 28 56 29 70 30 89 31 54 32 55 33
REMARK SMILES IDX 69 35 90 36 57 37 41 38 42 39 50 40 43 41 49 42 51 43 48 44
REMARK SMILES IDX 44 45 45 46 46 47 47 48 73 49 74 50 82 51 75 52 81 53 83 54
REMARK SMILES IDX 80 55 76 56 77 57 78 58 79 59 58 60 59 61 67 62 60 63 66 64
REMARK SMILES IDX 68 65 65 66 61 67 62 68 63 69 64 70 6 71 7 72 8 73 9 74
REMARK SMILES IDX 10 75 29 76 26 77 28 78 30 79 27 80 31 81 11 82 12 83 13 84
REMARK SMILES IDX 14 86 15 87 25 88 16 89 24 90 17 91 18 92 19 93 20 94 23 95
REMARK SMILES IDX 21 96 22 97
REMARK H PARENT 88 23 56 34 13 85
REMARK Flexibility Score: inf
ROOT
ATOM      1  C   UNL A   1      32.981  29.313  27.458  1.00  0.00     0.274 C 
ENDROOT
BRANCH   1   2
ATOM      2  C   UNL A   1      33.637  30.669  27.200  1.00  0.00     0.275 C 
BRANCH   2   3
ATOM      3  O   UNL A   1      35.073  30.660  27.143  1.00  0.00    -0.458 OA
BRANCH   3   4
ATOM      4  C   UNL A   1      35.705  31.461  28.023  1.00  0.00     0.338 C 
ATOM      5  O   UNL A   1      35.360  32.614  28.270  1.00  0.00    -0.246 OA
BRANCH   4   6
ATOM      6  C   UNL A   1      36.826  30.776  28.695  1.00  0.00     0.060 A 
ATOM      7  C   UNL A   1      38.010  31.449  29.036  1.00  0.00     0.016 A 
ATOM      8  C   UNL A   1      36.679  29.407  28.948  1.00  0.00     0.016 A 
ATOM      9  C   UNL A   1      39.097  30.725  29.481  1.00  0.00     0.010 A 
ATOM     10  C   UNL A   1      37.772  28.680  29.374  1.00  0.00     0.010 A 
ATOM     11  C   UNL A   1      38.986  29.338  29.561  1.00  0.00    -0.014 A 
BRANCH  11  12
ATOM     12  C   UNL A   1      40.188  28.575  29.840  1.00  0.00     0.031 A 
ATOM     13  C   UNL A   1      40.494  28.427  31.281  1.00  0.00     0.074 A 
ATOM     14  C   UNL A   1      40.875  27.984  28.843  1.00  0.00     0.049 A 
ATOM     15  N   UNL A   1      41.463  28.963  31.945  1.00  0.00    -0.248 NA
ATOM     16  C   UNL A   1      39.499  27.751  32.130  1.00  0.00     0.031 C 
ATOM     17  C   UNL A   1      40.498  27.881  27.431  1.00  0.00     0.029 A 
ATOM     18  N   UNL A   1      42.017  27.250  28.900  1.00  0.00    -0.354 N 
ATOM     19  C   UNL A   1      41.360  28.457  33.237  1.00  0.00     0.074 A 
ATOM     20  C   UNL A   1      40.026  27.934  33.341  1.00  0.00     0.031 C 
ATOM     21  C   UNL A   1      41.253  26.931  26.834  1.00  0.00     0.029 A 
ATOM     22  C   UNL A   1      42.246  26.452  27.781  1.00  0.00     0.049 A 
ATOM     23  H   UNL A   1      42.631  27.279  29.668  1.00  0.00     0.167 HD
ATOM     24  C   UNL A   1      42.475  28.246  33.994  1.00  0.00     0.034 A 
ATOM     25  C   UNL A   1      43.132  25.420  27.680  1.00  0.00     0.034 A 
ATOM     26  C   UNL A   1      43.597  29.002  33.467  1.00  0.00     0.049 A 
ATOM     27  C   UNL A   1      44.149  25.632  28.743  1.00  0.00     0.074 A 
ATOM     28  C   UNL A   1      43.821  30.340  33.198  1.00  0.00     0.029 A 
ATOM     29  N   UNL A   1      44.576  28.325  32.766  1.00  0.00    -0.354 N 
ATOM     30  N   UNL A   1      44.970  26.650  28.745  1.00  0.00    -0.248 NA
ATOM     31  C   UNL A   1      43.904  25.039  30.051  1.00  0.00     0.031 C 
ATOM     32  C   UNL A   1      44.547  30.351  31.970  1.00  0.00     0.029 A 
ATOM     33  C   UNL A   1      44.815  29.028  31.611  1.00  0.00     0.049 A 
ATOM     34  H   UNL A   1      45.021  27.492  33.042  1.00  0.00     0.167 HD
ATOM     35  C   UNL A   1      44.992  27.094  30.059  1.00  0.00     0.074 A 
ATOM     36  C   UNL A   1      44.385  26.010  30.834  1.00  0.00     0.031 C 
ATOM     37  C   UNL A   1      45.216  28.409  30.363  1.00  0.00     0.034 A 
BRANCH  24  38
ATOM     38  C   UNL A   1      42.678  27.034  34.892  1.00  0.00     0.023 A 
ATOM     39  C   UNL A   1      43.564  26.053  34.409  1.00  0.00     0.031 A 
ATOM     40  C   UNL A   1      41.845  26.622  35.956  1.00  0.00     0.131 A 
ATOM     41  C   UNL A   1      43.439  24.712  34.800  1.00  0.00     0.055 A 
ATOM     42  C   UNL A   1      41.777  25.296  36.398  1.00  0.00     0.041 A 
ATOM     43  F   UNL A   1      41.007  27.445  36.594  1.00  0.00    -0.206 F 
ATOM     44  C   UNL A   1      42.538  24.319  35.781  1.00  0.00     0.022 A 
BRANCH  41  45
ATOM     45  S   UNL A   1      44.310  23.471  33.813  1.00  0.00     0.124 S 
ATOM     46  O   UNL A   1      45.467  24.237  33.362  1.00  0.00    -0.237 OA
ATOM     47  O   UNL A   1      44.570  22.433  34.805  1.00  0.00    -0.237 OA
ATOM     48  O   UNL A   1      43.341  23.122  32.779  1.00  0.00    -0.744 OA
ENDBRANCH  41  45
ENDBRANCH  24  38
BRANCH  25  49
ATOM     49  C   UNL A   1      42.900  24.114  26.986  1.00  0.00     0.023 A 
ATOM     50  C   UNL A   1      43.806  23.546  26.059  1.00  0.00     0.031 A 
ATOM     51  C   UNL A   1      41.842  23.279  27.416  1.00  0.00     0.131 A 
ATOM     52  C   UNL A   1      43.620  22.215  25.601  1.00  0.00     0.055 A 
ATOM     53  C   UNL A   1      41.663  21.972  26.959  1.00  0.00     0.041 A 
ATOM     54  F   UNL A   1      40.982  23.678  28.367  1.00  0.00    -0.206 F 
ATOM     55  C   UNL A   1      42.557  21.430  26.054  1.00  0.00     0.022 A 
BRANCH  52  56
ATOM     56  S   UNL A   1      44.811  21.439  24.453  1.00  0.00     0.124 S 
ATOM     57  O   UNL A   1      44.301  20.076  24.351  1.00  0.00    -0.237 OA
ATOM     58  O   UNL A   1      44.690  22.270  23.262  1.00  0.00    -0.237 OA
ATOM     59  O   UNL A   1      46.091  21.560  25.154  1.00  0.00    -0.744 OA
ENDBRANCH  52  56
ENDBRANCH  25  49
BRANCH  37  60
ATOM     60  C   UNL A   1      45.725  29.334  29.279  1.00  0.00     0.023 A 
ATOM     61  C   UNL A   1      44.912  30.144  28.452  1.00  0.00     0.031 A 
ATOM     62  C   UNL A   1      47.119  29.492  29.178  1.00  0.00     0.131 A 
ATOM     63  C   UNL A   1      45.508  31.062  27.564  1.00  0.00     0.055 A 
ATOM     64  C   UNL A   1      47.703  30.412  28.312  1.00  0.00     0.041 A 
ATOM     65  F   UNL A   1      47.943  28.773  29.960  1.00  0.00    -0.206 F 
ATOM     66  C   UNL A   1      46.899  31.198  27.497  1.00  0.00     0.022 A 
BRANCH  63  67
ATOM     67  S   UNL A   1      44.487  32.096  26.463  1.00  0.00     0.124 S 
ATOM     68  O   UNL A   1      44.064  33.196  27.323  1.00  0.00    -0.237 OA
ATOM     69  O   UNL A   1      45.424  32.441  25.397  1.00  0.00    -0.237 OA
ATOM     70  O   UNL A   1      43.409  31.194  26.053  1.00  0.00    -0.744 OA
ENDBRANCH  63  67
ENDBRANCH  37  60
ENDBRANCH  11  12
ENDBRANCH   4   6
ENDBRANCH   3   4
ENDBRANCH   2   3
ENDBRANCH   1   2
BRANCH   1  71
ATOM     71  O   UNL A   1      31.778  29.148  26.658  1.00  0.00    -0.462 OA
BRANCH  71  72
ATOM     72  C   UNL A   1      31.592  27.889  26.183  1.00  0.00     0.310 C 
ATOM     73  O   UNL A   1      31.052  26.998  26.831  1.00  0.00    -0.252 OA
BRANCH  72  74
ATOM     74  C   UNL A   1      32.201  27.589  24.812  1.00  0.00     0.119 C 
ATOM     75  C   UNL A   1      31.200  26.767  23.948  1.00  0.00     0.100 C 
ATOM     76  C   UNL A   1      33.662  27.079  24.516  1.00  0.00     0.026 C 
ATOM     77  C   UNL A   1      31.965  25.995  22.840  1.00  0.00     0.025 C 
ATOM     78  C   UNL A   1      33.781  25.568  24.328  1.00  0.00    -0.027 C 
ATOM     79  C   UNL A   1      33.991  27.552  23.069  1.00  0.00     0.009 C 
ATOM     80  C   UNL A   1      32.896  25.008  23.486  1.00  0.00    -0.027 C 
ATOM     81  C   UNL A   1      32.909  26.988  22.092  1.00  0.00     0.009 C 
BRANCH  75  82
ATOM     82  C   UNL A   1      30.029  25.958  24.581  1.00  0.00     0.228 C 
ATOM     83  O   UNL A   1      28.883  26.423  24.438  1.00  0.00    -0.274 OA
ATOM     84  N   UNL A   1      30.050  24.712  25.144  1.00  0.00    -0.326 N 
ATOM     85  H   UNL A   1      29.145  24.338  25.243  1.00  0.00     0.169 HD
BRANCH  84  86
ATOM     86  C   UNL A   1      31.034  23.828  25.617  1.00  0.00     0.041 A 
ATOM     87  C   UNL A   1      31.333  22.654  24.936  1.00  0.00     0.026 A 
ATOM     88  C   UNL A   1      31.730  24.048  26.779  1.00  0.00     0.026 A 
ATOM     89  C   UNL A   1      32.449  21.877  25.323  1.00  0.00     0.008 A 
ATOM     90  C   UNL A   1      32.785  23.272  27.228  1.00  0.00     0.008 A 
ATOM     91  C   UNL A   1      33.224  22.229  26.439  1.00  0.00    -0.026 A 
BRANCH  91  92
ATOM     92  C   UNL A   1      34.531  21.584  26.809  1.00  0.00     0.181 C 
BRANCH  92  93
ATOM     93  N   UNL A   1      35.579  21.938  25.882  1.00  0.00    -0.249 N 
ATOM     94  C   UNL A   1      36.250  23.117  25.814  1.00  0.00     0.220 A 
ATOM     95  N   UNL A   1      36.055  21.056  24.983  1.00  0.00    -0.160 NA
ATOM     96  N   UNL A   1      37.170  23.046  24.879  1.00  0.00    -0.224 NA
ATOM     97  C   UNL A   1      37.015  21.775  24.396  1.00  0.00     0.246 A 
ENDBRANCH  92  93
ENDBRANCH  91  92
ENDBRANCH  84  86
ENDBRANCH  75  82
ENDBRANCH  72  74
ENDBRANCH  71  72
ENDBRANCH   1  71
TORSDOF 18
ENDMDL
