MODEL 1
REMARK VINA RESULT:     -11.0      0.000      0.000
REMARK SMILES CC1(C)CCC[C@H]([N@H+](CC(=O)OCCOC(=O)c2ccc(-c3c4nc(c(-c5cc(S(=O)(=O)[O-])ccc5F)c5ccc([nH]5)c(-c5cc(S(=O)(=O)[O-])ccc5F)c5nc(c(-c6cc(S(=O)(=O)[O-])ccc6F)c6ccc3[nH]6)C=C5)C=C4)cc2)C(C)(C)C)C1
REMARK SMILES IDX 14 1 13 2 12 3 10 4 11 5 9 6 8 7 7 9 1 10 2 11 3 12 4 13
REMARK SMILES IDX 85 14 5 15 6 16 81 17 82 18 83 19 84 20 15 21 16 22 17 23
REMARK SMILES IDX 18 24 19 25 80 26 20 27 79 28 21 29 22 30 23 31 73 32 24 33
REMARK SMILES IDX 78 34 72 35 74 36 25 37 77 38 71 39 70 40 26 42 58 43 38 44
REMARK SMILES IDX 57 45 39 46 42 47 56 48 75 49 40 50 41 51 55 53 76 54 43 55
REMARK SMILES IDX 27 56 28 57 36 58 29 59 35 60 37 61 34 62 30 63 31 64 32 65
REMARK SMILES IDX 33 66 59 67 60 68 68 69 61 70 67 71 69 72 66 73 62 74 63 75
REMARK SMILES IDX 64 76 65 77 44 78 45 79 53 80 46 81 52 82 54 83 51 84 47 85
REMARK SMILES IDX 48 86 49 87 50 88
REMARK H PARENT 8 8 74 41 42 52
REMARK Flexibility Score: inf
ROOT
ATOM      1  C   UNL A   1      31.977  30.043  25.433  1.00  0.00     0.275 C 
ENDROOT
BRANCH   1   2
ATOM      2  C   UNL A   1      31.861  28.745  24.628  1.00  0.00     0.274 C 
BRANCH   2   3
ATOM      3  O   UNL A   1      30.829  27.878  25.140  1.00  0.00    -0.458 OA
BRANCH   3   4
ATOM      4  C   UNL A   1      31.258  26.926  25.992  1.00  0.00     0.361 C 
ATOM      5  O   UNL A   1      31.408  27.130  27.200  1.00  0.00    -0.245 OA
BRANCH   4   6
ATOM      6  C   UNL A   1      31.548  25.543  25.433  1.00  0.00     0.387 C 
BRANCH   6   7
ATOM      7  N   UNL A   1      32.463  25.302  24.276  1.00  0.00    -0.319 N 
ATOM      8  H   UNL A   1      32.890  26.202  24.050  1.00  0.00     0.349 HD
BRANCH   7   9
ATOM      9  C   UNL A   1      33.534  24.318  24.694  1.00  0.00     0.185 C 
ATOM     10  C   UNL A   1      34.370  21.273  25.046  1.00  0.00     0.011 C 
ATOM     11  C   UNL A   1      34.184  22.290  26.189  1.00  0.00    -0.030 C 
ATOM     12  C   UNL A   1      33.698  21.513  27.430  1.00  0.00     0.011 C 
ATOM     13  C   UNL A   1      35.513  22.996  26.514  1.00  0.00     0.007 C 
ATOM     14  C   UNL A   1      33.112  23.342  25.820  1.00  0.00     0.071 C 
ATOM     15  C   UNL A   1      35.965  23.954  25.412  1.00  0.00     0.007 C 
ATOM     16  C   UNL A   1      34.884  24.986  25.082  1.00  0.00     0.065 C 
ENDBRANCH   7   9
BRANCH   7  17
ATOM     17  C   UNL A   1      31.801  24.958  22.949  1.00  0.00     0.090 C 
ATOM     18  C   UNL A   1      32.741  24.060  22.107  1.00  0.00     0.078 C 
ATOM     19  C   UNL A   1      30.522  24.083  23.117  1.00  0.00     0.078 C 
ATOM     20  C   UNL A   1      31.398  26.154  22.050  1.00  0.00     0.078 C 
ENDBRANCH   7  17
ENDBRANCH   6   7
ENDBRANCH   4   6
ENDBRANCH   3   4
ENDBRANCH   2   3
ENDBRANCH   1   2
BRANCH   1  21
ATOM     21  O   UNL A   1      33.207  30.095  26.181  1.00  0.00    -0.458 OA
BRANCH  21  22
ATOM     22  C   UNL A   1      33.314  31.132  27.039  1.00  0.00     0.338 C 
ATOM     23  O   UNL A   1      32.531  32.072  27.154  1.00  0.00    -0.246 OA
BRANCH  22  24
ATOM     24  C   UNL A   1      34.542  31.055  27.845  1.00  0.00     0.060 A 
ATOM     25  C   UNL A   1      35.418  32.140  27.960  1.00  0.00     0.016 A 
ATOM     26  C   UNL A   1      34.898  29.808  28.358  1.00  0.00     0.016 A 
ATOM     27  C   UNL A   1      36.688  31.953  28.510  1.00  0.00     0.010 A 
ATOM     28  C   UNL A   1      36.135  29.643  28.974  1.00  0.00     0.010 A 
ATOM     29  C   UNL A   1      37.053  30.704  29.028  1.00  0.00    -0.014 A 
BRANCH  29  30
ATOM     30  C   UNL A   1      38.364  30.470  29.679  1.00  0.00     0.031 A 
ATOM     31  C   UNL A   1      39.333  29.484  29.089  1.00  0.00     0.074 A 
ATOM     32  C   UNL A   1      38.609  31.045  30.869  1.00  0.00     0.049 A 
ATOM     33  N   UNL A   1      40.371  28.912  29.640  1.00  0.00    -0.248 NA
ATOM     34  C   UNL A   1      39.085  29.078  27.697  1.00  0.00     0.031 C 
ATOM     35  C   UNL A   1      37.745  32.032  31.522  1.00  0.00     0.029 A 
ATOM     36  N   UNL A   1      39.623  30.838  31.769  1.00  0.00    -0.354 N 
ATOM     37  C   UNL A   1      40.885  28.049  28.677  1.00  0.00     0.074 A 
ATOM     38  C   UNL A   1      40.037  28.175  27.509  1.00  0.00     0.031 C 
ATOM     39  C   UNL A   1      38.239  32.309  32.737  1.00  0.00     0.029 A 
ATOM     40  C   UNL A   1      39.408  31.470  32.972  1.00  0.00     0.049 A 
ATOM     41  H   UNL A   1      40.421  30.296  31.574  1.00  0.00     0.167 HD
ATOM     42  C   UNL A   1      41.958  27.224  28.774  1.00  0.00     0.034 A 
ATOM     43  C   UNL A   1      40.031  31.333  34.157  1.00  0.00     0.034 A 
ATOM     44  C   UNL A   1      42.782  27.123  29.958  1.00  0.00     0.049 A 
ATOM     45  C   UNL A   1      41.178  30.372  34.267  1.00  0.00     0.074 A 
ATOM     46  C   UNL A   1      43.921  26.362  30.158  1.00  0.00     0.029 A 
ATOM     47  N   UNL A   1      42.541  27.794  31.150  1.00  0.00    -0.354 N 
ATOM     48  N   UNL A   1      41.655  29.555  33.357  1.00  0.00    -0.248 NA
ATOM     49  C   UNL A   1      41.868  30.315  35.560  1.00  0.00     0.031 C 
ATOM     50  C   UNL A   1      44.334  26.530  31.486  1.00  0.00     0.029 A 
ATOM     51  C   UNL A   1      43.488  27.441  32.099  1.00  0.00     0.049 A 
ATOM     52  H   UNL A   1      41.803  28.429  31.301  1.00  0.00     0.167 HD
ATOM     53  C   UNL A   1      42.715  28.892  33.965  1.00  0.00     0.074 A 
ATOM     54  C   UNL A   1      42.806  29.410  35.317  1.00  0.00     0.031 C 
ATOM     55  C   UNL A   1      43.544  27.951  33.448  1.00  0.00     0.034 A 
BRANCH  42  56
ATOM     56  C   UNL A   1      42.262  26.329  27.597  1.00  0.00     0.023 A 
ATOM     57  C   UNL A   1      41.791  25.006  27.522  1.00  0.00     0.031 A 
ATOM     58  C   UNL A   1      43.054  26.806  26.537  1.00  0.00     0.131 A 
ATOM     59  C   UNL A   1      42.160  24.190  26.440  1.00  0.00     0.055 A 
ATOM     60  C   UNL A   1      43.366  26.010  25.432  1.00  0.00     0.041 A 
ATOM     61  F   UNL A   1      43.550  28.053  26.562  1.00  0.00    -0.206 F 
ATOM     62  C   UNL A   1      42.929  24.690  25.385  1.00  0.00     0.022 A 
BRANCH  59  63
ATOM     63  S   UNL A   1      41.726  22.429  26.488  1.00  0.00     0.124 S 
ATOM     64  O   UNL A   1      40.279  22.473  26.299  1.00  0.00    -0.237 OA
ATOM     65  O   UNL A   1      42.500  21.885  25.378  1.00  0.00    -0.237 OA
ATOM     66  O   UNL A   1      42.159  22.004  27.818  1.00  0.00    -0.744 OA
ENDBRANCH  59  63
ENDBRANCH  42  56
BRANCH  43  67
ATOM     67  C   UNL A   1      39.514  32.072  35.337  1.00  0.00     0.023 A 
ATOM     68  C   UNL A   1      39.945  33.373  35.624  1.00  0.00     0.031 A 
ATOM     69  C   UNL A   1      38.531  31.496  36.164  1.00  0.00     0.131 A 
ATOM     70  C   UNL A   1      39.395  34.060  36.717  1.00  0.00     0.055 A 
ATOM     71  C   UNL A   1      37.965  32.195  37.230  1.00  0.00     0.041 A 
ATOM     72  F   UNL A   1      38.077  30.256  35.916  1.00  0.00    -0.206 F 
ATOM     73  C   UNL A   1      38.399  33.485  37.513  1.00  0.00     0.022 A 
BRANCH  70  74
ATOM     74  S   UNL A   1      40.012  35.722  37.095  1.00  0.00     0.124 S 
ATOM     75  O   UNL A   1      39.648  36.458  35.889  1.00  0.00    -0.237 OA
ATOM     76  O   UNL A   1      39.263  36.058  38.302  1.00  0.00    -0.237 OA
ATOM     77  O   UNL A   1      41.446  35.516  37.292  1.00  0.00    -0.744 OA
ENDBRANCH  70  74
ENDBRANCH  43  67
BRANCH  55  78
ATOM     78  C   UNL A   1      44.643  27.459  34.350  1.00  0.00     0.023 A 
ATOM     79  C   UNL A   1      44.514  26.268  35.083  1.00  0.00     0.031 A 
ATOM     80  C   UNL A   1      45.822  28.210  34.495  1.00  0.00     0.131 A 
ATOM     81  C   UNL A   1      45.534  25.880  35.963  1.00  0.00     0.055 A 
ATOM     82  C   UNL A   1      46.852  27.798  35.340  1.00  0.00     0.041 A 
ATOM     83  F   UNL A   1      45.988  29.358  33.817  1.00  0.00    -0.206 F 
ATOM     84  C   UNL A   1      46.708  26.632  36.087  1.00  0.00     0.022 A 
BRANCH  81  85
ATOM     85  S   UNL A   1      45.288  24.410  36.995  1.00  0.00     0.124 S 
ATOM     86  O   UNL A   1      46.573  23.730  36.864  1.00  0.00    -0.237 OA
ATOM     87  O   UNL A   1      45.002  24.987  38.304  1.00  0.00    -0.237 OA
ATOM     88  O   UNL A   1      44.159  23.731  36.361  1.00  0.00    -0.744 OA
ENDBRANCH  81  85
ENDBRANCH  55  78
ENDBRANCH  29  30
ENDBRANCH  22  24
ENDBRANCH  21  22
ENDBRANCH   1  21
TORSDOF 17
ENDMDL
MODEL 2
REMARK VINA RESULT:     -11.0      1.589      2.182
REMARK SMILES CC1(C)CCC[C@H]([N@H+](CC(=O)OCCOC(=O)c2ccc(-c3c4nc(c(-c5cc(S(=O)(=O)[O-])ccc5F)c5ccc([nH]5)c(-c5cc(S(=O)(=O)[O-])ccc5F)c5nc(c(-c6cc(S(=O)(=O)[O-])ccc6F)c6ccc3[nH]6)C=C5)C=C4)cc2)C(C)(C)C)C1
REMARK SMILES IDX 14 1 13 2 12 3 10 4 11 5 9 6 8 7 7 9 1 10 2 11 3 12 4 13
REMARK SMILES IDX 85 14 5 15 6 16 81 17 82 18 83 19 84 20 15 21 16 22 17 23
REMARK SMILES IDX 18 24 19 25 80 26 20 27 79 28 21 29 22 30 23 31 73 32 24 33
REMARK SMILES IDX 78 34 72 35 74 36 25 37 77 38 71 39 70 40 26 42 58 43 38 44
REMARK SMILES IDX 57 45 39 46 42 47 56 48 75 49 40 50 41 51 55 53 76 54 43 55
REMARK SMILES IDX 27 56 28 57 36 58 29 59 35 60 37 61 34 62 30 63 31 64 32 65
REMARK SMILES IDX 33 66 59 67 60 68 68 69 61 70 67 71 69 72 66 73 62 74 63 75
REMARK SMILES IDX 64 76 65 77 44 78 45 79 53 80 46 81 52 82 54 83 51 84 47 85
REMARK SMILES IDX 48 86 49 87 50 88
REMARK H PARENT 8 8 74 41 42 52
REMARK Flexibility Score: inf
ROOT
ATOM      1  C   UNL A   1      31.493  30.612  25.744  1.00  0.00     0.275 C 
ENDROOT
BRANCH   1   2
ATOM      2  C   UNL A   1      31.738  29.541  24.676  1.00  0.00     0.274 C 
BRANCH   2   3
ATOM      3  O   UNL A   1      33.144  29.335  24.425  1.00  0.00    -0.458 OA
BRANCH   3   4
ATOM      4  C   UNL A   1      33.462  28.117  23.944  1.00  0.00     0.361 C 
ATOM      5  O   UNL A   1      33.870  27.939  22.793  1.00  0.00    -0.245 OA
BRANCH   4   6
ATOM      6  C   UNL A   1      33.326  26.923  24.874  1.00  0.00     0.387 C 
BRANCH   6   7
ATOM      7  N   UNL A   1      32.409  25.774  24.606  1.00  0.00    -0.319 N 
ATOM      8  H   UNL A   1      32.120  25.855  23.630  1.00  0.00     0.349 HD
BRANCH   7   9
ATOM      9  C   UNL A   1      33.169  24.481  24.809  1.00  0.00     0.185 C 
ATOM     10  C   UNL A   1      34.819  22.641  26.805  1.00  0.00     0.011 C 
ATOM     11  C   UNL A   1      35.384  23.335  25.550  1.00  0.00    -0.030 C 
ATOM     12  C   UNL A   1      36.867  23.660  25.826  1.00  0.00     0.011 C 
ATOM     13  C   UNL A   1      35.281  22.412  24.323  1.00  0.00     0.007 C 
ATOM     14  C   UNL A   1      34.637  24.660  25.271  1.00  0.00     0.071 C 
ATOM     15  C   UNL A   1      33.841  22.203  23.852  1.00  0.00     0.007 C 
ATOM     16  C   UNL A   1      33.138  23.534  23.576  1.00  0.00     0.065 C 
ENDBRANCH   7   9
BRANCH   7  17
ATOM     17  C   UNL A   1      31.059  25.806  25.309  1.00  0.00     0.090 C 
ATOM     18  C   UNL A   1      30.726  24.405  25.878  1.00  0.00     0.078 C 
ATOM     19  C   UNL A   1      31.053  26.719  26.572  1.00  0.00     0.078 C 
ATOM     20  C   UNL A   1      29.846  26.242  24.449  1.00  0.00     0.078 C 
ENDBRANCH   7  17
ENDBRANCH   6   7
ENDBRANCH   4   6
ENDBRANCH   3   4
ENDBRANCH   2   3
ENDBRANCH   1   2
BRANCH   1  21
ATOM     21  O   UNL A   1      32.352  30.430  26.886  1.00  0.00    -0.458 OA
BRANCH  21  22
ATOM     22  C   UNL A   1      33.023  31.532  27.281  1.00  0.00     0.338 C 
ATOM     23  O   UNL A   1      32.614  32.690  27.250  1.00  0.00    -0.246 OA
BRANCH  22  24
ATOM     24  C   UNL A   1      34.382  31.212  27.743  1.00  0.00     0.060 A 
ATOM     25  C   UNL A   1      34.762  29.906  28.069  1.00  0.00     0.016 A 
ATOM     26  C   UNL A   1      35.239  32.280  28.010  1.00  0.00     0.016 A 
ATOM     27  C   UNL A   1      35.963  29.679  28.745  1.00  0.00     0.010 A 
ATOM     28  C   UNL A   1      36.470  32.042  28.615  1.00  0.00     0.010 A 
ATOM     29  C   UNL A   1      36.829  30.746  29.016  1.00  0.00    -0.014 A 
BRANCH  29  30
ATOM     30  C   UNL A   1      38.144  30.550  29.673  1.00  0.00     0.031 A 
ATOM     31  C   UNL A   1      39.135  29.576  29.101  1.00  0.00     0.074 A 
ATOM     32  C   UNL A   1      38.374  31.148  30.855  1.00  0.00     0.049 A 
ATOM     33  N   UNL A   1      40.184  29.035  29.663  1.00  0.00    -0.248 NA
ATOM     34  C   UNL A   1      38.899  29.143  27.715  1.00  0.00     0.031 C 
ATOM     35  C   UNL A   1      37.487  32.126  31.490  1.00  0.00     0.029 A 
ATOM     36  N   UNL A   1      39.390  30.977  31.760  1.00  0.00    -0.354 N 
ATOM     37  C   UNL A   1      40.719  28.169  28.714  1.00  0.00     0.074 A 
ATOM     38  C   UNL A   1      39.871  28.258  27.542  1.00  0.00     0.031 C 
ATOM     39  C   UNL A   1      37.972  32.433  32.702  1.00  0.00     0.029 A 
ATOM     40  C   UNL A   1      39.158  31.623  32.952  1.00  0.00     0.049 A 
ATOM     41  H   UNL A   1      40.199  30.450  31.575  1.00  0.00     0.167 HD
ATOM     42  C   UNL A   1      41.809  27.369  28.826  1.00  0.00     0.034 A 
ATOM     43  C   UNL A   1      39.781  31.518  34.141  1.00  0.00     0.034 A 
ATOM     44  C   UNL A   1      42.631  27.303  30.013  1.00  0.00     0.049 A 
ATOM     45  C   UNL A   1      40.948  30.584  34.268  1.00  0.00     0.074 A 
ATOM     46  C   UNL A   1      43.786  26.570  30.227  1.00  0.00     0.029 A 
ATOM     47  N   UNL A   1      42.373  27.988  31.195  1.00  0.00    -0.354 N 
ATOM     48  N   UNL A   1      41.445  29.763  33.372  1.00  0.00    -0.248 NA
ATOM     49  C   UNL A   1      41.636  30.561  35.563  1.00  0.00     0.031 C 
ATOM     50  C   UNL A   1      44.193  26.767  31.554  1.00  0.00     0.029 A 
ATOM     51  C   UNL A   1      43.326  27.669  32.150  1.00  0.00     0.049 A 
ATOM     52  H   UNL A   1      41.621  28.608  31.334  1.00  0.00     0.167 HD
ATOM     53  C   UNL A   1      42.517  29.133  33.992  1.00  0.00     0.074 A 
ATOM     54  C   UNL A   1      42.594  29.673  35.337  1.00  0.00     0.031 C 
ATOM     55  C   UNL A   1      43.368  28.201  33.492  1.00  0.00     0.034 A 
BRANCH  42  56
ATOM     56  C   UNL A   1      42.134  26.461  27.664  1.00  0.00     0.023 A 
ATOM     57  C   UNL A   1      41.678  25.133  27.601  1.00  0.00     0.031 A 
ATOM     58  C   UNL A   1      42.932  26.933  26.606  1.00  0.00     0.131 A 
ATOM     59  C   UNL A   1      42.068  24.307  26.534  1.00  0.00     0.055 A 
ATOM     60  C   UNL A   1      43.264  26.127  25.515  1.00  0.00     0.041 A 
ATOM     61  F   UNL A   1      43.414  28.186  26.621  1.00  0.00    -0.206 F 
ATOM     62  C   UNL A   1      42.842  24.802  25.480  1.00  0.00     0.022 A 
BRANCH  59  63
ATOM     63  S   UNL A   1      41.652  22.542  26.599  1.00  0.00     0.124 S 
ATOM     64  O   UNL A   1      40.192  22.580  26.621  1.00  0.00    -0.237 OA
ATOM     65  O   UNL A   1      42.260  22.031  25.376  1.00  0.00    -0.237 OA
ATOM     66  O   UNL A   1      42.273  22.089  27.842  1.00  0.00    -0.744 OA
ENDBRANCH  59  63
ENDBRANCH  42  56
BRANCH  43  67
ATOM     67  C   UNL A   1      39.245  32.263  35.308  1.00  0.00     0.023 A 
ATOM     68  C   UNL A   1      38.550  31.606  36.331  1.00  0.00     0.031 A 
ATOM     69  C   UNL A   1      39.478  33.645  35.439  1.00  0.00     0.131 A 
ATOM     70  C   UNL A   1      38.104  32.335  37.444  1.00  0.00     0.055 A 
ATOM     71  C   UNL A   1      39.062  34.358  36.564  1.00  0.00     0.041 A 
ATOM     72  F   UNL A   1      40.155  34.312  34.490  1.00  0.00    -0.206 F 
ATOM     73  C   UNL A   1      38.367  33.702  37.574  1.00  0.00     0.022 A 
BRANCH  70  74
ATOM     74  S   UNL A   1      37.159  31.466  38.726  1.00  0.00     0.124 S 
ATOM     75  O   UNL A   1      37.027  30.133  38.148  1.00  0.00    -0.237 OA
ATOM     76  O   UNL A   1      38.041  31.579  39.883  1.00  0.00    -0.237 OA
ATOM     77  O   UNL A   1      35.919  32.235  38.814  1.00  0.00    -0.744 OA
ENDBRANCH  70  74
ENDBRANCH  43  67
BRANCH  55  78
ATOM     78  C   UNL A   1      44.474  27.748  34.404  1.00  0.00     0.023 A 
ATOM     79  C   UNL A   1      44.321  26.634  35.247  1.00  0.00     0.031 A 
ATOM     80  C   UNL A   1      45.687  28.457  34.444  1.00  0.00     0.131 A 
ATOM     81  C   UNL A   1      45.354  26.286  36.130  1.00  0.00     0.055 A 
ATOM     82  C   UNL A   1      46.726  28.080  35.294  1.00  0.00     0.041 A 
ATOM     83  F   UNL A   1      45.876  29.530  33.659  1.00  0.00    -0.206 F 
ATOM     84  C   UNL A   1      46.560  26.994  36.150  1.00  0.00     0.022 A 
BRANCH  81  85
ATOM     85  S   UNL A   1      45.082  24.927  37.299  1.00  0.00     0.124 S 
ATOM     86  O   UNL A   1      44.111  25.510  38.220  1.00  0.00    -0.237 OA
ATOM     87  O   UNL A   1      44.582  23.863  36.435  1.00  0.00    -0.237 OA
ATOM     88  O   UNL A   1      46.409  24.690  37.865  1.00  0.00    -0.744 OA
ENDBRANCH  81  85
ENDBRANCH  55  78
ENDBRANCH  29  30
ENDBRANCH  22  24
ENDBRANCH  21  22
ENDBRANCH   1  21
TORSDOF 17
ENDMDL
MODEL 3
REMARK VINA RESULT:     -11.0      5.112      9.973
REMARK SMILES CC1(C)CCC[C@H]([N@H+](CC(=O)OCCOC(=O)c2ccc(-c3c4nc(c(-c5cc(S(=O)(=O)[O-])ccc5F)c5ccc([nH]5)c(-c5cc(S(=O)(=O)[O-])ccc5F)c5nc(c(-c6cc(S(=O)(=O)[O-])ccc6F)c6ccc3[nH]6)C=C5)C=C4)cc2)C(C)(C)C)C1
REMARK SMILES IDX 14 1 13 2 12 3 10 4 11 5 9 6 8 7 7 9 1 10 2 11 3 12 4 13
REMARK SMILES IDX 85 14 5 15 6 16 81 17 82 18 83 19 84 20 15 21 16 22 17 23
REMARK SMILES IDX 18 24 19 25 80 26 20 27 79 28 21 29 22 30 23 31 73 32 24 33
REMARK SMILES IDX 78 34 72 35 74 36 25 37 77 38 71 39 70 40 26 42 58 43 38 44
REMARK SMILES IDX 57 45 39 46 42 47 56 48 75 49 40 50 41 51 55 53 76 54 43 55
REMARK SMILES IDX 27 56 28 57 36 58 29 59 35 60 37 61 34 62 30 63 31 64 32 65
REMARK SMILES IDX 33 66 59 67 60 68 68 69 61 70 67 71 69 72 66 73 62 74 63 75
REMARK SMILES IDX 64 76 65 77 44 78 45 79 53 80 46 81 52 82 54 83 51 84 47 85
REMARK SMILES IDX 48 86 49 87 50 88
REMARK H PARENT 8 8 74 41 42 52
REMARK Flexibility Score: inf
ROOT
ATOM      1  C   UNL A   1      36.656  20.442  25.058  1.00  0.00     0.275 C 
ENDROOT
BRANCH   1   2
ATOM      2  C   UNL A   1      35.239  20.934  25.374  1.00  0.00     0.274 C 
BRANCH   2   3
ATOM      3  O   UNL A   1      35.130  21.455  26.714  1.00  0.00    -0.458 OA
BRANCH   3   4
ATOM      4  C   UNL A   1      34.291  22.502  26.849  1.00  0.00     0.361 C 
ATOM      5  O   UNL A   1      33.475  22.588  27.771  1.00  0.00    -0.245 OA
BRANCH   4   6
ATOM      6  C   UNL A   1      34.377  23.624  25.828  1.00  0.00     0.387 C 
BRANCH   6   7
ATOM      7  N   UNL A   1      33.278  23.942  24.865  1.00  0.00    -0.319 N 
ATOM      8  H   UNL A   1      32.531  23.270  25.045  1.00  0.00     0.349 HD
BRANCH   7   9
ATOM      9  C   UNL A   1      32.782  25.345  25.133  1.00  0.00     0.185 C 
ATOM     10  C   UNL A   1      33.178  28.458  24.631  1.00  0.00     0.011 C 
ATOM     11  C   UNL A   1      33.336  27.741  25.986  1.00  0.00    -0.030 C 
ATOM     12  C   UNL A   1      34.402  28.506  26.797  1.00  0.00     0.011 C 
ATOM     13  C   UNL A   1      32.006  27.738  26.762  1.00  0.00     0.007 C 
ATOM     14  C   UNL A   1      33.825  26.287  25.785  1.00  0.00     0.071 C 
ATOM     15  C   UNL A   1      30.950  26.829  26.132  1.00  0.00     0.007 C 
ATOM     16  C   UNL A   1      31.466  25.399  25.960  1.00  0.00     0.065 C 
ENDBRANCH   7   9
BRANCH   7  17
ATOM     17  C   UNL A   1      33.565  23.665  23.395  1.00  0.00     0.090 C 
ATOM     18  C   UNL A   1      33.305  24.941  22.558  1.00  0.00     0.078 C 
ATOM     19  C   UNL A   1      35.066  23.350  23.117  1.00  0.00     0.078 C 
ATOM     20  C   UNL A   1      32.749  22.523  22.739  1.00  0.00     0.078 C 
ENDBRANCH   7  17
ENDBRANCH   6   7
ENDBRANCH   4   6
ENDBRANCH   3   4
ENDBRANCH   2   3
ENDBRANCH   1   2
BRANCH   1  21
ATOM     21  O   UNL A   1      37.610  21.521  25.081  1.00  0.00    -0.458 OA
BRANCH  21  22
ATOM     22  C   UNL A   1      38.762  21.255  25.732  1.00  0.00     0.338 C 
ATOM     23  O   UNL A   1      39.323  20.165  25.815  1.00  0.00    -0.246 OA
BRANCH  22  24
ATOM     24  C   UNL A   1      39.300  22.446  26.406  1.00  0.00     0.060 A 
ATOM     25  C   UNL A   1      38.859  23.735  26.089  1.00  0.00     0.016 A 
ATOM     26  C   UNL A   1      40.391  22.266  27.257  1.00  0.00     0.016 A 
ATOM     27  C   UNL A   1      39.567  24.846  26.553  1.00  0.00     0.010 A 
ATOM     28  C   UNL A   1      41.049  23.376  27.780  1.00  0.00     0.010 A 
ATOM     29  C   UNL A   1      40.663  24.674  27.408  1.00  0.00    -0.014 A 
BRANCH  29  30
ATOM     30  C   UNL A   1      41.409  25.821  27.979  1.00  0.00     0.031 A 
ATOM     31  C   UNL A   1      40.670  26.929  28.676  1.00  0.00     0.074 A 
ATOM     32  C   UNL A   1      42.729  25.920  27.742  1.00  0.00     0.049 A 
ATOM     33  N   UNL A   1      41.073  28.138  28.968  1.00  0.00    -0.248 NA
ATOM     34  C   UNL A   1      39.286  26.638  29.079  1.00  0.00     0.031 C 
ATOM     35  C   UNL A   1      43.546  24.892  27.093  1.00  0.00     0.029 A 
ATOM     36  N   UNL A   1      43.601  26.955  27.963  1.00  0.00    -0.354 N 
ATOM     37  C   UNL A   1      39.983  28.769  29.560  1.00  0.00     0.074 A 
ATOM     38  C   UNL A   1      38.902  27.804  29.579  1.00  0.00     0.031 C 
ATOM     39  C   UNL A   1      44.789  25.366  26.924  1.00  0.00     0.029 A 
ATOM     40  C   UNL A   1      44.833  26.747  27.389  1.00  0.00     0.049 A 
ATOM     41  H   UNL A   1      43.370  27.760  28.480  1.00  0.00     0.167 HD
ATOM     42  C   UNL A   1      39.900  30.039  30.029  1.00  0.00     0.034 A 
ATOM     43  C   UNL A   1      45.858  27.595  27.184  1.00  0.00     0.034 A 
ATOM     44  C   UNL A   1      40.999  30.977  29.992  1.00  0.00     0.049 A 
ATOM     45  C   UNL A   1      45.730  29.014  27.654  1.00  0.00     0.074 A 
ATOM     46  C   UNL A   1      41.051  32.271  30.480  1.00  0.00     0.029 A 
ATOM     47  N   UNL A   1      42.239  30.722  29.417  1.00  0.00    -0.354 N 
ATOM     48  N   UNL A   1      44.697  29.608  28.205  1.00  0.00    -0.248 NA
ATOM     49  C   UNL A   1      46.903  29.878  27.472  1.00  0.00     0.031 C 
ATOM     50  C   UNL A   1      42.299  32.817  30.150  1.00  0.00     0.029 A 
ATOM     51  C   UNL A   1      43.049  31.843  29.508  1.00  0.00     0.049 A 
ATOM     52  H   UNL A   1      42.503  29.868  29.003  1.00  0.00     0.167 HD
ATOM     53  C   UNL A   1      45.100  30.915  28.451  1.00  0.00     0.074 A 
ATOM     54  C   UNL A   1      46.472  31.019  27.989  1.00  0.00     0.031 C 
ATOM     55  C   UNL A   1      44.404  31.932  29.018  1.00  0.00     0.034 A 
BRANCH  42  56
ATOM     56  C   UNL A   1      38.566  30.503  30.562  1.00  0.00     0.023 A 
ATOM     57  C   UNL A   1      37.637  31.188  29.759  1.00  0.00     0.031 A 
ATOM     58  C   UNL A   1      38.226  30.269  31.907  1.00  0.00     0.131 A 
ATOM     59  C   UNL A   1      36.439  31.662  30.321  1.00  0.00     0.055 A 
ATOM     60  C   UNL A   1      37.006  30.687  32.444  1.00  0.00     0.041 A 
ATOM     61  F   UNL A   1      39.081  29.639  32.728  1.00  0.00    -0.206 F 
ATOM     62  C   UNL A   1      36.110  31.399  31.653  1.00  0.00     0.022 A 
BRANCH  59  63
ATOM     63  S   UNL A   1      35.371  32.735  29.320  1.00  0.00     0.124 S 
ATOM     64  O   UNL A   1      34.046  32.400  29.836  1.00  0.00    -0.237 OA
ATOM     65  O   UNL A   1      35.867  34.066  29.649  1.00  0.00    -0.237 OA
ATOM     66  O   UNL A   1      35.626  32.293  27.950  1.00  0.00    -0.744 OA
ENDBRANCH  59  63
ENDBRANCH  42  56
BRANCH  43  67
ATOM     67  C   UNL A   1      47.048  27.126  26.429  1.00  0.00     0.023 A 
ATOM     68  C   UNL A   1      47.231  27.462  25.082  1.00  0.00     0.031 A 
ATOM     69  C   UNL A   1      48.051  26.377  27.073  1.00  0.00     0.131 A 
ATOM     70  C   UNL A   1      48.393  27.045  24.415  1.00  0.00     0.055 A 
ATOM     71  C   UNL A   1      49.219  25.993  26.414  1.00  0.00     0.041 A 
ATOM     72  F   UNL A   1      47.924  26.046  28.368  1.00  0.00    -0.206 F 
ATOM     73  C   UNL A   1      49.393  26.325  25.075  1.00  0.00     0.022 A 
BRANCH  70  74
ATOM     74  S   UNL A   1      48.575  27.450  22.657  1.00  0.00     0.124 S 
ATOM     75  O   UNL A   1      48.646  26.126  22.051  1.00  0.00    -0.237 OA
ATOM     76  O   UNL A   1      47.359  28.213  22.393  1.00  0.00    -0.237 OA
ATOM     77  O   UNL A   1      49.814  28.225  22.614  1.00  0.00    -0.744 OA
ENDBRANCH  70  74
ENDBRANCH  43  67
BRANCH  55  78
ATOM     78  C   UNL A   1      45.143  33.229  29.199  1.00  0.00     0.023 A 
ATOM     79  C   UNL A   1      45.268  34.156  28.151  1.00  0.00     0.031 A 
ATOM     80  C   UNL A   1      45.750  33.526  30.431  1.00  0.00     0.131 A 
ATOM     81  C   UNL A   1      46.023  35.322  28.342  1.00  0.00     0.055 A 
ATOM     82  C   UNL A   1      46.464  34.708  30.629  1.00  0.00     0.041 A 
ATOM     83  F   UNL A   1      45.660  32.668  31.461  1.00  0.00    -0.206 F 
ATOM     84  C   UNL A   1      46.611  35.610  29.578  1.00  0.00     0.022 A 
BRANCH  81  85
ATOM     85  S   UNL A   1      46.279  36.438  26.936  1.00  0.00     0.124 S 
ATOM     86  O   UNL A   1      45.613  37.655  27.391  1.00  0.00    -0.237 OA
ATOM     87  O   UNL A   1      47.734  36.504  26.848  1.00  0.00    -0.237 OA
ATOM     88  O   UNL A   1      45.624  35.749  25.826  1.00  0.00    -0.744 OA
ENDBRANCH  81  85
ENDBRANCH  55  78
ENDBRANCH  29  30
ENDBRANCH  22  24
ENDBRANCH  21  22
ENDBRANCH   1  21
TORSDOF 17
ENDMDL
