MODEL 1
REMARK VINA RESULT:     -11.8      0.000      0.000
REMARK SMILES O=C(OCCOC(=O)c1cc(=O)[nH]c2c(Br)cccc12)c1ccc(-c2c3nc(c(-c4cc(S(=O)(=O)[O-])ccc4F)c4ccc([nH]4)c(-c4cc(S(=O)(=O)[O-])ccc4F)c4nc(c(-c5cc(S(=O)(=O)[O-])ccc5F)c5ccc2[nH]5)C=C4)C=C3)cc1
REMARK SMILES IDX 3 1 2 2 1 3 21 4 22 5 83 6 23 7 82 8 24 9 25 10 26 11 76 12
REMARK SMILES IDX 27 13 81 14 75 15 77 16 28 17 80 18 74 19 73 20 29 22 61 23
REMARK SMILES IDX 41 24 60 25 42 26 45 27 59 28 78 29 43 30 44 31 58 33 79 34
REMARK SMILES IDX 46 35 30 36 31 37 39 38 32 39 38 40 40 41 37 42 33 43 34 44
REMARK SMILES IDX 35 45 36 46 62 47 63 48 71 49 64 50 70 51 72 52 69 53 65 54
REMARK SMILES IDX 66 55 67 56 68 57 47 58 48 59 56 60 49 61 55 62 57 63 54 64
REMARK SMILES IDX 50 65 51 66 52 67 53 68 4 69 5 70 6 71 7 72 8 73 9 74 10 75
REMARK SMILES IDX 20 76 11 77 14 78 19 79 12 80 13 81 15 82 18 83 16 85 17 86
REMARK H PARENT 77 21 45 32 13 84
REMARK Flexibility Score: inf
ROOT
ATOM      1  O   UNL A   1      43.604  23.235  24.617  1.00  0.00    -0.458 OA
ENDROOT
BRANCH   1   2
ATOM      2  C   UNL A   1      44.122  24.414  25.045  1.00  0.00     0.338 C 
ATOM      3  O   UNL A   1      45.225  24.767  24.633  1.00  0.00    -0.246 OA
BRANCH   2   4
ATOM      4  C   UNL A   1      43.513  25.166  26.183  1.00  0.00     0.060 A 
ATOM      5  C   UNL A   1      43.846  26.525  26.271  1.00  0.00     0.016 A 
ATOM      6  C   UNL A   1      42.649  24.642  27.147  1.00  0.00     0.016 A 
ATOM      7  C   UNL A   1      43.456  27.293  27.371  1.00  0.00     0.010 A 
ATOM      8  C   UNL A   1      42.229  25.417  28.236  1.00  0.00     0.010 A 
ATOM      9  C   UNL A   1      42.648  26.742  28.372  1.00  0.00    -0.014 A 
BRANCH   9  10
ATOM     10  C   UNL A   1      42.065  27.607  29.425  1.00  0.00     0.031 A 
ATOM     11  C   UNL A   1      40.859  28.472  29.192  1.00  0.00     0.074 A 
ATOM     12  C   UNL A   1      42.696  27.634  30.614  1.00  0.00     0.049 A 
ATOM     13  N   UNL A   1      40.172  29.162  30.065  1.00  0.00    -0.248 NA
ATOM     14  C   UNL A   1      40.347  28.572  27.818  1.00  0.00     0.031 C 
ATOM     15  C   UNL A   1      43.908  26.873  30.928  1.00  0.00     0.029 A 
ATOM     16  N   UNL A   1      42.433  28.333  31.762  1.00  0.00    -0.354 N 
ATOM     17  C   UNL A   1      39.097  29.702  29.365  1.00  0.00     0.074 A 
ATOM     18  C   UNL A   1      39.260  29.319  27.983  1.00  0.00     0.031 C 
ATOM     19  C   UNL A   1      44.284  27.146  32.183  1.00  0.00     0.029 A 
ATOM     20  C   UNL A   1      43.378  28.142  32.742  1.00  0.00     0.049 A 
ATOM     21  H   UNL A   1      41.646  28.913  31.874  1.00  0.00     0.167 HD
ATOM     22  C   UNL A   1      38.070  30.443  29.847  1.00  0.00     0.034 A 
ATOM     23  C   UNL A   1      43.522  28.726  33.948  1.00  0.00     0.034 A 
ATOM     24  C   UNL A   1      38.015  30.935  31.199  1.00  0.00     0.049 A 
ATOM     25  C   UNL A   1      42.460  29.685  34.406  1.00  0.00     0.074 A 
ATOM     26  C   UNL A   1      37.029  31.705  31.788  1.00  0.00     0.029 A 
ATOM     27  N   UNL A   1      39.008  30.759  32.152  1.00  0.00    -0.354 N 
ATOM     28  N   UNL A   1      41.357  30.043  33.790  1.00  0.00    -0.248 NA
ATOM     29  C   UNL A   1      42.643  30.308  35.720  1.00  0.00     0.031 C 
ATOM     30  C   UNL A   1      37.482  32.095  33.048  1.00  0.00     0.029 A 
ATOM     31  C   UNL A   1      38.700  31.478  33.294  1.00  0.00     0.049 A 
ATOM     32  H   UNL A   1      39.814  30.206  32.033  1.00  0.00     0.167 HD
ATOM     33  C   UNL A   1      40.700  30.911  34.653  1.00  0.00     0.074 A 
ATOM     34  C   UNL A   1      41.522  31.007  35.844  1.00  0.00     0.031 C 
ATOM     35  C   UNL A   1      39.526  31.568  34.477  1.00  0.00     0.034 A 
BRANCH  22  36
ATOM     36  C   UNL A   1      36.915  30.787  28.939  1.00  0.00     0.023 A 
ATOM     37  C   UNL A   1      36.415  32.101  28.881  1.00  0.00     0.031 A 
ATOM     38  C   UNL A   1      36.190  29.769  28.292  1.00  0.00     0.131 A 
ATOM     39  C   UNL A   1      35.198  32.356  28.231  1.00  0.00     0.055 A 
ATOM     40  C   UNL A   1      34.998  30.036  27.615  1.00  0.00     0.041 A 
ATOM     41  F   UNL A   1      36.607  28.495  28.349  1.00  0.00    -0.206 F 
ATOM     42  C   UNL A   1      34.489  31.331  27.594  1.00  0.00     0.022 A 
BRANCH  39  43
ATOM     43  S   UNL A   1      34.452  34.010  28.248  1.00  0.00     0.124 S 
ATOM     44  O   UNL A   1      33.031  33.703  28.096  1.00  0.00    -0.237 OA
ATOM     45  O   UNL A   1      34.844  34.509  29.563  1.00  0.00    -0.237 OA
ATOM     46  O   UNL A   1      35.063  34.682  27.107  1.00  0.00    -0.744 OA
ENDBRANCH  39  43
ENDBRANCH  22  36
BRANCH  23  47
ATOM     47  C   UNL A   1      44.704  28.360  34.780  1.00  0.00     0.023 A 
ATOM     48  C   UNL A   1      44.593  27.381  35.788  1.00  0.00     0.031 A 
ATOM     49  C   UNL A   1      45.904  29.080  34.689  1.00  0.00     0.131 A 
ATOM     50  C   UNL A   1      45.626  27.215  36.718  1.00  0.00     0.055 A 
ATOM     51  C   UNL A   1      46.964  28.854  35.568  1.00  0.00     0.041 A 
ATOM     52  F   UNL A   1      46.051  30.035  33.758  1.00  0.00    -0.206 F 
ATOM     53  C   UNL A   1      46.819  27.935  36.605  1.00  0.00     0.022 A 
BRANCH  50  54
ATOM     54  S   UNL A   1      45.382  26.197  38.202  1.00  0.00     0.124 S 
ATOM     55  O   UNL A   1      44.964  24.922  37.628  1.00  0.00    -0.237 OA
ATOM     56  O   UNL A   1      46.715  26.214  38.800  1.00  0.00    -0.237 OA
ATOM     57  O   UNL A   1      44.359  26.919  38.952  1.00  0.00    -0.744 OA
ENDBRANCH  50  54
ENDBRANCH  23  47
BRANCH  35  58
ATOM     58  C   UNL A   1      39.030  32.468  35.582  1.00  0.00     0.023 A 
ATOM     59  C   UNL A   1      39.529  33.781  35.690  1.00  0.00     0.031 A 
ATOM     60  C   UNL A   1      38.207  31.981  36.611  1.00  0.00     0.131 A 
ATOM     61  C   UNL A   1      39.248  34.539  36.831  1.00  0.00     0.055 A 
ATOM     62  C   UNL A   1      37.877  32.766  37.716  1.00  0.00     0.041 A 
ATOM     63  F   UNL A   1      37.717  30.731  36.560  1.00  0.00    -0.206 F 
ATOM     64  C   UNL A   1      38.415  34.043  37.839  1.00  0.00     0.022 A 
BRANCH  61  65
ATOM     65  S   UNL A   1      40.045  36.147  37.101  1.00  0.00     0.124 S 
ATOM     66  O   UNL A   1      39.778  36.831  35.839  1.00  0.00    -0.237 OA
ATOM     67  O   UNL A   1      39.313  36.660  38.257  1.00  0.00    -0.237 OA
ATOM     68  O   UNL A   1      41.444  35.811  37.343  1.00  0.00    -0.744 OA
ENDBRANCH  61  65
ENDBRANCH  35  58
ENDBRANCH   9  10
ENDBRANCH   2   4
ENDBRANCH   1   2
BRANCH   1  69
ATOM     69  C   UNL A   1      43.983  21.910  25.023  1.00  0.00     0.275 C 
BRANCH  69  70
ATOM     70  C   UNL A   1      43.017  21.247  26.007  1.00  0.00     0.275 C 
BRANCH  70  71
ATOM     71  O   UNL A   1      41.651  21.248  25.569  1.00  0.00    -0.458 OA
BRANCH  71  72
ATOM     72  C   UNL A   1      40.722  21.011  26.535  1.00  0.00     0.339 C 
ATOM     73  O   UNL A   1      40.815  20.185  27.431  1.00  0.00    -0.246 OA
BRANCH  72  74
ATOM     74  C   UNL A   1      39.583  21.948  26.393  1.00  0.00     0.074 A 
ATOM     75  C   UNL A   1      39.766  23.189  26.865  1.00  0.00     0.088 A 
ATOM     76  C   UNL A   1      38.293  21.576  25.779  1.00  0.00     0.014 A 
ATOM     77  C   UNL A   1      38.692  24.198  26.801  1.00  0.00     0.249 A 
ATOM     78  C   UNL A   1      37.224  22.487  25.865  1.00  0.00     0.063 A 
ATOM     79  C   UNL A   1      38.058  20.315  25.210  1.00  0.00     0.011 A 
ATOM     80  O   UNL A   1      38.923  25.356  27.120  1.00  0.00    -0.270 OA
ATOM     81  N   UNL A   1      37.467  23.767  26.390  1.00  0.00    -0.321 N 
ATOM     82  C   UNL A   1      35.940  22.120  25.436  1.00  0.00     0.042 A 
ATOM     83  C   UNL A   1      36.778  19.956  24.777  1.00  0.00     0.002 A 
ATOM     84  H   UNL A   1      36.708  24.390  26.465  1.00  0.00     0.170 HD
ATOM     85  Br  UNL A   1      34.462  23.298  25.595  1.00  0.00    -0.049 Br
ATOM     86  C   UNL A   1      35.718  20.851  24.900  1.00  0.00     0.018 A 
ENDBRANCH  72  74
ENDBRANCH  71  72
ENDBRANCH  70  71
ENDBRANCH  69  70
ENDBRANCH   1  69
TORSDOF 14
ENDMDL
MODEL 2
REMARK VINA RESULT:     -11.6      5.260      6.787
REMARK SMILES O=C(OCCOC(=O)c1cc(=O)[nH]c2c(Br)cccc12)c1ccc(-c2c3nc(c(-c4cc(S(=O)(=O)[O-])ccc4F)c4ccc([nH]4)c(-c4cc(S(=O)(=O)[O-])ccc4F)c4nc(c(-c5cc(S(=O)(=O)[O-])ccc5F)c5ccc2[nH]5)C=C4)C=C3)cc1
REMARK SMILES IDX 3 1 2 2 1 3 21 4 22 5 83 6 23 7 82 8 24 9 25 10 26 11 76 12
REMARK SMILES IDX 27 13 81 14 75 15 77 16 28 17 80 18 74 19 73 20 29 22 61 23
REMARK SMILES IDX 41 24 60 25 42 26 45 27 59 28 78 29 43 30 44 31 58 33 79 34
REMARK SMILES IDX 46 35 30 36 31 37 39 38 32 39 38 40 40 41 37 42 33 43 34 44
REMARK SMILES IDX 35 45 36 46 62 47 63 48 71 49 64 50 70 51 72 52 69 53 65 54
REMARK SMILES IDX 66 55 67 56 68 57 47 58 48 59 56 60 49 61 55 62 57 63 54 64
REMARK SMILES IDX 50 65 51 66 52 67 53 68 4 69 5 70 6 71 7 72 8 73 9 74 10 75
REMARK SMILES IDX 20 76 11 77 14 78 19 79 12 80 13 81 15 82 18 83 16 85 17 86
REMARK H PARENT 77 21 45 32 13 84
REMARK Flexibility Score: inf
ROOT
ATOM      1  O   UNL A   1      40.391  21.367  27.278  1.00  0.00    -0.458 OA
ENDROOT
BRANCH   1   2
ATOM      2  C   UNL A   1      39.670  22.391  26.754  1.00  0.00     0.338 C 
ATOM      3  O   UNL A   1      38.859  22.155  25.861  1.00  0.00    -0.246 OA
BRANCH   2   4
ATOM      4  C   UNL A   1      40.011  23.815  27.048  1.00  0.00     0.060 A 
ATOM      5  C   UNL A   1      39.870  24.218  28.384  1.00  0.00     0.016 A 
ATOM      6  C   UNL A   1      40.459  24.762  26.126  1.00  0.00     0.016 A 
ATOM      7  C   UNL A   1      40.018  25.557  28.754  1.00  0.00     0.010 A 
ATOM      8  C   UNL A   1      40.641  26.101  26.497  1.00  0.00     0.010 A 
ATOM      9  C   UNL A   1      40.399  26.516  27.808  1.00  0.00    -0.014 A 
BRANCH   9  10
ATOM     10  C   UNL A   1      40.758  27.889  28.237  1.00  0.00     0.031 A 
ATOM     11  C   UNL A   1      39.729  28.940  28.545  1.00  0.00     0.074 A 
ATOM     12  C   UNL A   1      42.069  28.189  28.295  1.00  0.00     0.049 A 
ATOM     13  N   UNL A   1      39.910  30.127  29.063  1.00  0.00    -0.248 NA
ATOM     14  C   UNL A   1      38.324  28.626  28.252  1.00  0.00     0.031 C 
ATOM     15  C   UNL A   1      43.149  27.257  27.963  1.00  0.00     0.029 A 
ATOM     16  N   UNL A   1      42.718  29.349  28.624  1.00  0.00    -0.354 N 
ATOM     17  C   UNL A   1      38.639  30.664  29.242  1.00  0.00     0.074 A 
ATOM     18  C   UNL A   1      37.698  29.704  28.714  1.00  0.00     0.031 C 
ATOM     19  C   UNL A   1      44.324  27.880  28.105  1.00  0.00     0.029 A 
ATOM     20  C   UNL A   1      44.082  29.269  28.478  1.00  0.00     0.049 A 
ATOM     21  H   UNL A   1      42.253  30.159  28.934  1.00  0.00     0.167 HD
ATOM     22  C   UNL A   1      38.300  31.850  29.803  1.00  0.00     0.034 A 
ATOM     23  C   UNL A   1      45.035  30.213  28.600  1.00  0.00     0.034 A 
ATOM     24  C   UNL A   1      39.264  32.850  30.183  1.00  0.00     0.049 A 
ATOM     25  C   UNL A   1      44.626  31.583  29.061  1.00  0.00     0.074 A 
ATOM     26  C   UNL A   1      39.030  34.090  30.748  1.00  0.00     0.029 A 
ATOM     27  N   UNL A   1      40.634  32.752  29.982  1.00  0.00    -0.354 N 
ATOM     28  N   UNL A   1      43.431  32.013  29.394  1.00  0.00    -0.248 NA
ATOM     29  C   UNL A   1      45.682  32.592  29.182  1.00  0.00     0.031 C 
ATOM     30  C   UNL A   1      40.239  34.786  30.773  1.00  0.00     0.029 A 
ATOM     31  C   UNL A   1      41.248  33.943  30.330  1.00  0.00     0.049 A 
ATOM     32  H   UNL A   1      41.100  31.955  29.642  1.00  0.00     0.167 HD
ATOM     33  C   UNL A   1      43.595  33.335  29.791  1.00  0.00     0.074 A 
ATOM     34  C   UNL A   1      45.010  33.625  29.675  1.00  0.00     0.031 C 
ATOM     35  C   UNL A   1      42.661  34.224  30.212  1.00  0.00     0.034 A 
BRANCH  22  36
ATOM     36  C   UNL A   1      36.845  32.163  30.052  1.00  0.00     0.023 A 
ATOM     37  C   UNL A   1      36.110  32.932  29.131  1.00  0.00     0.031 A 
ATOM     38  C   UNL A   1      36.255  31.869  31.295  1.00  0.00     0.131 A 
ATOM     39  C   UNL A   1      34.844  33.422  29.485  1.00  0.00     0.055 A 
ATOM     40  C   UNL A   1      34.979  32.329  31.628  1.00  0.00     0.041 A 
ATOM     41  F   UNL A   1      36.930  31.169  32.220  1.00  0.00    -0.206 F 
ATOM     42  C   UNL A   1      34.273  33.121  30.727  1.00  0.00     0.022 A 
BRANCH  39  43
ATOM     43  S   UNL A   1      33.921  34.527  28.381  1.00  0.00     0.124 S 
ATOM     44  O   UNL A   1      34.837  34.658  27.249  1.00  0.00    -0.237 OA
ATOM     45  O   UNL A   1      32.710  33.756  28.116  1.00  0.00    -0.237 OA
ATOM     46  O   UNL A   1      33.742  35.740  29.171  1.00  0.00    -0.744 OA
ENDBRANCH  39  43
ENDBRANCH  22  36
BRANCH  23  47
ATOM     47  C   UNL A   1      46.450  29.839  28.311  1.00  0.00     0.023 A 
ATOM     48  C   UNL A   1      46.822  29.390  27.028  1.00  0.00     0.031 A 
ATOM     49  C   UNL A   1      47.406  29.778  29.335  1.00  0.00     0.131 A 
ATOM     50  C   UNL A   1      48.084  28.815  26.828  1.00  0.00     0.055 A 
ATOM     51  C   UNL A   1      48.690  29.280  29.112  1.00  0.00     0.041 A 
ATOM     52  F   UNL A   1      47.093  30.176  30.578  1.00  0.00    -0.206 F 
ATOM     53  C   UNL A   1      49.027  28.773  27.859  1.00  0.00     0.022 A 
BRANCH  50  54
ATOM     54  S   UNL A   1      48.471  27.947  25.281  1.00  0.00     0.124 S 
ATOM     55  O   UNL A   1      49.729  28.574  24.889  1.00  0.00    -0.237 OA
ATOM     56  O   UNL A   1      48.568  26.561  25.731  1.00  0.00    -0.237 OA
ATOM     57  O   UNL A   1      47.325  28.239  24.425  1.00  0.00    -0.744 OA
ENDBRANCH  50  54
ENDBRANCH  23  47
BRANCH  35  58
ATOM     58  C   UNL A   1      43.108  35.617  30.583  1.00  0.00     0.023 A 
ATOM     59  C   UNL A   1      43.221  36.603  29.584  1.00  0.00     0.031 A 
ATOM     60  C   UNL A   1      43.577  35.917  31.872  1.00  0.00     0.131 A 
ATOM     61  C   UNL A   1      43.843  37.821  29.877  1.00  0.00     0.055 A 
ATOM     62  C   UNL A   1      44.138  37.158  32.175  1.00  0.00     0.041 A 
ATOM     63  F   UNL A   1      43.503  35.005  32.856  1.00  0.00    -0.206 F 
ATOM     64  C   UNL A   1      44.291  38.109  31.170  1.00  0.00     0.022 A 
BRANCH  61  65
ATOM     65  S   UNL A   1      44.196  39.026  28.568  1.00  0.00     0.124 S 
ATOM     66  O   UNL A   1      43.903  38.256  27.362  1.00  0.00    -0.237 OA
ATOM     67  O   UNL A   1      43.248  40.095  28.872  1.00  0.00    -0.237 OA
ATOM     68  O   UNL A   1      45.603  39.360  28.766  1.00  0.00    -0.744 OA
ENDBRANCH  61  65
ENDBRANCH  35  58
ENDBRANCH   9  10
ENDBRANCH   2   4
ENDBRANCH   1   2
BRANCH   1  69
ATOM     69  C   UNL A   1      40.734  20.122  26.648  1.00  0.00     0.275 C 
BRANCH  69  70
ATOM     70  C   UNL A   1      42.184  20.030  26.170  1.00  0.00     0.275 C 
BRANCH  70  71
ATOM     71  O   UNL A   1      42.992  21.154  26.547  1.00  0.00    -0.458 OA
BRANCH  71  72
ATOM     72  C   UNL A   1      43.143  22.116  25.595  1.00  0.00     0.339 C 
ATOM     73  O   UNL A   1      42.418  22.286  24.626  1.00  0.00    -0.246 OA
BRANCH  72  74
ATOM     74  C   UNL A   1      44.294  22.989  25.927  1.00  0.00     0.074 A 
ATOM     75  C   UNL A   1      45.198  23.183  24.956  1.00  0.00     0.088 A 
ATOM     76  C   UNL A   1      44.480  23.625  27.246  1.00  0.00     0.014 A 
ATOM     77  C   UNL A   1      46.396  24.012  25.182  1.00  0.00     0.249 A 
ATOM     78  C   UNL A   1      45.699  24.280  27.506  1.00  0.00     0.063 A 
ATOM     79  C   UNL A   1      43.542  23.514  28.282  1.00  0.00     0.011 A 
ATOM     80  O   UNL A   1      47.138  24.279  24.247  1.00  0.00    -0.270 OA
ATOM     81  N   UNL A   1      46.620  24.435  26.457  1.00  0.00    -0.321 N 
ATOM     82  C   UNL A   1      45.986  24.765  28.790  1.00  0.00     0.042 A 
ATOM     83  C   UNL A   1      43.829  24.005  29.560  1.00  0.00     0.002 A 
ATOM     84  H   UNL A   1      47.478  24.876  26.655  1.00  0.00     0.170 HD
ATOM     85  Br  UNL A   1      47.642  25.595  29.195  1.00  0.00    -0.049 Br
ATOM     86  C   UNL A   1      45.053  24.618  29.817  1.00  0.00     0.018 A 
ENDBRANCH  72  74
ENDBRANCH  71  72
ENDBRANCH  70  71
ENDBRANCH  69  70
ENDBRANCH   1  69
TORSDOF 14
ENDMDL
MODEL 3
REMARK VINA RESULT:     -11.6      3.982     10.940
REMARK SMILES O=C(OCCOC(=O)c1cc(=O)[nH]c2c(Br)cccc12)c1ccc(-c2c3nc(c(-c4cc(S(=O)(=O)[O-])ccc4F)c4ccc([nH]4)c(-c4cc(S(=O)(=O)[O-])ccc4F)c4nc(c(-c5cc(S(=O)(=O)[O-])ccc5F)c5ccc2[nH]5)C=C4)C=C3)cc1
REMARK SMILES IDX 3 1 2 2 1 3 21 4 22 5 83 6 23 7 82 8 24 9 25 10 26 11 76 12
REMARK SMILES IDX 27 13 81 14 75 15 77 16 28 17 80 18 74 19 73 20 29 22 61 23
REMARK SMILES IDX 41 24 60 25 42 26 45 27 59 28 78 29 43 30 44 31 58 33 79 34
REMARK SMILES IDX 46 35 30 36 31 37 39 38 32 39 38 40 40 41 37 42 33 43 34 44
REMARK SMILES IDX 35 45 36 46 62 47 63 48 71 49 64 50 70 51 72 52 69 53 65 54
REMARK SMILES IDX 66 55 67 56 68 57 47 58 48 59 56 60 49 61 55 62 57 63 54 64
REMARK SMILES IDX 50 65 51 66 52 67 53 68 4 69 5 70 6 71 7 72 8 73 9 74 10 75
REMARK SMILES IDX 20 76 11 77 14 78 19 79 12 80 13 81 15 82 18 83 16 85 17 86
REMARK H PARENT 77 21 45 32 13 84
REMARK Flexibility Score: inf
ROOT
ATOM      1  O   UNL A   1      33.824  31.789  27.752  1.00  0.00    -0.458 OA
ENDROOT
BRANCH   1   2
ATOM      2  C   UNL A   1      34.242  30.514  27.544  1.00  0.00     0.338 C 
ATOM      3  O   UNL A   1      33.419  29.662  27.217  1.00  0.00    -0.246 OA
BRANCH   2   4
ATOM      4  C   UNL A   1      35.610  30.067  27.944  1.00  0.00     0.060 A 
ATOM      5  C   UNL A   1      35.732  29.544  29.239  1.00  0.00     0.016 A 
ATOM      6  C   UNL A   1      36.758  30.118  27.150  1.00  0.00     0.016 A 
ATOM      7  C   UNL A   1      36.983  29.230  29.776  1.00  0.00     0.010 A 
ATOM      8  C   UNL A   1      38.011  29.774  27.673  1.00  0.00     0.010 A 
ATOM      9  C   UNL A   1      38.140  29.351  28.997  1.00  0.00    -0.014 A 
BRANCH   9  10
ATOM     10  C   UNL A   1      39.434  28.824  29.493  1.00  0.00     0.031 A 
ATOM     11  C   UNL A   1      40.043  27.550  28.980  1.00  0.00     0.074 A 
ATOM     12  C   UNL A   1      40.038  29.513  30.479  1.00  0.00     0.049 A 
ATOM     13  N   UNL A   1      41.229  27.059  29.228  1.00  0.00    -0.248 NA
ATOM     14  C   UNL A   1      39.237  26.727  28.068  1.00  0.00     0.031 C 
ATOM     15  C   UNL A   1      39.503  30.734  31.086  1.00  0.00     0.029 A 
ATOM     16  N   UNL A   1      41.205  29.285  31.158  1.00  0.00    -0.354 N 
ATOM     17  C   UNL A   1      41.346  25.921  28.435  1.00  0.00     0.074 A 
ATOM     18  C   UNL A   1      40.086  25.755  27.750  1.00  0.00     0.031 C 
ATOM     19  C   UNL A   1      40.338  31.147  32.047  1.00  0.00     0.029 A 
ATOM     20  C   UNL A   1      41.433  30.192  32.166  1.00  0.00     0.049 A 
ATOM     21  H   UNL A   1      41.818  28.545  30.946  1.00  0.00     0.167 HD
ATOM     22  C   UNL A   1      42.417  25.103  28.295  1.00  0.00     0.034 A 
ATOM     23  C   UNL A   1      42.399  30.237  33.103  1.00  0.00     0.034 A 
ATOM     24  C   UNL A   1      43.604  25.207  29.102  1.00  0.00     0.049 A 
ATOM     25  C   UNL A   1      43.498  29.214  33.044  1.00  0.00     0.074 A 
ATOM     26  C   UNL A   1      44.742  24.422  29.053  1.00  0.00     0.029 A 
ATOM     27  N   UNL A   1      43.784  26.110  30.141  1.00  0.00    -0.354 N 
ATOM     28  N   UNL A   1      43.676  28.251  32.170  1.00  0.00    -0.248 NA
ATOM     29  C   UNL A   1      44.534  29.284  34.079  1.00  0.00     0.031 C 
ATOM     30  C   UNL A   1      45.550  24.769  30.135  1.00  0.00     0.029 A 
ATOM     31  C   UNL A   1      44.975  25.845  30.796  1.00  0.00     0.049 A 
ATOM     32  H   UNL A   1      43.158  26.831  30.378  1.00  0.00     0.167 HD
ATOM     33  C   UNL A   1      44.859  27.618  32.531  1.00  0.00     0.074 A 
ATOM     34  C   UNL A   1      45.363  28.322  33.693  1.00  0.00     0.031 C 
ATOM     35  C   UNL A   1      45.470  26.553  31.954  1.00  0.00     0.034 A 
BRANCH  22  36
ATOM     36  C   UNL A   1      42.386  24.017  27.248  1.00  0.00     0.023 A 
ATOM     37  C   UNL A   1      41.837  22.754  27.540  1.00  0.00     0.031 A 
ATOM     38  C   UNL A   1      43.082  24.175  26.035  1.00  0.00     0.131 A 
ATOM     39  C   UNL A   1      42.035  21.685  26.654  1.00  0.00     0.055 A 
ATOM     40  C   UNL A   1      43.245  23.116  25.139  1.00  0.00     0.041 A 
ATOM     41  F   UNL A   1      43.654  25.349  25.728  1.00  0.00    -0.206 F 
ATOM     42  C   UNL A   1      42.732  21.861  25.453  1.00  0.00     0.022 A 
BRANCH  39  43
ATOM     43  S   UNL A   1      41.461  20.011  27.056  1.00  0.00     0.124 S 
ATOM     44  O   UNL A   1      40.545  19.732  25.952  1.00  0.00    -0.237 OA
ATOM     45  O   UNL A   1      42.705  19.249  27.042  1.00  0.00    -0.237 OA
ATOM     46  O   UNL A   1      40.825  20.164  28.360  1.00  0.00    -0.744 OA
ENDBRANCH  39  43
ENDBRANCH  22  36
BRANCH  23  47
ATOM     47  C   UNL A   1      42.350  31.323  34.125  1.00  0.00     0.023 A 
ATOM     48  C   UNL A   1      41.410  31.276  35.173  1.00  0.00     0.031 A 
ATOM     49  C   UNL A   1      43.126  32.483  33.985  1.00  0.00     0.131 A 
ATOM     50  C   UNL A   1      41.206  32.403  35.979  1.00  0.00     0.055 A 
ATOM     51  C   UNL A   1      42.977  33.573  34.843  1.00  0.00     0.041 A 
ATOM     52  F   UNL A   1      44.022  32.582  32.991  1.00  0.00    -0.206 F 
ATOM     53  C   UNL A   1      41.996  33.546  35.832  1.00  0.00     0.022 A 
BRANCH  50  54
ATOM     54  S   UNL A   1      39.795  32.482  37.119  1.00  0.00     0.124 S 
ATOM     55  O   UNL A   1      39.024  31.306  36.730  1.00  0.00    -0.237 OA
ATOM     56  O   UNL A   1      40.454  32.405  38.420  1.00  0.00    -0.237 OA
ATOM     57  O   UNL A   1      39.178  33.770  36.816  1.00  0.00    -0.744 OA
ENDBRANCH  50  54
ENDBRANCH  23  47
BRANCH  35  58
ATOM     58  C   UNL A   1      46.761  26.051  32.554  1.00  0.00     0.023 A 
ATOM     59  C   UNL A   1      47.989  26.398  31.958  1.00  0.00     0.031 A 
ATOM     60  C   UNL A   1      46.769  25.108  33.595  1.00  0.00     0.131 A 
ATOM     61  C   UNL A   1      49.165  25.763  32.367  1.00  0.00     0.055 A 
ATOM     62  C   UNL A   1      47.954  24.525  34.043  1.00  0.00     0.041 A 
ATOM     63  F   UNL A   1      45.622  24.735  34.187  1.00  0.00    -0.206 F 
ATOM     64  C   UNL A   1      49.156  24.836  33.415  1.00  0.00     0.022 A 
BRANCH  61  65
ATOM     65  S   UNL A   1      50.725  26.027  31.480  1.00  0.00     0.124 S 
ATOM     66  O   UNL A   1      51.344  24.706  31.559  1.00  0.00    -0.237 OA
ATOM     67  O   UNL A   1      50.259  26.420  30.153  1.00  0.00    -0.237 OA
ATOM     68  O   UNL A   1      51.394  27.073  32.246  1.00  0.00    -0.744 OA
ENDBRANCH  61  65
ENDBRANCH  35  58
ENDBRANCH   9  10
ENDBRANCH   2   4
ENDBRANCH   1   2
BRANCH   1  69
ATOM     69  C   UNL A   1      32.513  32.331  27.528  1.00  0.00     0.275 C 
BRANCH  69  70
ATOM     70  C   UNL A   1      32.478  33.848  27.327  1.00  0.00     0.275 C 
BRANCH  70  71
ATOM     71  O   UNL A   1      32.415  34.593  28.552  1.00  0.00    -0.458 OA
BRANCH  71  72
ATOM     72  C   UNL A   1      33.575  35.193  28.936  1.00  0.00     0.339 C 
ATOM     73  O   UNL A   1      34.398  35.704  28.191  1.00  0.00    -0.246 OA
BRANCH  72  74
ATOM     74  C   UNL A   1      33.683  35.200  30.414  1.00  0.00     0.074 A 
ATOM     75  C   UNL A   1      32.949  36.116  31.063  1.00  0.00     0.088 A 
ATOM     76  C   UNL A   1      34.547  34.275  31.172  1.00  0.00     0.014 A 
ATOM     77  C   UNL A   1      32.998  36.232  32.532  1.00  0.00     0.249 A 
ATOM     78  C   UNL A   1      34.712  34.494  32.553  1.00  0.00     0.063 A 
ATOM     79  C   UNL A   1      35.290  33.255  30.560  1.00  0.00     0.011 A 
ATOM     80  O   UNL A   1      32.227  36.985  33.111  1.00  0.00    -0.270 OA
ATOM     81  N   UNL A   1      33.934  35.482  33.178  1.00  0.00    -0.321 N 
ATOM     82  C   UNL A   1      35.639  33.740  33.287  1.00  0.00     0.042 A 
ATOM     83  C   UNL A   1      36.208  32.500  31.297  1.00  0.00     0.002 A 
ATOM     84  H   UNL A   1      34.072  35.642  34.140  1.00  0.00     0.170 HD
ATOM     85  Br  UNL A   1      35.935  34.050  35.135  1.00  0.00    -0.049 Br
ATOM     86  C   UNL A   1      36.392  32.750  32.655  1.00  0.00     0.018 A 
ENDBRANCH  72  74
ENDBRANCH  71  72
ENDBRANCH  70  71
ENDBRANCH  69  70
ENDBRANCH   1  69
TORSDOF 14
ENDMDL
