MODEL 1
REMARK VINA RESULT:     -13.2      0.000      0.000
REMARK SMILES COc1cc2c(cc1OC)-c1c(c(C(=O)Nc3ccc(C(=O)OCCOC(=O)c4ccc(-c5c6nc(c(-c7cc(S(=O)(=O)[O-])ccc7F)c7ccc([nH]7)c(-c7cc(S(=O)(=O)[O-])ccc7F)c7nc(c(-c8cc(S(=O)(=O)[O-])ccc8F)c8ccc5[nH]8)C=C7)C=C6)cc4)cc3)nn1-c1ccc(F)cc1)C2
REMARK SMILES IDX 24 1 23 2 21 3 22 4 20 5 17 6 18 7 93 8 19 9 92 10 16 11
REMARK SMILES IDX 14 12 15 13 13 15 3 16 4 17 8 18 5 19 7 20 6 21 103 22 11 23
REMARK SMILES IDX 12 24 95 25 94 26 2 27 1 28 9 29 10 30 96 31 97 32 102 33
REMARK SMILES IDX 98 34 101 35 99 36 100 37 25 38 26 39 27 40 28 41 29 42
REMARK SMILES IDX 30 43 91 44 31 45 90 46 32 47 33 48 34 49 84 50 35 51 89 52
REMARK SMILES IDX 83 53 85 54 36 55 88 56 82 57 81 58 37 60 69 61 49 62 68 63
REMARK SMILES IDX 50 64 53 65 67 66 86 67 51 68 52 69 66 71 87 72 54 73 38 74
REMARK SMILES IDX 39 75 47 76 40 77 46 78 48 79 45 80 41 81 42 82 43 83 44 84
REMARK SMILES IDX 70 85 71 86 79 87 72 88 78 89 80 90 77 91 73 92 74 93 75 94
REMARK SMILES IDX 76 95 55 96 56 97 64 98 57 99 63 100 65 101 62 102 58 103
REMARK SMILES IDX 59 104 60 105 61 106
REMARK H PARENT 16 14 85 59 53 70
REMARK Flexibility Score: inf
ROOT
ATOM      1  C   UNL A   1      36.101  29.625  27.704  1.00  0.00     0.275 C 
ENDROOT
BRANCH   1   2
ATOM      2  O   UNL A   1      34.843  28.984  27.348  1.00  0.00    -0.458 OA
BRANCH   2   3
ATOM      3  C   UNL A   1      33.720  29.770  27.335  1.00  0.00     0.338 C 
ATOM      4  O   UNL A   1      33.681  30.945  27.646  1.00  0.00    -0.246 OA
BRANCH   3   5
ATOM      5  C   UNL A   1      32.604  29.054  26.633  1.00  0.00     0.060 A 
ATOM      6  C   UNL A   1      31.022  27.282  25.125  1.00  0.00     0.041 A 
ATOM      7  C   UNL A   1      31.700  28.311  24.486  1.00  0.00     0.027 A 
ATOM      8  C   UNL A   1      30.956  27.290  26.523  1.00  0.00     0.027 A 
ATOM      9  C   UNL A   1      32.450  29.217  25.251  1.00  0.00     0.018 A 
ATOM     10  C   UNL A   1      31.778  28.141  27.278  1.00  0.00     0.018 A 
BRANCH   6  11
ATOM     11  N   UNL A   1      30.163  26.457  24.408  1.00  0.00    -0.321 N 
ATOM     12  C   UNL A   1      30.343  25.249  23.758  1.00  0.00     0.276 C 
ATOM     13  O   UNL A   1      29.400  24.944  23.014  1.00  0.00    -0.267 OA
ATOM     14  H   UNL A   1      29.244  26.803  24.350  1.00  0.00     0.170 HD
BRANCH  12  15
ATOM     15  C   UNL A   1      31.499  24.320  23.923  1.00  0.00     0.155 A 
ATOM     16  C   UNL A   1      37.266  23.540  25.581  1.00  0.00     0.161 A 
ATOM     17  C   UNL A   1      36.248  24.480  25.845  1.00  0.00     0.055 A 
ATOM     18  C   UNL A   1      36.981  22.330  24.926  1.00  0.00     0.161 A 
ATOM     19  C   UNL A   1      34.993  24.330  25.268  1.00  0.00    -0.030 A 
ATOM     20  C   UNL A   1      35.686  22.127  24.442  1.00  0.00     0.061 A 
ATOM     21  C   UNL A   1      34.738  23.120  24.620  1.00  0.00     0.008 A 
ATOM     22  C   UNL A   1      33.793  25.330  25.164  1.00  0.00     0.076 C 
ATOM     23  C   UNL A   1      33.381  23.204  24.222  1.00  0.00     0.079 A 
ATOM     24  C   UNL A   1      32.819  24.431  24.455  1.00  0.00     0.016 A 
ATOM     25  N   UNL A   1      32.390  22.332  23.956  1.00  0.00    -0.232 N 
ATOM     26  N   UNL A   1      31.291  23.007  23.561  1.00  0.00    -0.162 NA
BRANCH  16  27
ATOM     27  O   UNL A   1      38.531  23.893  25.985  1.00  0.00    -0.493 OA
ATOM     28  C   UNL A   1      38.510  24.413  27.321  1.00  0.00     0.278 C 
ENDBRANCH  16  27
BRANCH  18  29
ATOM     29  O   UNL A   1      37.811  21.275  24.671  1.00  0.00    -0.493 OA
ATOM     30  C   UNL A   1      37.310  19.950  24.735  1.00  0.00     0.278 C 
ENDBRANCH  18  29
BRANCH  25  31
ATOM     31  C   UNL A   1      32.420  20.950  24.255  1.00  0.00     0.065 A 
ATOM     32  C   UNL A   1      32.344  20.000  23.239  1.00  0.00     0.031 A 
ATOM     33  C   UNL A   1      32.673  20.556  25.586  1.00  0.00     0.031 A 
ATOM     34  C   UNL A   1      32.632  18.665  23.548  1.00  0.00     0.041 A 
ATOM     35  C   UNL A   1      32.932  19.223  25.889  1.00  0.00     0.041 A 
ATOM     36  C   UNL A   1      32.934  18.293  24.861  1.00  0.00     0.123 A 
ATOM     37  F   UNL A   1      33.246  17.019  25.137  1.00  0.00    -0.207 F 
ENDBRANCH  25  31
ENDBRANCH  12  15
ENDBRANCH   6  11
ENDBRANCH   3   5
ENDBRANCH   2   3
ENDBRANCH   1   2
BRANCH   1  38
ATOM     38  C   UNL A   1      36.354  29.667  29.233  1.00  0.00     0.275 C 
BRANCH  38  39
ATOM     39  O   UNL A   1      37.688  29.210  29.549  1.00  0.00    -0.458 OA
BRANCH  39  40
ATOM     40  C   UNL A   1      38.598  30.106  29.121  1.00  0.00     0.338 C 
ATOM     41  O   UNL A   1      38.883  31.134  29.729  1.00  0.00    -0.246 OA
BRANCH  40  42
ATOM     42  C   UNL A   1      39.576  29.486  28.236  1.00  0.00     0.060 A 
ATOM     43  C   UNL A   1      39.814  29.519  26.868  1.00  0.00     0.016 A 
ATOM     44  C   UNL A   1      40.377  28.688  29.014  1.00  0.00     0.016 A 
ATOM     45  C   UNL A   1      40.842  28.681  26.371  1.00  0.00     0.010 A 
ATOM     46  C   UNL A   1      41.627  28.438  28.565  1.00  0.00     0.010 A 
ATOM     47  C   UNL A   1      41.681  28.015  27.275  1.00  0.00    -0.014 A 
BRANCH  47  48
ATOM     48  C   UNL A   1      42.836  27.173  27.024  1.00  0.00     0.031 A 
ATOM     49  C   UNL A   1      42.498  25.786  26.713  1.00  0.00     0.074 A 
ATOM     50  C   UNL A   1      44.093  27.634  26.810  1.00  0.00     0.049 A 
ATOM     51  N   UNL A   1      42.318  24.870  27.602  1.00  0.00    -0.248 NA
ATOM     52  C   UNL A   1      42.118  25.397  25.350  1.00  0.00     0.031 C 
ATOM     53  C   UNL A   1      44.564  29.027  26.786  1.00  0.00     0.029 A 
ATOM     54  N   UNL A   1      45.230  26.933  26.521  1.00  0.00    -0.354 N 
ATOM     55  C   UNL A   1      42.169  23.709  26.870  1.00  0.00     0.074 A 
ATOM     56  C   UNL A   1      41.747  24.128  25.556  1.00  0.00     0.031 C 
ATOM     57  C   UNL A   1      45.832  29.083  26.312  1.00  0.00     0.029 A 
ATOM     58  C   UNL A   1      46.328  27.722  26.206  1.00  0.00     0.049 A 
ATOM     59  H   UNL A   1      45.268  25.950  26.534  1.00  0.00     0.167 HD
ATOM     60  C   UNL A   1      42.771  22.566  27.304  1.00  0.00     0.034 A 
ATOM     61  C   UNL A   1      47.631  27.356  26.120  1.00  0.00     0.034 A 
ATOM     62  C   UNL A   1      43.435  22.801  28.569  1.00  0.00     0.049 A 
ATOM     63  C   UNL A   1      47.810  26.165  26.976  1.00  0.00     0.074 A 
ATOM     64  C   UNL A   1      43.047  22.959  29.881  1.00  0.00     0.029 A 
ATOM     65  N   UNL A   1      44.706  23.321  28.454  1.00  0.00    -0.354 N 
ATOM     66  N   UNL A   1      47.717  26.204  28.277  1.00  0.00    -0.248 NA
ATOM     67  C   UNL A   1      47.744  24.832  26.385  1.00  0.00     0.031 C 
ATOM     68  C   UNL A   1      44.071  23.719  30.516  1.00  0.00     0.029 A 
ATOM     69  C   UNL A   1      45.088  23.978  29.598  1.00  0.00     0.049 A 
ATOM     70  H   UNL A   1      45.269  23.233  27.651  1.00  0.00     0.167 HD
ATOM     71  C   UNL A   1      47.108  25.009  28.596  1.00  0.00     0.074 A 
ATOM     72  C   UNL A   1      47.330  24.140  27.449  1.00  0.00     0.031 C 
ATOM     73  C   UNL A   1      46.193  24.924  29.603  1.00  0.00     0.034 A 
BRANCH  60  74
ATOM     74  C   UNL A   1      43.154  21.390  26.445  1.00  0.00     0.023 A 
ATOM     75  C   UNL A   1      44.444  21.180  25.936  1.00  0.00     0.031 A 
ATOM     76  C   UNL A   1      42.239  20.332  26.262  1.00  0.00     0.131 A 
ATOM     77  C   UNL A   1      44.789  19.994  25.277  1.00  0.00     0.055 A 
ATOM     78  C   UNL A   1      42.598  19.122  25.659  1.00  0.00     0.041 A 
ATOM     79  F   UNL A   1      40.973  20.430  26.698  1.00  0.00    -0.206 F 
ATOM     80  C   UNL A   1      43.882  18.947  25.162  1.00  0.00     0.022 A 
BRANCH  77  81
ATOM     81  S   UNL A   1      46.444  19.797  24.562  1.00  0.00     0.124 S 
ATOM     82  O   UNL A   1      46.846  21.183  24.354  1.00  0.00    -0.237 OA
ATOM     83  O   UNL A   1      47.140  19.086  25.631  1.00  0.00    -0.237 OA
ATOM     84  O   UNL A   1      46.199  19.015  23.355  1.00  0.00    -0.744 OA
ENDBRANCH  77  81
ENDBRANCH  60  74
BRANCH  61  85
ATOM     85  C   UNL A   1      48.564  27.669  25.014  1.00  0.00     0.023 A 
ATOM     86  C   UNL A   1      48.142  27.538  23.679  1.00  0.00     0.031 A 
ATOM     87  C   UNL A   1      49.945  27.792  25.253  1.00  0.00     0.131 A 
ATOM     88  C   UNL A   1      49.088  27.451  22.648  1.00  0.00     0.055 A 
ATOM     89  C   UNL A   1      50.885  27.727  24.218  1.00  0.00     0.041 A 
ATOM     90  F   UNL A   1      50.410  27.907  26.506  1.00  0.00    -0.206 F 
ATOM     91  C   UNL A   1      50.459  27.533  22.909  1.00  0.00     0.022 A 
BRANCH  88  92
ATOM     92  S   UNL A   1      48.564  27.129  20.940  1.00  0.00     0.124 S 
ATOM     93  O   UNL A   1      47.263  27.791  20.888  1.00  0.00    -0.237 OA
ATOM     94  O   UNL A   1      49.629  27.776  20.181  1.00  0.00    -0.237 OA
ATOM     95  O   UNL A   1      48.519  25.672  20.868  1.00  0.00    -0.744 OA
ENDBRANCH  88  92
ENDBRANCH  61  85
BRANCH  73  96
ATOM     96  C   UNL A   1      46.237  25.947  30.708  1.00  0.00     0.023 A 
ATOM     97  C   UNL A   1      47.129  25.690  31.763  1.00  0.00     0.031 A 
ATOM     98  C   UNL A   1      45.367  27.043  30.846  1.00  0.00     0.131 A 
ATOM     99  C   UNL A   1      47.087  26.454  32.933  1.00  0.00     0.055 A 
ATOM    100  C   UNL A   1      45.376  27.851  31.991  1.00  0.00     0.041 A 
ATOM    101  F   UNL A   1      44.446  27.328  29.919  1.00  0.00    -0.206 F 
ATOM    102  C   UNL A   1      46.223  27.544  33.050  1.00  0.00     0.022 A 
BRANCH  99 103
ATOM    103  S   UNL A   1      48.045  25.945  34.381  1.00  0.00     0.124 S 
ATOM    104  O   UNL A   1      47.164  26.322  35.484  1.00  0.00    -0.237 OA
ATOM    105  O   UNL A   1      48.195  24.508  34.163  1.00  0.00    -0.237 OA
ATOM    106  O   UNL A   1      49.280  26.715  34.277  1.00  0.00    -0.744 OA
ENDBRANCH  99 103
ENDBRANCH  73  96
ENDBRANCH  47  48
ENDBRANCH  40  42
ENDBRANCH  39  40
ENDBRANCH  38  39
ENDBRANCH   1  38
TORSDOF 19
ENDMDL
MODEL 2
REMARK VINA RESULT:     -12.6      4.773      9.996
REMARK SMILES COc1cc2c(cc1OC)-c1c(c(C(=O)Nc3ccc(C(=O)OCCOC(=O)c4ccc(-c5c6nc(c(-c7cc(S(=O)(=O)[O-])ccc7F)c7ccc([nH]7)c(-c7cc(S(=O)(=O)[O-])ccc7F)c7nc(c(-c8cc(S(=O)(=O)[O-])ccc8F)c8ccc5[nH]8)C=C7)C=C6)cc4)cc3)nn1-c1ccc(F)cc1)C2
REMARK SMILES IDX 24 1 23 2 21 3 22 4 20 5 17 6 18 7 93 8 19 9 92 10 16 11
REMARK SMILES IDX 14 12 15 13 13 15 3 16 4 17 8 18 5 19 7 20 6 21 103 22 11 23
REMARK SMILES IDX 12 24 95 25 94 26 2 27 1 28 9 29 10 30 96 31 97 32 102 33
REMARK SMILES IDX 98 34 101 35 99 36 100 37 25 38 26 39 27 40 28 41 29 42
REMARK SMILES IDX 30 43 91 44 31 45 90 46 32 47 33 48 34 49 84 50 35 51 89 52
REMARK SMILES IDX 83 53 85 54 36 55 88 56 82 57 81 58 37 60 69 61 49 62 68 63
REMARK SMILES IDX 50 64 53 65 67 66 86 67 51 68 52 69 66 71 87 72 54 73 38 74
REMARK SMILES IDX 39 75 47 76 40 77 46 78 48 79 45 80 41 81 42 82 43 83 44 84
REMARK SMILES IDX 70 85 71 86 79 87 72 88 78 89 80 90 77 91 73 92 74 93 75 94
REMARK SMILES IDX 76 95 55 96 56 97 64 98 57 99 63 100 65 101 62 102 58 103
REMARK SMILES IDX 59 104 60 105 61 106
REMARK H PARENT 16 14 85 59 53 70
REMARK Flexibility Score: inf
ROOT
ATOM      1  C   UNL A   1      38.626  21.309  25.691  1.00  0.00     0.275 C 
ENDROOT
BRANCH   1   2
ATOM      2  O   UNL A   1      38.421  22.660  25.189  1.00  0.00    -0.458 OA
BRANCH   2   3
ATOM      3  C   UNL A   1      37.381  23.377  25.721  1.00  0.00     0.338 C 
ATOM      4  O   UNL A   1      37.492  24.300  26.503  1.00  0.00    -0.246 OA
BRANCH   3   5
ATOM      5  C   UNL A   1      36.107  23.037  25.004  1.00  0.00     0.060 A 
ATOM      6  C   UNL A   1      33.516  23.013  23.910  1.00  0.00     0.041 A 
ATOM      7  C   UNL A   1      33.713  22.588  25.217  1.00  0.00     0.027 A 
ATOM      8  C   UNL A   1      34.634  23.223  23.097  1.00  0.00     0.027 A 
ATOM      9  C   UNL A   1      35.015  22.561  25.739  1.00  0.00     0.018 A 
ATOM     10  C   UNL A   1      35.925  23.281  23.648  1.00  0.00     0.018 A 
BRANCH   6  11
ATOM     11  N   UNL A   1      32.257  22.918  23.326  1.00  0.00    -0.321 N 
ATOM     12  C   UNL A   1      31.143  23.737  23.354  1.00  0.00     0.276 C 
ATOM     13  O   UNL A   1      30.120  23.194  22.914  1.00  0.00    -0.267 OA
ATOM     14  H   UNL A   1      32.135  22.105  22.786  1.00  0.00     0.170 HD
BRANCH  12  15
ATOM     15  C   UNL A   1      31.103  25.161  23.799  1.00  0.00     0.155 A 
ATOM     16  C   UNL A   1      33.818  29.701  26.738  1.00  0.00     0.161 A 
ATOM     17  C   UNL A   1      34.221  28.491  26.136  1.00  0.00     0.055 A 
ATOM     18  C   UNL A   1      32.521  30.208  26.545  1.00  0.00     0.161 A 
ATOM     19  C   UNL A   1      33.283  27.668  25.526  1.00  0.00    -0.030 A 
ATOM     20  C   UNL A   1      31.605  29.431  25.833  1.00  0.00     0.061 A 
ATOM     21  C   UNL A   1      32.002  28.195  25.350  1.00  0.00     0.008 A 
ATOM     22  C   UNL A   1      33.394  26.186  25.034  1.00  0.00     0.076 C 
ATOM     23  C   UNL A   1      31.298  27.197  24.632  1.00  0.00     0.079 A 
ATOM     24  C   UNL A   1      32.008  26.037  24.471  1.00  0.00     0.016 A 
ATOM     25  N   UNL A   1      30.243  27.163  23.796  1.00  0.00    -0.232 N 
ATOM     26  N   UNL A   1      29.984  25.885  23.451  1.00  0.00    -0.162 NA
BRANCH  16  27
ATOM     27  O   UNL A   1      34.756  30.325  27.525  1.00  0.00    -0.493 OA
ATOM     28  C   UNL A   1      35.756  29.393  27.955  1.00  0.00     0.278 C 
ENDBRANCH  16  27
BRANCH  18  29
ATOM     29  O   UNL A   1      31.990  31.393  26.968  1.00  0.00    -0.493 OA
ATOM     30  C   UNL A   1      31.058  32.083  26.151  1.00  0.00     0.278 C 
ENDBRANCH  18  29
BRANCH  25  31
ATOM     31  C   UNL A   1      29.642  28.295  23.197  1.00  0.00     0.065 A 
ATOM     32  C   UNL A   1      30.396  29.172  22.419  1.00  0.00     0.031 A 
ATOM     33  C   UNL A   1      28.241  28.438  23.283  1.00  0.00     0.031 A 
ATOM     34  C   UNL A   1      29.723  30.124  21.642  1.00  0.00     0.041 A 
ATOM     35  C   UNL A   1      27.584  29.403  22.529  1.00  0.00     0.041 A 
ATOM     36  C   UNL A   1      28.330  30.221  21.694  1.00  0.00     0.123 A 
ATOM     37  F   UNL A   1      27.695  31.110  20.917  1.00  0.00    -0.207 F 
ENDBRANCH  25  31
ENDBRANCH  12  15
ENDBRANCH   6  11
ENDBRANCH   3   5
ENDBRANCH   2   3
ENDBRANCH   1   2
BRANCH   1  38
ATOM     38  C   UNL A   1      39.886  21.174  26.584  1.00  0.00     0.275 C 
BRANCH  38  39
ATOM     39  O   UNL A   1      40.157  22.408  27.285  1.00  0.00    -0.458 OA
BRANCH  39  40
ATOM     40  C   UNL A   1      41.421  22.809  27.048  1.00  0.00     0.338 C 
ATOM     41  O   UNL A   1      42.053  22.515  26.037  1.00  0.00    -0.246 OA
BRANCH  40  42
ATOM     42  C   UNL A   1      41.733  24.033  27.775  1.00  0.00     0.060 A 
ATOM     43  C   UNL A   1      42.719  24.406  28.680  1.00  0.00     0.016 A 
ATOM     44  C   UNL A   1      40.767  24.953  27.452  1.00  0.00     0.016 A 
ATOM     45  C   UNL A   1      42.621  25.703  29.242  1.00  0.00     0.010 A 
ATOM     46  C   UNL A   1      41.096  26.260  27.552  1.00  0.00     0.010 A 
ATOM     47  C   UNL A   1      41.671  26.600  28.735  1.00  0.00    -0.014 A 
BRANCH  47  48
ATOM     48  C   UNL A   1      41.426  27.988  29.081  1.00  0.00     0.031 A 
ATOM     49  C   UNL A   1      42.240  28.936  28.323  1.00  0.00     0.074 A 
ATOM     50  C   UNL A   1      40.372  28.425  29.812  1.00  0.00     0.049 A 
ATOM     51  N   UNL A   1      43.426  29.304  28.666  1.00  0.00    -0.248 NA
ATOM     52  C   UNL A   1      41.832  29.364  26.980  1.00  0.00     0.031 C 
ATOM     53  C   UNL A   1      39.280  27.638  30.404  1.00  0.00     0.029 A 
ATOM     54  N   UNL A   1      40.028  29.705  30.149  1.00  0.00    -0.354 N 
ATOM     55  C   UNL A   1      43.750  30.298  27.764  1.00  0.00     0.074 A 
ATOM     56  C   UNL A   1      42.909  30.069  26.614  1.00  0.00     0.031 C 
ATOM     57  C   UNL A   1      38.304  28.460  30.857  1.00  0.00     0.029 A 
ATOM     58  C   UNL A   1      38.798  29.824  30.781  1.00  0.00     0.049 A 
ATOM     59  H   UNL A   1      40.606  30.479  29.959  1.00  0.00     0.167 HD
ATOM     60  C   UNL A   1      44.390  31.417  28.205  1.00  0.00     0.034 A 
ATOM     61  C   UNL A   1      38.293  30.891  31.448  1.00  0.00     0.034 A 
ATOM     62  C   UNL A   1      44.684  31.299  29.619  1.00  0.00     0.049 A 
ATOM     63  C   UNL A   1      39.440  31.689  31.930  1.00  0.00     0.074 A 
ATOM     64  C   UNL A   1      45.594  30.611  30.390  1.00  0.00     0.029 A 
ATOM     65  N   UNL A   1      43.648  31.674  30.445  1.00  0.00    -0.354 N 
ATOM     66  N   UNL A   1      40.262  31.269  32.852  1.00  0.00    -0.248 NA
ATOM     67  C   UNL A   1      39.909  32.827  31.145  1.00  0.00     0.031 C 
ATOM     68  C   UNL A   1      45.002  30.464  31.677  1.00  0.00     0.029 A 
ATOM     69  C   UNL A   1      43.760  31.097  31.687  1.00  0.00     0.049 A 
ATOM     70  H   UNL A   1      42.918  32.279  30.179  1.00  0.00     0.167 HD
ATOM     71  C   UNL A   1      41.488  31.748  32.437  1.00  0.00     0.074 A 
ATOM     72  C   UNL A   1      41.190  32.841  31.523  1.00  0.00     0.031 C 
ATOM     73  C   UNL A   1      42.627  31.017  32.597  1.00  0.00     0.034 A 
BRANCH  60  74
ATOM     74  C   UNL A   1      44.371  32.766  27.537  1.00  0.00     0.023 A 
ATOM     75  C   UNL A   1      43.522  33.816  27.919  1.00  0.00     0.031 A 
ATOM     76  C   UNL A   1      45.362  33.089  26.587  1.00  0.00     0.131 A 
ATOM     77  C   UNL A   1      43.650  35.099  27.374  1.00  0.00     0.055 A 
ATOM     78  C   UNL A   1      45.532  34.384  26.087  1.00  0.00     0.041 A 
ATOM     79  F   UNL A   1      46.221  32.160  26.141  1.00  0.00    -0.206 F 
ATOM     80  C   UNL A   1      44.672  35.401  26.482  1.00  0.00     0.022 A 
BRANCH  77  81
ATOM     81  S   UNL A   1      42.479  36.405  27.833  1.00  0.00     0.124 S 
ATOM     82  O   UNL A   1      41.291  35.633  28.178  1.00  0.00    -0.237 OA
ATOM     83  O   UNL A   1      43.173  37.038  28.951  1.00  0.00    -0.237 OA
ATOM     84  O   UNL A   1      42.385  37.215  26.623  1.00  0.00    -0.744 OA
ENDBRANCH  77  81
ENDBRANCH  60  74
BRANCH  61  85
ATOM     85  C   UNL A   1      36.948  31.482  31.278  1.00  0.00     0.023 A 
ATOM     86  C   UNL A   1      36.578  32.047  30.044  1.00  0.00     0.031 A 
ATOM     87  C   UNL A   1      36.145  31.775  32.396  1.00  0.00     0.131 A 
ATOM     88  C   UNL A   1      35.495  32.934  29.973  1.00  0.00     0.055 A 
ATOM     89  C   UNL A   1      35.050  32.643  32.317  1.00  0.00     0.041 A 
ATOM     90  F   UNL A   1      36.453  31.276  33.603  1.00  0.00    -0.206 F 
ATOM     91  C   UNL A   1      34.734  33.246  31.104  1.00  0.00     0.022 A 
BRANCH  88  92
ATOM     92  S   UNL A   1      35.101  33.788  28.421  1.00  0.00     0.124 S 
ATOM     93  O   UNL A   1      36.060  33.192  27.492  1.00  0.00    -0.237 OA
ATOM     94  O   UNL A   1      33.709  33.402  28.219  1.00  0.00    -0.237 OA
ATOM     95  O   UNL A   1      35.338  35.193  28.736  1.00  0.00    -0.744 OA
ENDBRANCH  88  92
ENDBRANCH  61  85
BRANCH  73  96
ATOM     96  C   UNL A   1      42.669  29.972  33.681  1.00  0.00     0.023 A 
ATOM     97  C   UNL A   1      43.163  30.386  34.930  1.00  0.00     0.031 A 
ATOM     98  C   UNL A   1      42.404  28.602  33.510  1.00  0.00     0.131 A 
ATOM     99  C   UNL A   1      43.450  29.449  35.928  1.00  0.00     0.055 A 
ATOM    100  C   UNL A   1      42.625  27.674  34.536  1.00  0.00     0.041 A 
ATOM    101  F   UNL A   1      41.987  28.109  32.338  1.00  0.00    -0.206 F 
ATOM    102  C   UNL A   1      43.172  28.094  35.745  1.00  0.00     0.022 A 
BRANCH  99 103
ATOM    103  S   UNL A   1      44.335  29.961  37.421  1.00  0.00     0.124 S 
ATOM    104  O   UNL A   1      44.723  28.681  38.006  1.00  0.00    -0.237 OA
ATOM    105  O   UNL A   1      45.431  30.757  36.873  1.00  0.00    -0.237 OA
ATOM    106  O   UNL A   1      43.342  30.719  38.178  1.00  0.00    -0.744 OA
ENDBRANCH  99 103
ENDBRANCH  73  96
ENDBRANCH  47  48
ENDBRANCH  40  42
ENDBRANCH  39  40
ENDBRANCH  38  39
ENDBRANCH   1  38
TORSDOF 19
ENDMDL
MODEL 3
REMARK VINA RESULT:     -12.2      5.439     12.680
REMARK SMILES COc1cc2c(cc1OC)-c1c(c(C(=O)Nc3ccc(C(=O)OCCOC(=O)c4ccc(-c5c6nc(c(-c7cc(S(=O)(=O)[O-])ccc7F)c7ccc([nH]7)c(-c7cc(S(=O)(=O)[O-])ccc7F)c7nc(c(-c8cc(S(=O)(=O)[O-])ccc8F)c8ccc5[nH]8)C=C7)C=C6)cc4)cc3)nn1-c1ccc(F)cc1)C2
REMARK SMILES IDX 24 1 23 2 21 3 22 4 20 5 17 6 18 7 93 8 19 9 92 10 16 11
REMARK SMILES IDX 14 12 15 13 13 15 3 16 4 17 8 18 5 19 7 20 6 21 103 22 11 23
REMARK SMILES IDX 12 24 95 25 94 26 2 27 1 28 9 29 10 30 96 31 97 32 102 33
REMARK SMILES IDX 98 34 101 35 99 36 100 37 25 38 26 39 27 40 28 41 29 42
REMARK SMILES IDX 30 43 91 44 31 45 90 46 32 47 33 48 34 49 84 50 35 51 89 52
REMARK SMILES IDX 83 53 85 54 36 55 88 56 82 57 81 58 37 60 69 61 49 62 68 63
REMARK SMILES IDX 50 64 53 65 67 66 86 67 51 68 52 69 66 71 87 72 54 73 38 74
REMARK SMILES IDX 39 75 47 76 40 77 46 78 48 79 45 80 41 81 42 82 43 83 44 84
REMARK SMILES IDX 70 85 71 86 79 87 72 88 78 89 80 90 77 91 73 92 74 93 75 94
REMARK SMILES IDX 76 95 55 96 56 97 64 98 57 99 63 100 65 101 62 102 58 103
REMARK SMILES IDX 59 104 60 105 61 106
REMARK H PARENT 16 14 85 59 53 70
REMARK Flexibility Score: inf
ROOT
ATOM      1  C   UNL A   1      42.021  20.753  25.951  1.00  0.00     0.275 C 
ENDROOT
BRANCH   1   2
ATOM      2  O   UNL A   1      43.374  21.141  26.328  1.00  0.00    -0.458 OA
BRANCH   2   3
ATOM      3  C   UNL A   1      44.248  21.436  25.314  1.00  0.00     0.338 C 
ATOM      4  O   UNL A   1      44.439  20.748  24.330  1.00  0.00    -0.246 OA
BRANCH   3   5
ATOM      5  C   UNL A   1      44.739  22.846  25.456  1.00  0.00     0.060 A 
ATOM      6  C   UNL A   1      45.866  25.394  25.068  1.00  0.00     0.041 A 
ATOM      7  C   UNL A   1      46.680  24.333  25.439  1.00  0.00     0.027 A 
ATOM      8  C   UNL A   1      44.478  25.225  25.121  1.00  0.00     0.027 A 
ATOM      9  C   UNL A   1      46.102  23.077  25.674  1.00  0.00     0.018 A 
ATOM     10  C   UNL A   1      43.913  23.948  25.268  1.00  0.00     0.018 A 
BRANCH   6  11
ATOM     11  N   UNL A   1      46.392  26.677  24.964  1.00  0.00    -0.321 N 
ATOM     12  C   UNL A   1      46.817  27.599  25.904  1.00  0.00     0.276 C 
ATOM     13  O   UNL A   1      46.989  28.734  25.439  1.00  0.00    -0.267 OA
ATOM     14  H   UNL A   1      46.477  26.993  24.036  1.00  0.00     0.170 HD
BRANCH  12  15
ATOM     15  C   UNL A   1      47.118  27.323  27.340  1.00  0.00     0.155 A 
ATOM     16  C   UNL A   1      45.280  25.006  32.619  1.00  0.00     0.161 A 
ATOM     17  C   UNL A   1      44.941  24.839  31.260  1.00  0.00     0.055 A 
ATOM     18  C   UNL A   1      46.426  25.727  32.996  1.00  0.00     0.161 A 
ATOM     19  C   UNL A   1      45.606  25.567  30.281  1.00  0.00    -0.030 A 
ATOM     20  C   UNL A   1      47.164  26.369  31.998  1.00  0.00     0.061 A 
ATOM     21  C   UNL A   1      46.739  26.278  30.683  1.00  0.00     0.008 A 
ATOM     22  C   UNL A   1      45.269  25.786  28.768  1.00  0.00     0.076 C 
ATOM     23  C   UNL A   1      47.258  26.833  29.489  1.00  0.00     0.079 A 
ATOM     24  C   UNL A   1      46.454  26.633  28.398  1.00  0.00     0.016 A 
ATOM     25  N   UNL A   1      48.464  27.242  29.051  1.00  0.00    -0.232 N 
ATOM     26  N   UNL A   1      48.343  27.747  27.805  1.00  0.00    -0.162 NA
BRANCH  16  27
ATOM     27  O   UNL A   1      44.417  24.443  33.528  1.00  0.00    -0.493 OA
ATOM     28  C   UNL A   1      43.839  23.241  33.000  1.00  0.00     0.278 C 
ENDBRANCH  16  27
BRANCH  18  29
ATOM     29  O   UNL A   1      46.954  25.911  34.242  1.00  0.00    -0.493 OA
ATOM     30  C   UNL A   1      46.975  27.207  34.818  1.00  0.00     0.278 C 
ENDBRANCH  18  29
BRANCH  25  31
ATOM     31  C   UNL A   1      49.696  26.983  29.696  1.00  0.00     0.065 A 
ATOM     32  C   UNL A   1      50.471  28.027  30.196  1.00  0.00     0.031 A 
ATOM     33  C   UNL A   1      50.052  25.642  29.950  1.00  0.00     0.031 A 
ATOM     34  C   UNL A   1      51.542  27.719  31.044  1.00  0.00     0.041 A 
ATOM     35  C   UNL A   1      51.134  25.344  30.772  1.00  0.00     0.041 A 
ATOM     36  C   UNL A   1      51.854  26.388  31.332  1.00  0.00     0.123 A 
ATOM     37  F   UNL A   1      52.857  26.107  32.176  1.00  0.00    -0.207 F 
ENDBRANCH  25  31
ENDBRANCH  12  15
ENDBRANCH   6  11
ENDBRANCH   3   5
ENDBRANCH   2   3
ENDBRANCH   1   2
BRANCH   1  38
ATOM     38  C   UNL A   1      41.197  20.186  27.135  1.00  0.00     0.275 C 
BRANCH  38  39
ATOM     39  O   UNL A   1      40.715  21.250  27.986  1.00  0.00    -0.458 OA
BRANCH  39  40
ATOM     40  C   UNL A   1      40.332  22.303  27.239  1.00  0.00     0.338 C 
ATOM     41  O   UNL A   1      39.331  22.310  26.529  1.00  0.00    -0.246 OA
BRANCH  40  42
ATOM     42  C   UNL A   1      40.852  23.552  27.781  1.00  0.00     0.060 A 
ATOM     43  C   UNL A   1      42.079  23.960  28.291  1.00  0.00     0.016 A 
ATOM     44  C   UNL A   1      39.821  24.458  27.773  1.00  0.00     0.016 A 
ATOM     45  C   UNL A   1      42.156  25.274  28.813  1.00  0.00     0.010 A 
ATOM     46  C   UNL A   1      40.145  25.769  27.716  1.00  0.00     0.010 A 
ATOM     47  C   UNL A   1      41.077  26.151  28.628  1.00  0.00    -0.014 A 
BRANCH  47  48
ATOM     48  C   UNL A   1      40.942  27.549  28.993  1.00  0.00     0.031 A 
ATOM     49  C   UNL A   1      41.786  28.447  28.206  1.00  0.00     0.074 A 
ATOM     50  C   UNL A   1      39.952  28.049  29.772  1.00  0.00     0.049 A 
ATOM     51  N   UNL A   1      43.007  28.731  28.500  1.00  0.00    -0.248 NA
ATOM     52  C   UNL A   1      41.350  28.914  26.885  1.00  0.00     0.031 C 
ATOM     53  C   UNL A   1      38.837  27.331  30.406  1.00  0.00     0.029 A 
ATOM     54  N   UNL A   1      39.711  29.346  30.132  1.00  0.00    -0.354 N 
ATOM     55  C   UNL A   1      43.358  29.710  27.591  1.00  0.00     0.074 A 
ATOM     56  C   UNL A   1      42.455  29.548  26.477  1.00  0.00     0.031 C 
ATOM     57  C   UNL A   1      37.938  28.213  30.906  1.00  0.00     0.029 A 
ATOM     58  C   UNL A   1      38.520  29.541  30.817  1.00  0.00     0.049 A 
ATOM     59  H   UNL A   1      40.331  30.081  29.923  1.00  0.00     0.167 HD
ATOM     60  C   UNL A   1      44.092  30.779  28.012  1.00  0.00     0.034 A 
ATOM     61  C   UNL A   1      38.117  30.633  31.513  1.00  0.00     0.034 A 
ATOM     62  C   UNL A   1      44.437  30.627  29.410  1.00  0.00     0.049 A 
ATOM     63  C   UNL A   1      39.335  31.348  31.950  1.00  0.00     0.074 A 
ATOM     64  C   UNL A   1      45.330  29.873  30.137  1.00  0.00     0.029 A 
ATOM     65  N   UNL A   1      43.464  31.063  30.284  1.00  0.00    -0.354 N 
ATOM     66  N   UNL A   1      40.166  30.864  32.832  1.00  0.00    -0.248 NA
ATOM     67  C   UNL A   1      39.846  32.459  31.153  1.00  0.00     0.031 C 
ATOM     68  C   UNL A   1      44.785  29.753  31.448  1.00  0.00     0.029 A 
ATOM     69  C   UNL A   1      43.591  30.469  31.516  1.00  0.00     0.049 A 
ATOM     70  H   UNL A   1      42.767  31.718  30.053  1.00  0.00     0.167 HD
ATOM     71  C   UNL A   1      41.402  31.263  32.368  1.00  0.00     0.074 A 
ATOM     72  C   UNL A   1      41.140  32.383  31.475  1.00  0.00     0.031 C 
ATOM     73  C   UNL A   1      42.495  30.457  32.474  1.00  0.00     0.034 A 
BRANCH  60  74
ATOM     74  C   UNL A   1      44.135  32.132  27.355  1.00  0.00     0.023 A 
ATOM     75  C   UNL A   1      43.461  33.262  27.844  1.00  0.00     0.031 A 
ATOM     76  C   UNL A   1      45.026  32.361  26.285  1.00  0.00     0.131 A 
ATOM     77  C   UNL A   1      43.658  34.532  27.289  1.00  0.00     0.055 A 
ATOM     78  C   UNL A   1      45.271  33.638  25.770  1.00  0.00     0.041 A 
ATOM     79  F   UNL A   1      45.714  31.351  25.731  1.00  0.00    -0.206 F 
ATOM     80  C   UNL A   1      44.585  34.735  26.273  1.00  0.00     0.022 A 
BRANCH  77  81
ATOM     81  S   UNL A   1      42.705  35.950  27.897  1.00  0.00     0.124 S 
ATOM     82  O   UNL A   1      41.632  35.294  28.635  1.00  0.00    -0.237 OA
ATOM     83  O   UNL A   1      43.702  36.644  28.708  1.00  0.00    -0.237 OA
ATOM     84  O   UNL A   1      42.311  36.640  26.675  1.00  0.00    -0.744 OA
ENDBRANCH  77  81
ENDBRANCH  60  74
BRANCH  61  85
ATOM     85  C   UNL A   1      36.809  31.315  31.406  1.00  0.00     0.023 A 
ATOM     86  C   UNL A   1      36.264  31.596  30.140  1.00  0.00     0.031 A 
ATOM     87  C   UNL A   1      36.244  31.965  32.518  1.00  0.00     0.131 A 
ATOM     88  C   UNL A   1      35.252  32.557  30.008  1.00  0.00     0.055 A 
ATOM     89  C   UNL A   1      35.218  32.908  32.385  1.00  0.00     0.041 A 
ATOM     90  F   UNL A   1      36.729  31.748  33.750  1.00  0.00    -0.206 F 
ATOM     91  C   UNL A   1      34.732  33.224  31.121  1.00  0.00     0.022 A 
BRANCH  88  92
ATOM     92  S   UNL A   1      34.646  33.040  28.367  1.00  0.00     0.124 S 
ATOM     93  O   UNL A   1      33.922  34.276  28.658  1.00  0.00    -0.237 OA
ATOM     94  O   UNL A   1      35.896  33.203  27.630  1.00  0.00    -0.237 OA
ATOM     95  O   UNL A   1      33.810  31.913  27.968  1.00  0.00    -0.744 OA
ENDBRANCH  88  92
ENDBRANCH  61  85
BRANCH  73  96
ATOM     96  C   UNL A   1      42.513  29.400  33.548  1.00  0.00     0.023 A 
ATOM     97  C   UNL A   1      43.077  29.771  34.780  1.00  0.00     0.031 A 
ATOM     98  C   UNL A   1      42.158  28.051  33.377  1.00  0.00     0.131 A 
ATOM     99  C   UNL A   1      43.342  28.810  35.760  1.00  0.00     0.055 A 
ATOM    100  C   UNL A   1      42.360  27.102  34.388  1.00  0.00     0.041 A 
ATOM    101  F   UNL A   1      41.669  27.595  32.218  1.00  0.00    -0.206 F 
ATOM    102  C   UNL A   1      42.975  27.476  35.578  1.00  0.00     0.022 A 
BRANCH  99 103
ATOM    103  S   UNL A   1      44.312  29.252  37.222  1.00  0.00     0.124 S 
ATOM    104  O   UNL A   1      44.378  27.986  37.946  1.00  0.00    -0.237 OA
ATOM    105  O   UNL A   1      45.571  29.704  36.633  1.00  0.00    -0.237 OA
ATOM    106  O   UNL A   1      43.523  30.299  37.866  1.00  0.00    -0.744 OA
ENDBRANCH  99 103
ENDBRANCH  73  96
ENDBRANCH  47  48
ENDBRANCH  40  42
ENDBRANCH  39  40
ENDBRANCH  38  39
ENDBRANCH   1  38
TORSDOF 19
ENDMDL
