MODEL 1
REMARK VINA RESULT:     -13.8      0.000      0.000
REMARK SMILES O=C(OCCOC(=O)[C@H]1[C@H]2CC[C@H](CC2)[C@@H]1C(=O)Nc1sc2c(c1C(=O)N1CCCCC1)CCCC2)c1ccc(-c2c3nc(c(-c4cc(S(=O)(=O)[O-])ccc4F)c4ccc([nH]4)c(-c4cc(S(=O)(=O)[O-])ccc4F)c4nc(c(-c5cc(S(=O)(=O)[O-])ccc5F)c5ccc2[nH]5)C=C4)C=C3)cc1
REMARK SMILES IDX 4 1 3 2 2 3 1 4 37 5 38 6 99 7 39 8 98 9 40 10 41 11 42 12
REMARK SMILES IDX 92 13 43 14 97 15 91 16 93 17 44 18 96 19 90 20 89 21 45 23
REMARK SMILES IDX 77 24 57 25 76 26 58 27 61 28 75 29 94 30 59 31 60 32 74 34
REMARK SMILES IDX 95 35 62 36 46 37 47 38 55 39 48 40 54 41 56 42 53 43 49 44
REMARK SMILES IDX 50 45 51 46 52 47 78 48 79 49 87 50 80 51 86 52 88 53 85 54
REMARK SMILES IDX 81 55 82 56 83 57 84 58 63 59 64 60 72 61 65 62 71 63 73 64
REMARK SMILES IDX 70 65 66 66 67 67 68 68 69 69 5 70 6 71 7 72 8 73 9 74 10 75
REMARK SMILES IDX 16 76 15 77 11 78 13 79 14 80 12 81 17 82 18 83 19 84 20 86
REMARK SMILES IDX 21 87 24 88 22 89 23 90 36 91 33 92 35 93 34 94 25 95 26 96
REMARK SMILES IDX 27 97 28 98 32 99 29 100 31 101 30 102
REMARK H PARENT 93 22 61 33 19 85
REMARK Flexibility Score: inf
ROOT
ATOM      1  C   UNL A   1      32.841  30.456  26.639  1.00  0.00     0.275 C 
ENDROOT
BRANCH   1   2
ATOM      2  O   UNL A   1      33.414  31.207  27.733  1.00  0.00    -0.458 OA
BRANCH   2   3
ATOM      3  C   UNL A   1      34.610  31.827  27.898  1.00  0.00     0.338 C 
ATOM      4  O   UNL A   1      34.654  33.039  27.680  1.00  0.00    -0.246 OA
BRANCH   3   5
ATOM      5  C   UNL A   1      35.917  31.131  28.151  1.00  0.00     0.060 A 
ATOM      6  C   UNL A   1      37.159  31.706  28.342  1.00  0.00     0.016 A 
ATOM      7  C   UNL A   1      35.903  29.727  28.156  1.00  0.00     0.016 A 
ATOM      8  C   UNL A   1      38.258  30.906  28.753  1.00  0.00     0.010 A 
ATOM      9  C   UNL A   1      36.984  28.956  28.665  1.00  0.00     0.010 A 
ATOM     10  C   UNL A   1      38.157  29.558  29.122  1.00  0.00    -0.014 A 
BRANCH  10  11
ATOM     11  C   UNL A   1      39.358  28.730  29.584  1.00  0.00     0.031 A 
ATOM     12  C   UNL A   1      39.837  29.113  30.950  1.00  0.00     0.074 A 
ATOM     13  C   UNL A   1      40.058  27.741  28.945  1.00  0.00     0.049 A 
ATOM     14  N   UNL A   1      40.912  28.753  31.591  1.00  0.00    -0.248 NA
ATOM     15  C   UNL A   1      39.018  30.124  31.636  1.00  0.00     0.031 C 
ATOM     16  C   UNL A   1      39.815  27.203  27.618  1.00  0.00     0.029 A 
ATOM     17  N   UNL A   1      41.133  26.949  29.337  1.00  0.00    -0.354 N 
ATOM     18  C   UNL A   1      40.931  29.550  32.720  1.00  0.00     0.074 A 
ATOM     19  C   UNL A   1      39.831  30.479  32.606  1.00  0.00     0.031 C 
ATOM     20  C   UNL A   1      40.596  26.162  27.326  1.00  0.00     0.029 A 
ATOM     21  C   UNL A   1      41.510  25.970  28.419  1.00  0.00     0.049 A 
ATOM     22  H   UNL A   1      41.593  27.070  30.199  1.00  0.00     0.167 HD
ATOM     23  C   UNL A   1      41.760  29.496  33.785  1.00  0.00     0.034 A 
ATOM     24  C   UNL A   1      42.477  25.025  28.400  1.00  0.00     0.034 A 
ATOM     25  C   UNL A   1      42.854  28.577  33.888  1.00  0.00     0.049 A 
ATOM     26  C   UNL A   1      43.407  24.984  29.574  1.00  0.00     0.074 A 
ATOM     27  C   UNL A   1      43.786  28.459  34.899  1.00  0.00     0.029 A 
ATOM     28  N   UNL A   1      43.172  27.618  32.930  1.00  0.00    -0.354 N 
ATOM     29  N   UNL A   1      43.401  25.752  30.638  1.00  0.00    -0.248 NA
ATOM     30  C   UNL A   1      44.478  23.984  29.550  1.00  0.00     0.031 C 
ATOM     31  C   UNL A   1      44.690  27.454  34.538  1.00  0.00     0.029 A 
ATOM     32  C   UNL A   1      44.285  26.901  33.332  1.00  0.00     0.049 A 
ATOM     33  H   UNL A   1      42.677  27.471  32.091  1.00  0.00     0.167 HD
ATOM     34  C   UNL A   1      44.457  25.317  31.420  1.00  0.00     0.074 A 
ATOM     35  C   UNL A   1      45.075  24.211  30.713  1.00  0.00     0.031 C 
ATOM     36  C   UNL A   1      44.875  25.795  32.616  1.00  0.00     0.034 A 
BRANCH  23  37
ATOM     37  C   UNL A   1      41.488  30.531  34.846  1.00  0.00     0.023 A 
ATOM     38  C   UNL A   1      40.274  30.512  35.561  1.00  0.00     0.031 A 
ATOM     39  C   UNL A   1      42.294  31.676  34.926  1.00  0.00     0.131 A 
ATOM     40  C   UNL A   1      39.809  31.695  36.151  1.00  0.00     0.055 A 
ATOM     41  C   UNL A   1      41.884  32.803  35.639  1.00  0.00     0.041 A 
ATOM     42  F   UNL A   1      43.443  31.754  34.238  1.00  0.00    -0.206 F 
ATOM     43  C   UNL A   1      40.618  32.832  36.222  1.00  0.00     0.022 A 
BRANCH  40  44
ATOM     44  S   UNL A   1      38.033  31.816  36.527  1.00  0.00     0.124 S 
ATOM     45  O   UNL A   1      37.828  30.632  37.361  1.00  0.00    -0.237 OA
ATOM     46  O   UNL A   1      37.941  33.097  37.216  1.00  0.00    -0.237 OA
ATOM     47  O   UNL A   1      37.401  31.762  35.212  1.00  0.00    -0.744 OA
ENDBRANCH  40  44
ENDBRANCH  23  37
BRANCH  24  48
ATOM     48  C   UNL A   1      42.664  24.091  27.229  1.00  0.00     0.023 A 
ATOM     49  C   UNL A   1      42.215  22.754  27.260  1.00  0.00     0.031 A 
ATOM     50  C   UNL A   1      43.329  24.515  26.062  1.00  0.00     0.131 A 
ATOM     51  C   UNL A   1      42.456  21.896  26.166  1.00  0.00     0.055 A 
ATOM     52  C   UNL A   1      43.519  23.675  24.958  1.00  0.00     0.041 A 
ATOM     53  F   UNL A   1      43.792  25.772  25.964  1.00  0.00    -0.206 F 
ATOM     54  C   UNL A   1      43.090  22.354  25.010  1.00  0.00     0.022 A 
BRANCH  51  55
ATOM     55  S   UNL A   1      41.995  20.141  26.292  1.00  0.00     0.124 S 
ATOM     56  O   UNL A   1      42.757  19.553  25.195  1.00  0.00    -0.237 OA
ATOM     57  O   UNL A   1      42.442  19.799  27.638  1.00  0.00    -0.237 OA
ATOM     58  O   UNL A   1      40.546  20.150  26.105  1.00  0.00    -0.744 OA
ENDBRANCH  51  55
ENDBRANCH  24  48
BRANCH  36  59
ATOM     59  C   UNL A   1      46.017  25.078  33.272  1.00  0.00     0.023 A 
ATOM     60  C   UNL A   1      45.816  23.943  34.073  1.00  0.00     0.031 A 
ATOM     61  C   UNL A   1      47.331  25.516  33.039  1.00  0.00     0.131 A 
ATOM     62  C   UNL A   1      46.923  23.292  34.633  1.00  0.00     0.055 A 
ATOM     63  C   UNL A   1      48.429  24.834  33.557  1.00  0.00     0.041 A 
ATOM     64  F   UNL A   1      47.566  26.601  32.283  1.00  0.00    -0.206 F 
ATOM     65  C   UNL A   1      48.227  23.716  34.362  1.00  0.00     0.022 A 
BRANCH  62  66
ATOM     66  S   UNL A   1      46.636  21.893  35.750  1.00  0.00     0.124 S 
ATOM     67  O   UNL A   1      45.233  22.073  36.105  1.00  0.00    -0.237 OA
ATOM     68  O   UNL A   1      46.938  20.745  34.901  1.00  0.00    -0.237 OA
ATOM     69  O   UNL A   1      47.588  22.125  36.836  1.00  0.00    -0.744 OA
ENDBRANCH  62  66
ENDBRANCH  36  59
ENDBRANCH  10  11
ENDBRANCH   3   5
ENDBRANCH   2   3
ENDBRANCH   1   2
BRANCH   1  70
ATOM     70  C   UNL A   1      32.174  29.166  27.105  1.00  0.00     0.274 C 
BRANCH  70  71
ATOM     71  O   UNL A   1      33.014  28.063  26.776  1.00  0.00    -0.462 OA
BRANCH  71  72
ATOM     72  C   UNL A   1      33.025  27.629  25.491  1.00  0.00     0.310 C 
ATOM     73  O   UNL A   1      34.019  27.590  24.773  1.00  0.00    -0.252 OA
BRANCH  72  74
ATOM     74  C   UNL A   1      31.630  27.228  25.038  1.00  0.00     0.115 C 
ATOM     75  C   UNL A   1      30.921  28.403  24.302  1.00  0.00     0.004 C 
ATOM     76  C   UNL A   1      31.662  25.922  24.166  1.00  0.00     0.096 C 
ATOM     77  C   UNL A   1      31.529  28.578  22.908  1.00  0.00     0.005 C 
ATOM     78  C   UNL A   1      29.426  28.056  24.129  1.00  0.00     0.005 C 
ATOM     79  C   UNL A   1      30.650  26.202  22.978  1.00  0.00     0.002 C 
ATOM     80  C   UNL A   1      31.124  27.381  22.071  1.00  0.00     0.005 C 
ATOM     81  C   UNL A   1      29.279  26.666  23.500  1.00  0.00     0.005 C 
BRANCH  76  82
ATOM     82  C   UNL A   1      31.759  24.644  25.229  1.00  0.00     0.229 C 
ATOM     83  O   UNL A   1      31.577  24.865  26.432  1.00  0.00    -0.274 OA
ATOM     84  N   UNL A   1      32.164  23.366  24.796  1.00  0.00    -0.317 N 
ATOM     85  H   UNL A   1      31.677  22.996  24.024  1.00  0.00     0.170 HD
BRANCH  84  86
ATOM     86  C   UNL A   1      33.187  22.548  25.342  1.00  0.00     0.108 A 
ATOM     87  S   UNL A   1      34.326  23.313  26.354  1.00  0.00    -0.122 S 
ATOM     88  C   UNL A   1      33.598  21.221  25.005  1.00  0.00     0.078 A 
ATOM     89  C   UNL A   1      35.543  22.269  25.829  1.00  0.00     0.011 A 
ATOM     90  C   UNL A   1      35.045  21.127  25.232  1.00  0.00    -0.019 A 
ATOM     91  C   UNL A   1      36.991  22.608  25.979  1.00  0.00     0.047 C 
ATOM     92  C   UNL A   1      35.992  20.068  24.738  1.00  0.00     0.037 C 
ATOM     93  C   UNL A   1      37.806  21.832  24.937  1.00  0.00     0.006 C 
ATOM     94  C   UNL A   1      37.474  20.347  25.022  1.00  0.00     0.005 C 
BRANCH  88  95
ATOM     95  C   UNL A   1      32.743  20.243  24.242  1.00  0.00     0.257 C 
ATOM     96  O   UNL A   1      31.983  20.670  23.377  1.00  0.00    -0.269 OA
ATOM     97  N   UNL A   1      32.971  18.848  24.361  1.00  0.00    -0.339 N 
ATOM     98  C   UNL A   1      32.897  18.045  23.133  1.00  0.00     0.120 C 
ATOM     99  C   UNL A   1      32.529  18.090  25.532  1.00  0.00     0.120 C 
ATOM    100  C   UNL A   1      33.788  16.805  23.233  1.00  0.00     0.022 C 
ATOM    101  C   UNL A   1      33.346  16.795  25.722  1.00  0.00     0.022 C 
ATOM    102  C   UNL A   1      33.433  15.952  24.450  1.00  0.00     0.004 C 
ENDBRANCH  88  95
ENDBRANCH  84  86
ENDBRANCH  76  82
ENDBRANCH  72  74
ENDBRANCH  71  72
ENDBRANCH  70  71
ENDBRANCH   1  70
TORSDOF 17
ENDMDL
MODEL 2
REMARK VINA RESULT:     -13.0      2.046      2.656
REMARK SMILES O=C(OCCOC(=O)[C@H]1[C@H]2CC[C@H](CC2)[C@@H]1C(=O)Nc1sc2c(c1C(=O)N1CCCCC1)CCCC2)c1ccc(-c2c3nc(c(-c4cc(S(=O)(=O)[O-])ccc4F)c4ccc([nH]4)c(-c4cc(S(=O)(=O)[O-])ccc4F)c4nc(c(-c5cc(S(=O)(=O)[O-])ccc5F)c5ccc2[nH]5)C=C4)C=C3)cc1
REMARK SMILES IDX 4 1 3 2 2 3 1 4 37 5 38 6 99 7 39 8 98 9 40 10 41 11 42 12
REMARK SMILES IDX 92 13 43 14 97 15 91 16 93 17 44 18 96 19 90 20 89 21 45 23
REMARK SMILES IDX 77 24 57 25 76 26 58 27 61 28 75 29 94 30 59 31 60 32 74 34
REMARK SMILES IDX 95 35 62 36 46 37 47 38 55 39 48 40 54 41 56 42 53 43 49 44
REMARK SMILES IDX 50 45 51 46 52 47 78 48 79 49 87 50 80 51 86 52 88 53 85 54
REMARK SMILES IDX 81 55 82 56 83 57 84 58 63 59 64 60 72 61 65 62 71 63 73 64
REMARK SMILES IDX 70 65 66 66 67 67 68 68 69 69 5 70 6 71 7 72 8 73 9 74 10 75
REMARK SMILES IDX 16 76 15 77 11 78 13 79 14 80 12 81 17 82 18 83 19 84 20 86
REMARK SMILES IDX 21 87 24 88 22 89 23 90 36 91 33 92 35 93 34 94 25 95 26 96
REMARK SMILES IDX 27 97 28 98 32 99 29 100 31 101 30 102
REMARK H PARENT 93 22 61 33 19 85
REMARK Flexibility Score: inf
ROOT
ATOM      1  C   UNL A   1      32.136  30.466  26.203  1.00  0.00     0.275 C 
ENDROOT
BRANCH   1   2
ATOM      2  O   UNL A   1      32.260  31.487  27.219  1.00  0.00    -0.458 OA
BRANCH   2   3
ATOM      3  C   UNL A   1      33.280  32.305  27.584  1.00  0.00     0.338 C 
ATOM      4  O   UNL A   1      33.128  33.515  27.403  1.00  0.00    -0.246 OA
BRANCH   3   5
ATOM      5  C   UNL A   1      34.641  31.846  28.023  1.00  0.00     0.060 A 
ATOM      6  C   UNL A   1      35.777  32.614  28.203  1.00  0.00     0.016 A 
ATOM      7  C   UNL A   1      34.812  30.470  28.241  1.00  0.00     0.016 A 
ATOM      8  C   UNL A   1      36.932  32.046  28.800  1.00  0.00     0.010 A 
ATOM      9  C   UNL A   1      35.939  29.942  28.930  1.00  0.00     0.010 A 
ATOM     10  C   UNL A   1      36.979  30.763  29.364  1.00  0.00    -0.014 A 
BRANCH  10  11
ATOM     11  C   UNL A   1      38.236  30.189  30.022  1.00  0.00     0.031 A 
ATOM     12  C   UNL A   1      38.390  30.617  31.449  1.00  0.00     0.074 A 
ATOM     13  C   UNL A   1      39.225  29.392  29.511  1.00  0.00     0.049 A 
ATOM     14  N   UNL A   1      39.397  30.467  32.262  1.00  0.00    -0.248 NA
ATOM     15  C   UNL A   1      37.274  31.409  31.986  1.00  0.00     0.031 C 
ATOM     16  C   UNL A   1      39.325  28.862  28.162  1.00  0.00     0.029 A 
ATOM     17  N   UNL A   1      40.364  28.829  30.080  1.00  0.00    -0.354 N 
ATOM     18  C   UNL A   1      39.059  31.211  33.377  1.00  0.00     0.074 A 
ATOM     19  C   UNL A   1      37.821  31.892  33.079  1.00  0.00     0.031 C 
ATOM     20  C   UNL A   1      40.345  28.019  28.007  1.00  0.00     0.029 A 
ATOM     21  C   UNL A   1      41.087  27.984  29.239  1.00  0.00     0.049 A 
ATOM     22  H   UNL A   1      40.639  29.015  31.007  1.00  0.00     0.167 HD
ATOM     23  C   UNL A   1      39.693  31.295  34.568  1.00  0.00     0.034 A 
ATOM     24  C   UNL A   1      42.222  27.263  29.384  1.00  0.00     0.034 A 
ATOM     25  C   UNL A   1      40.925  30.622  34.854  1.00  0.00     0.049 A 
ATOM     26  C   UNL A   1      42.932  27.377  30.698  1.00  0.00     0.074 A 
ATOM     27  C   UNL A   1      41.681  30.666  36.008  1.00  0.00     0.029 A 
ATOM     28  N   UNL A   1      41.593  29.785  33.964  1.00  0.00    -0.354 N 
ATOM     29  N   UNL A   1      42.588  28.089  31.746  1.00  0.00    -0.248 NA
ATOM     30  C   UNL A   1      44.181  26.625  30.856  1.00  0.00     0.031 C 
ATOM     31  C   UNL A   1      42.824  29.886  35.805  1.00  0.00     0.029 A 
ATOM     32  C   UNL A   1      42.751  29.304  34.549  1.00  0.00     0.049 A 
ATOM     33  H   UNL A   1      41.286  29.567  33.054  1.00  0.00     0.167 HD
ATOM     34  C   UNL A   1      43.569  27.858  32.695  1.00  0.00     0.074 A 
ATOM     35  C   UNL A   1      44.515  26.931  32.103  1.00  0.00     0.031 C 
ATOM     36  C   UNL A   1      43.672  28.371  33.944  1.00  0.00     0.034 A 
BRANCH  23  37
ATOM     37  C   UNL A   1      39.037  32.211  35.566  1.00  0.00     0.023 A 
ATOM     38  C   UNL A   1      39.380  33.578  35.609  1.00  0.00     0.031 A 
ATOM     39  C   UNL A   1      38.311  31.670  36.638  1.00  0.00     0.131 A 
ATOM     40  C   UNL A   1      39.177  34.297  36.794  1.00  0.00     0.055 A 
ATOM     41  C   UNL A   1      37.988  32.438  37.757  1.00  0.00     0.041 A 
ATOM     42  F   UNL A   1      37.989  30.367  36.657  1.00  0.00    -0.206 F 
ATOM     43  C   UNL A   1      38.457  33.747  37.858  1.00  0.00     0.022 A 
BRANCH  40  44
ATOM     44  S   UNL A   1      40.141  35.821  37.039  1.00  0.00     0.124 S 
ATOM     45  O   UNL A   1      41.512  35.313  36.983  1.00  0.00    -0.237 OA
ATOM     46  O   UNL A   1      39.726  36.643  35.909  1.00  0.00    -0.237 OA
ATOM     47  O   UNL A   1      39.710  36.291  38.352  1.00  0.00    -0.744 OA
ENDBRANCH  40  44
ENDBRANCH  23  37
BRANCH  24  48
ATOM     48  C   UNL A   1      42.793  26.431  28.263  1.00  0.00     0.023 A 
ATOM     49  C   UNL A   1      42.446  25.076  28.085  1.00  0.00     0.031 A 
ATOM     50  C   UNL A   1      43.729  26.974  27.360  1.00  0.00     0.131 A 
ATOM     51  C   UNL A   1      43.042  24.316  27.057  1.00  0.00     0.055 A 
ATOM     52  C   UNL A   1      44.278  26.230  26.309  1.00  0.00     0.041 A 
ATOM     53  F   UNL A   1      44.114  28.256  27.472  1.00  0.00    -0.206 F 
ATOM     54  C   UNL A   1      43.942  24.890  26.159  1.00  0.00     0.022 A 
BRANCH  51  55
ATOM     55  S   UNL A   1      42.685  22.535  26.943  1.00  0.00     0.124 S 
ATOM     56  O   UNL A   1      41.545  22.517  26.034  1.00  0.00    -0.237 OA
ATOM     57  O   UNL A   1      43.935  22.002  26.414  1.00  0.00    -0.237 OA
ATOM     58  O   UNL A   1      42.384  22.155  28.322  1.00  0.00    -0.744 OA
ENDBRANCH  51  55
ENDBRANCH  24  48
BRANCH  36  59
ATOM     59  C   UNL A   1      44.817  27.886  34.784  1.00  0.00     0.023 A 
ATOM     60  C   UNL A   1      44.710  26.743  35.590  1.00  0.00     0.031 A 
ATOM     61  C   UNL A   1      46.048  28.559  34.725  1.00  0.00     0.131 A 
ATOM     62  C   UNL A   1      45.822  26.315  36.327  1.00  0.00     0.055 A 
ATOM     63  C   UNL A   1      47.163  28.099  35.420  1.00  0.00     0.041 A 
ATOM     64  F   UNL A   1      46.189  29.661  33.970  1.00  0.00    -0.206 F 
ATOM     65  C   UNL A   1      47.052  26.972  36.230  1.00  0.00     0.022 A 
BRANCH  62  66
ATOM     66  S   UNL A   1      45.634  24.899  37.444  1.00  0.00     0.124 S 
ATOM     67  O   UNL A   1      44.402  25.233  38.150  1.00  0.00    -0.237 OA
ATOM     68  O   UNL A   1      45.554  23.775  36.516  1.00  0.00    -0.237 OA
ATOM     69  O   UNL A   1      46.848  24.944  38.257  1.00  0.00    -0.744 OA
ENDBRANCH  62  66
ENDBRANCH  36  59
ENDBRANCH  10  11
ENDBRANCH   3   5
ENDBRANCH   2   3
ENDBRANCH   1   2
BRANCH   1  70
ATOM     70  C   UNL A   1      31.467  29.200  26.730  1.00  0.00     0.274 C 
BRANCH  70  71
ATOM     71  O   UNL A   1      32.437  28.159  26.806  1.00  0.00    -0.462 OA
BRANCH  71  72
ATOM     72  C   UNL A   1      33.239  27.954  25.731  1.00  0.00     0.310 C 
ATOM     73  O   UNL A   1      34.433  28.231  25.683  1.00  0.00    -0.252 OA
BRANCH  72  74
ATOM     74  C   UNL A   1      32.454  27.364  24.570  1.00  0.00     0.115 C 
ATOM     75  C   UNL A   1      32.058  28.466  23.544  1.00  0.00     0.004 C 
ATOM     76  C   UNL A   1      33.235  26.182  23.889  1.00  0.00     0.096 C 
ATOM     77  C   UNL A   1      33.290  28.891  22.743  1.00  0.00     0.005 C 
ATOM     78  C   UNL A   1      31.025  27.882  22.555  1.00  0.00     0.005 C 
ATOM     79  C   UNL A   1      33.030  26.403  22.333  1.00  0.00     0.002 C 
ATOM     80  C   UNL A   1      33.679  27.735  21.840  1.00  0.00     0.005 C 
ATOM     81  C   UNL A   1      31.543  26.561  21.974  1.00  0.00     0.005 C 
BRANCH  76  82
ATOM     82  C   UNL A   1      32.979  24.837  24.836  1.00  0.00     0.229 C 
ATOM     83  O   UNL A   1      32.567  25.001  25.991  1.00  0.00    -0.274 OA
ATOM     84  N   UNL A   1      33.340  23.551  24.388  1.00  0.00    -0.317 N 
ATOM     85  H   UNL A   1      32.995  23.288  23.505  1.00  0.00     0.170 HD
BRANCH  84  86
ATOM     86  C   UNL A   1      34.138  22.590  25.060  1.00  0.00     0.108 A 
ATOM     87  S   UNL A   1      35.426  23.184  26.006  1.00  0.00    -0.122 S 
ATOM     88  C   UNL A   1      34.222  21.171  24.899  1.00  0.00     0.078 A 
ATOM     89  C   UNL A   1      36.360  21.825  25.649  1.00  0.00     0.011 A 
ATOM     90  C   UNL A   1      35.605  20.768  25.181  1.00  0.00    -0.019 A 
ATOM     91  C   UNL A   1      37.847  21.829  25.800  1.00  0.00     0.047 C 
ATOM     92  C   UNL A   1      36.273  19.462  24.848  1.00  0.00     0.037 C 
ATOM     93  C   UNL A   1      38.455  20.758  24.886  1.00  0.00     0.006 C 
ATOM     94  C   UNL A   1      37.778  19.416  25.141  1.00  0.00     0.005 C 
BRANCH  88  95
ATOM     95  C   UNL A   1      33.159  20.336  24.236  1.00  0.00     0.257 C 
ATOM     96  O   UNL A   1      32.411  20.867  23.420  1.00  0.00    -0.269 OA
ATOM     97  N   UNL A   1      33.166  18.924  24.377  1.00  0.00    -0.339 N 
ATOM     98  C   UNL A   1      32.861  18.125  23.183  1.00  0.00     0.120 C 
ATOM     99  C   UNL A   1      32.704  18.268  25.601  1.00  0.00     0.120 C 
ATOM    100  C   UNL A   1      33.544  16.756  23.249  1.00  0.00     0.022 C 
ATOM    101  C   UNL A   1      33.312  16.860  25.765  1.00  0.00     0.022 C 
ATOM    102  C   UNL A   1      33.156  15.993  24.515  1.00  0.00     0.004 C 
ENDBRANCH  88  95
ENDBRANCH  84  86
ENDBRANCH  76  82
ENDBRANCH  72  74
ENDBRANCH  71  72
ENDBRANCH  70  71
ENDBRANCH   1  70
TORSDOF 17
ENDMDL
MODEL 3
REMARK VINA RESULT:     -12.4      5.060     10.619
REMARK SMILES O=C(OCCOC(=O)[C@H]1[C@H]2CC[C@H](CC2)[C@@H]1C(=O)Nc1sc2c(c1C(=O)N1CCCCC1)CCCC2)c1ccc(-c2c3nc(c(-c4cc(S(=O)(=O)[O-])ccc4F)c4ccc([nH]4)c(-c4cc(S(=O)(=O)[O-])ccc4F)c4nc(c(-c5cc(S(=O)(=O)[O-])ccc5F)c5ccc2[nH]5)C=C4)C=C3)cc1
REMARK SMILES IDX 4 1 3 2 2 3 1 4 37 5 38 6 99 7 39 8 98 9 40 10 41 11 42 12
REMARK SMILES IDX 92 13 43 14 97 15 91 16 93 17 44 18 96 19 90 20 89 21 45 23
REMARK SMILES IDX 77 24 57 25 76 26 58 27 61 28 75 29 94 30 59 31 60 32 74 34
REMARK SMILES IDX 95 35 62 36 46 37 47 38 55 39 48 40 54 41 56 42 53 43 49 44
REMARK SMILES IDX 50 45 51 46 52 47 78 48 79 49 87 50 80 51 86 52 88 53 85 54
REMARK SMILES IDX 81 55 82 56 83 57 84 58 63 59 64 60 72 61 65 62 71 63 73 64
REMARK SMILES IDX 70 65 66 66 67 67 68 68 69 69 5 70 6 71 7 72 8 73 9 74 10 75
REMARK SMILES IDX 16 76 15 77 11 78 13 79 14 80 12 81 17 82 18 83 19 84 20 86
REMARK SMILES IDX 21 87 24 88 22 89 23 90 36 91 33 92 35 93 34 94 25 95 26 96
REMARK SMILES IDX 27 97 28 98 32 99 29 100 31 101 30 102
REMARK H PARENT 93 22 61 33 19 85
REMARK Flexibility Score: inf
ROOT
ATOM      1  C   UNL A   1      37.562  21.255  25.528  1.00  0.00     0.275 C 
ENDROOT
BRANCH   1   2
ATOM      2  O   UNL A   1      38.927  20.784  25.595  1.00  0.00    -0.458 OA
BRANCH   2   3
ATOM      3  C   UNL A   1      39.917  20.955  26.507  1.00  0.00     0.338 C 
ATOM      4  O   UNL A   1      40.396  19.942  27.020  1.00  0.00    -0.246 OA
BRANCH   3   5
ATOM      5  C   UNL A   1      40.353  22.277  27.073  1.00  0.00     0.060 A 
ATOM      6  C   UNL A   1      41.355  22.514  27.995  1.00  0.00     0.016 A 
ATOM      7  C   UNL A   1      39.641  23.414  26.660  1.00  0.00     0.016 A 
ATOM      8  C   UNL A   1      41.757  23.846  28.280  1.00  0.00     0.010 A 
ATOM      9  C   UNL A   1      40.122  24.735  26.878  1.00  0.00     0.010 A 
ATOM     10  C   UNL A   1      41.299  24.974  27.587  1.00  0.00    -0.014 A 
BRANCH  10  11
ATOM     11  C   UNL A   1      41.772  26.395  27.904  1.00  0.00     0.031 A 
ATOM     12  C   UNL A   1      43.120  26.700  27.329  1.00  0.00     0.074 A 
ATOM     13  C   UNL A   1      41.179  27.388  28.637  1.00  0.00     0.049 A 
ATOM     14  N   UNL A   1      43.900  27.724  27.527  1.00  0.00    -0.248 NA
ATOM     15  C   UNL A   1      43.693  25.639  26.487  1.00  0.00     0.031 C 
ATOM     16  C   UNL A   1      39.895  27.341  29.314  1.00  0.00     0.029 A 
ATOM     17  N   UNL A   1      41.560  28.695  28.927  1.00  0.00    -0.354 N 
ATOM     18  C   UNL A   1      45.082  27.391  26.891  1.00  0.00     0.074 A 
ATOM     19  C   UNL A   1      44.944  26.036  26.413  1.00  0.00     0.031 C 
ATOM     20  C   UNL A   1      39.541  28.512  29.843  1.00  0.00     0.029 A 
ATOM     21  C   UNL A   1      40.623  29.438  29.643  1.00  0.00     0.049 A 
ATOM     22  H   UNL A   1      42.428  29.068  28.646  1.00  0.00     0.167 HD
ATOM     23  C   UNL A   1      46.178  28.153  26.680  1.00  0.00     0.034 A 
ATOM     24  C   UNL A   1      40.596  30.702  30.123  1.00  0.00     0.034 A 
ATOM     25  C   UNL A   1      46.311  29.495  27.163  1.00  0.00     0.049 A 
ATOM     26  C   UNL A   1      41.822  31.534  29.905  1.00  0.00     0.074 A 
ATOM     27  C   UNL A   1      47.390  30.347  27.048  1.00  0.00     0.029 A 
ATOM     28  N   UNL A   1      45.328  30.180  27.872  1.00  0.00    -0.354 N 
ATOM     29  N   UNL A   1      42.933  31.195  29.293  1.00  0.00    -0.248 NA
ATOM     30  C   UNL A   1      41.817  32.896  30.448  1.00  0.00     0.031 C 
ATOM     31  C   UNL A   1      47.076  31.535  27.717  1.00  0.00     0.029 A 
ATOM     32  C   UNL A   1      45.777  31.448  28.196  1.00  0.00     0.049 A 
ATOM     33  H   UNL A   1      44.443  29.816  28.107  1.00  0.00     0.167 HD
ATOM     34  C   UNL A   1      43.753  32.308  29.362  1.00  0.00     0.074 A 
ATOM     35  C   UNL A   1      43.009  33.335  30.066  1.00  0.00     0.031 C 
ATOM     36  C   UNL A   1      45.012  32.459  28.886  1.00  0.00     0.034 A 
BRANCH  23  37
ATOM     37  C   UNL A   1      47.294  27.458  25.944  1.00  0.00     0.023 A 
ATOM     38  C   UNL A   1      48.353  26.861  26.658  1.00  0.00     0.031 A 
ATOM     39  C   UNL A   1      47.443  27.650  24.563  1.00  0.00     0.131 A 
ATOM     40  C   UNL A   1      49.586  26.673  26.021  1.00  0.00     0.055 A 
ATOM     41  C   UNL A   1      48.632  27.323  23.909  1.00  0.00     0.041 A 
ATOM     42  F   UNL A   1      46.476  28.242  23.845  1.00  0.00    -0.206 F 
ATOM     43  C   UNL A   1      49.726  26.871  24.645  1.00  0.00     0.022 A 
BRANCH  40  44
ATOM     44  S   UNL A   1      51.063  26.483  27.068  1.00  0.00     0.124 S 
ATOM     45  O   UNL A   1      50.684  27.256  28.251  1.00  0.00    -0.237 OA
ATOM     46  O   UNL A   1      51.136  25.039  27.255  1.00  0.00    -0.237 OA
ATOM     47  O   UNL A   1      52.130  27.070  26.263  1.00  0.00    -0.744 OA
ENDBRANCH  40  44
ENDBRANCH  23  37
BRANCH  24  48
ATOM     48  C   UNL A   1      39.420  31.242  30.899  1.00  0.00     0.023 A 
ATOM     49  C   UNL A   1      38.216  31.618  30.269  1.00  0.00     0.031 A 
ATOM     50  C   UNL A   1      39.492  31.420  32.295  1.00  0.00     0.131 A 
ATOM     51  C   UNL A   1      37.158  32.168  31.022  1.00  0.00     0.055 A 
ATOM     52  C   UNL A   1      38.421  31.918  33.046  1.00  0.00     0.041 A 
ATOM     53  F   UNL A   1      40.610  31.092  32.963  1.00  0.00    -0.206 F 
ATOM     54  C   UNL A   1      37.248  32.304  32.408  1.00  0.00     0.022 A 
BRANCH  51  55
ATOM     55  S   UNL A   1      35.675  32.778  30.163  1.00  0.00     0.124 S 
ATOM     56  O   UNL A   1      35.988  34.193  29.995  1.00  0.00    -0.237 OA
ATOM     57  O   UNL A   1      35.669  31.975  28.945  1.00  0.00    -0.237 OA
ATOM     58  O   UNL A   1      34.591  32.490  31.100  1.00  0.00    -0.744 OA
ENDBRANCH  51  55
ENDBRANCH  24  48
BRANCH  36  59
ATOM     59  C   UNL A   1      45.641  33.811  29.047  1.00  0.00     0.023 A 
ATOM     60  C   UNL A   1      45.559  34.789  28.044  1.00  0.00     0.031 A 
ATOM     61  C   UNL A   1      46.284  34.133  30.254  1.00  0.00     0.131 A 
ATOM     62  C   UNL A   1      46.135  36.048  28.263  1.00  0.00     0.055 A 
ATOM     63  C   UNL A   1      46.809  35.402  30.484  1.00  0.00     0.041 A 
ATOM     64  F   UNL A   1      46.387  33.223  31.236  1.00  0.00    -0.206 F 
ATOM     65  C   UNL A   1      46.739  36.367  29.483  1.00  0.00     0.022 A 
BRANCH  62  66
ATOM     66  S   UNL A   1      46.113  37.261  26.916  1.00  0.00     0.124 S 
ATOM     67  O   UNL A   1      46.404  36.429  25.755  1.00  0.00    -0.237 OA
ATOM     68  O   UNL A   1      44.756  37.795  26.995  1.00  0.00    -0.237 OA
ATOM     69  O   UNL A   1      47.169  38.202  27.288  1.00  0.00    -0.744 OA
ENDBRANCH  62  66
ENDBRANCH  36  59
ENDBRANCH  10  11
ENDBRANCH   3   5
ENDBRANCH   2   3
ENDBRANCH   1   2
BRANCH   1  70
ATOM     70  C   UNL A   1      37.405  22.452  24.594  1.00  0.00     0.274 C 
BRANCH  70  71
ATOM     71  O   UNL A   1      36.055  22.906  24.644  1.00  0.00    -0.462 OA
BRANCH  71  72
ATOM     72  C   UNL A   1      35.307  22.808  23.516  1.00  0.00     0.310 C 
ATOM     73  O   UNL A   1      35.736  22.948  22.376  1.00  0.00    -0.252 OA
BRANCH  72  74
ATOM     74  C   UNL A   1      33.849  22.538  23.851  1.00  0.00     0.115 C 
ATOM     75  C   UNL A   1      33.665  21.105  24.433  1.00  0.00     0.004 C 
ATOM     76  C   UNL A   1      33.263  23.639  24.806  1.00  0.00     0.096 C 
ATOM     77  C   UNL A   1      34.200  21.059  25.866  1.00  0.00     0.005 C 
ATOM     78  C   UNL A   1      32.158  20.772  24.477  1.00  0.00     0.005 C 
ATOM     79  C   UNL A   1      32.396  22.839  25.865  1.00  0.00     0.002 C 
ATOM     80  C   UNL A   1      33.269  21.882  26.736  1.00  0.00     0.005 C 
ATOM     81  C   UNL A   1      31.391  21.899  25.178  1.00  0.00     0.005 C 
BRANCH  76  82
ATOM     82  C   UNL A   1      32.873  24.942  23.846  1.00  0.00     0.229 C 
ATOM     83  O   UNL A   1      33.463  25.073  22.767  1.00  0.00    -0.274 OA
ATOM     84  N   UNL A   1      31.989  25.940  24.297  1.00  0.00    -0.317 N 
ATOM     85  H   UNL A   1      31.120  25.628  24.638  1.00  0.00     0.170 HD
BRANCH  84  86
ATOM     86  C   UNL A   1      32.201  27.343  24.317  1.00  0.00     0.108 A 
ATOM     87  S   UNL A   1      33.715  27.885  24.882  1.00  0.00    -0.122 S 
ATOM     88  C   UNL A   1      31.278  28.428  24.180  1.00  0.00     0.078 A 
ATOM     89  C   UNL A   1      33.014  29.274  25.533  1.00  0.00     0.011 A 
ATOM     90  C   UNL A   1      31.767  29.540  25.002  1.00  0.00    -0.019 A 
ATOM     91  C   UNL A   1      33.690  30.072  26.600  1.00  0.00     0.047 C 
ATOM     92  C   UNL A   1      31.012  30.764  25.445  1.00  0.00     0.037 C 
ATOM     93  C   UNL A   1      32.639  30.862  27.390  1.00  0.00     0.006 C 
ATOM     94  C   UNL A   1      31.767  31.664  26.431  1.00  0.00     0.005 C 
BRANCH  88  95
ATOM     95  C   UNL A   1      29.907  28.293  23.572  1.00  0.00     0.257 C 
ATOM     96  O   UNL A   1      29.322  27.216  23.660  1.00  0.00    -0.269 OA
ATOM     97  N   UNL A   1      29.213  29.440  23.110  1.00  0.00    -0.339 N 
ATOM     98  C   UNL A   1      27.775  29.523  23.400  1.00  0.00     0.120 C 
ATOM     99  C   UNL A   1      29.547  30.086  21.839  1.00  0.00     0.120 C 
ATOM    100  C   UNL A   1      27.316  30.980  23.497  1.00  0.00     0.022 C 
ATOM    101  C   UNL A   1      29.107  31.564  21.811  1.00  0.00     0.022 C 
ATOM    102  C   UNL A   1      27.650  31.762  22.227  1.00  0.00     0.004 C 
ENDBRANCH  88  95
ENDBRANCH  84  86
ENDBRANCH  76  82
ENDBRANCH  72  74
ENDBRANCH  71  72
ENDBRANCH  70  71
ENDBRANCH   1  70
TORSDOF 17
ENDMDL
