MODEL 1
REMARK VINA RESULT:     -10.5      0.000      0.000
REMARK SMILES CCCCCCNC(=O)Oc1cccc(-c2ccc(CC(=O)OCCOC(=O)c3ccc(-c4c5nc(c(-c6cc(S(=O)(=O)[O-])ccc6F)c6ccc([nH]6)c(-c6cc(S(=O)(=O)[O-])ccc6F)c6nc(c(-c7cc(S(=O)(=O)[O-])ccc7F)c7ccc4[nH]7)C=C6)C=C5)cc3)cc2F)c1
REMARK SMILES IDX 20 1 19 2 16 3 17 4 93 5 18 6 92 7 94 8 15 9 11 10 12 11
REMARK SMILES IDX 95 12 13 13 14 14 10 15 8 16 7 17 9 19 6 20 5 21 4 22 3 23
REMARK SMILES IDX 2 24 1 25 21 26 22 27 23 28 24 29 25 30 26 31 27 32 28 33
REMARK SMILES IDX 29 34 30 35 91 36 31 37 90 38 32 39 33 40 34 41 84 42 35 43
REMARK SMILES IDX 89 44 83 45 85 46 36 47 88 48 82 49 81 50 37 52 69 53 49 54
REMARK SMILES IDX 68 55 50 56 53 57 67 58 86 59 51 60 52 61 66 63 87 64 54 65
REMARK SMILES IDX 38 66 39 67 47 68 40 69 46 70 48 71 45 72 41 73 42 74 43 75
REMARK SMILES IDX 44 76 70 77 71 78 79 79 72 80 78 81 80 82 77 83 73 84 74 85
REMARK SMILES IDX 75 86 76 87 55 88 56 89 64 90 57 91 63 92 65 93 62 94 58 95
REMARK SMILES IDX 59 96 60 97 61 98
REMARK H PARENT 7 18 85 51 53 62
REMARK Flexibility Score: inf
ROOT
ATOM      1  C   UNL A   1      40.320  21.845  27.257  1.00  0.00     0.158 C 
ENDROOT
BRANCH   1   2
ATOM      2  C   UNL A   1      39.113  22.348  26.504  1.00  0.00    -0.034 A 
ATOM      3  C   UNL A   1      36.772  23.236  25.174  1.00  0.00     0.018 A 
ATOM      4  C   UNL A   1      37.557  24.129  25.915  1.00  0.00     0.012 A 
ATOM      5  C   UNL A   1      37.190  21.902  25.105  1.00  0.00     0.131 A 
ATOM      6  C   UNL A   1      38.710  23.689  26.576  1.00  0.00     0.005 A 
ATOM      7  C   UNL A   1      38.341  21.458  25.752  1.00  0.00     0.044 A 
ATOM      8  F   UNL A   1      36.477  21.003  24.406  1.00  0.00    -0.206 F 
BRANCH   3   9
ATOM      9  C   UNL A   1      35.535  23.673  24.519  1.00  0.00    -0.012 A 
ATOM     10  C   UNL A   1      33.559  25.081  24.494  1.00  0.00     0.133 A 
ATOM     11  C   UNL A   1      33.106  24.468  23.329  1.00  0.00     0.047 A 
ATOM     12  C   UNL A   1      34.752  24.684  25.096  1.00  0.00     0.056 A 
ATOM     13  C   UNL A   1      33.881  23.471  22.739  1.00  0.00     0.004 A 
ATOM     14  C   UNL A   1      35.088  23.081  23.326  1.00  0.00     0.009 A 
BRANCH  10  15
ATOM     15  O   UNL A   1      32.715  26.016  25.111  1.00  0.00    -0.410 OA
BRANCH  15  16
ATOM     16  C   UNL A   1      31.350  25.834  24.945  1.00  0.00     0.412 C 
ATOM     17  N   UNL A   1      30.766  26.806  24.181  1.00  0.00    -0.321 N 
ATOM     18  H   UNL A   1      29.790  26.747  24.065  1.00  0.00     0.167 HD
ATOM     19  O   UNL A   1      30.680  24.920  25.409  1.00  0.00    -0.224 OA
BRANCH  17  20
ATOM     20  C   UNL A   1      31.428  27.912  23.525  1.00  0.00     0.119 C 
BRANCH  20  21
ATOM     21  C   UNL A   1      30.431  28.882  22.891  1.00  0.00     0.021 C 
BRANCH  21  22
ATOM     22  C   UNL A   1      28.955  28.537  23.125  1.00  0.00     0.002 C 
BRANCH  22  23
ATOM     23  C   UNL A   1      27.943  29.562  22.603  1.00  0.00    -0.000 C 
BRANCH  23  24
ATOM     24  C   UNL A   1      27.715  30.779  23.505  1.00  0.00    -0.003 C 
ATOM     25  C   UNL A   1      28.136  32.091  22.863  1.00  0.00     0.004 C 
ENDBRANCH  23  24
ENDBRANCH  22  23
ENDBRANCH  21  22
ENDBRANCH  20  21
ENDBRANCH  17  20
ENDBRANCH  15  16
ENDBRANCH  10  15
ENDBRANCH   3   9
ENDBRANCH   1   2
BRANCH   1  26
ATOM     26  C   UNL A   1      41.535  21.471  26.441  1.00  0.00     0.310 C 
ATOM     27  O   UNL A   1      42.476  22.243  26.293  1.00  0.00    -0.252 OA
BRANCH  26  28
ATOM     28  O   UNL A   1      41.496  20.202  25.953  1.00  0.00    -0.462 OA
BRANCH  28  29
ATOM     29  C   UNL A   1      42.279  19.232  26.671  1.00  0.00     0.274 C 
BRANCH  29  30
ATOM     30  C   UNL A   1      43.309  18.577  25.753  1.00  0.00     0.275 C 
BRANCH  30  31
ATOM     31  O   UNL A   1      43.511  19.384  24.581  1.00  0.00    -0.458 OA
BRANCH  31  32
ATOM     32  C   UNL A   1      44.802  19.616  24.246  1.00  0.00     0.338 C 
ATOM     33  O   UNL A   1      45.599  18.828  23.771  1.00  0.00    -0.246 OA
BRANCH  32  34
ATOM     34  C   UNL A   1      45.139  21.015  24.544  1.00  0.00     0.060 A 
ATOM     35  C   UNL A   1      45.725  21.345  25.769  1.00  0.00     0.016 A 
ATOM     36  C   UNL A   1      44.763  22.014  23.648  1.00  0.00     0.016 A 
ATOM     37  C   UNL A   1      45.895  22.682  26.121  1.00  0.00     0.010 A 
ATOM     38  C   UNL A   1      44.991  23.352  23.977  1.00  0.00     0.010 A 
ATOM     39  C   UNL A   1      45.537  23.700  25.226  1.00  0.00    -0.014 A 
BRANCH  39  40
ATOM     40  C   UNL A   1      45.704  25.130  25.595  1.00  0.00     0.031 A 
ATOM     41  C   UNL A   1      47.067  25.764  25.535  1.00  0.00     0.074 A 
ATOM     42  C   UNL A   1      44.640  25.847  26.001  1.00  0.00     0.049 A 
ATOM     43  N   UNL A   1      47.453  26.941  25.959  1.00  0.00    -0.248 NA
ATOM     44  C   UNL A   1      48.141  24.963  24.929  1.00  0.00     0.031 C 
ATOM     45  C   UNL A   1      43.261  25.356  26.060  1.00  0.00     0.029 A 
ATOM     46  N   UNL A   1      44.550  27.141  26.452  1.00  0.00    -0.354 N 
ATOM     47  C   UNL A   1      48.818  27.010  25.703  1.00  0.00     0.074 A 
ATOM     48  C   UNL A   1      49.195  25.748  25.101  1.00  0.00     0.031 C 
ATOM     49  C   UNL A   1      42.465  26.337  26.516  1.00  0.00     0.029 A 
ATOM     50  C   UNL A   1      43.282  27.500  26.847  1.00  0.00     0.049 A 
ATOM     51  H   UNL A   1      45.321  27.753  26.491  1.00  0.00     0.167 HD
ATOM     52  C   UNL A   1      49.675  28.033  25.950  1.00  0.00     0.034 A 
ATOM     53  C   UNL A   1      42.834  28.621  27.446  1.00  0.00     0.034 A 
ATOM     54  C   UNL A   1      49.277  29.292  26.531  1.00  0.00     0.049 A 
ATOM     55  C   UNL A   1      43.819  29.717  27.766  1.00  0.00     0.074 A 
ATOM     56  C   UNL A   1      50.057  30.407  26.792  1.00  0.00     0.029 A 
ATOM     57  N   UNL A   1      47.990  29.606  26.946  1.00  0.00    -0.354 N 
ATOM     58  N   UNL A   1      45.111  29.762  27.535  1.00  0.00    -0.248 NA
ATOM     59  C   UNL A   1      43.284  30.910  28.435  1.00  0.00     0.031 C 
ATOM     60  C   UNL A   1      49.257  31.367  27.421  1.00  0.00     0.029 A 
ATOM     61  C   UNL A   1      47.960  30.882  27.490  1.00  0.00     0.049 A 
ATOM     62  H   UNL A   1      47.210  29.010  26.866  1.00  0.00     0.167 HD
ATOM     63  C   UNL A   1      45.536  31.001  28.005  1.00  0.00     0.074 A 
ATOM     64  C   UNL A   1      44.361  31.676  28.519  1.00  0.00     0.031 C 
ATOM     65  C   UNL A   1      46.783  31.536  28.009  1.00  0.00     0.034 A 
BRANCH  52  66
ATOM     66  C   UNL A   1      51.137  27.807  25.647  1.00  0.00     0.023 A 
ATOM     67  C   UNL A   1      51.674  27.999  24.363  1.00  0.00     0.031 A 
ATOM     68  C   UNL A   1      52.006  27.383  26.669  1.00  0.00     0.131 A 
ATOM     69  C   UNL A   1      53.026  27.712  24.121  1.00  0.00     0.055 A 
ATOM     70  C   UNL A   1      53.366  27.167  26.437  1.00  0.00     0.041 A 
ATOM     71  F   UNL A   1      51.546  27.163  27.910  1.00  0.00    -0.206 F 
ATOM     72  C   UNL A   1      53.881  27.319  25.154  1.00  0.00     0.022 A 
BRANCH  69  73
ATOM     73  S   UNL A   1      53.631  27.745  22.411  1.00  0.00     0.124 S 
ATOM     74  O   UNL A   1      53.534  26.336  22.038  1.00  0.00    -0.237 OA
ATOM     75  O   UNL A   1      52.689  28.647  21.760  1.00  0.00    -0.237 OA
ATOM     76  O   UNL A   1      54.996  28.255  22.541  1.00  0.00    -0.744 OA
ENDBRANCH  69  73
ENDBRANCH  52  66
BRANCH  53  77
ATOM     77  C   UNL A   1      41.402  28.751  27.837  1.00  0.00     0.023 A 
ATOM     78  C   UNL A   1      40.997  28.569  29.168  1.00  0.00     0.031 A 
ATOM     79  C   UNL A   1      40.408  29.003  26.874  1.00  0.00     0.131 A 
ATOM     80  C   UNL A   1      39.632  28.595  29.493  1.00  0.00     0.055 A 
ATOM     81  C   UNL A   1      39.057  29.083  27.211  1.00  0.00     0.041 A 
ATOM     82  F   UNL A   1      40.741  29.183  25.585  1.00  0.00    -0.206 F 
ATOM     83  C   UNL A   1      38.660  28.865  28.526  1.00  0.00     0.022 A 
BRANCH  80  84
ATOM     84  S   UNL A   1      39.135  28.176  31.186  1.00  0.00     0.124 S 
ATOM     85  O   UNL A   1      40.414  28.206  31.888  1.00  0.00    -0.237 OA
ATOM     86  O   UNL A   1      38.204  29.253  31.503  1.00  0.00    -0.237 OA
ATOM     87  O   UNL A   1      38.531  26.852  31.046  1.00  0.00    -0.744 OA
ENDBRANCH  80  84
ENDBRANCH  53  77
BRANCH  65  88
ATOM     88  C   UNL A   1      46.919  32.940  28.543  1.00  0.00     0.023 A 
ATOM     89  C   UNL A   1      46.704  34.065  27.728  1.00  0.00     0.031 A 
ATOM     90  C   UNL A   1      47.295  33.152  29.881  1.00  0.00     0.131 A 
ATOM     91  C   UNL A   1      46.920  35.352  28.243  1.00  0.00     0.055 A 
ATOM     92  C   UNL A   1      47.454  34.436  30.405  1.00  0.00     0.041 A 
ATOM     93  F   UNL A   1      47.515  32.113  30.702  1.00  0.00    -0.206 F 
ATOM     94  C   UNL A   1      47.280  35.545  29.581  1.00  0.00     0.022 A 
BRANCH  91  95
ATOM     95  S   UNL A   1      46.813  36.771  27.120  1.00  0.00     0.124 S 
ATOM     96  O   UNL A   1      47.629  36.330  25.993  1.00  0.00    -0.237 OA
ATOM     97  O   UNL A   1      45.378  36.864  26.869  1.00  0.00    -0.237 OA
ATOM     98  O   UNL A   1      47.377  37.871  27.901  1.00  0.00    -0.744 OA
ENDBRANCH  91  95
ENDBRANCH  65  88
ENDBRANCH  39  40
ENDBRANCH  32  34
ENDBRANCH  31  32
ENDBRANCH  30  31
ENDBRANCH  29  30
ENDBRANCH  28  29
ENDBRANCH  26  28
ENDBRANCH   1  26
TORSDOF 23
ENDMDL
MODEL 2
REMARK VINA RESULT:     -10.2      5.164      8.614
REMARK SMILES CCCCCCNC(=O)Oc1cccc(-c2ccc(CC(=O)OCCOC(=O)c3ccc(-c4c5nc(c(-c6cc(S(=O)(=O)[O-])ccc6F)c6ccc([nH]6)c(-c6cc(S(=O)(=O)[O-])ccc6F)c6nc(c(-c7cc(S(=O)(=O)[O-])ccc7F)c7ccc4[nH]7)C=C6)C=C5)cc3)cc2F)c1
REMARK SMILES IDX 20 1 19 2 16 3 17 4 93 5 18 6 92 7 94 8 15 9 11 10 12 11
REMARK SMILES IDX 95 12 13 13 14 14 10 15 8 16 7 17 9 19 6 20 5 21 4 22 3 23
REMARK SMILES IDX 2 24 1 25 21 26 22 27 23 28 24 29 25 30 26 31 27 32 28 33
REMARK SMILES IDX 29 34 30 35 91 36 31 37 90 38 32 39 33 40 34 41 84 42 35 43
REMARK SMILES IDX 89 44 83 45 85 46 36 47 88 48 82 49 81 50 37 52 69 53 49 54
REMARK SMILES IDX 68 55 50 56 53 57 67 58 86 59 51 60 52 61 66 63 87 64 54 65
REMARK SMILES IDX 38 66 39 67 47 68 40 69 46 70 48 71 45 72 41 73 42 74 43 75
REMARK SMILES IDX 44 76 70 77 71 78 79 79 72 80 78 81 80 82 77 83 73 84 74 85
REMARK SMILES IDX 75 86 76 87 55 88 56 89 64 90 57 91 63 92 65 93 62 94 58 95
REMARK SMILES IDX 59 96 60 97 61 98
REMARK H PARENT 7 18 85 51 53 62
REMARK Flexibility Score: inf
ROOT
ATOM      1  C   UNL A   1      46.429  23.489  24.392  1.00  0.00     0.158 C 
ENDROOT
BRANCH   1   2
ATOM      2  C   UNL A   1      46.156  24.842  25.001  1.00  0.00    -0.034 A 
ATOM      3  C   UNL A   1      45.703  27.438  26.047  1.00  0.00     0.018 A 
ATOM      4  C   UNL A   1      44.652  26.695  25.494  1.00  0.00     0.012 A 
ATOM      5  C   UNL A   1      46.974  26.850  26.076  1.00  0.00     0.131 A 
ATOM      6  C   UNL A   1      44.877  25.416  24.972  1.00  0.00     0.005 A 
ATOM      7  C   UNL A   1      47.204  25.573  25.567  1.00  0.00     0.044 A 
ATOM      8  F   UNL A   1      48.017  27.515  26.597  1.00  0.00    -0.206 F 
BRANCH   3   9
ATOM      9  C   UNL A   1      45.491  28.799  26.550  1.00  0.00    -0.012 A 
ATOM     10  C   UNL A   1      46.056  31.158  26.519  1.00  0.00     0.133 A 
ATOM     11  C   UNL A   1      45.169  31.410  27.562  1.00  0.00     0.047 A 
ATOM     12  C   UNL A   1      46.231  29.867  26.022  1.00  0.00     0.056 A 
ATOM     13  C   UNL A   1      44.419  30.359  28.087  1.00  0.00     0.004 A 
ATOM     14  C   UNL A   1      44.575  29.065  27.580  1.00  0.00     0.009 A 
BRANCH  10  15
ATOM     15  O   UNL A   1      46.860  32.218  26.074  1.00  0.00    -0.410 OA
BRANCH  15  16
ATOM     16  C   UNL A   1      47.943  32.559  26.870  1.00  0.00     0.412 C 
ATOM     17  N   UNL A   1      47.895  33.849  27.320  1.00  0.00    -0.321 N 
ATOM     18  H   UNL A   1      48.662  34.156  27.858  1.00  0.00     0.167 HD
ATOM     19  O   UNL A   1      48.878  31.829  27.173  1.00  0.00    -0.224 OA
BRANCH  17  20
ATOM     20  C   UNL A   1      46.840  34.812  27.093  1.00  0.00     0.119 C 
BRANCH  20  21
ATOM     21  C   UNL A   1      45.725  34.696  28.132  1.00  0.00     0.021 C 
BRANCH  21  22
ATOM     22  C   UNL A   1      45.493  35.957  28.974  1.00  0.00     0.002 C 
BRANCH  22  23
ATOM     23  C   UNL A   1      44.065  36.155  29.492  1.00  0.00    -0.000 C 
BRANCH  23  24
ATOM     24  C   UNL A   1      43.004  35.251  28.858  1.00  0.00    -0.003 C 
ATOM     25  C   UNL A   1      42.465  34.196  29.810  1.00  0.00     0.004 C 
ENDBRANCH  23  24
ENDBRANCH  22  23
ENDBRANCH  21  22
ENDBRANCH  20  21
ENDBRANCH  17  20
ENDBRANCH  15  16
ENDBRANCH  10  15
ENDBRANCH   3   9
ENDBRANCH   1   2
BRANCH   1  26
ATOM     26  C   UNL A   1      45.259  22.542  24.262  1.00  0.00     0.310 C 
ATOM     27  O   UNL A   1      44.515  22.564  23.287  1.00  0.00    -0.252 OA
BRANCH  26  28
ATOM     28  O   UNL A   1      45.160  21.653  25.287  1.00  0.00    -0.462 OA
BRANCH  28  29
ATOM     29  C   UNL A   1      45.170  20.264  24.911  1.00  0.00     0.274 C 
BRANCH  29  30
ATOM     30  C   UNL A   1      43.963  19.533  25.496  1.00  0.00     0.275 C 
BRANCH  30  31
ATOM     31  O   UNL A   1      42.746  20.162  25.062  1.00  0.00    -0.458 OA
BRANCH  31  32
ATOM     32  C   UNL A   1      41.788  20.298  26.008  1.00  0.00     0.338 C 
ATOM     33  O   UNL A   1      40.912  19.503  26.298  1.00  0.00    -0.246 OA
BRANCH  32  34
ATOM     34  C   UNL A   1      41.945  21.596  26.679  1.00  0.00     0.060 A 
ATOM     35  C   UNL A   1      41.996  22.770  25.923  1.00  0.00     0.016 A 
ATOM     36  C   UNL A   1      42.159  21.631  28.056  1.00  0.00     0.016 A 
ATOM     37  C   UNL A   1      42.308  23.980  26.537  1.00  0.00     0.010 A 
ATOM     38  C   UNL A   1      42.411  22.855  28.680  1.00  0.00     0.010 A 
ATOM     39  C   UNL A   1      42.512  24.038  27.924  1.00  0.00    -0.014 A 
BRANCH  39  40
ATOM     40  C   UNL A   1      42.854  25.322  28.588  1.00  0.00     0.031 A 
ATOM     41  C   UNL A   1      44.276  25.599  28.997  1.00  0.00     0.074 A 
ATOM     42  C   UNL A   1      41.888  26.225  28.841  1.00  0.00     0.049 A 
ATOM     43  N   UNL A   1      44.754  26.579  29.720  1.00  0.00    -0.248 NA
ATOM     44  C   UNL A   1      45.291  24.638  28.540  1.00  0.00     0.031 C 
ATOM     45  C   UNL A   1      40.482  26.090  28.456  1.00  0.00     0.029 A 
ATOM     46  N   UNL A   1      41.938  27.433  29.493  1.00  0.00    -0.354 N 
ATOM     47  C   UNL A   1      46.119  26.337  29.835  1.00  0.00     0.074 A 
ATOM     48  C   UNL A   1      46.388  25.107  29.119  1.00  0.00     0.031 C 
ATOM     49  C   UNL A   1      39.806  27.172  28.874  1.00  0.00     0.029 A 
ATOM     50  C   UNL A   1      40.711  28.044  29.615  1.00  0.00     0.049 A 
ATOM     51  H   UNL A   1      42.773  27.823  29.841  1.00  0.00     0.167 HD
ATOM     52  C   UNL A   1      47.057  27.074  30.481  1.00  0.00     0.034 A 
ATOM     53  C   UNL A   1      40.349  29.157  30.283  1.00  0.00     0.034 A 
ATOM     54  C   UNL A   1      46.775  28.310  31.171  1.00  0.00     0.049 A 
ATOM     55  C   UNL A   1      41.401  29.922  31.045  1.00  0.00     0.074 A 
ATOM     56  C   UNL A   1      47.656  29.152  31.828  1.00  0.00     0.029 A 
ATOM     57  N   UNL A   1      45.515  28.880  31.299  1.00  0.00    -0.354 N 
ATOM     58  N   UNL A   1      42.685  29.673  31.161  1.00  0.00    -0.248 NA
ATOM     59  C   UNL A   1      40.951  31.117  31.771  1.00  0.00     0.031 C 
ATOM     60  C   UNL A   1      46.922  30.194  32.405  1.00  0.00     0.029 A 
ATOM     61  C   UNL A   1      45.591  30.044  32.051  1.00  0.00     0.049 A 
ATOM     62  H   UNL A   1      44.687  28.511  30.913  1.00  0.00     0.167 HD
ATOM     63  C   UNL A   1      43.200  30.697  31.949  1.00  0.00     0.074 A 
ATOM     64  C   UNL A   1      42.090  31.573  32.269  1.00  0.00     0.031 C 
ATOM     65  C   UNL A   1      44.474  30.899  32.370  1.00  0.00     0.034 A 
BRANCH  52  66
ATOM     66  C   UNL A   1      48.466  26.531  30.520  1.00  0.00     0.023 A 
ATOM     67  C   UNL A   1      49.393  26.779  29.493  1.00  0.00     0.031 A 
ATOM     68  C   UNL A   1      48.882  25.743  31.608  1.00  0.00     0.131 A 
ATOM     69  C   UNL A   1      50.668  26.196  29.547  1.00  0.00     0.055 A 
ATOM     70  C   UNL A   1      50.176  25.223  31.689  1.00  0.00     0.041 A 
ATOM     71  F   UNL A   1      48.034  25.456  32.608  1.00  0.00    -0.206 F 
ATOM     72  C   UNL A   1      51.074  25.438  30.649  1.00  0.00     0.022 A 
BRANCH  69  73
ATOM     73  S   UNL A   1      51.755  26.341  28.102  1.00  0.00     0.124 S 
ATOM     74  O   UNL A   1      51.212  27.528  27.445  1.00  0.00    -0.237 OA
ATOM     75  O   UNL A   1      53.071  26.492  28.711  1.00  0.00    -0.237 OA
ATOM     76  O   UNL A   1      51.539  25.086  27.384  1.00  0.00    -0.744 OA
ENDBRANCH  69  73
ENDBRANCH  52  66
BRANCH  53  77
ATOM     77  C   UNL A   1      38.923  29.589  30.317  1.00  0.00     0.023 A 
ATOM     78  C   UNL A   1      38.493  30.717  29.602  1.00  0.00     0.031 A 
ATOM     79  C   UNL A   1      37.979  28.912  31.112  1.00  0.00     0.131 A 
ATOM     80  C   UNL A   1      37.169  31.164  29.732  1.00  0.00     0.055 A 
ATOM     81  C   UNL A   1      36.650  29.328  31.194  1.00  0.00     0.041 A 
ATOM     82  F   UNL A   1      38.339  27.828  31.817  1.00  0.00    -0.206 F 
ATOM     83  C   UNL A   1      36.241  30.469  30.512  1.00  0.00     0.022 A 
BRANCH  80  84
ATOM     84  S   UNL A   1      36.699  32.726  28.939  1.00  0.00     0.124 S 
ATOM     85  O   UNL A   1      38.000  33.334  28.685  1.00  0.00    -0.237 OA
ATOM     86  O   UNL A   1      35.967  32.261  27.766  1.00  0.00    -0.237 OA
ATOM     87  O   UNL A   1      35.886  33.392  29.955  1.00  0.00    -0.744 OA
ENDBRANCH  80  84
ENDBRANCH  53  77
BRANCH  65  88
ATOM     88  C   UNL A   1      44.734  32.146  33.178  1.00  0.00     0.023 A 
ATOM     89  C   UNL A   1      44.545  32.176  34.572  1.00  0.00     0.031 A 
ATOM     90  C   UNL A   1      45.150  33.326  32.540  1.00  0.00     0.131 A 
ATOM     91  C   UNL A   1      44.719  33.378  35.274  1.00  0.00     0.055 A 
ATOM     92  C   UNL A   1      45.377  34.506  33.251  1.00  0.00     0.041 A 
ATOM     93  F   UNL A   1      45.344  33.353  31.211  1.00  0.00    -0.206 F 
ATOM     94  C   UNL A   1      45.149  34.539  34.624  1.00  0.00     0.022 A 
BRANCH  91  95
ATOM     95  S   UNL A   1      44.291  33.430  37.035  1.00  0.00     0.124 S 
ATOM     96  O   UNL A   1      45.505  33.984  37.627  1.00  0.00    -0.237 OA
ATOM     97  O   UNL A   1      43.120  34.301  37.047  1.00  0.00    -0.237 OA
ATOM     98  O   UNL A   1      44.024  32.030  37.365  1.00  0.00    -0.744 OA
ENDBRANCH  91  95
ENDBRANCH  65  88
ENDBRANCH  39  40
ENDBRANCH  32  34
ENDBRANCH  31  32
ENDBRANCH  30  31
ENDBRANCH  29  30
ENDBRANCH  28  29
ENDBRANCH  26  28
ENDBRANCH   1  26
TORSDOF 23
ENDMDL
MODEL 3
REMARK VINA RESULT:     -10.2      1.908      2.248
REMARK SMILES CCCCCCNC(=O)Oc1cccc(-c2ccc(CC(=O)OCCOC(=O)c3ccc(-c4c5nc(c(-c6cc(S(=O)(=O)[O-])ccc6F)c6ccc([nH]6)c(-c6cc(S(=O)(=O)[O-])ccc6F)c6nc(c(-c7cc(S(=O)(=O)[O-])ccc7F)c7ccc4[nH]7)C=C6)C=C5)cc3)cc2F)c1
REMARK SMILES IDX 20 1 19 2 16 3 17 4 93 5 18 6 92 7 94 8 15 9 11 10 12 11
REMARK SMILES IDX 95 12 13 13 14 14 10 15 8 16 7 17 9 19 6 20 5 21 4 22 3 23
REMARK SMILES IDX 2 24 1 25 21 26 22 27 23 28 24 29 25 30 26 31 27 32 28 33
REMARK SMILES IDX 29 34 30 35 91 36 31 37 90 38 32 39 33 40 34 41 84 42 35 43
REMARK SMILES IDX 89 44 83 45 85 46 36 47 88 48 82 49 81 50 37 52 69 53 49 54
REMARK SMILES IDX 68 55 50 56 53 57 67 58 86 59 51 60 52 61 66 63 87 64 54 65
REMARK SMILES IDX 38 66 39 67 47 68 40 69 46 70 48 71 45 72 41 73 42 74 43 75
REMARK SMILES IDX 44 76 70 77 71 78 79 79 72 80 78 81 80 82 77 83 73 84 74 85
REMARK SMILES IDX 75 86 76 87 55 88 56 89 64 90 57 91 63 92 65 93 62 94 58 95
REMARK SMILES IDX 59 96 60 97 61 98
REMARK H PARENT 7 18 85 51 53 62
REMARK Flexibility Score: inf
ROOT
ATOM      1  C   UNL A   1      39.889  22.227  26.896  1.00  0.00     0.158 C 
ENDROOT
BRANCH   1   2
ATOM      2  C   UNL A   1      38.587  22.488  26.180  1.00  0.00    -0.034 A 
ATOM      3  C   UNL A   1      36.078  22.931  24.934  1.00  0.00     0.018 A 
ATOM      4  C   UNL A   1      36.836  24.005  25.420  1.00  0.00     0.012 A 
ATOM      5  C   UNL A   1      36.608  21.642  25.074  1.00  0.00     0.131 A 
ATOM      6  C   UNL A   1      38.072  23.785  26.040  1.00  0.00     0.005 A 
ATOM      7  C   UNL A   1      37.841  21.416  25.681  1.00  0.00     0.044 A 
ATOM      8  F   UNL A   1      35.925  20.577  24.624  1.00  0.00    -0.206 F 
BRANCH   3   9
ATOM      9  C   UNL A   1      34.760  23.143  24.330  1.00  0.00    -0.012 A 
ATOM     10  C   UNL A   1      32.530  24.092  24.439  1.00  0.00     0.133 A 
ATOM     11  C   UNL A   1      32.186  23.490  23.231  1.00  0.00     0.047 A 
ATOM     12  C   UNL A   1      33.796  23.915  24.995  1.00  0.00     0.056 A 
ATOM     13  C   UNL A   1      33.140  22.731  22.554  1.00  0.00     0.004 A 
ATOM     14  C   UNL A   1      34.418  22.564  23.096  1.00  0.00     0.009 A 
BRANCH  10  15
ATOM     15  O   UNL A   1      31.523  24.774  25.138  1.00  0.00    -0.410 OA
BRANCH  15  16
ATOM     16  C   UNL A   1      31.566  24.705  26.523  1.00  0.00     0.412 C 
ATOM     17  N   UNL A   1      31.723  25.925  27.119  1.00  0.00    -0.321 N 
ATOM     18  H   UNL A   1      31.799  25.929  28.101  1.00  0.00     0.167 HD
ATOM     19  O   UNL A   1      31.477  23.689  27.201  1.00  0.00    -0.224 OA
BRANCH  17  20
ATOM     20  C   UNL A   1      31.790  27.212  26.461  1.00  0.00     0.119 C 
BRANCH  20  21
ATOM     21  C   UNL A   1      33.232  27.645  26.195  1.00  0.00     0.021 C 
BRANCH  21  22
ATOM     22  C   UNL A   1      33.387  28.782  25.177  1.00  0.00     0.002 C 
BRANCH  22  23
ATOM     23  C   UNL A   1      34.094  28.409  23.869  1.00  0.00    -0.000 C 
BRANCH  23  24
ATOM     24  C   UNL A   1      33.169  28.049  22.702  1.00  0.00    -0.003 C 
ATOM     25  C   UNL A   1      33.431  26.665  22.131  1.00  0.00     0.004 C 
ENDBRANCH  23  24
ENDBRANCH  22  23
ENDBRANCH  21  22
ENDBRANCH  20  21
ENDBRANCH  17  20
ENDBRANCH  15  16
ENDBRANCH  10  15
ENDBRANCH   3   9
ENDBRANCH   1   2
BRANCH   1  26
ATOM     26  C   UNL A   1      41.112  21.997  26.040  1.00  0.00     0.310 C 
ATOM     27  O   UNL A   1      41.906  22.898  25.791  1.00  0.00    -0.252 OA
BRANCH  26  28
ATOM     28  O   UNL A   1      41.262  20.706  25.638  1.00  0.00    -0.462 OA
BRANCH  28  29
ATOM     29  C   UNL A   1      41.897  19.826  26.584  1.00  0.00     0.274 C 
BRANCH  29  30
ATOM     30  C   UNL A   1      42.964  18.973  25.902  1.00  0.00     0.275 C 
BRANCH  30  31
ATOM     31  O   UNL A   1      43.373  19.585  24.667  1.00  0.00    -0.458 OA
BRANCH  31  32
ATOM     32  C   UNL A   1      44.705  19.773  24.522  1.00  0.00     0.338 C 
ATOM     33  O   UNL A   1      45.538  18.951  24.184  1.00  0.00    -0.246 OA
BRANCH  32  34
ATOM     34  C   UNL A   1      45.039  21.168  24.838  1.00  0.00     0.060 A 
ATOM     35  C   UNL A   1      45.493  21.504  26.115  1.00  0.00     0.016 A 
ATOM     36  C   UNL A   1      44.786  22.162  23.893  1.00  0.00     0.016 A 
ATOM     37  C   UNL A   1      45.653  22.842  26.467  1.00  0.00     0.010 A 
ATOM     38  C   UNL A   1      45.005  23.500  24.228  1.00  0.00     0.010 A 
ATOM     39  C   UNL A   1      45.418  23.855  25.525  1.00  0.00    -0.014 A 
BRANCH  39  40
ATOM     40  C   UNL A   1      45.577  25.286  25.893  1.00  0.00     0.031 A 
ATOM     41  C   UNL A   1      46.934  25.931  25.827  1.00  0.00     0.074 A 
ATOM     42  C   UNL A   1      44.508  25.995  26.304  1.00  0.00     0.049 A 
ATOM     43  N   UNL A   1      47.312  27.111  26.249  1.00  0.00    -0.248 NA
ATOM     44  C   UNL A   1      48.011  25.138  25.217  1.00  0.00     0.031 C 
ATOM     45  C   UNL A   1      43.134  25.493  26.369  1.00  0.00     0.029 A 
ATOM     46  N   UNL A   1      44.410  27.288  26.755  1.00  0.00    -0.354 N 
ATOM     47  C   UNL A   1      48.675  27.191  25.987  1.00  0.00     0.074 A 
ATOM     48  C   UNL A   1      49.060  25.931  25.384  1.00  0.00     0.031 C 
ATOM     49  C   UNL A   1      42.331  26.467  26.827  1.00  0.00     0.029 A 
ATOM     50  C   UNL A   1      43.140  27.637  27.154  1.00  0.00     0.049 A 
ATOM     51  H   UNL A   1      45.176  27.906  26.789  1.00  0.00     0.167 HD
ATOM     52  C   UNL A   1      49.525  28.220  26.230  1.00  0.00     0.034 A 
ATOM     53  C   UNL A   1      42.686  28.755  27.754  1.00  0.00     0.034 A 
ATOM     54  C   UNL A   1      49.120  29.477  26.812  1.00  0.00     0.049 A 
ATOM     55  C   UNL A   1      43.664  29.859  28.070  1.00  0.00     0.074 A 
ATOM     56  C   UNL A   1      49.892  30.598  27.069  1.00  0.00     0.029 A 
ATOM     57  N   UNL A   1      47.832  29.781  27.233  1.00  0.00    -0.354 N 
ATOM     58  N   UNL A   1      44.954  29.914  27.834  1.00  0.00    -0.248 NA
ATOM     59  C   UNL A   1      43.122  31.048  28.741  1.00  0.00     0.031 C 
ATOM     60  C   UNL A   1      49.087  31.552  27.701  1.00  0.00     0.029 A 
ATOM     61  C   UNL A   1      47.794  31.057  27.776  1.00  0.00     0.049 A 
ATOM     62  H   UNL A   1      47.056  29.178  27.156  1.00  0.00     0.167 HD
ATOM     63  C   UNL A   1      45.371  31.156  28.301  1.00  0.00     0.074 A 
ATOM     64  C   UNL A   1      44.193  31.823  28.820  1.00  0.00     0.031 C 
ATOM     65  C   UNL A   1      46.614  31.701  28.299  1.00  0.00     0.034 A 
BRANCH  52  66
ATOM     66  C   UNL A   1      50.987  28.006  25.922  1.00  0.00     0.023 A 
ATOM     67  C   UNL A   1      51.505  28.136  24.621  1.00  0.00     0.031 A 
ATOM     68  C   UNL A   1      51.878  27.657  26.954  1.00  0.00     0.131 A 
ATOM     69  C   UNL A   1      52.860  27.861  24.378  1.00  0.00     0.055 A 
ATOM     70  C   UNL A   1      53.238  27.454  26.716  1.00  0.00     0.041 A 
ATOM     71  F   UNL A   1      51.436  27.499  28.212  1.00  0.00    -0.206 F 
ATOM     72  C   UNL A   1      53.735  27.544  25.420  1.00  0.00     0.022 A 
BRANCH  69  73
ATOM     73  S   UNL A   1      53.444  27.810  22.661  1.00  0.00     0.124 S 
ATOM     74  O   UNL A   1      53.964  29.164  22.487  1.00  0.00    -0.237 OA
ATOM     75  O   UNL A   1      54.436  26.742  22.697  1.00  0.00    -0.237 OA
ATOM     76  O   UNL A   1      52.234  27.512  21.897  1.00  0.00    -0.744 OA
ENDBRANCH  69  73
ENDBRANCH  52  66
BRANCH  53  77
ATOM     77  C   UNL A   1      41.255  28.874  28.151  1.00  0.00     0.023 A 
ATOM     78  C   UNL A   1      40.853  28.661  29.479  1.00  0.00     0.031 A 
ATOM     79  C   UNL A   1      40.258  29.146  27.196  1.00  0.00     0.131 A 
ATOM     80  C   UNL A   1      39.489  28.678  29.807  1.00  0.00     0.055 A 
ATOM     81  C   UNL A   1      38.908  29.217  27.538  1.00  0.00     0.041 A 
ATOM     82  F   UNL A   1      40.588  29.356  25.912  1.00  0.00    -0.206 F 
ATOM     83  C   UNL A   1      38.515  28.968  28.849  1.00  0.00     0.022 A 
BRANCH  80  84
ATOM     84  S   UNL A   1      38.997  28.219  31.492  1.00  0.00     0.124 S 
ATOM     85  O   UNL A   1      37.947  29.194  31.771  1.00  0.00    -0.237 OA
ATOM     86  O   UNL A   1      38.560  26.839  31.314  1.00  0.00    -0.237 OA
ATOM     87  O   UNL A   1      40.226  28.388  32.264  1.00  0.00    -0.744 OA
ENDBRANCH  80  84
ENDBRANCH  53  77
BRANCH  65  88
ATOM     88  C   UNL A   1      46.741  33.107  28.833  1.00  0.00     0.023 A 
ATOM     89  C   UNL A   1      46.988  33.361  30.194  1.00  0.00     0.031 A 
ATOM     90  C   UNL A   1      46.587  34.205  27.970  1.00  0.00     0.131 A 
ATOM     91  C   UNL A   1      47.018  34.684  30.661  1.00  0.00     0.055 A 
ATOM     92  C   UNL A   1      46.673  35.520  28.430  1.00  0.00     0.041 A 
ATOM     93  F   UNL A   1      46.348  34.018  26.662  1.00  0.00    -0.206 F 
ATOM     94  C   UNL A   1      46.877  35.765  29.786  1.00  0.00     0.022 A 
BRANCH  91  95
ATOM     95  S   UNL A   1      47.155  34.974  32.446  1.00  0.00     0.124 S 
ATOM     96  O   UNL A   1      48.485  35.565  32.558  1.00  0.00    -0.237 OA
ATOM     97  O   UNL A   1      46.035  35.874  32.703  1.00  0.00    -0.237 OA
ATOM     98  O   UNL A   1      47.019  33.638  33.023  1.00  0.00    -0.744 OA
ENDBRANCH  91  95
ENDBRANCH  65  88
ENDBRANCH  39  40
ENDBRANCH  32  34
ENDBRANCH  31  32
ENDBRANCH  30  31
ENDBRANCH  29  30
ENDBRANCH  28  29
ENDBRANCH  26  28
ENDBRANCH   1  26
TORSDOF 23
ENDMDL
