MODEL 1
REMARK VINA RESULT:     -12.6      0.000      0.000
REMARK SMILES Cc1cc2c(c(C)c1Cl)C=C(C(=O)OCCOC(=O)c1ccc(-c3c4nc(c(-c5cc(S(=O)(=O)[O-])ccc5F)c5ccc([nH]5)c(-c5cc(S(=O)(=O)[O-])ccc5F)c5nc(c(-c6cc(S(=O)(=O)[O-])ccc6F)c6ccc3[nH]6)C=C5)C=C4)cc1)[C@@H](C(F)(F)F)O2
REMARK SMILES IDX 16 1 15 2 14 3 12 4 13 5 11 6 1 7 2 8 3 9 8 10 4 11 6 12
REMARK SMILES IDX 9 13 5 14 88 15 7 16 10 17 83 18 84 19 85 20 86 21 87 22
REMARK SMILES IDX 17 23 18 24 19 25 20 26 21 27 82 28 22 29 81 30 23 31 24 32
REMARK SMILES IDX 25 33 75 34 26 35 80 36 74 37 76 38 27 39 79 40 73 41 72 42
REMARK SMILES IDX 28 44 60 45 40 46 59 47 41 48 44 49 58 50 77 51 42 52 43 53
REMARK SMILES IDX 57 55 78 56 45 57 29 58 30 59 38 60 31 61 37 62 39 63 36 64
REMARK SMILES IDX 32 65 33 66 34 67 35 68 61 69 62 70 70 71 63 72 69 73 71 74
REMARK SMILES IDX 68 75 64 76 65 77 66 78 67 79 46 80 47 81 55 82 48 83 54 84
REMARK SMILES IDX 56 85 53 86 49 87 50 88 51 89 52 90
REMARK H PARENT 76 43 44 54
REMARK Flexibility Score: inf
ROOT
ATOM      1  C   UNL A   1      36.137  20.876  25.290  1.00  0.00     0.275 C 
ENDROOT
BRANCH   1   2
ATOM      2  C   UNL A   1      34.834  21.472  24.758  1.00  0.00     0.275 C 
BRANCH   2   3
ATOM      3  O   UNL A   1      34.862  22.916  24.772  1.00  0.00    -0.459 OA
BRANCH   3   4
ATOM      4  C   UNL A   1      34.035  23.502  25.669  1.00  0.00     0.338 C 
ATOM      5  O   UNL A   1      33.851  23.148  26.823  1.00  0.00    -0.246 OA
BRANCH   4   6
ATOM      6  C   UNL A   1      33.347  24.662  25.069  1.00  0.00     0.087 C 
ATOM      7  C   UNL A   1      30.008  30.071  23.778  1.00  0.00     0.046 C 
ATOM      8  C   UNL A   1      30.949  29.031  24.325  1.00  0.00    -0.028 A 
ATOM      9  C   UNL A   1      31.023  27.804  23.648  1.00  0.00     0.052 A 
ATOM     10  C   UNL A   1      31.778  29.244  25.443  1.00  0.00     0.047 A 
ATOM     11  C   UNL A   1      31.853  26.782  24.100  1.00  0.00     0.128 A 
ATOM     12  C   UNL A   1      32.621  28.216  25.924  1.00  0.00    -0.021 A 
ATOM     13  Cl  UNL A   1      31.753  30.795  26.225  1.00  0.00    -0.084 Cl
ATOM     14  C   UNL A   1      32.636  26.968  25.243  1.00  0.00     0.022 A 
ATOM     15  O   UNL A   1      31.842  25.640  23.347  1.00  0.00    -0.475 OA
ATOM     16  C   UNL A   1      33.513  28.428  27.128  1.00  0.00     0.047 C 
ATOM     17  C   UNL A   1      33.427  25.835  25.708  1.00  0.00     0.027 C 
ATOM     18  C   UNL A   1      32.482  24.445  23.867  1.00  0.00     0.316 C 
BRANCH  18  19
ATOM     19  C   UNL A   1      31.401  23.384  24.132  1.00  0.00     0.430 C 
ATOM     20  F   UNL A   1      30.889  23.505  25.382  1.00  0.00    -0.167 F 
ATOM     21  F   UNL A   1      30.354  23.510  23.280  1.00  0.00    -0.167 F 
ATOM     22  F   UNL A   1      31.873  22.124  24.008  1.00  0.00    -0.167 F 
ENDBRANCH  18  19
ENDBRANCH   4   6
ENDBRANCH   3   4
ENDBRANCH   2   3
ENDBRANCH   1   2
BRANCH   1  23
ATOM     23  O   UNL A   1      37.232  21.787  25.086  1.00  0.00    -0.458 OA
BRANCH  23  24
ATOM     24  C   UNL A   1      38.396  21.421  25.669  1.00  0.00     0.338 C 
ATOM     25  O   UNL A   1      38.958  20.343  25.578  1.00  0.00    -0.246 OA
BRANCH  24  26
ATOM     26  C   UNL A   1      38.976  22.554  26.407  1.00  0.00     0.060 A 
ATOM     27  C   UNL A   1      38.496  23.829  26.143  1.00  0.00     0.016 A 
ATOM     28  C   UNL A   1      40.114  22.388  27.192  1.00  0.00     0.016 A 
ATOM     29  C   UNL A   1      39.240  24.941  26.518  1.00  0.00     0.010 A 
ATOM     30  C   UNL A   1      40.779  23.517  27.693  1.00  0.00     0.010 A 
ATOM     31  C   UNL A   1      40.386  24.814  27.316  1.00  0.00    -0.014 A 
BRANCH  31  32
ATOM     32  C   UNL A   1      41.178  26.022  27.714  1.00  0.00     0.031 A 
ATOM     33  C   UNL A   1      40.570  27.072  28.616  1.00  0.00     0.074 A 
ATOM     34  C   UNL A   1      42.460  26.171  27.313  1.00  0.00     0.049 A 
ATOM     35  N   UNL A   1      40.994  28.283  28.877  1.00  0.00    -0.248 NA
ATOM     36  C   UNL A   1      39.318  26.721  29.303  1.00  0.00     0.031 C 
ATOM     37  C   UNL A   1      43.222  25.208  26.514  1.00  0.00     0.029 A 
ATOM     38  N   UNL A   1      43.363  27.184  27.542  1.00  0.00    -0.354 N 
ATOM     39  C   UNL A   1      40.033  28.858  29.705  1.00  0.00     0.074 A 
ATOM     40  C   UNL A   1      39.002  27.861  29.902  1.00  0.00     0.031 C 
ATOM     41  C   UNL A   1      44.487  25.631  26.395  1.00  0.00     0.029 A 
ATOM     42  C   UNL A   1      44.597  26.964  26.969  1.00  0.00     0.049 A 
ATOM     43  H   UNL A   1      43.149  27.989  28.066  1.00  0.00     0.167 HD
ATOM     44  C   UNL A   1      40.014  30.103  30.244  1.00  0.00     0.034 A 
ATOM     45  C   UNL A   1      45.677  27.759  26.851  1.00  0.00     0.034 A 
ATOM     46  C   UNL A   1      41.078  31.065  30.084  1.00  0.00     0.049 A 
ATOM     47  C   UNL A   1      45.604  29.163  27.382  1.00  0.00     0.074 A 
ATOM     48  C   UNL A   1      41.146  32.363  30.560  1.00  0.00     0.029 A 
ATOM     49  N   UNL A   1      42.275  30.826  29.419  1.00  0.00    -0.354 N 
ATOM     50  N   UNL A   1      44.620  29.750  28.019  1.00  0.00    -0.248 NA
ATOM     51  C   UNL A   1      46.773  30.021  27.149  1.00  0.00     0.031 C 
ATOM     52  C   UNL A   1      42.356  32.925  30.139  1.00  0.00     0.029 A 
ATOM     53  C   UNL A   1      43.077  31.955  29.463  1.00  0.00     0.049 A 
ATOM     54  H   UNL A   1      42.516  29.978  28.981  1.00  0.00     0.167 HD
ATOM     55  C   UNL A   1      45.057  31.044  28.279  1.00  0.00     0.074 A 
ATOM     56  C   UNL A   1      46.397  31.148  27.738  1.00  0.00     0.031 C 
ATOM     57  C   UNL A   1      44.407  32.052  28.912  1.00  0.00     0.034 A 
BRANCH  44  58
ATOM     58  C   UNL A   1      38.782  30.529  31.007  1.00  0.00     0.023 A 
ATOM     59  C   UNL A   1      37.701  31.179  30.390  1.00  0.00     0.031 A 
ATOM     60  C   UNL A   1      38.681  30.240  32.382  1.00  0.00     0.131 A 
ATOM     61  C   UNL A   1      36.580  31.549  31.153  1.00  0.00     0.055 A 
ATOM     62  C   UNL A   1      37.539  30.553  33.120  1.00  0.00     0.041 A 
ATOM     63  F   UNL A   1      39.692  29.638  33.028  1.00  0.00    -0.206 F 
ATOM     64  C   UNL A   1      36.481  31.217  32.507  1.00  0.00     0.022 A 
BRANCH  61  65
ATOM     65  S   UNL A   1      35.277  32.540  30.372  1.00  0.00     0.124 S 
ATOM     66  O   UNL A   1      34.306  32.655  31.457  1.00  0.00    -0.237 OA
ATOM     67  O   UNL A   1      35.982  33.764  30.012  1.00  0.00    -0.237 OA
ATOM     68  O   UNL A   1      34.847  31.715  29.245  1.00  0.00    -0.744 OA
ENDBRANCH  61  65
ENDBRANCH  44  58
BRANCH  45  69
ATOM     69  C   UNL A   1      46.886  27.271  26.126  1.00  0.00     0.023 A 
ATOM     70  C   UNL A   1      47.120  27.624  24.789  1.00  0.00     0.031 A 
ATOM     71  C   UNL A   1      47.837  26.458  26.772  1.00  0.00     0.131 A 
ATOM     72  C   UNL A   1      48.275  27.160  24.138  1.00  0.00     0.055 A 
ATOM     73  C   UNL A   1      49.008  26.042  26.136  1.00  0.00     0.041 A 
ATOM     74  F   UNL A   1      47.660  26.089  28.051  1.00  0.00    -0.206 F 
ATOM     75  C   UNL A   1      49.230  26.390  24.809  1.00  0.00     0.022 A 
BRANCH  72  76
ATOM     76  S   UNL A   1      48.503  27.552  22.382  1.00  0.00     0.124 S 
ATOM     77  O   UNL A   1      49.749  28.310  22.407  1.00  0.00    -0.237 OA
ATOM     78  O   UNL A   1      48.569  26.225  21.779  1.00  0.00    -0.237 OA
ATOM     79  O   UNL A   1      47.309  28.325  22.049  1.00  0.00    -0.744 OA
ENDBRANCH  72  76
ENDBRANCH  45  69
BRANCH  57  80
ATOM     80  C   UNL A   1      45.158  33.343  29.098  1.00  0.00     0.023 A 
ATOM     81  C   UNL A   1      45.140  34.356  28.126  1.00  0.00     0.031 A 
ATOM     82  C   UNL A   1      45.895  33.562  30.275  1.00  0.00     0.131 A 
ATOM     83  C   UNL A   1      45.880  35.529  28.329  1.00  0.00     0.055 A 
ATOM     84  C   UNL A   1      46.587  34.753  30.496  1.00  0.00     0.041 A 
ATOM     85  F   UNL A   1      45.945  32.624  31.234  1.00  0.00    -0.206 F 
ATOM     86  C   UNL A   1      46.590  35.741  29.516  1.00  0.00     0.022 A 
BRANCH  83  87
ATOM     87  S   UNL A   1      45.955  36.756  26.996  1.00  0.00     0.124 S 
ATOM     88  O   UNL A   1      46.325  35.932  25.849  1.00  0.00    -0.237 OA
ATOM     89  O   UNL A   1      44.598  37.292  26.984  1.00  0.00    -0.237 OA
ATOM     90  O   UNL A   1      46.984  37.691  27.446  1.00  0.00    -0.744 OA
ENDBRANCH  83  87
ENDBRANCH  57  80
ENDBRANCH  31  32
ENDBRANCH  24  26
ENDBRANCH  23  24
ENDBRANCH   1  23
TORSDOF 15
ENDMDL
MODEL 2
REMARK VINA RESULT:     -12.6      1.372      1.710
REMARK SMILES Cc1cc2c(c(C)c1Cl)C=C(C(=O)OCCOC(=O)c1ccc(-c3c4nc(c(-c5cc(S(=O)(=O)[O-])ccc5F)c5ccc([nH]5)c(-c5cc(S(=O)(=O)[O-])ccc5F)c5nc(c(-c6cc(S(=O)(=O)[O-])ccc6F)c6ccc3[nH]6)C=C5)C=C4)cc1)[C@@H](C(F)(F)F)O2
REMARK SMILES IDX 16 1 15 2 14 3 12 4 13 5 11 6 1 7 2 8 3 9 8 10 4 11 6 12
REMARK SMILES IDX 9 13 5 14 88 15 7 16 10 17 83 18 84 19 85 20 86 21 87 22
REMARK SMILES IDX 17 23 18 24 19 25 20 26 21 27 82 28 22 29 81 30 23 31 24 32
REMARK SMILES IDX 25 33 75 34 26 35 80 36 74 37 76 38 27 39 79 40 73 41 72 42
REMARK SMILES IDX 28 44 60 45 40 46 59 47 41 48 44 49 58 50 77 51 42 52 43 53
REMARK SMILES IDX 57 55 78 56 45 57 29 58 30 59 38 60 31 61 37 62 39 63 36 64
REMARK SMILES IDX 32 65 33 66 34 67 35 68 61 69 62 70 70 71 63 72 69 73 71 74
REMARK SMILES IDX 68 75 64 76 65 77 66 78 67 79 46 80 47 81 55 82 48 83 54 84
REMARK SMILES IDX 56 85 53 86 49 87 50 88 51 89 52 90
REMARK H PARENT 76 43 44 54
REMARK Flexibility Score: inf
ROOT
ATOM      1  C   UNL A   1      36.127  20.707  25.005  1.00  0.00     0.275 C 
ENDROOT
BRANCH   1   2
ATOM      2  C   UNL A   1      34.759  21.323  24.713  1.00  0.00     0.275 C 
BRANCH   2   3
ATOM      3  O   UNL A   1      34.822  22.765  24.662  1.00  0.00    -0.459 OA
BRANCH   3   4
ATOM      4  C   UNL A   1      34.066  23.410  25.581  1.00  0.00     0.338 C 
ATOM      5  O   UNL A   1      33.941  23.107  26.758  1.00  0.00    -0.246 OA
BRANCH   4   6
ATOM      6  C   UNL A   1      33.378  24.567  24.976  1.00  0.00     0.087 C 
ATOM      7  C   UNL A   1      30.019  29.958  23.661  1.00  0.00     0.046 C 
ATOM      8  C   UNL A   1      30.961  28.923  24.215  1.00  0.00    -0.028 A 
ATOM      9  C   UNL A   1      31.049  27.697  23.537  1.00  0.00     0.052 A 
ATOM     10  C   UNL A   1      31.778  29.140  25.341  1.00  0.00     0.047 A 
ATOM     11  C   UNL A   1      31.880  26.679  23.995  1.00  0.00     0.128 A 
ATOM     12  C   UNL A   1      32.623  28.115  25.828  1.00  0.00    -0.021 A 
ATOM     13  Cl  UNL A   1      31.737  30.689  26.125  1.00  0.00    -0.084 Cl
ATOM     14  C   UNL A   1      32.652  26.869  25.146  1.00  0.00     0.022 A 
ATOM     15  O   UNL A   1      31.883  25.538  23.241  1.00  0.00    -0.475 OA
ATOM     16  C   UNL A   1      33.503  28.332  27.041  1.00  0.00     0.047 C 
ATOM     17  C   UNL A   1      33.445  25.739  25.617  1.00  0.00     0.027 C 
ATOM     18  C   UNL A   1      32.525  24.346  23.766  1.00  0.00     0.316 C 
BRANCH  18  19
ATOM     19  C   UNL A   1      31.447  23.279  24.020  1.00  0.00     0.430 C 
ATOM     20  F   UNL A   1      31.888  22.043  23.678  1.00  0.00    -0.167 F 
ATOM     21  F   UNL A   1      31.108  23.211  25.331  1.00  0.00    -0.167 F 
ATOM     22  F   UNL A   1      30.314  23.513  23.321  1.00  0.00    -0.167 F 
ENDBRANCH  18  19
ENDBRANCH   4   6
ENDBRANCH   3   4
ENDBRANCH   2   3
ENDBRANCH   1   2
BRANCH   1  23
ATOM     23  O   UNL A   1      37.147  21.722  25.019  1.00  0.00    -0.458 OA
BRANCH  23  24
ATOM     24  C   UNL A   1      38.325  21.340  25.564  1.00  0.00     0.338 C 
ATOM     25  O   UNL A   1      38.885  20.266  25.427  1.00  0.00    -0.246 OA
BRANCH  24  26
ATOM     26  C   UNL A   1      38.921  22.451  26.322  1.00  0.00     0.060 A 
ATOM     27  C   UNL A   1      38.419  23.731  26.123  1.00  0.00     0.016 A 
ATOM     28  C   UNL A   1      40.089  22.269  27.057  1.00  0.00     0.016 A 
ATOM     29  C   UNL A   1      39.167  24.836  26.512  1.00  0.00     0.010 A 
ATOM     30  C   UNL A   1      40.762  23.386  27.575  1.00  0.00     0.010 A 
ATOM     31  C   UNL A   1      40.343  24.692  27.262  1.00  0.00    -0.014 A 
BRANCH  31  32
ATOM     32  C   UNL A   1      41.138  25.892  27.675  1.00  0.00     0.031 A 
ATOM     33  C   UNL A   1      40.521  26.950  28.561  1.00  0.00     0.074 A 
ATOM     34  C   UNL A   1      42.430  26.029  27.302  1.00  0.00     0.049 A 
ATOM     35  N   UNL A   1      40.950  28.157  28.831  1.00  0.00    -0.248 NA
ATOM     36  C   UNL A   1      39.250  26.612  29.222  1.00  0.00     0.031 C 
ATOM     37  C   UNL A   1      43.199  25.056  26.521  1.00  0.00     0.029 A 
ATOM     38  N   UNL A   1      43.338  27.032  27.549  1.00  0.00    -0.354 N 
ATOM     39  C   UNL A   1      39.978  28.743  29.637  1.00  0.00     0.074 A 
ATOM     40  C   UNL A   1      38.933  27.757  29.813  1.00  0.00     0.031 C 
ATOM     41  C   UNL A   1      44.471  25.467  26.428  1.00  0.00     0.029 A 
ATOM     42  C   UNL A   1      44.581  26.799  27.003  1.00  0.00     0.049 A 
ATOM     43  H   UNL A   1      43.120  27.840  28.066  1.00  0.00     0.167 HD
ATOM     44  C   UNL A   1      39.959  29.989  30.172  1.00  0.00     0.034 A 
ATOM     45  C   UNL A   1      45.672  27.584  26.907  1.00  0.00     0.034 A 
ATOM     46  C   UNL A   1      41.036  30.940  30.034  1.00  0.00     0.049 A 
ATOM     47  C   UNL A   1      45.601  28.989  27.434  1.00  0.00     0.074 A 
ATOM     48  C   UNL A   1      41.106  32.238  30.510  1.00  0.00     0.029 A 
ATOM     49  N   UNL A   1      42.244  30.688  29.396  1.00  0.00    -0.354 N 
ATOM     50  N   UNL A   1      44.609  29.587  28.049  1.00  0.00    -0.248 NA
ATOM     51  C   UNL A   1      46.783  29.836  27.226  1.00  0.00     0.031 C 
ATOM     52  C   UNL A   1      42.330  32.788  30.115  1.00  0.00     0.029 A 
ATOM     53  C   UNL A   1      43.057  31.810  29.456  1.00  0.00     0.049 A 
ATOM     54  H   UNL A   1      42.487  29.838  28.965  1.00  0.00     0.167 HD
ATOM     55  C   UNL A   1      45.052  30.877  28.316  1.00  0.00     0.074 A 
ATOM     56  C   UNL A   1      46.405  30.967  27.804  1.00  0.00     0.031 C 
ATOM     57  C   UNL A   1      44.399  31.893  28.933  1.00  0.00     0.034 A 
BRANCH  44  58
ATOM     58  C   UNL A   1      38.716  30.428  30.908  1.00  0.00     0.023 A 
ATOM     59  C   UNL A   1      37.653  31.085  30.266  1.00  0.00     0.031 A 
ATOM     60  C   UNL A   1      38.583  30.146  32.282  1.00  0.00     0.131 A 
ATOM     61  C   UNL A   1      36.520  31.468  31.004  1.00  0.00     0.055 A 
ATOM     62  C   UNL A   1      37.428  30.471  32.994  1.00  0.00     0.041 A 
ATOM     63  F   UNL A   1      39.574  29.537  32.951  1.00  0.00    -0.206 F 
ATOM     64  C   UNL A   1      36.389  31.141  32.357  1.00  0.00     0.022 A 
BRANCH  61  65
ATOM     65  S   UNL A   1      35.242  32.467  30.193  1.00  0.00     0.124 S 
ATOM     66  O   UNL A   1      35.992  33.668  29.834  1.00  0.00    -0.237 OA
ATOM     67  O   UNL A   1      34.830  31.615  29.083  1.00  0.00    -0.237 OA
ATOM     68  O   UNL A   1      34.239  32.656  31.238  1.00  0.00    -0.744 OA
ENDBRANCH  61  65
ENDBRANCH  44  58
BRANCH  45  69
ATOM     69  C   UNL A   1      46.891  27.083  26.210  1.00  0.00     0.023 A 
ATOM     70  C   UNL A   1      47.932  26.470  26.924  1.00  0.00     0.031 A 
ATOM     71  C   UNL A   1      47.022  27.192  24.813  1.00  0.00     0.131 A 
ATOM     72  C   UNL A   1      49.061  25.995  26.238  1.00  0.00     0.055 A 
ATOM     73  C   UNL A   1      48.123  26.672  24.130  1.00  0.00     0.041 A 
ATOM     74  F   UNL A   1      46.056  27.771  24.082  1.00  0.00    -0.206 F 
ATOM     75  C   UNL A   1      49.154  26.072  24.845  1.00  0.00     0.022 A 
BRANCH  72  76
ATOM     76  S   UNL A   1      50.433  25.296  27.196  1.00  0.00     0.124 S 
ATOM     77  O   UNL A   1      51.374  24.929  26.142  1.00  0.00    -0.237 OA
ATOM     78  O   UNL A   1      50.821  26.420  28.041  1.00  0.00    -0.237 OA
ATOM     79  O   UNL A   1      49.818  24.173  27.901  1.00  0.00    -0.744 OA
ENDBRANCH  72  76
ENDBRANCH  45  69
BRANCH  57  80
ATOM     80  C   UNL A   1      45.158  33.177  29.134  1.00  0.00     0.023 A 
ATOM     81  C   UNL A   1      45.015  34.265  28.258  1.00  0.00     0.031 A 
ATOM     82  C   UNL A   1      46.032  33.312  30.227  1.00  0.00     0.131 A 
ATOM     83  C   UNL A   1      45.767  35.430  28.467  1.00  0.00     0.055 A 
ATOM     84  C   UNL A   1      46.737  34.492  30.461  1.00  0.00     0.041 A 
ATOM     85  F   UNL A   1      46.203  32.300  31.093  1.00  0.00    -0.206 F 
ATOM     86  C   UNL A   1      46.614  35.557  29.573  1.00  0.00     0.022 A 
BRANCH  83  87
ATOM     87  S   UNL A   1      45.671  36.762  27.240  1.00  0.00     0.124 S 
ATOM     88  O   UNL A   1      44.240  36.810  26.960  1.00  0.00    -0.237 OA
ATOM     89  O   UNL A   1      46.217  37.902  27.969  1.00  0.00    -0.237 OA
ATOM     90  O   UNL A   1      46.503  36.276  26.140  1.00  0.00    -0.744 OA
ENDBRANCH  83  87
ENDBRANCH  57  80
ENDBRANCH  31  32
ENDBRANCH  24  26
ENDBRANCH  23  24
ENDBRANCH   1  23
TORSDOF 15
ENDMDL
MODEL 3
REMARK VINA RESULT:     -12.6      5.074     10.029
REMARK SMILES Cc1cc2c(c(C)c1Cl)C=C(C(=O)OCCOC(=O)c1ccc(-c3c4nc(c(-c5cc(S(=O)(=O)[O-])ccc5F)c5ccc([nH]5)c(-c5cc(S(=O)(=O)[O-])ccc5F)c5nc(c(-c6cc(S(=O)(=O)[O-])ccc6F)c6ccc3[nH]6)C=C5)C=C4)cc1)[C@@H](C(F)(F)F)O2
REMARK SMILES IDX 16 1 15 2 14 3 12 4 13 5 11 6 1 7 2 8 3 9 8 10 4 11 6 12
REMARK SMILES IDX 9 13 5 14 88 15 7 16 10 17 83 18 84 19 85 20 86 21 87 22
REMARK SMILES IDX 17 23 18 24 19 25 20 26 21 27 82 28 22 29 81 30 23 31 24 32
REMARK SMILES IDX 25 33 75 34 26 35 80 36 74 37 76 38 27 39 79 40 73 41 72 42
REMARK SMILES IDX 28 44 60 45 40 46 59 47 41 48 44 49 58 50 77 51 42 52 43 53
REMARK SMILES IDX 57 55 78 56 45 57 29 58 30 59 38 60 31 61 37 62 39 63 36 64
REMARK SMILES IDX 32 65 33 66 34 67 35 68 61 69 62 70 70 71 63 72 69 73 71 74
REMARK SMILES IDX 68 75 64 76 65 77 66 78 67 79 46 80 47 81 55 82 48 83 54 84
REMARK SMILES IDX 56 85 53 86 49 87 50 88 51 89 52 90
REMARK H PARENT 76 43 44 54
REMARK Flexibility Score: inf
ROOT
ATOM      1  C   UNL A   1      31.768  30.068  25.731  1.00  0.00     0.275 C 
ENDROOT
BRANCH   1   2
ATOM      2  C   UNL A   1      32.752  29.360  24.799  1.00  0.00     0.275 C 
BRANCH   2   3
ATOM      3  O   UNL A   1      32.840  27.948  25.090  1.00  0.00    -0.459 OA
BRANCH   3   4
ATOM      4  C   UNL A   1      33.471  27.203  24.153  1.00  0.00     0.338 C 
ATOM      5  O   UNL A   1      34.065  27.624  23.172  1.00  0.00    -0.246 OA
BRANCH   4   6
ATOM      6  C   UNL A   1      33.353  25.764  24.460  1.00  0.00     0.087 C 
ATOM      7  C   UNL A   1      33.886  19.312  24.863  1.00  0.00     0.046 C 
ATOM      8  C   UNL A   1      34.128  20.797  24.810  1.00  0.00    -0.028 A 
ATOM      9  C   UNL A   1      33.005  21.637  24.840  1.00  0.00     0.052 A 
ATOM     10  C   UNL A   1      35.412  21.374  24.774  1.00  0.00     0.047 A 
ATOM     11  C   UNL A   1      33.140  23.022  24.775  1.00  0.00     0.128 A 
ATOM     12  C   UNL A   1      35.570  22.778  24.698  1.00  0.00    -0.021 A 
ATOM     13  Cl  UNL A   1      36.803  20.336  24.829  1.00  0.00    -0.084 Cl
ATOM     14  C   UNL A   1      34.410  23.598  24.682  1.00  0.00     0.022 A 
ATOM     15  O   UNL A   1      31.970  23.729  24.823  1.00  0.00    -0.475 OA
ATOM     16  C   UNL A   1      36.943  23.412  24.653  1.00  0.00     0.047 C 
ATOM     17  C   UNL A   1      34.481  25.048  24.540  1.00  0.00     0.027 C 
ATOM     18  C   UNL A   1      31.990  25.149  24.520  1.00  0.00     0.316 C 
BRANCH  18  19
ATOM     19  C   UNL A   1      31.205  25.385  23.220  1.00  0.00     0.430 C 
ATOM     20  F   UNL A   1      32.017  25.323  22.135  1.00  0.00    -0.167 F 
ATOM     21  F   UNL A   1      30.249  24.442  23.032  1.00  0.00    -0.167 F 
ATOM     22  F   UNL A   1      30.592  26.590  23.198  1.00  0.00    -0.167 F 
ENDBRANCH  18  19
ENDBRANCH   4   6
ENDBRANCH   3   4
ENDBRANCH   2   3
ENDBRANCH   1   2
BRANCH   1  23
ATOM     23  O   UNL A   1      32.343  30.241  27.039  1.00  0.00    -0.458 OA
BRANCH  23  24
ATOM     24  C   UNL A   1      33.013  31.403  27.219  1.00  0.00     0.338 C 
ATOM     25  O   UNL A   1      32.562  32.532  27.135  1.00  0.00    -0.246 OA
BRANCH  24  26
ATOM     26  C   UNL A   1      34.402  31.134  27.621  1.00  0.00     0.060 A 
ATOM     27  C   UNL A   1      34.777  29.820  27.865  1.00  0.00     0.016 A 
ATOM     28  C   UNL A   1      35.264  32.176  27.953  1.00  0.00     0.016 A 
ATOM     29  C   UNL A   1      35.932  29.553  28.590  1.00  0.00     0.010 A 
ATOM     30  C   UNL A   1      36.499  31.888  28.552  1.00  0.00     0.010 A 
ATOM     31  C   UNL A   1      36.829  30.575  28.933  1.00  0.00    -0.014 A 
BRANCH  31  32
ATOM     32  C   UNL A   1      38.071  30.271  29.714  1.00  0.00     0.031 A 
ATOM     33  C   UNL A   1      39.166  29.422  29.109  1.00  0.00     0.074 A 
ATOM     34  C   UNL A   1      38.255  30.786  30.950  1.00  0.00     0.049 A 
ATOM     35  N   UNL A   1      40.192  28.856  29.693  1.00  0.00    -0.248 NA
ATOM     36  C   UNL A   1      39.092  29.166  27.662  1.00  0.00     0.031 C 
ATOM     37  C   UNL A   1      37.336  31.695  31.641  1.00  0.00     0.029 A 
ATOM     38  N   UNL A   1      39.292  30.640  31.842  1.00  0.00    -0.354 N 
ATOM     39  C   UNL A   1      40.847  28.129  28.703  1.00  0.00     0.074 A 
ATOM     40  C   UNL A   1      40.102  28.325  27.478  1.00  0.00     0.031 C 
ATOM     41  C   UNL A   1      37.884  32.087  32.798  1.00  0.00     0.029 A 
ATOM     42  C   UNL A   1      39.118  31.345  33.012  1.00  0.00     0.049 A 
ATOM     43  H   UNL A   1      40.083  30.083  31.661  1.00  0.00     0.167 HD
ATOM     44  C   UNL A   1      41.963  27.365  28.812  1.00  0.00     0.034 A 
ATOM     45  C   UNL A   1      39.823  31.353  34.160  1.00  0.00     0.034 A 
ATOM     46  C   UNL A   1      42.728  27.227  30.029  1.00  0.00     0.049 A 
ATOM     47  C   UNL A   1      41.008  30.438  34.287  1.00  0.00     0.074 A 
ATOM     48  C   UNL A   1      43.855  26.455  30.255  1.00  0.00     0.029 A 
ATOM     49  N   UNL A   1      42.462  27.895  31.217  1.00  0.00    -0.354 N 
ATOM     50  N   UNL A   1      41.519  29.626  33.392  1.00  0.00    -0.248 NA
ATOM     51  C   UNL A   1      41.691  30.414  35.587  1.00  0.00     0.031 C 
ATOM     52  C   UNL A   1      44.238  26.614  31.591  1.00  0.00     0.029 A 
ATOM     53  C   UNL A   1      43.395  27.543  32.180  1.00  0.00     0.049 A 
ATOM     54  H   UNL A   1      41.720  28.527  31.354  1.00  0.00     0.167 HD
ATOM     55  C   UNL A   1      42.596  29.006  34.016  1.00  0.00     0.074 A 
ATOM     56  C   UNL A   1      42.665  29.544  35.360  1.00  0.00     0.031 C 
ATOM     57  C   UNL A   1      43.450  28.077  33.519  1.00  0.00     0.034 A 
BRANCH  44  58
ATOM     58  C   UNL A   1      42.400  26.569  27.606  1.00  0.00     0.023 A 
ATOM     59  C   UNL A   1      42.069  25.214  27.437  1.00  0.00     0.031 A 
ATOM     60  C   UNL A   1      43.136  27.200  26.584  1.00  0.00     0.131 A 
ATOM     61  C   UNL A   1      42.503  24.526  26.291  1.00  0.00     0.055 A 
ATOM     62  C   UNL A   1      43.508  26.528  25.419  1.00  0.00     0.041 A 
ATOM     63  F   UNL A   1      43.497  28.487  26.699  1.00  0.00    -0.206 F 
ATOM     64  C   UNL A   1      43.197  25.180  25.269  1.00  0.00     0.022 A 
BRANCH  61  65
ATOM     65  S   UNL A   1      42.215  22.738  26.181  1.00  0.00     0.124 S 
ATOM     66  O   UNL A   1      42.965  22.248  27.334  1.00  0.00    -0.237 OA
ATOM     67  O   UNL A   1      40.763  22.645  26.276  1.00  0.00    -0.237 OA
ATOM     68  O   UNL A   1      42.777  22.380  24.881  1.00  0.00    -0.744 OA
ENDBRANCH  61  65
ENDBRANCH  44  58
BRANCH  45  69
ATOM     69  C   UNL A   1      39.373  32.195  35.306  1.00  0.00     0.023 A 
ATOM     70  C   UNL A   1      39.839  33.509  35.464  1.00  0.00     0.031 A 
ATOM     71  C   UNL A   1      38.452  31.701  36.248  1.00  0.00     0.131 A 
ATOM     72  C   UNL A   1      39.386  34.282  36.545  1.00  0.00     0.055 A 
ATOM     73  C   UNL A   1      37.966  32.492  37.291  1.00  0.00     0.041 A 
ATOM     74  F   UNL A   1      37.977  30.450  36.143  1.00  0.00    -0.206 F 
ATOM     75  C   UNL A   1      38.437  33.790  37.446  1.00  0.00     0.022 A 
BRANCH  72  76
ATOM     76  S   UNL A   1      40.078  35.942  36.780  1.00  0.00     0.124 S 
ATOM     77  O   UNL A   1      41.497  35.649  36.954  1.00  0.00    -0.237 OA
ATOM     78  O   UNL A   1      39.707  36.608  35.537  1.00  0.00    -0.237 OA
ATOM     79  O   UNL A   1      39.391  36.431  37.974  1.00  0.00    -0.744 OA
ENDBRANCH  72  76
ENDBRANCH  45  69
BRANCH  57  80
ATOM     80  C   UNL A   1      44.567  27.620  34.418  1.00  0.00     0.023 A 
ATOM     81  C   UNL A   1      44.451  26.470  35.216  1.00  0.00     0.031 A 
ATOM     82  C   UNL A   1      45.770  28.346  34.467  1.00  0.00     0.131 A 
ATOM     83  C   UNL A   1      45.506  26.101  36.061  1.00  0.00     0.055 A 
ATOM     84  C   UNL A   1      46.837  27.945  35.270  1.00  0.00     0.041 A 
ATOM     85  F   UNL A   1      45.930  29.453  33.724  1.00  0.00    -0.206 F 
ATOM     86  C   UNL A   1      46.705  26.821  36.081  1.00  0.00     0.022 A 
BRANCH  83  87
ATOM     87  S   UNL A   1      45.273  24.697  37.185  1.00  0.00     0.124 S 
ATOM     88  O   UNL A   1      44.303  25.230  38.136  1.00  0.00    -0.237 OA
ATOM     89  O   UNL A   1      44.781  23.655  36.290  1.00  0.00    -0.237 OA
ATOM     90  O   UNL A   1      46.610  24.465  37.727  1.00  0.00    -0.744 OA
ENDBRANCH  83  87
ENDBRANCH  57  80
ENDBRANCH  31  32
ENDBRANCH  24  26
ENDBRANCH  23  24
ENDBRANCH   1  23
TORSDOF 15
ENDMDL
