MODEL 1
REMARK VINA RESULT:     -13.1      0.000      0.000
REMARK SMILES O=C(CSc1nnc2sc3ccccc3n12)N[C@H](Cc1c[nH]c2ccccc12)C(=O)OCCOC(=O)c1ccc(-c2c3nc(c(-c4cc(S(=O)(=O)[O-])ccc4F)c4ccc([nH]4)c(-c4cc(S(=O)(=O)[O-])ccc4F)c4nc(c(-c5cc(S(=O)(=O)[O-])ccc5F)c5ccc2[nH]5)C=C4)C=C3)cc1
REMARK SMILES IDX 32 1 31 2 29 3 30 4 18 5 17 6 1 7 2 8 3 10 4 11 5 12 6 13
REMARK SMILES IDX 16 14 7 15 8 16 15 17 9 18 10 19 14 20 11 21 13 22 12 23
REMARK SMILES IDX 19 24 20 25 21 26 28 27 22 28 23 29 27 30 24 32 26 33 25 34
REMARK SMILES IDX 33 35 34 36 35 37 36 38 37 39 38 40 99 41 39 42 98 43 40 44
REMARK SMILES IDX 41 45 42 46 92 47 43 48 97 49 91 50 93 51 44 52 96 53 90 54
REMARK SMILES IDX 89 55 45 57 77 58 57 59 76 60 58 61 61 62 75 63 94 64 59 65
REMARK SMILES IDX 60 66 74 68 95 69 62 70 46 71 47 72 55 73 48 74 54 75 56 76
REMARK SMILES IDX 53 77 49 78 50 79 51 80 52 81 78 82 79 83 87 84 80 85 86 86
REMARK SMILES IDX 88 87 85 88 81 89 82 90 83 91 84 92 63 93 64 94 72 95 65 96
REMARK SMILES IDX 71 97 73 98 70 99 66 100 67 101 68 102 69 103
REMARK H PARENT 17 9 22 31 93 56 61 67
REMARK Flexibility Score: inf
ROOT
ATOM      1  C   UNL A   1      32.261  29.588  27.067  1.00  0.00     0.274 C 
ENDROOT
BRANCH   1   2
ATOM      2  O   UNL A   1      31.921  28.832  25.882  1.00  0.00    -0.461 OA
BRANCH   2   3
ATOM      3  C   UNL A   1      32.444  27.579  25.802  1.00  0.00     0.329 C 
ATOM      4  O   UNL A   1      33.404  27.192  26.464  1.00  0.00    -0.250 OA
BRANCH   3   5
ATOM      5  C   UNL A   1      31.659  26.628  24.873  1.00  0.00     0.196 C 
BRANCH   5   6
ATOM      6  N   UNL A   1      31.744  25.294  25.465  1.00  0.00    -0.342 N 
ATOM      7  O   UNL A   1      29.687  25.341  26.453  1.00  0.00    -0.274 OA
ATOM      8  C   UNL A   1      30.680  24.709  26.099  1.00  0.00     0.231 C 
ATOM      9  H   UNL A   1      32.594  24.800  25.406  1.00  0.00     0.164 HD
BRANCH   8  10
ATOM     10  C   UNL A   1      30.813  23.210  26.278  1.00  0.00     0.178 C 
BRANCH  10  11
ATOM     11  S   UNL A   1      31.440  22.387  24.779  1.00  0.00    -0.076 SA
BRANCH  11  12
ATOM     12  C   UNL A   1      33.135  22.200  25.053  1.00  0.00     0.197 A 
ATOM     13  N   UNL A   1      33.959  23.183  25.387  1.00  0.00    -0.122 NA
ATOM     14  N   UNL A   1      33.847  21.040  24.965  1.00  0.00    -0.260 N 
ATOM     15  N   UNL A   1      35.254  22.675  25.450  1.00  0.00    -0.118 NA
ATOM     16  C   UNL A   1      35.146  21.408  25.165  1.00  0.00     0.217 A 
ATOM     17  C   UNL A   1      33.642  19.686  24.704  1.00  0.00     0.068 A 
ATOM     18  S   UNL A   1      36.271  20.105  24.998  1.00  0.00    -0.094 S 
ATOM     19  C   UNL A   1      34.882  19.028  24.629  1.00  0.00     0.055 A 
ATOM     20  C   UNL A   1      32.446  19.022  24.508  1.00  0.00     0.028 A 
ATOM     21  C   UNL A   1      34.938  17.689  24.282  1.00  0.00     0.021 A 
ATOM     22  C   UNL A   1      32.506  17.680  24.135  1.00  0.00     0.002 A 
ATOM     23  C   UNL A   1      33.740  17.021  24.014  1.00  0.00     0.002 A 
ENDBRANCH  11  12
ENDBRANCH  10  11
ENDBRANCH   8  10
ENDBRANCH   5   6
BRANCH   5  24
ATOM     24  C   UNL A   1      31.920  26.714  23.362  1.00  0.00     0.074 C 
BRANCH  24  25
ATOM     25  C   UNL A   1      31.314  27.971  22.776  1.00  0.00    -0.020 A 
ATOM     26  C   UNL A   1      31.998  29.005  22.165  1.00  0.00     0.087 A 
ATOM     27  C   UNL A   1      29.929  28.355  22.799  1.00  0.00     0.003 A 
ATOM     28  N   UNL A   1      31.101  29.988  21.838  1.00  0.00    -0.361 N 
ATOM     29  C   UNL A   1      29.827  29.606  22.184  1.00  0.00     0.046 A 
ATOM     30  C   UNL A   1      28.750  27.763  23.299  1.00  0.00     0.010 A 
ATOM     31  H   UNL A   1      31.335  30.846  21.415  1.00  0.00     0.166 HD
ATOM     32  C   UNL A   1      28.607  30.275  22.016  1.00  0.00     0.026 A 
ATOM     33  C   UNL A   1      27.523  28.418  23.140  1.00  0.00     0.001 A 
ATOM     34  C   UNL A   1      27.453  29.652  22.499  1.00  0.00     0.002 A 
ENDBRANCH  24  25
ENDBRANCH   5  24
ENDBRANCH   3   5
ENDBRANCH   2   3
ENDBRANCH   1   2
BRANCH   1  35
ATOM     35  C   UNL A   1      33.396  30.573  26.766  1.00  0.00     0.275 C 
BRANCH  35  36
ATOM     36  O   UNL A   1      34.114  30.849  27.976  1.00  0.00    -0.458 OA
BRANCH  36  37
ATOM     37  C   UNL A   1      35.217  31.626  27.852  1.00  0.00     0.338 C 
ATOM     38  O   UNL A   1      35.251  32.827  27.634  1.00  0.00    -0.246 OA
BRANCH  37  39
ATOM     39  C   UNL A   1      36.332  30.828  28.396  1.00  0.00     0.060 A 
ATOM     40  C   UNL A   1      37.541  31.416  28.781  1.00  0.00     0.016 A 
ATOM     41  C   UNL A   1      36.226  29.445  28.271  1.00  0.00     0.016 A 
ATOM     42  C   UNL A   1      38.672  30.617  28.925  1.00  0.00     0.010 A 
ATOM     43  C   UNL A   1      37.370  28.661  28.351  1.00  0.00     0.010 A 
ATOM     44  C   UNL A   1      38.601  29.245  28.648  1.00  0.00    -0.014 A 
BRANCH  44  45
ATOM     45  C   UNL A   1      39.741  28.398  28.991  1.00  0.00     0.031 A 
ATOM     46  C   UNL A   1      40.038  28.438  30.439  1.00  0.00     0.074 A 
ATOM     47  C   UNL A   1      40.443  27.557  28.209  1.00  0.00     0.049 A 
ATOM     48  N   UNL A   1      40.933  29.160  31.026  1.00  0.00    -0.248 NA
ATOM     49  C   UNL A   1      39.113  27.749  31.351  1.00  0.00     0.031 C 
ATOM     50  C   UNL A   1      40.089  27.054  26.884  1.00  0.00     0.029 A 
ATOM     51  N   UNL A   1      41.607  26.893  28.500  1.00  0.00    -0.354 N 
ATOM     52  C   UNL A   1      40.820  28.839  32.372  1.00  0.00     0.074 A 
ATOM     53  C   UNL A   1      39.537  28.208  32.527  1.00  0.00     0.031 C 
ATOM     54  C   UNL A   1      40.897  26.008  26.581  1.00  0.00     0.029 A 
ATOM     55  C   UNL A   1      41.926  25.884  27.606  1.00  0.00     0.049 A 
ATOM     56  H   UNL A   1      42.168  27.114  29.279  1.00  0.00     0.167 HD
ATOM     57  C   UNL A   1      41.912  28.818  33.185  1.00  0.00     0.034 A 
ATOM     58  C   UNL A   1      42.941  24.990  27.712  1.00  0.00     0.034 A 
ATOM     59  C   UNL A   1      43.056  29.389  32.528  1.00  0.00     0.049 A 
ATOM     60  C   UNL A   1      43.983  25.519  28.621  1.00  0.00     0.074 A 
ATOM     61  C   UNL A   1      43.539  30.646  32.253  1.00  0.00     0.029 A 
ATOM     62  N   UNL A   1      43.747  28.503  31.744  1.00  0.00    -0.354 N 
ATOM     63  N   UNL A   1      44.767  26.520  28.337  1.00  0.00    -0.248 NA
ATOM     64  C   UNL A   1      44.015  25.077  30.014  1.00  0.00     0.031 C 
ATOM     65  C   UNL A   1      44.487  30.493  31.201  1.00  0.00     0.029 A 
ATOM     66  C   UNL A   1      44.570  29.146  30.857  1.00  0.00     0.049 A 
ATOM     67  H   UNL A   1      43.662  27.525  31.809  1.00  0.00     0.167 HD
ATOM     68  C   UNL A   1      45.027  27.098  29.561  1.00  0.00     0.074 A 
ATOM     69  C   UNL A   1      44.721  26.075  30.549  1.00  0.00     0.031 C 
ATOM     70  C   UNL A   1      45.103  28.450  29.697  1.00  0.00     0.034 A 
BRANCH  57  71
ATOM     71  C   UNL A   1      42.081  27.891  34.370  1.00  0.00     0.023 A 
ATOM     72  C   UNL A   1      42.709  26.634  34.293  1.00  0.00     0.031 A 
ATOM     73  C   UNL A   1      41.810  28.354  35.674  1.00  0.00     0.131 A 
ATOM     74  C   UNL A   1      43.025  25.888  35.435  1.00  0.00     0.055 A 
ATOM     75  C   UNL A   1      42.187  27.642  36.820  1.00  0.00     0.041 A 
ATOM     76  F   UNL A   1      41.217  29.541  35.878  1.00  0.00    -0.206 F 
ATOM     77  C   UNL A   1      42.799  26.400  36.706  1.00  0.00     0.022 A 
BRANCH  74  78
ATOM     78  S   UNL A   1      43.767  24.241  35.264  1.00  0.00     0.124 S 
ATOM     79  O   UNL A   1      44.354  24.035  36.583  1.00  0.00    -0.237 OA
ATOM     80  O   UNL A   1      42.598  23.422  34.954  1.00  0.00    -0.237 OA
ATOM     81  O   UNL A   1      44.715  24.404  34.165  1.00  0.00    -0.744 OA
ENDBRANCH  74  78
ENDBRANCH  57  71
BRANCH  58  82
ATOM     82  C   UNL A   1      42.964  23.569  27.297  1.00  0.00     0.023 A 
ATOM     83  C   UNL A   1      43.919  23.141  26.360  1.00  0.00     0.031 A 
ATOM     84  C   UNL A   1      41.870  22.718  27.544  1.00  0.00     0.131 A 
ATOM     85  C   UNL A   1      43.737  21.940  25.661  1.00  0.00     0.055 A 
ATOM     86  C   UNL A   1      41.696  21.513  26.853  1.00  0.00     0.041 A 
ATOM     87  F   UNL A   1      40.908  23.075  28.409  1.00  0.00    -0.206 F 
ATOM     88  C   UNL A   1      42.625  21.128  25.893  1.00  0.00     0.022 A 
BRANCH  85  89
ATOM     89  S   UNL A   1      44.923  21.451  24.381  1.00  0.00     0.124 S 
ATOM     90  O   UNL A   1      44.575  20.051  24.150  1.00  0.00    -0.237 OA
ATOM     91  O   UNL A   1      44.590  22.371  23.300  1.00  0.00    -0.237 OA
ATOM     92  O   UNL A   1      46.219  21.662  25.023  1.00  0.00    -0.744 OA
ENDBRANCH  85  89
ENDBRANCH  58  82
BRANCH  70  93
ATOM     93  C   UNL A   1      45.590  29.278  28.541  1.00  0.00     0.023 A 
ATOM     94  C   UNL A   1      46.986  29.387  28.402  1.00  0.00     0.031 A 
ATOM     95  C   UNL A   1      44.787  30.049  27.686  1.00  0.00     0.131 A 
ATOM     96  C   UNL A   1      47.544  30.282  27.487  1.00  0.00     0.055 A 
ATOM     97  C   UNL A   1      45.349  30.883  26.711  1.00  0.00     0.041 A 
ATOM     98  F   UNL A   1      43.451  30.078  27.810  1.00  0.00    -0.206 F 
ATOM     99  C   UNL A   1      46.733  31.019  26.624  1.00  0.00     0.022 A 
BRANCH  96 100
ATOM    100  S   UNL A   1      49.322  30.628  27.530  1.00  0.00     0.124 S 
ATOM    101  O   UNL A   1      49.356  32.086  27.472  1.00  0.00    -0.237 OA
ATOM    102  O   UNL A   1      49.725  30.041  28.807  1.00  0.00    -0.237 OA
ATOM    103  O   UNL A   1      49.842  29.942  26.350  1.00  0.00    -0.744 OA
ENDBRANCH  96 100
ENDBRANCH  70  93
ENDBRANCH  44  45
ENDBRANCH  37  39
ENDBRANCH  36  37
ENDBRANCH  35  36
ENDBRANCH   1  35
TORSDOF 20
ENDMDL
MODEL 2
REMARK VINA RESULT:     -13.0      3.788     10.032
REMARK SMILES O=C(CSc1nnc2sc3ccccc3n12)N[C@H](Cc1c[nH]c2ccccc12)C(=O)OCCOC(=O)c1ccc(-c2c3nc(c(-c4cc(S(=O)(=O)[O-])ccc4F)c4ccc([nH]4)c(-c4cc(S(=O)(=O)[O-])ccc4F)c4nc(c(-c5cc(S(=O)(=O)[O-])ccc5F)c5ccc2[nH]5)C=C4)C=C3)cc1
REMARK SMILES IDX 32 1 31 2 29 3 30 4 18 5 17 6 1 7 2 8 3 10 4 11 5 12 6 13
REMARK SMILES IDX 16 14 7 15 8 16 15 17 9 18 10 19 14 20 11 21 13 22 12 23
REMARK SMILES IDX 19 24 20 25 21 26 28 27 22 28 23 29 27 30 24 32 26 33 25 34
REMARK SMILES IDX 33 35 34 36 35 37 36 38 37 39 38 40 99 41 39 42 98 43 40 44
REMARK SMILES IDX 41 45 42 46 92 47 43 48 97 49 91 50 93 51 44 52 96 53 90 54
REMARK SMILES IDX 89 55 45 57 77 58 57 59 76 60 58 61 61 62 75 63 94 64 59 65
REMARK SMILES IDX 60 66 74 68 95 69 62 70 46 71 47 72 55 73 48 74 54 75 56 76
REMARK SMILES IDX 53 77 49 78 50 79 51 80 52 81 78 82 79 83 87 84 80 85 86 86
REMARK SMILES IDX 88 87 85 88 81 89 82 90 83 91 84 92 63 93 64 94 72 95 65 96
REMARK SMILES IDX 71 97 73 98 70 99 66 100 67 101 68 102 69 103
REMARK H PARENT 17 9 22 31 93 56 61 67
REMARK Flexibility Score: inf
ROOT
ATOM      1  C   UNL A   1      37.709  21.645  24.965  1.00  0.00     0.274 C 
ENDROOT
BRANCH   1   2
ATOM      2  O   UNL A   1      36.538  21.996  25.738  1.00  0.00    -0.461 OA
BRANCH   2   3
ATOM      3  C   UNL A   1      35.795  23.030  25.262  1.00  0.00     0.329 C 
ATOM      4  O   UNL A   1      36.126  24.210  25.349  1.00  0.00    -0.250 OA
BRANCH   3   5
ATOM      5  C   UNL A   1      34.528  22.595  24.495  1.00  0.00     0.196 C 
BRANCH   5   6
ATOM      6  N   UNL A   1      33.917  23.812  23.963  1.00  0.00    -0.342 N 
ATOM      7  O   UNL A   1      34.023  23.194  21.768  1.00  0.00    -0.274 OA
ATOM      8  C   UNL A   1      33.592  23.947  22.640  1.00  0.00     0.231 C 
ATOM      9  H   UNL A   1      33.732  24.559  24.578  1.00  0.00     0.164 HD
BRANCH   8  10
ATOM     10  C   UNL A   1      32.617  25.070  22.353  1.00  0.00     0.178 C 
BRANCH  10  11
ATOM     11  S   UNL A   1      33.216  26.680  22.959  1.00  0.00    -0.076 SA
BRANCH  11  12
ATOM     12  C   UNL A   1      31.836  27.716  22.898  1.00  0.00     0.197 A 
ATOM     13  N   UNL A   1      30.895  27.668  21.965  1.00  0.00    -0.122 NA
ATOM     14  N   UNL A   1      31.528  28.709  23.781  1.00  0.00    -0.260 N 
ATOM     15  N   UNL A   1      29.986  28.696  22.196  1.00  0.00    -0.118 NA
ATOM     16  C   UNL A   1      30.415  29.307  23.266  1.00  0.00     0.217 A 
ATOM     17  C   UNL A   1      32.020  29.273  24.957  1.00  0.00     0.068 A 
ATOM     18  S   UNL A   1      29.883  30.683  24.169  1.00  0.00    -0.094 S 
ATOM     19  C   UNL A   1      31.264  30.411  25.285  1.00  0.00     0.055 A 
ATOM     20  C   UNL A   1      33.093  28.859  25.723  1.00  0.00     0.028 A 
ATOM     21  C   UNL A   1      31.625  31.199  26.365  1.00  0.00     0.021 A 
ATOM     22  C   UNL A   1      33.471  29.666  26.796  1.00  0.00     0.002 A 
ATOM     23  C   UNL A   1      32.750  30.831  27.109  1.00  0.00     0.002 A 
ENDBRANCH  11  12
ENDBRANCH  10  11
ENDBRANCH   8  10
ENDBRANCH   5   6
BRANCH   5  24
ATOM     24  C   UNL A   1      33.575  21.602  25.176  1.00  0.00     0.074 C 
BRANCH  24  25
ATOM     25  C   UNL A   1      33.122  20.530  24.208  1.00  0.00    -0.020 A 
ATOM     26  C   UNL A   1      32.117  20.646  23.267  1.00  0.00     0.087 A 
ATOM     27  C   UNL A   1      33.605  19.179  24.126  1.00  0.00     0.003 A 
ATOM     28  N   UNL A   1      31.964  19.436  22.641  1.00  0.00    -0.361 N 
ATOM     29  C   UNL A   1      32.880  18.532  23.122  1.00  0.00     0.046 A 
ATOM     30  C   UNL A   1      34.584  18.438  24.821  1.00  0.00     0.010 A 
ATOM     31  H   UNL A   1      31.294  19.243  21.946  1.00  0.00     0.166 HD
ATOM     32  C   UNL A   1      33.106  17.197  22.759  1.00  0.00     0.026 A 
ATOM     33  C   UNL A   1      34.822  17.103  24.471  1.00  0.00     0.001 A 
ATOM     34  C   UNL A   1      34.099  16.496  23.448  1.00  0.00     0.002 A 
ENDBRANCH  24  25
ENDBRANCH   5  24
ENDBRANCH   3   5
ENDBRANCH   2   3
ENDBRANCH   1   2
BRANCH   1  35
ATOM     35  C   UNL A   1      38.906  21.398  25.889  1.00  0.00     0.275 C 
BRANCH  35  36
ATOM     36  O   UNL A   1      39.231  22.615  26.575  1.00  0.00    -0.458 OA
BRANCH  36  37
ATOM     37  C   UNL A   1      40.524  22.760  26.954  1.00  0.00     0.338 C 
ATOM     38  O   UNL A   1      41.431  21.958  26.800  1.00  0.00    -0.246 OA
BRANCH  37  39
ATOM     39  C   UNL A   1      40.699  24.197  27.239  1.00  0.00     0.060 A 
ATOM     40  C   UNL A   1      41.655  24.658  28.149  1.00  0.00     0.016 A 
ATOM     41  C   UNL A   1      39.707  25.051  26.760  1.00  0.00     0.016 A 
ATOM     42  C   UNL A   1      41.538  25.946  28.667  1.00  0.00     0.010 A 
ATOM     43  C   UNL A   1      39.557  26.310  27.327  1.00  0.00     0.010 A 
ATOM     44  C   UNL A   1      40.451  26.752  28.303  1.00  0.00    -0.014 A 
BRANCH  44  45
ATOM     45  C   UNL A   1      40.453  28.157  28.700  1.00  0.00     0.031 A 
ATOM     46  C   UNL A   1      41.653  28.867  28.205  1.00  0.00     0.074 A 
ATOM     47  C   UNL A   1      39.500  28.864  29.336  1.00  0.00     0.049 A 
ATOM     48  N   UNL A   1      42.735  29.112  28.865  1.00  0.00    -0.248 NA
ATOM     49  C   UNL A   1      41.734  29.161  26.766  1.00  0.00     0.031 C 
ATOM     50  C   UNL A   1      38.103  28.497  29.553  1.00  0.00     0.029 A 
ATOM     51  N   UNL A   1      39.577  30.135  29.846  1.00  0.00    -0.354 N 
ATOM     52  C   UNL A   1      43.549  29.794  27.971  1.00  0.00     0.074 A 
ATOM     53  C   UNL A   1      43.006  29.543  26.663  1.00  0.00     0.031 C 
ATOM     54  C   UNL A   1      37.416  29.598  29.950  1.00  0.00     0.029 A 
ATOM     55  C   UNL A   1      38.354  30.691  30.179  1.00  0.00     0.049 A 
ATOM     56  H   UNL A   1      40.431  30.612  29.964  1.00  0.00     0.167 HD
ATOM     57  C   UNL A   1      44.399  30.769  28.396  1.00  0.00     0.034 A 
ATOM     58  C   UNL A   1      38.118  31.964  30.584  1.00  0.00     0.034 A 
ATOM     59  C   UNL A   1      44.490  30.787  29.831  1.00  0.00     0.049 A 
ATOM     60  C   UNL A   1      39.362  32.558  31.123  1.00  0.00     0.074 A 
ATOM     61  C   UNL A   1      45.143  30.076  30.809  1.00  0.00     0.029 A 
ATOM     62  N   UNL A   1      43.506  31.517  30.442  1.00  0.00    -0.354 N 
ATOM     63  N   UNL A   1      39.919  32.203  32.246  1.00  0.00    -0.248 NA
ATOM     64  C   UNL A   1      40.171  33.429  30.273  1.00  0.00     0.031 C 
ATOM     65  C   UNL A   1      44.451  30.336  32.027  1.00  0.00     0.029 A 
ATOM     66  C   UNL A   1      43.393  31.205  31.771  1.00  0.00     0.049 A 
ATOM     67  H   UNL A   1      42.947  32.185  29.983  1.00  0.00     0.167 HD
ATOM     68  C   UNL A   1      41.264  32.422  32.035  1.00  0.00     0.074 A 
ATOM     69  C   UNL A   1      41.338  33.347  30.915  1.00  0.00     0.031 C 
ATOM     70  C   UNL A   1      42.201  31.563  32.522  1.00  0.00     0.034 A 
BRANCH  57  71
ATOM     71  C   UNL A   1      44.786  31.984  27.580  1.00  0.00     0.023 A 
ATOM     72  C   UNL A   1      44.124  33.223  27.664  1.00  0.00     0.031 A 
ATOM     73  C   UNL A   1      45.992  31.991  26.850  1.00  0.00     0.131 A 
ATOM     74  C   UNL A   1      44.622  34.378  27.050  1.00  0.00     0.055 A 
ATOM     75  C   UNL A   1      46.529  33.158  26.291  1.00  0.00     0.041 A 
ATOM     76  F   UNL A   1      46.717  30.871  26.701  1.00  0.00    -0.206 F 
ATOM     77  C   UNL A   1      45.843  34.362  26.388  1.00  0.00     0.022 A 
BRANCH  74  78
ATOM     78  S   UNL A   1      43.681  35.927  27.134  1.00  0.00     0.124 S 
ATOM     79  O   UNL A   1      42.780  35.797  25.995  1.00  0.00    -0.237 OA
ATOM     80  O   UNL A   1      43.060  35.823  28.451  1.00  0.00    -0.237 OA
ATOM     81  O   UNL A   1      44.709  36.958  27.017  1.00  0.00    -0.744 OA
ENDBRANCH  74  78
ENDBRANCH  57  71
BRANCH  58  82
ATOM     82  C   UNL A   1      36.947  32.822  30.291  1.00  0.00     0.023 A 
ATOM     83  C   UNL A   1      36.204  33.360  31.355  1.00  0.00     0.031 A 
ATOM     84  C   UNL A   1      36.359  32.843  29.012  1.00  0.00     0.131 A 
ATOM     85  C   UNL A   1      34.903  33.834  31.141  1.00  0.00     0.055 A 
ATOM     86  C   UNL A   1      35.063  33.328  28.799  1.00  0.00     0.041 A 
ATOM     87  F   UNL A   1      37.003  32.324  27.955  1.00  0.00    -0.206 F 
ATOM     88  C   UNL A   1      34.322  33.811  29.872  1.00  0.00     0.022 A 
BRANCH  85  89
ATOM     89  S   UNL A   1      33.918  34.429  32.541  1.00  0.00     0.124 S 
ATOM     90  O   UNL A   1      33.551  33.186  33.215  1.00  0.00    -0.237 OA
ATOM     91  O   UNL A   1      34.879  35.269  33.246  1.00  0.00    -0.237 OA
ATOM     92  O   UNL A   1      32.806  35.129  31.900  1.00  0.00    -0.744 OA
ENDBRANCH  85  89
ENDBRANCH  58  82
BRANCH  70  93
ATOM     93  C   UNL A   1      41.920  30.816  33.796  1.00  0.00     0.023 A 
ATOM     94  C   UNL A   1      42.352  31.434  34.984  1.00  0.00     0.031 A 
ATOM     95  C   UNL A   1      41.395  29.517  33.890  1.00  0.00     0.131 A 
ATOM     96  C   UNL A   1      42.318  30.747  36.199  1.00  0.00     0.055 A 
ATOM     97  C   UNL A   1      41.283  28.862  35.122  1.00  0.00     0.041 A 
ATOM     98  F   UNL A   1      41.046  28.818  32.799  1.00  0.00    -0.206 F 
ATOM     99  C   UNL A   1      41.767  29.468  36.281  1.00  0.00     0.022 A 
BRANCH  96 100
ATOM    100  S   UNL A   1      43.150  31.438  37.653  1.00  0.00     0.124 S 
ATOM    101  O   UNL A   1      44.060  30.362  38.031  1.00  0.00    -0.237 OA
ATOM    102  O   UNL A   1      43.786  32.637  37.109  1.00  0.00    -0.237 OA
ATOM    103  O   UNL A   1      42.061  31.696  38.591  1.00  0.00    -0.744 OA
ENDBRANCH  96 100
ENDBRANCH  70  93
ENDBRANCH  44  45
ENDBRANCH  37  39
ENDBRANCH  36  37
ENDBRANCH  35  36
ENDBRANCH   1  35
TORSDOF 20
ENDMDL
MODEL 3
REMARK VINA RESULT:     -12.8      3.632      9.730
REMARK SMILES O=C(CSc1nnc2sc3ccccc3n12)N[C@H](Cc1c[nH]c2ccccc12)C(=O)OCCOC(=O)c1ccc(-c2c3nc(c(-c4cc(S(=O)(=O)[O-])ccc4F)c4ccc([nH]4)c(-c4cc(S(=O)(=O)[O-])ccc4F)c4nc(c(-c5cc(S(=O)(=O)[O-])ccc5F)c5ccc2[nH]5)C=C4)C=C3)cc1
REMARK SMILES IDX 32 1 31 2 29 3 30 4 18 5 17 6 1 7 2 8 3 10 4 11 5 12 6 13
REMARK SMILES IDX 16 14 7 15 8 16 15 17 9 18 10 19 14 20 11 21 13 22 12 23
REMARK SMILES IDX 19 24 20 25 21 26 28 27 22 28 23 29 27 30 24 32 26 33 25 34
REMARK SMILES IDX 33 35 34 36 35 37 36 38 37 39 38 40 99 41 39 42 98 43 40 44
REMARK SMILES IDX 41 45 42 46 92 47 43 48 97 49 91 50 93 51 44 52 96 53 90 54
REMARK SMILES IDX 89 55 45 57 77 58 57 59 76 60 58 61 61 62 75 63 94 64 59 65
REMARK SMILES IDX 60 66 74 68 95 69 62 70 46 71 47 72 55 73 48 74 54 75 56 76
REMARK SMILES IDX 53 77 49 78 50 79 51 80 52 81 78 82 79 83 87 84 80 85 86 86
REMARK SMILES IDX 88 87 85 88 81 89 82 90 83 91 84 92 63 93 64 94 72 95 65 96
REMARK SMILES IDX 71 97 73 98 70 99 66 100 67 101 68 102 69 103
REMARK H PARENT 17 9 22 31 93 56 61 67
REMARK Flexibility Score: inf
ROOT
ATOM      1  C   UNL A   1      36.685  21.731  24.918  1.00  0.00     0.274 C 
ENDROOT
BRANCH   1   2
ATOM      2  O   UNL A   1      35.612  21.362  25.815  1.00  0.00    -0.461 OA
BRANCH   2   3
ATOM      3  C   UNL A   1      34.706  22.337  26.096  1.00  0.00     0.329 C 
ATOM      4  O   UNL A   1      34.562  22.841  27.208  1.00  0.00    -0.250 OA
BRANCH   3   5
ATOM      5  C   UNL A   1      33.928  22.847  24.864  1.00  0.00     0.196 C 
BRANCH   5   6
ATOM      6  N   UNL A   1      34.188  24.282  24.765  1.00  0.00    -0.342 N 
ATOM      7  O   UNL A   1      34.113  24.381  22.485  1.00  0.00    -0.274 OA
ATOM      8  C   UNL A   1      34.123  24.954  23.574  1.00  0.00     0.231 C 
ATOM      9  H   UNL A   1      34.417  24.782  25.582  1.00  0.00     0.164 HD
BRANCH   8  10
ATOM     10  C   UNL A   1      34.012  26.458  23.716  1.00  0.00     0.178 C 
BRANCH  10  11
ATOM     11  S   UNL A   1      32.715  27.161  22.647  1.00  0.00    -0.076 SA
BRANCH  11  12
ATOM     12  C   UNL A   1      31.229  26.641  23.356  1.00  0.00     0.197 A 
ATOM     13  N   UNL A   1      31.072  25.520  24.045  1.00  0.00    -0.122 NA
ATOM     14  N   UNL A   1      30.034  27.298  23.305  1.00  0.00    -0.260 N 
ATOM     15  N   UNL A   1      29.730  25.397  24.395  1.00  0.00    -0.118 NA
ATOM     16  C   UNL A   1      29.145  26.458  23.912  1.00  0.00     0.217 A 
ATOM     17  C   UNL A   1      29.493  28.481  22.807  1.00  0.00     0.068 A 
ATOM     18  S   UNL A   1      27.514  27.033  23.882  1.00  0.00    -0.094 S 
ATOM     19  C   UNL A   1      28.100  28.476  22.989  1.00  0.00     0.055 A 
ATOM     20  C   UNL A   1      30.149  29.530  22.191  1.00  0.00     0.028 A 
ATOM     21  C   UNL A   1      27.329  29.510  22.484  1.00  0.00     0.021 A 
ATOM     22  C   UNL A   1      29.369  30.558  21.661  1.00  0.00     0.002 A 
ATOM     23  C   UNL A   1      27.972  30.544  21.798  1.00  0.00     0.002 A 
ENDBRANCH  11  12
ENDBRANCH  10  11
ENDBRANCH   8  10
ENDBRANCH   5   6
BRANCH   5  24
ATOM     24  C   UNL A   1      32.464  22.412  24.702  1.00  0.00     0.074 C 
BRANCH  24  25
ATOM     25  C   UNL A   1      32.333  21.317  23.665  1.00  0.00    -0.020 A 
ATOM     26  C   UNL A   1      31.823  21.452  22.388  1.00  0.00     0.087 A 
ATOM     27  C   UNL A   1      32.653  19.926  23.833  1.00  0.00     0.003 A 
ATOM     28  N   UNL A   1      31.808  20.219  21.792  1.00  0.00    -0.361 N 
ATOM     29  C   UNL A   1      32.337  19.274  22.638  1.00  0.00     0.046 A 
ATOM     30  C   UNL A   1      33.169  19.154  24.894  1.00  0.00     0.010 A 
ATOM     31  H   UNL A   1      31.466  20.035  20.887  1.00  0.00     0.166 HD
ATOM     32  C   UNL A   1      32.542  17.901  22.442  1.00  0.00     0.026 A 
ATOM     33  C   UNL A   1      33.380  17.780  24.715  1.00  0.00     0.001 A 
ATOM     34  C   UNL A   1      33.079  17.167  23.503  1.00  0.00     0.002 A 
ENDBRANCH  24  25
ENDBRANCH   5  24
ENDBRANCH   3   5
ENDBRANCH   2   3
ENDBRANCH   1   2
BRANCH   1  35
ATOM     35  C   UNL A   1      38.045  21.478  25.578  1.00  0.00     0.275 C 
BRANCH  35  36
ATOM     36  O   UNL A   1      38.552  22.714  26.100  1.00  0.00    -0.458 OA
BRANCH  36  37
ATOM     37  C   UNL A   1      39.665  22.624  26.868  1.00  0.00     0.338 C 
ATOM     38  O   UNL A   1      40.389  21.651  27.007  1.00  0.00    -0.246 OA
BRANCH  37  39
ATOM     39  C   UNL A   1      40.038  24.014  27.196  1.00  0.00     0.060 A 
ATOM     40  C   UNL A   1      41.099  24.311  28.056  1.00  0.00     0.016 A 
ATOM     41  C   UNL A   1      39.133  25.005  26.819  1.00  0.00     0.016 A 
ATOM     42  C   UNL A   1      41.179  25.577  28.629  1.00  0.00     0.010 A 
ATOM     43  C   UNL A   1      39.179  26.245  27.443  1.00  0.00     0.010 A 
ATOM     44  C   UNL A   1      40.181  26.527  28.372  1.00  0.00    -0.014 A 
BRANCH  44  45
ATOM     45  C   UNL A   1      40.385  27.902  28.822  1.00  0.00     0.031 A 
ATOM     46  C   UNL A   1      41.624  28.485  28.263  1.00  0.00     0.074 A 
ATOM     47  C   UNL A   1      39.575  28.687  29.557  1.00  0.00     0.049 A 
ATOM     48  N   UNL A   1      42.773  28.566  28.846  1.00  0.00    -0.248 NA
ATOM     49  C   UNL A   1      41.637  28.836  26.835  1.00  0.00     0.031 C 
ATOM     50  C   UNL A   1      38.163  28.480  29.868  1.00  0.00     0.029 A 
ATOM     51  N   UNL A   1      39.845  29.913  30.108  1.00  0.00    -0.354 N 
ATOM     52  C   UNL A   1      43.598  29.188  27.919  1.00  0.00     0.074 A 
ATOM     53  C   UNL A   1      42.936  29.067  26.648  1.00  0.00     0.031 C 
ATOM     54  C   UNL A   1      37.647  29.635  30.359  1.00  0.00     0.029 A 
ATOM     55  C   UNL A   1      38.727  30.595  30.557  1.00  0.00     0.049 A 
ATOM     56  H   UNL A   1      40.758  30.277  30.178  1.00  0.00     0.167 HD
ATOM     57  C   UNL A   1      44.591  30.032  28.314  1.00  0.00     0.034 A 
ATOM     58  C   UNL A   1      38.680  31.867  31.027  1.00  0.00     0.034 A 
ATOM     59  C   UNL A   1      44.786  29.970  29.737  1.00  0.00     0.049 A 
ATOM     60  C   UNL A   1      40.024  32.280  31.491  1.00  0.00     0.074 A 
ATOM     61  C   UNL A   1      45.416  29.140  30.633  1.00  0.00     0.029 A 
ATOM     62  N   UNL A   1      43.947  30.784  30.450  1.00  0.00    -0.354 N 
ATOM     63  N   UNL A   1      40.612  31.807  32.552  1.00  0.00    -0.248 NA
ATOM     64  C   UNL A   1      40.870  33.088  30.615  1.00  0.00     0.031 C 
ATOM     65  C   UNL A   1      44.851  29.422  31.910  1.00  0.00     0.029 A 
ATOM     66  C   UNL A   1      43.893  30.424  31.771  1.00  0.00     0.049 A 
ATOM     67  H   UNL A   1      43.443  31.535  30.062  1.00  0.00     0.167 HD
ATOM     68  C   UNL A   1      41.955  31.873  32.247  1.00  0.00     0.074 A 
ATOM     69  C   UNL A   1      42.061  32.836  31.161  1.00  0.00     0.031 C 
ATOM     70  C   UNL A   1      42.811  30.885  32.626  1.00  0.00     0.034 A 
BRANCH  57  71
ATOM     71  C   UNL A   1      45.064  31.230  27.518  1.00  0.00     0.023 A 
ATOM     72  C   UNL A   1      44.320  32.415  27.376  1.00  0.00     0.031 A 
ATOM     73  C   UNL A   1      46.397  31.294  27.062  1.00  0.00     0.131 A 
ATOM     74  C   UNL A   1      44.862  33.572  26.804  1.00  0.00     0.055 A 
ATOM     75  C   UNL A   1      46.964  32.469  26.552  1.00  0.00     0.041 A 
ATOM     76  F   UNL A   1      47.209  30.228  27.146  1.00  0.00    -0.206 F 
ATOM     77  C   UNL A   1      46.196  33.619  26.420  1.00  0.00     0.022 A 
BRANCH  74  78
ATOM     78  S   UNL A   1      43.825  35.045  26.582  1.00  0.00     0.124 S 
ATOM     79  O   UNL A   1      42.983  35.005  27.772  1.00  0.00    -0.237 OA
ATOM     80  O   UNL A   1      44.827  36.107  26.547  1.00  0.00    -0.237 OA
ATOM     81  O   UNL A   1      43.145  34.797  25.314  1.00  0.00    -0.744 OA
ENDBRANCH  74  78
ENDBRANCH  57  71
BRANCH  58  82
ATOM     82  C   UNL A   1      37.606  32.872  30.859  1.00  0.00     0.023 A 
ATOM     83  C   UNL A   1      36.854  33.270  31.978  1.00  0.00     0.031 A 
ATOM     84  C   UNL A   1      37.093  33.188  29.587  1.00  0.00     0.131 A 
ATOM     85  C   UNL A   1      35.612  33.897  31.809  1.00  0.00     0.055 A 
ATOM     86  C   UNL A   1      35.858  33.825  29.422  1.00  0.00     0.041 A 
ATOM     87  F   UNL A   1      37.748  32.817  28.476  1.00  0.00    -0.206 F 
ATOM     88  C   UNL A   1      35.103  34.168  30.538  1.00  0.00     0.022 A 
BRANCH  85  89
ATOM     89  S   UNL A   1      34.606  34.311  33.259  1.00  0.00     0.124 S 
ATOM     90  O   UNL A   1      33.283  34.513  32.674  1.00  0.00    -0.237 OA
ATOM     91  O   UNL A   1      34.757  33.113  34.078  1.00  0.00    -0.237 OA
ATOM     92  O   UNL A   1      35.240  35.522  33.776  1.00  0.00    -0.744 OA
ENDBRANCH  85  89
ENDBRANCH  58  82
BRANCH  70  93
ATOM     93  C   UNL A   1      42.533  30.118  33.887  1.00  0.00     0.023 A 
ATOM     94  C   UNL A   1      43.225  30.544  35.036  1.00  0.00     0.031 A 
ATOM     95  C   UNL A   1      41.762  28.949  33.987  1.00  0.00     0.131 A 
ATOM     96  C   UNL A   1      43.192  29.788  36.210  1.00  0.00     0.055 A 
ATOM     97  C   UNL A   1      41.662  28.240  35.190  1.00  0.00     0.041 A 
ATOM     98  F   UNL A   1      41.145  28.420  32.919  1.00  0.00    -0.206 F 
ATOM     99  C   UNL A   1      42.397  28.646  36.302  1.00  0.00     0.022 A 
BRANCH  96 100
ATOM    100  S   UNL A   1      44.318  30.185  37.573  1.00  0.00     0.124 S 
ATOM    101  O   UNL A   1      43.496  31.051  38.412  1.00  0.00    -0.237 OA
ATOM    102  O   UNL A   1      44.613  28.866  38.131  1.00  0.00    -0.237 OA
ATOM    103  O   UNL A   1      45.448  30.838  36.918  1.00  0.00    -0.744 OA
ENDBRANCH  96 100
ENDBRANCH  70  93
ENDBRANCH  44  45
ENDBRANCH  37  39
ENDBRANCH  36  37
ENDBRANCH  35  36
ENDBRANCH   1  35
TORSDOF 20
ENDMDL
