MODEL 1
REMARK VINA RESULT:     -11.2      0.000      0.000
REMARK SMILES C[C@H](CNC(=O)Cc1ccc(F)c(F)c1)C(=O)OCCOC(=O)c1ccc(-c2c3nc(c(-c4cc(S(=O)(=O)[O-])ccc4F)c4ccc([nH]4)c(-c4cc(S(=O)(=O)[O-])ccc4F)c4nc(c(-c5cc(S(=O)(=O)[O-])ccc5F)c5ccc2[nH]5)C=C4)C=C3)cc1
REMARK SMILES IDX 19 1 18 2 16 3 17 4 2 5 1 6 3 7 4 8 5 9 6 11 7 12 8 13 9 14
REMARK SMILES IDX 15 15 10 16 13 17 11 18 14 19 12 20 20 21 21 22 22 23 23 24
REMARK SMILES IDX 24 25 25 26 86 27 26 28 85 29 27 30 28 31 29 32 79 33 30 34
REMARK SMILES IDX 84 35 78 36 80 37 31 38 83 39 77 40 76 41 32 43 64 44 44 45
REMARK SMILES IDX 63 46 45 47 48 48 62 49 81 50 46 51 47 52 61 54 82 55 49 56
REMARK SMILES IDX 33 57 34 58 42 59 35 60 41 61 43 62 40 63 36 64 37 65 38 66
REMARK SMILES IDX 39 67 65 68 66 69 74 70 67 71 73 72 75 73 72 74 68 75 69 76
REMARK SMILES IDX 70 77 71 78 50 79 51 80 59 81 52 82 58 83 60 84 57 85 53 86
REMARK SMILES IDX 54 87 55 88 56 89
REMARK H PARENT 4 10 80 42 48 53
REMARK Flexibility Score: inf
ROOT
ATOM      1  C   UNL A   1      35.773  21.680  24.505  1.00  0.00     0.274 C 
ENDROOT
BRANCH   1   2
ATOM      2  O   UNL A   1      35.567  23.102  24.585  1.00  0.00    -0.462 OA
BRANCH   2   3
ATOM      3  C   UNL A   1      34.568  23.593  23.804  1.00  0.00     0.310 C 
ATOM      4  O   UNL A   1      34.652  23.774  22.596  1.00  0.00    -0.252 OA
BRANCH   3   5
ATOM      5  C   UNL A   1      33.340  23.982  24.600  1.00  0.00     0.115 C 
ATOM      6  C   UNL A   1      33.804  24.628  25.897  1.00  0.00     0.022 C 
BRANCH   5   7
ATOM      7  C   UNL A   1      32.317  22.846  24.750  1.00  0.00     0.130 C 
BRANCH   7   8
ATOM      8  N   UNL A   1      32.270  21.924  23.628  1.00  0.00    -0.355 N 
ATOM      9  C   UNL A   1      32.224  20.558  23.627  1.00  0.00     0.224 C 
ATOM     10  H   UNL A   1      32.271  22.345  22.739  1.00  0.00     0.163 HD
ATOM     11  O   UNL A   1      32.197  19.972  22.543  1.00  0.00    -0.275 OA
BRANCH   9  12
ATOM     12  C   UNL A   1      32.198  19.788  24.941  1.00  0.00     0.135 C 
BRANCH  12  13
ATOM     13  C   UNL A   1      33.037  18.530  24.923  1.00  0.00    -0.036 A 
ATOM     14  C   UNL A   1      34.370  18.563  24.476  1.00  0.00     0.007 A 
ATOM     15  C   UNL A   1      32.507  17.318  25.397  1.00  0.00     0.046 A 
ATOM     16  C   UNL A   1      35.175  17.425  24.570  1.00  0.00     0.043 A 
ATOM     17  C   UNL A   1      33.321  16.193  25.496  1.00  0.00     0.159 A 
ATOM     18  C   UNL A   1      34.650  16.249  25.097  1.00  0.00     0.158 A 
ATOM     19  F   UNL A   1      32.817  15.064  26.010  1.00  0.00    -0.204 F 
ATOM     20  F   UNL A   1      35.443  15.178  25.229  1.00  0.00    -0.204 F 
ENDBRANCH  12  13
ENDBRANCH   9  12
ENDBRANCH   7   8
ENDBRANCH   5   7
ENDBRANCH   3   5
ENDBRANCH   2   3
ENDBRANCH   1   2
BRANCH   1  21
ATOM     21  C   UNL A   1      37.249  21.302  24.658  1.00  0.00     0.275 C 
BRANCH  21  22
ATOM     22  O   UNL A   1      37.682  21.338  26.030  1.00  0.00    -0.458 OA
BRANCH  22  23
ATOM     23  C   UNL A   1      39.010  21.139  26.217  1.00  0.00     0.338 C 
ATOM     24  O   UNL A   1      39.645  20.139  25.928  1.00  0.00    -0.246 OA
BRANCH  23  25
ATOM     25  C   UNL A   1      39.649  22.380  26.687  1.00  0.00     0.060 A 
ATOM     26  C   UNL A   1      39.180  23.590  26.168  1.00  0.00     0.016 A 
ATOM     27  C   UNL A   1      40.743  22.359  27.553  1.00  0.00     0.016 A 
ATOM     28  C   UNL A   1      39.794  24.789  26.520  1.00  0.00     0.010 A 
ATOM     29  C   UNL A   1      41.365  23.565  27.901  1.00  0.00     0.010 A 
ATOM     30  C   UNL A   1      40.898  24.786  27.382  1.00  0.00    -0.014 A 
BRANCH  30  31
ATOM     31  C   UNL A   1      41.584  26.067  27.688  1.00  0.00     0.031 A 
ATOM     32  C   UNL A   1      40.874  27.121  28.492  1.00  0.00     0.074 A 
ATOM     33  C   UNL A   1      42.854  26.259  27.287  1.00  0.00     0.049 A 
ATOM     34  N   UNL A   1      41.272  28.324  28.816  1.00  0.00    -0.248 NA
ATOM     35  C   UNL A   1      39.539  26.770  28.999  1.00  0.00     0.031 C 
ATOM     36  C   UNL A   1      43.660  25.284  26.550  1.00  0.00     0.029 A 
ATOM     37  N   UNL A   1      43.691  27.334  27.444  1.00  0.00    -0.354 N 
ATOM     38  C   UNL A   1      40.237  28.880  29.559  1.00  0.00     0.074 A 
ATOM     39  C   UNL A   1      39.182  27.889  29.613  1.00  0.00     0.031 C 
ATOM     40  C   UNL A   1      44.876  25.808  26.319  1.00  0.00     0.029 A 
ATOM     41  C   UNL A   1      44.919  27.169  26.845  1.00  0.00     0.049 A 
ATOM     42  H   UNL A   1      43.438  28.147  27.937  1.00  0.00     0.167 HD
ATOM     43  C   UNL A   1      40.177  30.102  30.144  1.00  0.00     0.034 A 
ATOM     44  C   UNL A   1      45.948  28.029  26.710  1.00  0.00     0.034 A 
ATOM     45  C   UNL A   1      41.235  31.083  30.074  1.00  0.00     0.049 A 
ATOM     46  C   UNL A   1      45.825  29.410  27.305  1.00  0.00     0.074 A 
ATOM     47  C   UNL A   1      41.268  32.358  30.611  1.00  0.00     0.029 A 
ATOM     48  N   UNL A   1      42.448  30.898  29.423  1.00  0.00    -0.354 N 
ATOM     49  N   UNL A   1      44.825  29.935  27.978  1.00  0.00    -0.248 NA
ATOM     50  C   UNL A   1      46.969  30.312  27.128  1.00  0.00     0.031 C 
ATOM     51  C   UNL A   1      42.474  32.963  30.239  1.00  0.00     0.029 A 
ATOM     52  C   UNL A   1      43.225  32.042  29.526  1.00  0.00     0.049 A 
ATOM     53  H   UNL A   1      42.717  30.075  28.955  1.00  0.00     0.167 HD
ATOM     54  C   UNL A   1      45.231  31.223  28.316  1.00  0.00     0.074 A 
ATOM     55  C   UNL A   1      46.576  31.383  27.801  1.00  0.00     0.031 C 
ATOM     56  C   UNL A   1      44.556  32.191  28.988  1.00  0.00     0.034 A 
BRANCH  43  57
ATOM     57  C   UNL A   1      38.900  30.462  30.862  1.00  0.00     0.023 A 
ATOM     58  C   UNL A   1      37.818  31.062  30.196  1.00  0.00     0.031 A 
ATOM     59  C   UNL A   1      38.772  30.216  32.242  1.00  0.00     0.131 A 
ATOM     60  C   UNL A   1      36.678  31.447  30.918  1.00  0.00     0.055 A 
ATOM     61  C   UNL A   1      37.608  30.539  32.942  1.00  0.00     0.041 A 
ATOM     62  F   UNL A   1      39.781  29.666  32.934  1.00  0.00    -0.206 F 
ATOM     63  C   UNL A   1      36.556  31.168  32.282  1.00  0.00     0.022 A 
BRANCH  60  64
ATOM     64  S   UNL A   1      35.402  32.423  30.076  1.00  0.00     0.124 S 
ATOM     65  O   UNL A   1      34.373  32.517  31.107  1.00  0.00    -0.237 OA
ATOM     66  O   UNL A   1      36.106  33.660  29.761  1.00  0.00    -0.237 OA
ATOM     67  O   UNL A   1      35.045  31.599  28.922  1.00  0.00    -0.744 OA
ENDBRANCH  60  64
ENDBRANCH  43  57
BRANCH  44  68
ATOM     68  C   UNL A   1      47.161  27.647  25.929  1.00  0.00     0.023 A 
ATOM     69  C   UNL A   1      47.274  27.949  24.563  1.00  0.00     0.031 A 
ATOM     70  C   UNL A   1      48.197  26.908  26.528  1.00  0.00     0.131 A 
ATOM     71  C   UNL A   1      48.369  27.467  23.828  1.00  0.00     0.055 A 
ATOM     72  C   UNL A   1      49.313  26.481  25.807  1.00  0.00     0.041 A 
ATOM     73  F   UNL A   1      48.137  26.588  27.831  1.00  0.00    -0.206 F 
ATOM     74  C   UNL A   1      49.396  26.747  24.444  1.00  0.00     0.022 A 
BRANCH  71  75
ATOM     75  S   UNL A   1      48.382  27.702  22.030  1.00  0.00     0.124 S 
ATOM     76  O   UNL A   1      47.040  28.218  21.787  1.00  0.00    -0.237 OA
ATOM     77  O   UNL A   1      49.476  28.653  21.857  1.00  0.00    -0.237 OA
ATOM     78  O   UNL A   1      48.638  26.359  21.512  1.00  0.00    -0.744 OA
ENDBRANCH  71  75
ENDBRANCH  44  68
BRANCH  56  79
ATOM     79  C   UNL A   1      45.290  33.489  29.222  1.00  0.00     0.023 A 
ATOM     80  C   UNL A   1      45.214  34.551  28.303  1.00  0.00     0.031 A 
ATOM     81  C   UNL A   1      46.106  33.649  30.355  1.00  0.00     0.131 A 
ATOM     82  C   UNL A   1      45.995  35.700  28.499  1.00  0.00     0.055 A 
ATOM     83  C   UNL A   1      46.835  34.819  30.574  1.00  0.00     0.041 A 
ATOM     84  F   UNL A   1      46.215  32.666  31.263  1.00  0.00    -0.206 F 
ATOM     85  C   UNL A   1      46.795  35.846  29.635  1.00  0.00     0.022 A 
BRANCH  82  86
ATOM     86  S   UNL A   1      46.034  36.958  27.192  1.00  0.00     0.124 S 
ATOM     87  O   UNL A   1      44.640  37.384  27.137  1.00  0.00    -0.237 OA
ATOM     88  O   UNL A   1      46.978  37.934  27.727  1.00  0.00    -0.237 OA
ATOM     89  O   UNL A   1      46.504  36.221  26.020  1.00  0.00    -0.744 OA
ENDBRANCH  82  86
ENDBRANCH  56  79
ENDBRANCH  30  31
ENDBRANCH  23  25
ENDBRANCH  22  23
ENDBRANCH  21  22
ENDBRANCH   1  21
TORSDOF 18
ENDMDL
MODEL 2
REMARK VINA RESULT:     -11.1      6.267     10.916
REMARK SMILES C[C@H](CNC(=O)Cc1ccc(F)c(F)c1)C(=O)OCCOC(=O)c1ccc(-c2c3nc(c(-c4cc(S(=O)(=O)[O-])ccc4F)c4ccc([nH]4)c(-c4cc(S(=O)(=O)[O-])ccc4F)c4nc(c(-c5cc(S(=O)(=O)[O-])ccc5F)c5ccc2[nH]5)C=C4)C=C3)cc1
REMARK SMILES IDX 19 1 18 2 16 3 17 4 2 5 1 6 3 7 4 8 5 9 6 11 7 12 8 13 9 14
REMARK SMILES IDX 15 15 10 16 13 17 11 18 14 19 12 20 20 21 21 22 22 23 23 24
REMARK SMILES IDX 24 25 25 26 86 27 26 28 85 29 27 30 28 31 29 32 79 33 30 34
REMARK SMILES IDX 84 35 78 36 80 37 31 38 83 39 77 40 76 41 32 43 64 44 44 45
REMARK SMILES IDX 63 46 45 47 48 48 62 49 81 50 46 51 47 52 61 54 82 55 49 56
REMARK SMILES IDX 33 57 34 58 42 59 35 60 41 61 43 62 40 63 36 64 37 65 38 66
REMARK SMILES IDX 39 67 65 68 66 69 74 70 67 71 73 72 75 73 72 74 68 75 69 76
REMARK SMILES IDX 70 77 71 78 50 79 51 80 59 81 52 82 58 83 60 84 57 85 53 86
REMARK SMILES IDX 54 87 55 88 56 89
REMARK H PARENT 4 10 80 42 48 53
REMARK Flexibility Score: inf
ROOT
ATOM      1  C   UNL A   1      33.593  34.785  29.130  1.00  0.00     0.274 C 
ENDROOT
BRANCH   1   2
ATOM      2  O   UNL A   1      32.795  35.077  30.291  1.00  0.00    -0.462 OA
BRANCH   2   3
ATOM      3  C   UNL A   1      32.949  36.324  30.808  1.00  0.00     0.310 C 
ATOM      4  O   UNL A   1      32.859  37.362  30.165  1.00  0.00    -0.252 OA
BRANCH   3   5
ATOM      5  C   UNL A   1      33.332  36.307  32.272  1.00  0.00     0.115 C 
ATOM      6  C   UNL A   1      33.925  37.664  32.621  1.00  0.00     0.022 C 
BRANCH   5   7
ATOM      7  C   UNL A   1      34.174  35.088  32.676  1.00  0.00     0.130 C 
BRANCH   7   8
ATOM      8  N   UNL A   1      35.552  35.128  32.217  1.00  0.00    -0.355 N 
ATOM      9  C   UNL A   1      36.541  34.195  32.355  1.00  0.00     0.224 C 
ATOM     10  H   UNL A   1      35.811  35.946  31.736  1.00  0.00     0.163 HD
ATOM     11  O   UNL A   1      37.654  34.445  31.888  1.00  0.00    -0.275 OA
BRANCH   9  12
ATOM     12  C   UNL A   1      36.262  32.875  33.063  1.00  0.00     0.135 C 
BRANCH  12  13
ATOM     13  C   UNL A   1      36.954  32.747  34.401  1.00  0.00    -0.036 A 
ATOM     14  C   UNL A   1      36.891  33.788  35.343  1.00  0.00     0.007 A 
ATOM     15  C   UNL A   1      37.632  31.563  34.738  1.00  0.00     0.046 A 
ATOM     16  C   UNL A   1      37.433  33.618  36.620  1.00  0.00     0.043 A 
ATOM     17  C   UNL A   1      38.159  31.400  36.016  1.00  0.00     0.159 A 
ATOM     18  C   UNL A   1      38.050  32.417  36.955  1.00  0.00     0.158 A 
ATOM     19  F   UNL A   1      38.745  30.241  36.339  1.00  0.00    -0.204 F 
ATOM     20  F   UNL A   1      38.522  32.246  38.196  1.00  0.00    -0.204 F 
ENDBRANCH  12  13
ENDBRANCH   9  12
ENDBRANCH   7   8
ENDBRANCH   5   7
ENDBRANCH   3   5
ENDBRANCH   2   3
ENDBRANCH   1   2
BRANCH   1  21
ATOM     21  C   UNL A   1      34.332  33.450  29.258  1.00  0.00     0.275 C 
BRANCH  21  22
ATOM     22  O   UNL A   1      34.703  32.907  27.977  1.00  0.00    -0.458 OA
BRANCH  22  23
ATOM     23  C   UNL A   1      34.665  31.555  27.895  1.00  0.00     0.338 C 
ATOM     24  O   UNL A   1      33.846  30.883  27.290  1.00  0.00    -0.246 OA
BRANCH  23  25
ATOM     25  C   UNL A   1      35.864  30.972  28.521  1.00  0.00     0.060 A 
ATOM     26  C   UNL A   1      37.106  31.511  28.173  1.00  0.00     0.016 A 
ATOM     27  C   UNL A   1      35.786  29.865  29.368  1.00  0.00     0.016 A 
ATOM     28  C   UNL A   1      38.278  30.954  28.677  1.00  0.00     0.010 A 
ATOM     29  C   UNL A   1      36.967  29.300  29.868  1.00  0.00     0.010 A 
ATOM     30  C   UNL A   1      38.219  29.839  29.521  1.00  0.00    -0.014 A 
BRANCH  30  31
ATOM     31  C   UNL A   1      39.482  29.214  29.990  1.00  0.00     0.031 A 
ATOM     32  C   UNL A   1      40.183  29.764  31.201  1.00  0.00     0.074 A 
ATOM     33  C   UNL A   1      39.968  28.130  29.357  1.00  0.00     0.049 A 
ATOM     34  N   UNL A   1      41.320  29.403  31.736  1.00  0.00    -0.248 NA
ATOM     35  C   UNL A   1      39.508  30.866  31.904  1.00  0.00     0.031 C 
ATOM     36  C   UNL A   1      39.344  27.476  28.206  1.00  0.00     0.029 A 
ATOM     37  N   UNL A   1      41.096  27.385  29.593  1.00  0.00    -0.354 N 
ATOM     38  C   UNL A   1      41.506  30.236  32.834  1.00  0.00     0.074 A 
ATOM     39  C   UNL A   1      40.373  31.138  32.870  1.00  0.00     0.031 C 
ATOM     40  C   UNL A   1      40.098  26.427  27.837  1.00  0.00     0.029 A 
ATOM     41  C   UNL A   1      41.280  26.364  28.690  1.00  0.00     0.049 A 
ATOM     42  H   UNL A   1      41.714  27.563  30.338  1.00  0.00     0.167 HD
ATOM     43  C   UNL A   1      42.525  30.241  33.728  1.00  0.00     0.034 A 
ATOM     44  C   UNL A   1      42.303  25.496  28.548  1.00  0.00     0.034 A 
ATOM     45  C   UNL A   1      43.652  29.340  33.673  1.00  0.00     0.049 A 
ATOM     46  C   UNL A   1      43.462  25.574  29.512  1.00  0.00     0.074 A 
ATOM     47  C   UNL A   1      44.749  29.274  34.516  1.00  0.00     0.029 A 
ATOM     48  N   UNL A   1      43.828  28.346  32.719  1.00  0.00    -0.354 N 
ATOM     49  N   UNL A   1      43.640  26.390  30.527  1.00  0.00    -0.248 NA
ATOM     50  C   UNL A   1      44.553  24.613  29.314  1.00  0.00     0.031 C 
ATOM     51  C   UNL A   1      45.612  28.281  34.040  1.00  0.00     0.029 A 
ATOM     52  C   UNL A   1      45.024  27.679  32.940  1.00  0.00     0.049 A 
ATOM     53  H   UNL A   1      43.197  28.144  31.992  1.00  0.00     0.167 HD
ATOM     54  C   UNL A   1      44.857  26.025  31.096  1.00  0.00     0.074 A 
ATOM     55  C   UNL A   1      45.351  24.898  30.331  1.00  0.00     0.031 C 
ATOM     56  C   UNL A   1      45.512  26.570  32.153  1.00  0.00     0.034 A 
BRANCH  43  57
ATOM     57  C   UNL A   1      42.490  31.294  34.809  1.00  0.00     0.023 A 
ATOM     58  C   UNL A   1      42.975  32.596  34.593  1.00  0.00     0.031 A 
ATOM     59  C   UNL A   1      41.979  30.983  36.082  1.00  0.00     0.131 A 
ATOM     60  C   UNL A   1      42.990  33.520  35.648  1.00  0.00     0.055 A 
ATOM     61  C   UNL A   1      41.933  31.928  37.108  1.00  0.00     0.041 A 
ATOM     62  F   UNL A   1      41.523  29.749  36.353  1.00  0.00    -0.206 F 
ATOM     63  C   UNL A   1      42.451  33.203  36.897  1.00  0.00     0.022 A 
BRANCH  60  64
ATOM     64  S   UNL A   1      43.830  35.109  35.401  1.00  0.00     0.124 S 
ATOM     65  O   UNL A   1      43.298  35.527  34.107  1.00  0.00    -0.237 OA
ATOM     66  O   UNL A   1      43.387  35.883  36.555  1.00  0.00    -0.237 OA
ATOM     67  O   UNL A   1      45.248  34.752  35.399  1.00  0.00    -0.744 OA
ENDBRANCH  60  64
ENDBRANCH  43  57
BRANCH  44  68
ATOM     68  C   UNL A   1      42.322  24.521  27.419  1.00  0.00     0.023 A 
ATOM     69  C   UNL A   1      41.611  23.313  27.486  1.00  0.00     0.031 A 
ATOM     70  C   UNL A   1      43.116  24.756  26.282  1.00  0.00     0.131 A 
ATOM     71  C   UNL A   1      41.750  22.362  26.463  1.00  0.00     0.055 A 
ATOM     72  C   UNL A   1      43.204  23.833  25.239  1.00  0.00     0.041 A 
ATOM     73  F   UNL A   1      43.820  25.894  26.168  1.00  0.00    -0.206 F 
ATOM     74  C   UNL A   1      42.530  22.620  25.334  1.00  0.00     0.022 A 
BRANCH  71  75
ATOM     75  S   UNL A   1      40.979  20.734  26.678  1.00  0.00     0.124 S 
ATOM     76  O   UNL A   1      40.893  20.634  28.130  1.00  0.00    -0.237 OA
ATOM     77  O   UNL A   1      39.714  20.904  25.970  1.00  0.00    -0.237 OA
ATOM     78  O   UNL A   1      41.928  19.821  26.044  1.00  0.00    -0.744 OA
ENDBRANCH  71  75
ENDBRANCH  44  68
BRANCH  56  79
ATOM     79  C   UNL A   1      46.817  25.923  32.548  1.00  0.00     0.023 A 
ATOM     80  C   UNL A   1      48.006  26.175  31.839  1.00  0.00     0.031 A 
ATOM     81  C   UNL A   1      46.863  25.013  33.618  1.00  0.00     0.131 A 
ATOM     82  C   UNL A   1      49.175  25.472  32.166  1.00  0.00     0.055 A 
ATOM     83  C   UNL A   1      48.044  24.360  33.976  1.00  0.00     0.041 A 
ATOM     84  F   UNL A   1      45.757  24.735  34.327  1.00  0.00    -0.206 F 
ATOM     85  C   UNL A   1      49.204  24.577  33.239  1.00  0.00     0.022 A 
BRANCH  82  86
ATOM     86  S   UNL A   1      50.632  25.664  31.102  1.00  0.00     0.124 S 
ATOM     87  O   UNL A   1      50.145  25.155  29.824  1.00  0.00    -0.237 OA
ATOM     88  O   UNL A   1      50.875  27.102  31.165  1.00  0.00    -0.237 OA
ATOM     89  O   UNL A   1      51.645  24.836  31.754  1.00  0.00    -0.744 OA
ENDBRANCH  82  86
ENDBRANCH  56  79
ENDBRANCH  30  31
ENDBRANCH  23  25
ENDBRANCH  22  23
ENDBRANCH  21  22
ENDBRANCH   1  21
TORSDOF 18
ENDMDL
MODEL 3
REMARK VINA RESULT:     -11.0      6.559     10.735
REMARK SMILES C[C@H](CNC(=O)Cc1ccc(F)c(F)c1)C(=O)OCCOC(=O)c1ccc(-c2c3nc(c(-c4cc(S(=O)(=O)[O-])ccc4F)c4ccc([nH]4)c(-c4cc(S(=O)(=O)[O-])ccc4F)c4nc(c(-c5cc(S(=O)(=O)[O-])ccc5F)c5ccc2[nH]5)C=C4)C=C3)cc1
REMARK SMILES IDX 19 1 18 2 16 3 17 4 2 5 1 6 3 7 4 8 5 9 6 11 7 12 8 13 9 14
REMARK SMILES IDX 15 15 10 16 13 17 11 18 14 19 12 20 20 21 21 22 22 23 23 24
REMARK SMILES IDX 24 25 25 26 86 27 26 28 85 29 27 30 28 31 29 32 79 33 30 34
REMARK SMILES IDX 84 35 78 36 80 37 31 38 83 39 77 40 76 41 32 43 64 44 44 45
REMARK SMILES IDX 63 46 45 47 48 48 62 49 81 50 46 51 47 52 61 54 82 55 49 56
REMARK SMILES IDX 33 57 34 58 42 59 35 60 41 61 43 62 40 63 36 64 37 65 38 66
REMARK SMILES IDX 39 67 65 68 66 69 74 70 67 71 73 72 75 73 72 74 68 75 69 76
REMARK SMILES IDX 70 77 71 78 50 79 51 80 59 81 52 82 58 83 60 84 57 85 53 86
REMARK SMILES IDX 54 87 55 88 56 89
REMARK H PARENT 4 10 80 42 48 53
REMARK Flexibility Score: inf
ROOT
ATOM      1  C   UNL A   1      33.616  34.120  28.428  1.00  0.00     0.274 C 
ENDROOT
BRANCH   1   2
ATOM      2  O   UNL A   1      32.867  34.668  29.528  1.00  0.00    -0.462 OA
BRANCH   2   3
ATOM      3  C   UNL A   1      33.186  35.942  29.877  1.00  0.00     0.310 C 
ATOM      4  O   UNL A   1      33.571  36.803  29.096  1.00  0.00    -0.252 OA
BRANCH   3   5
ATOM      5  C   UNL A   1      33.099  36.179  31.369  1.00  0.00     0.115 C 
ATOM      6  C   UNL A   1      33.060  37.682  31.608  1.00  0.00     0.022 C 
BRANCH   5   7
ATOM      7  C   UNL A   1      34.149  35.403  32.180  1.00  0.00     0.130 C 
BRANCH   7   8
ATOM      8  N   UNL A   1      34.108  33.962  31.996  1.00  0.00    -0.355 N 
ATOM      9  C   UNL A   1      35.049  33.021  32.306  1.00  0.00     0.224 C 
ATOM     10  H   UNL A   1      33.283  33.614  31.591  1.00  0.00     0.163 HD
ATOM     11  O   UNL A   1      34.804  31.839  32.052  1.00  0.00    -0.275 OA
BRANCH   9  12
ATOM     12  C   UNL A   1      36.364  33.430  32.957  1.00  0.00     0.135 C 
BRANCH  12  13
ATOM     13  C   UNL A   1      37.488  33.649  31.969  1.00  0.00    -0.036 A 
ATOM     14  C   UNL A   1      37.280  33.455  30.592  1.00  0.00     0.007 A 
ATOM     15  C   UNL A   1      38.745  34.095  32.413  1.00  0.00     0.046 A 
ATOM     16  C   UNL A   1      38.286  33.770  29.675  1.00  0.00     0.043 A 
ATOM     17  C   UNL A   1      39.736  34.416  31.490  1.00  0.00     0.159 A 
ATOM     18  C   UNL A   1      39.504  34.266  30.129  1.00  0.00     0.158 A 
ATOM     19  F   UNL A   1      40.905  34.900  31.928  1.00  0.00    -0.204 F 
ATOM     20  F   UNL A   1      40.445  34.611  29.240  1.00  0.00    -0.204 F 
ENDBRANCH  12  13
ENDBRANCH   9  12
ENDBRANCH   7   8
ENDBRANCH   5   7
ENDBRANCH   3   5
ENDBRANCH   2   3
ENDBRANCH   1   2
BRANCH   1  21
ATOM     21  C   UNL A   1      34.167  32.727  28.742  1.00  0.00     0.275 C 
BRANCH  21  22
ATOM     22  O   UNL A   1      34.404  31.954  27.551  1.00  0.00    -0.458 OA
BRANCH  22  23
ATOM     23  C   UNL A   1      34.446  30.612  27.738  1.00  0.00     0.338 C 
ATOM     24  O   UNL A   1      33.601  29.801  27.395  1.00  0.00    -0.246 OA
BRANCH  23  25
ATOM     25  C   UNL A   1      35.752  30.214  28.289  1.00  0.00     0.060 A 
ATOM     26  C   UNL A   1      36.882  30.415  27.492  1.00  0.00     0.016 A 
ATOM     27  C   UNL A   1      35.864  29.578  29.527  1.00  0.00     0.016 A 
ATOM     28  C   UNL A   1      38.134  29.991  27.930  1.00  0.00     0.010 A 
ATOM     29  C   UNL A   1      37.123  29.146  29.963  1.00  0.00     0.010 A 
ATOM     30  C   UNL A   1      38.264  29.346  29.165  1.00  0.00    -0.014 A 
BRANCH  30  31
ATOM     31  C   UNL A   1      39.595  28.837  29.583  1.00  0.00     0.031 A 
ATOM     32  C   UNL A   1      40.357  29.542  30.670  1.00  0.00     0.074 A 
ATOM     33  C   UNL A   1      40.092  27.720  29.020  1.00  0.00     0.049 A 
ATOM     34  N   UNL A   1      41.553  29.296  31.138  1.00  0.00    -0.248 NA
ATOM     35  C   UNL A   1      39.677  30.675  31.317  1.00  0.00     0.031 C 
ATOM     36  C   UNL A   1      39.417  26.921  27.995  1.00  0.00     0.029 A 
ATOM     37  N   UNL A   1      41.276  27.060  29.230  1.00  0.00    -0.354 N 
ATOM     38  C   UNL A   1      41.776  30.244  32.130  1.00  0.00     0.074 A 
ATOM     39  C   UNL A   1      40.599  31.087  32.175  1.00  0.00     0.031 C 
ATOM     40  C   UNL A   1      40.199  25.879  27.667  1.00  0.00     0.029 A 
ATOM     41  C   UNL A   1      41.448  25.963  28.418  1.00  0.00     0.049 A 
ATOM     42  H   UNL A   1      41.941  27.344  29.899  1.00  0.00     0.167 HD
ATOM     43  C   UNL A   1      42.862  30.392  32.930  1.00  0.00     0.034 A 
ATOM     44  C   UNL A   1      42.505  25.138  28.275  1.00  0.00     0.034 A 
ATOM     45  C   UNL A   1      44.031  29.548  32.867  1.00  0.00     0.049 A 
ATOM     46  C   UNL A   1      43.731  25.373  29.124  1.00  0.00     0.074 A 
ATOM     47  C   UNL A   1      45.194  29.624  33.615  1.00  0.00     0.029 A 
ATOM     48  N   UNL A   1      44.189  28.472  32.003  1.00  0.00    -0.354 N 
ATOM     49  N   UNL A   1      43.941  26.296  30.036  1.00  0.00    -0.248 NA
ATOM     50  C   UNL A   1      44.857  24.452  28.929  1.00  0.00     0.031 C 
ATOM     51  C   UNL A   1      46.074  28.632  33.166  1.00  0.00     0.029 A 
ATOM     52  C   UNL A   1      45.436  27.892  32.184  1.00  0.00     0.049 A 
ATOM     53  H   UNL A   1      43.514  28.165  31.355  1.00  0.00     0.167 HD
ATOM     54  C   UNL A   1      45.219  26.052  30.532  1.00  0.00     0.074 A 
ATOM     55  C   UNL A   1      45.716  24.880  29.841  1.00  0.00     0.031 C 
ATOM     56  C   UNL A   1      45.923  26.735  31.471  1.00  0.00     0.034 A 
BRANCH  43  57
ATOM     57  C   UNL A   1      42.851  31.547  33.902  1.00  0.00     0.023 A 
ATOM     58  C   UNL A   1      42.319  31.421  35.197  1.00  0.00     0.031 A 
ATOM     59  C   UNL A   1      43.367  32.798  33.518  1.00  0.00     0.131 A 
ATOM     60  C   UNL A   1      42.263  32.540  36.041  1.00  0.00     0.055 A 
ATOM     61  C   UNL A   1      43.371  33.890  34.388  1.00  0.00     0.041 A 
ATOM     62  F   UNL A   1      43.867  32.983  32.286  1.00  0.00    -0.206 F 
ATOM     63  C   UNL A   1      42.807  33.768  35.654  1.00  0.00     0.022 A 
BRANCH  60  64
ATOM     64  S   UNL A   1      41.366  32.402  37.611  1.00  0.00     0.124 S 
ATOM     65  O   UNL A   1      40.108  31.799  37.181  1.00  0.00    -0.237 OA
ATOM     66  O   UNL A   1      42.245  31.550  38.404  1.00  0.00    -0.237 OA
ATOM     67  O   UNL A   1      41.261  33.786  38.071  1.00  0.00    -0.744 OA
ENDBRANCH  60  64
ENDBRANCH  43  57
BRANCH  44  68
ATOM     68  C   UNL A   1      42.491  24.055  27.249  1.00  0.00     0.023 A 
ATOM     69  C   UNL A   1      41.860  22.826  27.494  1.00  0.00     0.031 A 
ATOM     70  C   UNL A   1      43.176  24.213  26.030  1.00  0.00     0.131 A 
ATOM     71  C   UNL A   1      41.972  21.784  26.560  1.00  0.00     0.055 A 
ATOM     72  C   UNL A   1      43.235  23.193  25.079  1.00  0.00     0.041 A 
ATOM     73  F   UNL A   1      43.801  25.367  25.746  1.00  0.00    -0.206 F 
ATOM     74  C   UNL A   1      42.643  21.964  25.348  1.00  0.00     0.022 A 
BRANCH  71  75
ATOM     75  S   UNL A   1      41.318  20.150  26.998  1.00  0.00     0.124 S 
ATOM     76  O   UNL A   1      42.493  19.303  26.830  1.00  0.00    -0.237 OA
ATOM     77  O   UNL A   1      40.870  20.362  28.371  1.00  0.00    -0.237 OA
ATOM     78  O   UNL A   1      40.250  19.937  26.022  1.00  0.00    -0.744 OA
ENDBRANCH  71  75
ENDBRANCH  44  68
BRANCH  56  79
ATOM     79  C   UNL A   1      47.292  26.198  31.813  1.00  0.00     0.023 A 
ATOM     80  C   UNL A   1      47.486  25.316  32.891  1.00  0.00     0.031 A 
ATOM     81  C   UNL A   1      48.419  26.606  31.079  1.00  0.00     0.131 A 
ATOM     82  C   UNL A   1      48.785  24.924  33.247  1.00  0.00     0.055 A 
ATOM     83  C   UNL A   1      49.703  26.166  31.403  1.00  0.00     0.041 A 
ATOM     84  F   UNL A   1      48.290  27.448  30.042  1.00  0.00    -0.206 F 
ATOM     85  C   UNL A   1      49.893  25.333  32.501  1.00  0.00     0.022 A 
BRANCH  82  86
ATOM     86  S   UNL A   1      49.016  23.957  34.765  1.00  0.00     0.124 S 
ATOM     87  O   UNL A   1      50.056  24.715  35.453  1.00  0.00    -0.237 OA
ATOM     88  O   UNL A   1      47.688  24.004  35.369  1.00  0.00    -0.237 OA
ATOM     89  O   UNL A   1      49.427  22.643  34.275  1.00  0.00    -0.744 OA
ENDBRANCH  82  86
ENDBRANCH  56  79
ENDBRANCH  30  31
ENDBRANCH  23  25
ENDBRANCH  22  23
ENDBRANCH  21  22
ENDBRANCH   1  21
TORSDOF 18
ENDMDL
