MODEL 1
REMARK VINA RESULT:     -10.6      0.000      0.000
REMARK SMILES Cc1ncsc1Cn1c(SCC(=O)OCCOC(=O)c2ccc(-c3c4nc(c(-c5cc(S(=O)(=O)[O-])ccc5F)c5ccc([nH]5)c(-c5cc(S(=O)(=O)[O-])ccc5F)c5nc(c(-c6cc(S(=O)(=O)[O-])ccc6F)c6ccc3[nH]6)C=C5)C=C4)cc2)nc2cnccc21
REMARK SMILES IDX 15 1 14 2 12 3 13 4 11 5 10 6 9 7 8 8 89 9 83 10 84 11 88 12
REMARK SMILES IDX 85 13 87 14 86 15 7 16 6 17 1 18 2 19 3 20 4 21 5 22 16 23
REMARK SMILES IDX 17 24 18 25 19 26 20 27 21 28 82 29 22 30 81 31 23 32 24 33
REMARK SMILES IDX 25 34 75 35 26 36 80 37 74 38 76 39 27 40 79 41 73 42 72 43
REMARK SMILES IDX 28 45 60 46 40 47 59 48 41 49 44 50 58 51 77 52 42 53 43 54
REMARK SMILES IDX 57 56 78 57 45 58 29 59 30 60 38 61 31 62 37 63 39 64 36 65
REMARK SMILES IDX 32 66 33 67 34 68 35 69 61 70 62 71 70 72 63 73 69 74 71 75
REMARK SMILES IDX 68 76 64 77 65 78 66 79 67 80 46 81 47 82 55 83 48 84 54 85
REMARK SMILES IDX 56 86 53 87 49 88 50 89 51 90 52 91
REMARK H PARENT 76 44 44 55
REMARK Flexibility Score: inf
ROOT
ATOM      1  C   UNL A   1      33.859  28.925  27.155  1.00  0.00     0.274 C 
ENDROOT
BRANCH   1   2
ATOM      2  O   UNL A   1      33.415  29.031  25.780  1.00  0.00    -0.461 OA
BRANCH   2   3
ATOM      3  C   UNL A   1      33.738  28.000  24.938  1.00  0.00     0.316 C 
ATOM      4  O   UNL A   1      34.039  28.154  23.760  1.00  0.00    -0.251 OA
BRANCH   3   5
ATOM      5  C   UNL A   1      33.828  26.648  25.650  1.00  0.00     0.200 C 
BRANCH   5   6
ATOM      6  S   UNL A   1      34.508  25.375  24.591  1.00  0.00    -0.076 SA
BRANCH   6   7
ATOM      7  C   UNL A   1      35.111  23.968  25.424  1.00  0.00     0.170 A 
ATOM      8  N   UNL A   1      34.789  22.628  25.272  1.00  0.00    -0.313 N 
ATOM      9  C   UNL A   1      35.993  21.944  25.238  1.00  0.00     0.072 A 
ATOM     10  N   UNL A   1      36.324  24.076  25.934  1.00  0.00    -0.221 NA
ATOM     11  C   UNL A   1      36.916  22.859  25.729  1.00  0.00     0.108 A 
ATOM     12  C   UNL A   1      36.378  20.671  24.819  1.00  0.00     0.049 A 
ATOM     13  C   UNL A   1      38.253  22.476  25.860  1.00  0.00     0.141 A 
ATOM     14  C   UNL A   1      37.730  20.389  24.963  1.00  0.00     0.113 A 
ATOM     15  N   UNL A   1      38.655  21.236  25.470  1.00  0.00    -0.262 NA
BRANCH   8  16
ATOM     16  C   UNL A   1      33.500  22.018  24.997  1.00  0.00     0.173 C 
BRANCH  16  17
ATOM     17  C   UNL A   1      32.299  22.592  25.694  1.00  0.00     0.047 A 
ATOM     18  C   UNL A   1      32.935  22.314  28.181  1.00  0.00     0.068 C 
ATOM     19  C   UNL A   1      32.071  22.760  27.056  1.00  0.00     0.053 A 
ATOM     20  N   UNL A   1      30.953  23.510  27.379  1.00  0.00    -0.250 NA
ATOM     21  C   UNL A   1      30.365  23.941  26.290  1.00  0.00     0.176 A 
ATOM     22  S   UNL A   1      31.074  23.435  24.821  1.00  0.00    -0.125 S 
ENDBRANCH  16  17
ENDBRANCH   8  16
ENDBRANCH   6   7
ENDBRANCH   5   6
ENDBRANCH   3   5
ENDBRANCH   2   3
ENDBRANCH   1   2
BRANCH   1  23
ATOM     23  C   UNL A   1      35.026  29.892  27.410  1.00  0.00     0.275 C 
BRANCH  23  24
ATOM     24  O   UNL A   1      36.209  29.112  27.671  1.00  0.00    -0.458 OA
BRANCH  24  25
ATOM     25  C   UNL A   1      36.840  29.344  28.847  1.00  0.00     0.338 C 
ATOM     26  O   UNL A   1      36.364  29.337  29.964  1.00  0.00    -0.246 OA
BRANCH  25  27
ATOM     27  C   UNL A   1      38.262  29.116  28.548  1.00  0.00     0.060 A 
ATOM     28  C   UNL A   1      38.875  29.332  27.328  1.00  0.00     0.016 A 
ATOM     29  C   UNL A   1      38.980  28.570  29.609  1.00  0.00     0.016 A 
ATOM     30  C   UNL A   1      40.219  28.957  27.193  1.00  0.00     0.010 A 
ATOM     31  C   UNL A   1      40.296  28.187  29.487  1.00  0.00     0.010 A 
ATOM     32  C   UNL A   1      40.918  28.362  28.266  1.00  0.00    -0.014 A 
BRANCH  32  33
ATOM     33  C   UNL A   1      42.333  28.028  28.162  1.00  0.00     0.031 A 
ATOM     34  C   UNL A   1      42.640  26.776  27.428  1.00  0.00     0.074 A 
ATOM     35  C   UNL A   1      43.374  28.826  28.469  1.00  0.00     0.049 A 
ATOM     36  N   UNL A   1      42.611  25.573  27.892  1.00  0.00    -0.248 NA
ATOM     37  C   UNL A   1      42.865  26.850  25.982  1.00  0.00     0.031 C 
ATOM     38  C   UNL A   1      43.409  30.254  28.788  1.00  0.00     0.029 A 
ATOM     39  N   UNL A   1      44.686  28.463  28.515  1.00  0.00    -0.354 N 
ATOM     40  C   UNL A   1      43.047  24.754  26.853  1.00  0.00     0.074 A 
ATOM     41  C   UNL A   1      42.929  25.555  25.661  1.00  0.00     0.031 C 
ATOM     42  C   UNL A   1      44.701  30.667  28.841  1.00  0.00     0.029 A 
ATOM     43  C   UNL A   1      45.569  29.504  28.744  1.00  0.00     0.049 A 
ATOM     44  H   UNL A   1      44.984  27.533  28.393  1.00  0.00     0.167 HD
ATOM     45  C   UNL A   1      43.712  23.583  27.096  1.00  0.00     0.034 A 
ATOM     46  C   UNL A   1      46.915  29.396  28.863  1.00  0.00     0.034 A 
ATOM     47  C   UNL A   1      43.848  23.378  28.520  1.00  0.00     0.049 A 
ATOM     48  C   UNL A   1      47.239  27.990  29.209  1.00  0.00     0.074 A 
ATOM     49  C   UNL A   1      42.981  23.202  29.578  1.00  0.00     0.029 A 
ATOM     50  N   UNL A   1      45.057  23.739  29.072  1.00  0.00    -0.354 N 
ATOM     51  N   UNL A   1      46.966  27.436  30.356  1.00  0.00    -0.248 NA
ATOM     52  C   UNL A   1      47.542  27.060  28.131  1.00  0.00     0.031 C 
ATOM     53  C   UNL A   1      43.581  23.903  30.664  1.00  0.00     0.029 A 
ATOM     54  C   UNL A   1      44.815  24.408  30.243  1.00  0.00     0.049 A 
ATOM     55  H   UNL A   1      45.943  23.551  28.689  1.00  0.00     0.167 HD
ATOM     56  C   UNL A   1      46.595  26.139  30.038  1.00  0.00     0.074 A 
ATOM     57  C   UNL A   1      47.121  25.924  28.692  1.00  0.00     0.031 C 
ATOM     58  C   UNL A   1      45.652  25.475  30.771  1.00  0.00     0.034 A 
BRANCH  45  59
ATOM     59  C   UNL A   1      44.564  22.797  26.119  1.00  0.00     0.023 A 
ATOM     60  C   UNL A   1      44.258  21.509  25.653  1.00  0.00     0.031 A 
ATOM     61  C   UNL A   1      45.670  23.421  25.493  1.00  0.00     0.131 A 
ATOM     62  C   UNL A   1      44.998  20.900  24.627  1.00  0.00     0.055 A 
ATOM     63  C   UNL A   1      46.374  22.840  24.432  1.00  0.00     0.041 A 
ATOM     64  F   UNL A   1      46.080  24.644  25.867  1.00  0.00    -0.206 F 
ATOM     65  C   UNL A   1      46.035  21.570  23.988  1.00  0.00     0.022 A 
BRANCH  62  66
ATOM     66  S   UNL A   1      44.607  19.211  24.087  1.00  0.00     0.124 S 
ATOM     67  O   UNL A   1      45.740  18.457  24.614  1.00  0.00    -0.237 OA
ATOM     68  O   UNL A   1      43.327  18.978  24.752  1.00  0.00    -0.237 OA
ATOM     69  O   UNL A   1      44.543  19.324  22.634  1.00  0.00    -0.744 OA
ENDBRANCH  62  66
ENDBRANCH  45  59
BRANCH  46  70
ATOM     70  C   UNL A   1      47.967  30.335  28.431  1.00  0.00     0.023 A 
ATOM     71  C   UNL A   1      48.895  30.804  29.376  1.00  0.00     0.031 A 
ATOM     72  C   UNL A   1      47.856  31.038  27.218  1.00  0.00     0.131 A 
ATOM     73  C   UNL A   1      49.613  31.983  29.132  1.00  0.00     0.055 A 
ATOM     74  C   UNL A   1      48.591  32.200  26.967  1.00  0.00     0.041 A 
ATOM     75  F   UNL A   1      46.971  30.652  26.287  1.00  0.00    -0.206 F 
ATOM     76  C   UNL A   1      49.461  32.690  27.936  1.00  0.00     0.022 A 
BRANCH  73  77
ATOM     77  S   UNL A   1      50.687  32.683  30.414  1.00  0.00     0.124 S 
ATOM     78  O   UNL A   1      51.663  31.616  30.619  1.00  0.00    -0.237 OA
ATOM     79  O   UNL A   1      51.193  33.881  29.753  1.00  0.00    -0.237 OA
ATOM     80  O   UNL A   1      49.776  32.911  31.533  1.00  0.00    -0.744 OA
ENDBRANCH  73  77
ENDBRANCH  46  70
BRANCH  58  81
ATOM     81  C   UNL A   1      45.253  26.018  32.132  1.00  0.00     0.023 A 
ATOM     82  C   UNL A   1      45.880  25.442  33.254  1.00  0.00     0.031 A 
ATOM     83  C   UNL A   1      44.168  26.883  32.377  1.00  0.00     0.131 A 
ATOM     84  C   UNL A   1      45.392  25.677  34.545  1.00  0.00     0.055 A 
ATOM     85  C   UNL A   1      43.739  27.183  33.675  1.00  0.00     0.041 A 
ATOM     86  F   UNL A   1      43.431  27.392  31.383  1.00  0.00    -0.206 F 
ATOM     87  C   UNL A   1      44.335  26.562  34.766  1.00  0.00     0.022 A 
BRANCH  84  88
ATOM     88  S   UNL A   1      45.992  24.688  35.940  1.00  0.00     0.124 S 
ATOM     89  O   UNL A   1      45.137  25.148  37.032  1.00  0.00    -0.237 OA
ATOM     90  O   UNL A   1      45.745  23.322  35.484  1.00  0.00    -0.237 OA
ATOM     91  O   UNL A   1      47.400  25.053  36.050  1.00  0.00    -0.744 OA
ENDBRANCH  84  88
ENDBRANCH  58  81
ENDBRANCH  32  33
ENDBRANCH  25  27
ENDBRANCH  24  25
ENDBRANCH  23  24
ENDBRANCH   1  23
TORSDOF 18
ENDMDL
MODEL 2
REMARK VINA RESULT:     -10.5      3.196      8.442
REMARK SMILES Cc1ncsc1Cn1c(SCC(=O)OCCOC(=O)c2ccc(-c3c4nc(c(-c5cc(S(=O)(=O)[O-])ccc5F)c5ccc([nH]5)c(-c5cc(S(=O)(=O)[O-])ccc5F)c5nc(c(-c6cc(S(=O)(=O)[O-])ccc6F)c6ccc3[nH]6)C=C5)C=C4)cc2)nc2cnccc21
REMARK SMILES IDX 15 1 14 2 12 3 13 4 11 5 10 6 9 7 8 8 89 9 83 10 84 11 88 12
REMARK SMILES IDX 85 13 87 14 86 15 7 16 6 17 1 18 2 19 3 20 4 21 5 22 16 23
REMARK SMILES IDX 17 24 18 25 19 26 20 27 21 28 82 29 22 30 81 31 23 32 24 33
REMARK SMILES IDX 25 34 75 35 26 36 80 37 74 38 76 39 27 40 79 41 73 42 72 43
REMARK SMILES IDX 28 45 60 46 40 47 59 48 41 49 44 50 58 51 77 52 42 53 43 54
REMARK SMILES IDX 57 56 78 57 45 58 29 59 30 60 38 61 31 62 37 63 39 64 36 65
REMARK SMILES IDX 32 66 33 67 34 68 35 69 61 70 62 71 70 72 63 73 69 74 71 75
REMARK SMILES IDX 68 76 64 77 65 78 66 79 67 80 46 81 47 82 55 83 48 84 54 85
REMARK SMILES IDX 56 86 53 87 49 88 50 89 51 90 52 91
REMARK H PARENT 76 44 44 55
REMARK Flexibility Score: inf
ROOT
ATOM      1  C   UNL A   1      32.208  30.354  26.745  1.00  0.00     0.274 C 
ENDROOT
BRANCH   1   2
ATOM      2  O   UNL A   1      32.960  29.157  27.066  1.00  0.00    -0.461 OA
BRANCH   2   3
ATOM      3  C   UNL A   1      33.480  28.446  26.018  1.00  0.00     0.316 C 
ATOM      4  O   UNL A   1      34.031  27.358  26.141  1.00  0.00    -0.251 OA
BRANCH   3   5
ATOM      5  C   UNL A   1      33.175  29.073  24.655  1.00  0.00     0.200 C 
BRANCH   5   6
ATOM      6  S   UNL A   1      32.902  27.836  23.391  1.00  0.00    -0.076 SA
BRANCH   6   7
ATOM      7  C   UNL A   1      31.309  27.842  22.685  1.00  0.00     0.170 A 
ATOM      8  N   UNL A   1      30.240  26.980  22.874  1.00  0.00    -0.313 N 
ATOM      9  C   UNL A   1      29.124  27.783  23.047  1.00  0.00     0.072 A 
ATOM     10  N   UNL A   1      30.864  29.016  22.279  1.00  0.00    -0.221 NA
ATOM     11  C   UNL A   1      29.532  29.031  22.594  1.00  0.00     0.108 A 
ATOM     12  C   UNL A   1      27.844  27.574  23.561  1.00  0.00     0.049 A 
ATOM     13  C   UNL A   1      28.621  30.090  22.600  1.00  0.00     0.141 A 
ATOM     14  C   UNL A   1      27.018  28.690  23.550  1.00  0.00     0.113 A 
ATOM     15  N   UNL A   1      27.362  29.913  23.084  1.00  0.00    -0.262 NA
BRANCH   8  16
ATOM     16  C   UNL A   1      30.241  25.540  23.066  1.00  0.00     0.173 C 
BRANCH  16  17
ATOM     17  C   UNL A   1      30.831  25.013  24.345  1.00  0.00     0.047 A 
ATOM     18  C   UNL A   1      32.467  23.212  23.481  1.00  0.00     0.068 C 
ATOM     19  C   UNL A   1      31.815  24.047  24.525  1.00  0.00     0.053 A 
ATOM     20  N   UNL A   1      32.294  23.927  25.819  1.00  0.00    -0.250 NA
ATOM     21  C   UNL A   1      31.720  24.810  26.599  1.00  0.00     0.176 A 
ATOM     22  S   UNL A   1      30.541  25.795  25.854  1.00  0.00    -0.125 S 
ENDBRANCH  16  17
ENDBRANCH   8  16
ENDBRANCH   6   7
ENDBRANCH   5   6
ENDBRANCH   3   5
ENDBRANCH   2   3
ENDBRANCH   1   2
BRANCH   1  23
ATOM     23  C   UNL A   1      32.907  31.591  27.332  1.00  0.00     0.275 C 
BRANCH  23  24
ATOM     24  O   UNL A   1      34.214  31.194  27.790  1.00  0.00    -0.458 OA
BRANCH  24  25
ATOM     25  C   UNL A   1      35.113  32.188  27.991  1.00  0.00     0.338 C 
ATOM     26  O   UNL A   1      34.891  33.366  28.191  1.00  0.00    -0.246 OA
BRANCH  25  27
ATOM     27  C   UNL A   1      36.340  31.492  28.404  1.00  0.00     0.060 A 
ATOM     28  C   UNL A   1      37.522  32.098  28.789  1.00  0.00     0.016 A 
ATOM     29  C   UNL A   1      36.259  30.105  28.309  1.00  0.00     0.016 A 
ATOM     30  C   UNL A   1      38.627  31.276  29.047  1.00  0.00     0.010 A 
ATOM     31  C   UNL A   1      37.339  29.286  28.549  1.00  0.00     0.010 A 
ATOM     32  C   UNL A   1      38.539  29.874  28.901  1.00  0.00    -0.014 A 
BRANCH  32  33
ATOM     33  C   UNL A   1      39.660  29.002  29.230  1.00  0.00     0.031 A 
ATOM     34  C   UNL A   1      39.995  28.912  30.672  1.00  0.00     0.074 A 
ATOM     35  C   UNL A   1      40.270  28.128  28.406  1.00  0.00     0.049 A 
ATOM     36  N   UNL A   1      40.711  29.736  31.359  1.00  0.00    -0.248 NA
ATOM     37  C   UNL A   1      39.347  27.874  31.478  1.00  0.00     0.031 C 
ATOM     38  C   UNL A   1      39.892  27.663  27.072  1.00  0.00     0.029 A 
ATOM     39  N   UNL A   1      41.408  27.427  28.670  1.00  0.00    -0.354 N 
ATOM     40  C   UNL A   1      40.801  29.188  32.637  1.00  0.00     0.074 A 
ATOM     41  C   UNL A   1      39.743  28.210  32.708  1.00  0.00     0.031 C 
ATOM     42  C   UNL A   1      40.705  26.639  26.708  1.00  0.00     0.029 A 
ATOM     43  C   UNL A   1      41.762  26.507  27.698  1.00  0.00     0.049 A 
ATOM     44  H   UNL A   1      41.937  27.563  29.488  1.00  0.00     0.167 HD
ATOM     45  C   UNL A   1      41.896  29.396  33.430  1.00  0.00     0.034 A 
ATOM     46  C   UNL A   1      42.861  25.714  27.713  1.00  0.00     0.034 A 
ATOM     47  C   UNL A   1      42.851  30.236  32.743  1.00  0.00     0.049 A 
ATOM     48  C   UNL A   1      43.856  26.318  28.634  1.00  0.00     0.074 A 
ATOM     49  C   UNL A   1      42.857  31.524  32.251  1.00  0.00     0.029 A 
ATOM     50  N   UNL A   1      43.895  29.585  32.123  1.00  0.00    -0.354 N 
ATOM     51  N   UNL A   1      44.501  27.424  28.392  1.00  0.00    -0.248 NA
ATOM     52  C   UNL A   1      43.871  25.886  30.023  1.00  0.00     0.031 C 
ATOM     53  C   UNL A   1      43.604  31.451  31.040  1.00  0.00     0.029 A 
ATOM     54  C   UNL A   1      44.081  30.146  30.887  1.00  0.00     0.049 A 
ATOM     55  H   UNL A   1      44.416  28.842  32.503  1.00  0.00     0.167 HD
ATOM     56  C   UNL A   1      44.580  28.058  29.621  1.00  0.00     0.074 A 
ATOM     57  C   UNL A   1      44.325  27.003  30.599  1.00  0.00     0.031 C 
ATOM     58  C   UNL A   1      44.552  29.421  29.716  1.00  0.00     0.034 A 
BRANCH  45  59
ATOM     59  C   UNL A   1      42.312  28.590  34.645  1.00  0.00     0.023 A 
ATOM     60  C   UNL A   1      42.394  27.189  34.681  1.00  0.00     0.031 A 
ATOM     61  C   UNL A   1      42.803  29.255  35.793  1.00  0.00     0.131 A 
ATOM     62  C   UNL A   1      42.942  26.510  35.781  1.00  0.00     0.055 A 
ATOM     63  C   UNL A   1      43.400  28.585  36.867  1.00  0.00     0.041 A 
ATOM     64  F   UNL A   1      42.756  30.594  35.893  1.00  0.00    -0.206 F 
ATOM     65  C   UNL A   1      43.477  27.200  36.862  1.00  0.00     0.022 A 
BRANCH  62  66
ATOM     66  S   UNL A   1      42.983  24.695  35.815  1.00  0.00     0.124 S 
ATOM     67  O   UNL A   1      41.575  24.366  36.014  1.00  0.00    -0.237 OA
ATOM     68  O   UNL A   1      43.524  24.388  34.493  1.00  0.00    -0.237 OA
ATOM     69  O   UNL A   1      43.868  24.396  36.935  1.00  0.00    -0.744 OA
ENDBRANCH  62  66
ENDBRANCH  45  59
BRANCH  46  70
ATOM     70  C   UNL A   1      43.022  24.334  27.219  1.00  0.00     0.023 A 
ATOM     71  C   UNL A   1      44.030  24.057  26.280  1.00  0.00     0.031 A 
ATOM     72  C   UNL A   1      41.997  23.384  27.379  1.00  0.00     0.131 A 
ATOM     73  C   UNL A   1      43.949  22.908  25.480  1.00  0.00     0.055 A 
ATOM     74  C   UNL A   1      41.933  22.227  26.597  1.00  0.00     0.041 A 
ATOM     75  F   UNL A   1      40.995  23.603  28.244  1.00  0.00    -0.206 F 
ATOM     76  C   UNL A   1      42.903  21.994  25.626  1.00  0.00     0.022 A 
BRANCH  73  77
ATOM     77  S   UNL A   1      45.154  22.631  24.154  1.00  0.00     0.124 S 
ATOM     78  O   UNL A   1      45.935  21.510  24.671  1.00  0.00    -0.237 OA
ATOM     79  O   UNL A   1      44.283  22.323  23.024  1.00  0.00    -0.237 OA
ATOM     80  O   UNL A   1      45.872  23.900  24.076  1.00  0.00    -0.744 OA
ENDBRANCH  73  77
ENDBRANCH  46  70
BRANCH  58  81
ATOM     81  C   UNL A   1      44.776  30.255  28.467  1.00  0.00     0.023 A 
ATOM     82  C   UNL A   1      46.029  30.886  28.342  1.00  0.00     0.031 A 
ATOM     83  C   UNL A   1      43.778  30.624  27.544  1.00  0.00     0.131 A 
ATOM     84  C   UNL A   1      46.235  31.882  27.379  1.00  0.00     0.055 A 
ATOM     85  C   UNL A   1      44.015  31.555  26.527  1.00  0.00     0.041 A 
ATOM     86  F   UNL A   1      42.521  30.172  27.643  1.00  0.00    -0.206 F 
ATOM     87  C   UNL A   1      45.240  32.207  26.455  1.00  0.00     0.022 A 
BRANCH  84  88
ATOM     88  S   UNL A   1      47.728  32.908  27.433  1.00  0.00     0.124 S 
ATOM     89  O   UNL A   1      48.744  31.950  27.859  1.00  0.00    -0.237 OA
ATOM     90  O   UNL A   1      47.841  33.367  26.050  1.00  0.00    -0.237 OA
ATOM     91  O   UNL A   1      47.403  33.951  28.401  1.00  0.00    -0.744 OA
ENDBRANCH  84  88
ENDBRANCH  58  81
ENDBRANCH  32  33
ENDBRANCH  25  27
ENDBRANCH  24  25
ENDBRANCH  23  24
ENDBRANCH   1  23
TORSDOF 18
ENDMDL
MODEL 3
REMARK VINA RESULT:     -10.5      2.635      7.642
REMARK SMILES Cc1ncsc1Cn1c(SCC(=O)OCCOC(=O)c2ccc(-c3c4nc(c(-c5cc(S(=O)(=O)[O-])ccc5F)c5ccc([nH]5)c(-c5cc(S(=O)(=O)[O-])ccc5F)c5nc(c(-c6cc(S(=O)(=O)[O-])ccc6F)c6ccc3[nH]6)C=C5)C=C4)cc2)nc2cnccc21
REMARK SMILES IDX 15 1 14 2 12 3 13 4 11 5 10 6 9 7 8 8 89 9 83 10 84 11 88 12
REMARK SMILES IDX 85 13 87 14 86 15 7 16 6 17 1 18 2 19 3 20 4 21 5 22 16 23
REMARK SMILES IDX 17 24 18 25 19 26 20 27 21 28 82 29 22 30 81 31 23 32 24 33
REMARK SMILES IDX 25 34 75 35 26 36 80 37 74 38 76 39 27 40 79 41 73 42 72 43
REMARK SMILES IDX 28 45 60 46 40 47 59 48 41 49 44 50 58 51 77 52 42 53 43 54
REMARK SMILES IDX 57 56 78 57 45 58 29 59 30 60 38 61 31 62 37 63 39 64 36 65
REMARK SMILES IDX 32 66 33 67 34 68 35 69 61 70 62 71 70 72 63 73 69 74 71 75
REMARK SMILES IDX 68 76 64 77 65 78 66 79 67 80 46 81 47 82 55 83 48 84 54 85
REMARK SMILES IDX 56 86 53 87 49 88 50 89 51 90 52 91
REMARK H PARENT 76 44 44 55
REMARK Flexibility Score: inf
ROOT
ATOM      1  C   UNL A   1      33.720  30.577  27.082  1.00  0.00     0.274 C 
ENDROOT
BRANCH   1   2
ATOM      2  O   UNL A   1      32.613  29.656  27.242  1.00  0.00    -0.461 OA
BRANCH   2   3
ATOM      3  C   UNL A   1      32.345  28.814  26.196  1.00  0.00     0.316 C 
ATOM      4  O   UNL A   1      32.169  29.195  25.044  1.00  0.00    -0.251 OA
BRANCH   3   5
ATOM      5  C   UNL A   1      32.431  27.334  26.577  1.00  0.00     0.200 C 
BRANCH   5   6
ATOM      6  S   UNL A   1      30.918  26.454  26.203  1.00  0.00    -0.076 SA
BRANCH   6   7
ATOM      7  C   UNL A   1      31.059  24.717  26.192  1.00  0.00     0.170 A 
ATOM      8  N   UNL A   1      31.370  23.848  25.158  1.00  0.00    -0.313 N 
ATOM      9  C   UNL A   1      32.309  22.965  25.667  1.00  0.00     0.072 A 
ATOM     10  N   UNL A   1      31.364  24.157  27.347  1.00  0.00    -0.221 NA
ATOM     11  C   UNL A   1      32.222  23.135  27.043  1.00  0.00     0.108 A 
ATOM     12  C   UNL A   1      33.221  22.078  25.095  1.00  0.00     0.049 A 
ATOM     13  C   UNL A   1      33.029  22.358  27.878  1.00  0.00     0.141 A 
ATOM     14  C   UNL A   1      33.997  21.369  26.003  1.00  0.00     0.113 A 
ATOM     15  N   UNL A   1      33.919  21.476  27.350  1.00  0.00    -0.262 NA
BRANCH   8  16
ATOM     16  C   UNL A   1      30.989  23.910  23.758  1.00  0.00     0.173 C 
BRANCH  16  17
ATOM     17  C   UNL A   1      31.846  24.743  22.845  1.00  0.00     0.047 A 
ATOM     18  C   UNL A   1      33.344  22.957  21.735  1.00  0.00     0.068 C 
ATOM     19  C   UNL A   1      32.825  24.335  21.946  1.00  0.00     0.053 A 
ATOM     20  N   UNL A   1      33.294  25.322  21.096  1.00  0.00    -0.250 NA
ATOM     21  C   UNL A   1      32.657  26.447  21.312  1.00  0.00     0.176 A 
ATOM     22  S   UNL A   1      31.505  26.411  22.572  1.00  0.00    -0.125 S 
ENDBRANCH  16  17
ENDBRANCH   8  16
ENDBRANCH   6   7
ENDBRANCH   5   6
ENDBRANCH   3   5
ENDBRANCH   2   3
ENDBRANCH   1   2
BRANCH   1  23
ATOM     23  C   UNL A   1      33.429  31.888  27.831  1.00  0.00     0.275 C 
BRANCH  23  24
ATOM     24  O   UNL A   1      34.682  32.561  28.065  1.00  0.00    -0.458 OA
BRANCH  24  25
ATOM     25  C   UNL A   1      35.056  32.710  29.358  1.00  0.00     0.338 C 
ATOM     26  O   UNL A   1      34.359  33.007  30.307  1.00  0.00    -0.246 OA
BRANCH  25  27
ATOM     27  C   UNL A   1      36.326  31.975  29.457  1.00  0.00     0.060 A 
ATOM     28  C   UNL A   1      37.589  32.531  29.372  1.00  0.00     0.016 A 
ATOM     29  C   UNL A   1      36.170  30.597  29.578  1.00  0.00     0.016 A 
ATOM     30  C   UNL A   1      38.689  31.662  29.380  1.00  0.00     0.010 A 
ATOM     31  C   UNL A   1      37.241  29.732  29.576  1.00  0.00     0.010 A 
ATOM     32  C   UNL A   1      38.510  30.264  29.456  1.00  0.00    -0.014 A 
BRANCH  32  33
ATOM     33  C   UNL A   1      39.646  29.353  29.533  1.00  0.00     0.031 A 
ATOM     34  C   UNL A   1      39.940  28.814  30.883  1.00  0.00     0.074 A 
ATOM     35  C   UNL A   1      40.306  28.799  28.497  1.00  0.00     0.049 A 
ATOM     36  N   UNL A   1      40.611  29.389  31.823  1.00  0.00    -0.248 NA
ATOM     37  C   UNL A   1      39.299  27.562  31.292  1.00  0.00     0.031 C 
ATOM     38  C   UNL A   1      39.982  28.778  27.071  1.00  0.00     0.029 A 
ATOM     39  N   UNL A   1      41.456  28.072  28.567  1.00  0.00    -0.354 N 
ATOM     40  C   UNL A   1      40.679  28.464  32.863  1.00  0.00     0.074 A 
ATOM     41  C   UNL A   1      39.649  27.496  32.579  1.00  0.00     0.031 C 
ATOM     42  C   UNL A   1      40.836  27.938  26.432  1.00  0.00     0.029 A 
ATOM     43  C   UNL A   1      41.866  27.517  27.367  1.00  0.00     0.049 A 
ATOM     44  H   UNL A   1      41.956  27.950  29.406  1.00  0.00     0.167 HD
ATOM     45  C   UNL A   1      41.742  28.429  33.722  1.00  0.00     0.034 A 
ATOM     46  C   UNL A   1      42.987  26.781  27.171  1.00  0.00     0.034 A 
ATOM     47  C   UNL A   1      42.692  29.462  33.374  1.00  0.00     0.049 A 
ATOM     48  C   UNL A   1      43.936  27.079  28.273  1.00  0.00     0.074 A 
ATOM     49  C   UNL A   1      42.675  30.839  33.318  1.00  0.00     0.029 A 
ATOM     50  N   UNL A   1      43.773  29.062  32.619  1.00  0.00    -0.354 N 
ATOM     51  N   UNL A   1      44.555  28.216  28.421  1.00  0.00    -0.248 NA
ATOM     52  C   UNL A   1      43.922  26.226  29.452  1.00  0.00     0.031 C 
ATOM     53  C   UNL A   1      43.460  31.171  32.176  1.00  0.00     0.029 A 
ATOM     54  C   UNL A   1      43.979  29.991  31.634  1.00  0.00     0.049 A 
ATOM     55  H   UNL A   1      44.304  28.246  32.762  1.00  0.00     0.167 HD
ATOM     56  C   UNL A   1      44.578  28.426  29.789  1.00  0.00     0.074 A 
ATOM     57  C   UNL A   1      44.326  27.109  30.370  1.00  0.00     0.031 C 
ATOM     58  C   UNL A   1      44.506  29.686  30.312  1.00  0.00     0.034 A 
BRANCH  45  59
ATOM     59  C   UNL A   1      42.146  27.285  34.631  1.00  0.00     0.023 A 
ATOM     60  C   UNL A   1      42.920  26.185  34.232  1.00  0.00     0.031 A 
ATOM     61  C   UNL A   1      41.874  27.363  36.018  1.00  0.00     0.131 A 
ATOM     62  C   UNL A   1      43.397  25.243  35.157  1.00  0.00     0.055 A 
ATOM     63  C   UNL A   1      42.395  26.458  36.950  1.00  0.00     0.041 A 
ATOM     64  F   UNL A   1      41.121  28.355  36.523  1.00  0.00    -0.206 F 
ATOM     65  C   UNL A   1      43.168  25.390  36.521  1.00  0.00     0.022 A 
BRANCH  62  66
ATOM     66  S   UNL A   1      44.350  23.803  34.598  1.00  0.00     0.124 S 
ATOM     67  O   UNL A   1      44.488  23.035  35.832  1.00  0.00    -0.237 OA
ATOM     68  O   UNL A   1      43.456  23.231  33.593  1.00  0.00    -0.237 OA
ATOM     69  O   UNL A   1      45.580  24.390  34.076  1.00  0.00    -0.744 OA
ENDBRANCH  62  66
ENDBRANCH  45  59
BRANCH  46  70
ATOM     70  C   UNL A   1      43.204  25.634  26.270  1.00  0.00     0.023 A 
ATOM     71  C   UNL A   1      42.487  24.447  26.489  1.00  0.00     0.031 A 
ATOM     72  C   UNL A   1      44.338  25.571  25.440  1.00  0.00     0.131 A 
ATOM     73  C   UNL A   1      42.954  23.235  25.960  1.00  0.00     0.055 A 
ATOM     74  C   UNL A   1      44.787  24.366  24.893  1.00  0.00     0.041 A 
ATOM     75  F   UNL A   1      45.077  26.667  25.212  1.00  0.00    -0.206 F 
ATOM     76  C   UNL A   1      44.104  23.185  25.169  1.00  0.00     0.022 A 
BRANCH  73  77
ATOM     77  S   UNL A   1      42.128  21.676  26.377  1.00  0.00     0.124 S 
ATOM     78  O   UNL A   1      40.753  21.928  25.951  1.00  0.00    -0.237 OA
ATOM     79  O   UNL A   1      42.873  20.721  25.564  1.00  0.00    -0.237 OA
ATOM     80  O   UNL A   1      42.317  21.567  27.821  1.00  0.00    -0.744 OA
ENDBRANCH  73  77
ENDBRANCH  46  70
BRANCH  58  81
ATOM     81  C   UNL A   1      44.743  30.880  29.402  1.00  0.00     0.023 A 
ATOM     82  C   UNL A   1      46.044  31.420  29.389  1.00  0.00     0.031 A 
ATOM     83  C   UNL A   1      43.737  31.616  28.747  1.00  0.00     0.131 A 
ATOM     84  C   UNL A   1      46.294  32.667  28.804  1.00  0.00     0.055 A 
ATOM     85  C   UNL A   1      44.009  32.820  28.087  1.00  0.00     0.041 A 
ATOM     86  F   UNL A   1      42.449  31.254  28.796  1.00  0.00    -0.206 F 
ATOM     87  C   UNL A   1      45.287  33.364  28.133  1.00  0.00     0.022 A 
BRANCH  84  88
ATOM     88  S   UNL A   1      47.883  33.497  29.072  1.00  0.00     0.124 S 
ATOM     89  O   UNL A   1      48.810  32.371  29.143  1.00  0.00    -0.237 OA
ATOM     90  O   UNL A   1      48.002  34.333  27.879  1.00  0.00    -0.237 OA
ATOM     91  O   UNL A   1      47.691  34.231  30.318  1.00  0.00    -0.744 OA
ENDBRANCH  84  88
ENDBRANCH  58  81
ENDBRANCH  32  33
ENDBRANCH  25  27
ENDBRANCH  24  25
ENDBRANCH  23  24
ENDBRANCH   1  23
TORSDOF 18
ENDMDL
