MODEL 1
REMARK VINA RESULT:     -12.9      0.000      0.000
REMARK SMILES Cc1nc2cc(C(=O)OCCOC(=O)c3ccc(-c4c5nc(c(-c6cc(S(=O)(=O)[O-])ccc6F)c6ccc([nH]6)c(-c6cc(S(=O)(=O)[O-])ccc6F)c6nc(c(-c7cc(S(=O)(=O)[O-])ccc7F)c7ccc4[nH]7)C=C6)C=C5)cc3)ccc2n1CCC[NH+]1CCOCC1
REMARK SMILES IDX 10 1 9 2 7 3 8 4 6 5 1 6 2 7 3 8 81 9 4 10 80 11 5 12 79 13
REMARK SMILES IDX 78 14 82 15 83 16 84 17 85 18 86 19 90 20 87 22 89 23 88 24
REMARK SMILES IDX 11 25 12 26 13 27 14 28 15 29 16 30 77 31 17 32 76 33 18 34
REMARK SMILES IDX 19 35 20 36 70 37 21 38 75 39 69 40 71 41 22 42 74 43 68 44
REMARK SMILES IDX 67 45 23 47 55 48 35 49 54 50 36 51 39 52 53 53 72 54 37 55
REMARK SMILES IDX 38 56 52 58 73 59 40 60 24 61 25 62 33 63 26 64 32 65 34 66
REMARK SMILES IDX 31 67 27 68 28 69 29 70 30 71 56 72 57 73 65 74 58 75 64 76
REMARK SMILES IDX 66 77 63 78 59 79 60 80 61 81 62 82 41 83 42 84 50 85 43 86
REMARK SMILES IDX 49 87 51 88 48 89 44 90 45 91 46 92 47 93
REMARK H PARENT 85 21 71 46 39 57
REMARK Flexibility Score: inf
ROOT
ATOM      1  C   UNL A   1      31.656  28.591  23.482  1.00  0.00     0.275 C 
ENDROOT
BRANCH   1   2
ATOM      2  O   UNL A   1      33.025  28.169  23.685  1.00  0.00    -0.458 OA
BRANCH   2   3
ATOM      3  C   UNL A   1      33.568  27.413  22.698  1.00  0.00     0.338 C 
ATOM      4  O   UNL A   1      34.107  27.815  21.681  1.00  0.00    -0.246 OA
BRANCH   3   5
ATOM      5  C   UNL A   1      33.574  25.996  23.113  1.00  0.00     0.062 A 
ATOM      6  C   UNL A   1      33.805  21.965  27.480  1.00  0.00     0.088 C 
ATOM      7  C   UNL A   1      33.937  22.785  26.247  1.00  0.00     0.106 A 
ATOM      8  N   UNL A   1      34.179  24.077  26.234  1.00  0.00    -0.233 NA
ATOM      9  N   UNL A   1      33.814  22.321  24.952  1.00  0.00    -0.328 N 
ATOM     10  C   UNL A   1      33.980  24.477  24.943  1.00  0.00     0.090 A 
ATOM     11  C   UNL A   1      33.610  23.415  24.132  1.00  0.00     0.068 A 
ATOM     12  C   UNL A   1      34.044  25.756  24.395  1.00  0.00     0.046 A 
ATOM     13  C   UNL A   1      33.198  23.608  22.800  1.00  0.00     0.029 A 
ATOM     14  C   UNL A   1      33.139  24.937  22.321  1.00  0.00     0.018 A 
BRANCH   9  15
ATOM     15  C   UNL A   1      33.998  20.951  24.513  1.00  0.00     0.130 C 
BRANCH  15  16
ATOM     16  C   UNL A   1      32.698  20.136  24.556  1.00  0.00     0.083 C 
BRANCH  16  17
ATOM     17  C   UNL A   1      32.743  18.851  25.399  1.00  0.00     0.264 C 
BRANCH  17  18
ATOM     18  N   UNL A   1      32.204  17.661  24.708  1.00  0.00    -0.331 N 
ATOM     19  C   UNL A   1      32.519  16.426  25.481  1.00  0.00     0.291 C 
ATOM     20  C   UNL A   1      32.751  17.496  23.345  1.00  0.00     0.291 C 
ATOM     21  H   UNL A   1      31.196  17.803  24.642  1.00  0.00     0.348 HD
ATOM     22  C   UNL A   1      33.974  15.933  25.355  1.00  0.00     0.221 C 
ATOM     23  C   UNL A   1      34.215  17.035  23.302  1.00  0.00     0.221 C 
ATOM     24  O   UNL A   1      34.355  15.778  23.976  1.00  0.00    -0.370 OA
ENDBRANCH  17  18
ENDBRANCH  16  17
ENDBRANCH  15  16
ENDBRANCH   9  15
ENDBRANCH   3   5
ENDBRANCH   2   3
ENDBRANCH   1   2
BRANCH   1  25
ATOM     25  C   UNL A   1      31.140  29.329  24.723  1.00  0.00     0.275 C 
BRANCH  25  26
ATOM     26  O   UNL A   1      32.277  29.818  25.446  1.00  0.00    -0.458 OA
BRANCH  26  27
ATOM     27  C   UNL A   1      32.096  30.954  26.163  1.00  0.00     0.338 C 
ATOM     28  O   UNL A   1      31.109  31.656  26.181  1.00  0.00    -0.246 OA
BRANCH  27  29
ATOM     29  C   UNL A   1      33.201  30.989  27.150  1.00  0.00     0.060 A 
ATOM     30  C   UNL A   1      33.608  32.178  27.773  1.00  0.00     0.016 A 
ATOM     31  C   UNL A   1      33.980  29.843  27.250  1.00  0.00     0.016 A 
ATOM     32  C   UNL A   1      34.882  32.273  28.337  1.00  0.00     0.010 A 
ATOM     33  C   UNL A   1      35.229  29.940  27.848  1.00  0.00     0.010 A 
ATOM     34  C   UNL A   1      35.737  31.173  28.297  1.00  0.00    -0.014 A 
BRANCH  34  35
ATOM     35  C   UNL A   1      37.116  31.266  28.808  1.00  0.00     0.031 A 
ATOM     36  C   UNL A   1      37.894  30.029  28.591  1.00  0.00     0.074 A 
ATOM     37  C   UNL A   1      37.818  32.323  29.276  1.00  0.00     0.049 A 
ATOM     38  N   UNL A   1      37.987  29.024  29.399  1.00  0.00    -0.248 NA
ATOM     39  C   UNL A   1      38.470  29.805  27.260  1.00  0.00     0.031 C 
ATOM     40  C   UNL A   1      37.505  33.752  29.246  1.00  0.00     0.029 A 
ATOM     41  N   UNL A   1      39.079  32.308  29.822  1.00  0.00    -0.354 N 
ATOM     42  C   UNL A   1      38.793  28.111  28.734  1.00  0.00     0.074 A 
ATOM     43  C   UNL A   1      38.777  28.512  27.351  1.00  0.00     0.031 C 
ATOM     44  C   UNL A   1      38.624  34.468  29.528  1.00  0.00     0.029 A 
ATOM     45  C   UNL A   1      39.671  33.556  29.961  1.00  0.00     0.049 A 
ATOM     46  H   UNL A   1      39.528  31.476  30.096  1.00  0.00     0.167 HD
ATOM     47  C   UNL A   1      39.645  27.281  29.400  1.00  0.00     0.034 A 
ATOM     48  C   UNL A   1      40.924  33.814  30.409  1.00  0.00     0.034 A 
ATOM     49  C   UNL A   1      39.468  27.396  30.828  1.00  0.00     0.049 A 
ATOM     50  C   UNL A   1      41.389  32.646  31.195  1.00  0.00     0.074 A 
ATOM     51  C   UNL A   1      38.474  27.113  31.738  1.00  0.00     0.029 A 
ATOM     52  N   UNL A   1      40.354  28.238  31.456  1.00  0.00    -0.354 N 
ATOM     53  N   UNL A   1      40.935  32.311  32.370  1.00  0.00    -0.248 NA
ATOM     54  C   UNL A   1      42.255  31.658  30.561  1.00  0.00     0.031 C 
ATOM     55  C   UNL A   1      38.652  28.032  32.812  1.00  0.00     0.029 A 
ATOM     56  C   UNL A   1      39.755  28.840  32.531  1.00  0.00     0.049 A 
ATOM     57  H   UNL A   1      41.286  28.387  31.174  1.00  0.00     0.167 HD
ATOM     58  C   UNL A   1      41.072  30.938  32.412  1.00  0.00     0.074 A 
ATOM     59  C   UNL A   1      42.066  30.633  31.394  1.00  0.00     0.031 C 
ATOM     60  C   UNL A   1      40.137  30.156  33.025  1.00  0.00     0.034 A 
BRANCH  47  61
ATOM     61  C   UNL A   1      40.900  26.676  28.801  1.00  0.00     0.023 A 
ATOM     62  C   UNL A   1      41.015  25.326  28.425  1.00  0.00     0.031 A 
ATOM     63  C   UNL A   1      41.978  27.500  28.420  1.00  0.00     0.131 A 
ATOM     64  C   UNL A   1      42.132  24.828  27.746  1.00  0.00     0.055 A 
ATOM     65  C   UNL A   1      43.068  27.022  27.679  1.00  0.00     0.041 A 
ATOM     66  F   UNL A   1      41.984  28.811  28.710  1.00  0.00    -0.206 F 
ATOM     67  C   UNL A   1      43.153  25.677  27.341  1.00  0.00     0.022 A 
BRANCH  64  68
ATOM     68  S   UNL A   1      42.252  23.055  27.380  1.00  0.00     0.124 S 
ATOM     69  O   UNL A   1      41.049  22.532  28.017  1.00  0.00    -0.237 OA
ATOM     70  O   UNL A   1      42.252  23.051  25.920  1.00  0.00    -0.237 OA
ATOM     71  O   UNL A   1      43.516  22.657  27.997  1.00  0.00    -0.744 OA
ENDBRANCH  64  68
ENDBRANCH  47  61
BRANCH  48  72
ATOM     72  C   UNL A   1      41.862  34.927  30.130  1.00  0.00     0.023 A 
ATOM     73  C   UNL A   1      42.057  35.376  28.811  1.00  0.00     0.031 A 
ATOM     74  C   UNL A   1      42.815  35.314  31.094  1.00  0.00     0.131 A 
ATOM     75  C   UNL A   1      43.209  36.113  28.481  1.00  0.00     0.055 A 
ATOM     76  C   UNL A   1      43.951  36.059  30.764  1.00  0.00     0.041 A 
ATOM     77  F   UNL A   1      42.700  34.913  32.370  1.00  0.00    -0.206 F 
ATOM     78  C   UNL A   1      44.162  36.446  29.448  1.00  0.00     0.022 A 
BRANCH  75  79
ATOM     79  S   UNL A   1      43.533  36.597  26.764  1.00  0.00     0.124 S 
ATOM     80  O   UNL A   1      44.989  36.716  26.723  1.00  0.00    -0.237 OA
ATOM     81  O   UNL A   1      42.977  35.470  26.024  1.00  0.00    -0.237 OA
ATOM     82  O   UNL A   1      42.815  37.859  26.627  1.00  0.00    -0.744 OA
ENDBRANCH  75  79
ENDBRANCH  48  72
BRANCH  60  83
ATOM     83  C   UNL A   1      39.280  30.758  34.117  1.00  0.00     0.023 A 
ATOM     84  C   UNL A   1      38.264  31.645  33.710  1.00  0.00     0.031 A 
ATOM     85  C   UNL A   1      39.507  30.628  35.500  1.00  0.00     0.131 A 
ATOM     86  C   UNL A   1      37.547  32.391  34.652  1.00  0.00     0.055 A 
ATOM     87  C   UNL A   1      38.732  31.313  36.442  1.00  0.00     0.041 A 
ATOM     88  F   UNL A   1      40.527  29.905  35.984  1.00  0.00    -0.206 F 
ATOM     89  C   UNL A   1      37.758  32.214  36.020  1.00  0.00     0.022 A 
BRANCH  86  90
ATOM     90  S   UNL A   1      36.443  33.726  34.116  1.00  0.00     0.124 S 
ATOM     91  O   UNL A   1      37.247  34.917  34.379  1.00  0.00    -0.237 OA
ATOM     92  O   UNL A   1      36.233  33.412  32.704  1.00  0.00    -0.237 OA
ATOM     93  O   UNL A   1      35.263  33.570  34.962  1.00  0.00    -0.744 OA
ENDBRANCH  86  90
ENDBRANCH  60  83
ENDBRANCH  34  35
ENDBRANCH  27  29
ENDBRANCH  26  27
ENDBRANCH  25  26
ENDBRANCH   1  25
TORSDOF 18
ENDMDL
MODEL 2
REMARK VINA RESULT:     -12.6      4.159     10.360
REMARK SMILES Cc1nc2cc(C(=O)OCCOC(=O)c3ccc(-c4c5nc(c(-c6cc(S(=O)(=O)[O-])ccc6F)c6ccc([nH]6)c(-c6cc(S(=O)(=O)[O-])ccc6F)c6nc(c(-c7cc(S(=O)(=O)[O-])ccc7F)c7ccc4[nH]7)C=C6)C=C5)cc3)ccc2n1CCC[NH+]1CCOCC1
REMARK SMILES IDX 10 1 9 2 7 3 8 4 6 5 1 6 2 7 3 8 81 9 4 10 80 11 5 12 79 13
REMARK SMILES IDX 78 14 82 15 83 16 84 17 85 18 86 19 90 20 87 22 89 23 88 24
REMARK SMILES IDX 11 25 12 26 13 27 14 28 15 29 16 30 77 31 17 32 76 33 18 34
REMARK SMILES IDX 19 35 20 36 70 37 21 38 75 39 69 40 71 41 22 42 74 43 68 44
REMARK SMILES IDX 67 45 23 47 55 48 35 49 54 50 36 51 39 52 53 53 72 54 37 55
REMARK SMILES IDX 38 56 52 58 73 59 40 60 24 61 25 62 33 63 26 64 32 65 34 66
REMARK SMILES IDX 31 67 27 68 28 69 29 70 30 71 56 72 57 73 65 74 58 75 64 76
REMARK SMILES IDX 66 77 63 78 59 79 60 80 61 81 62 82 41 83 42 84 50 85 43 86
REMARK SMILES IDX 49 87 51 88 48 89 44 90 45 91 46 92 47 93
REMARK H PARENT 85 21 71 46 39 57
REMARK Flexibility Score: inf
ROOT
ATOM      1  C   UNL A   1      34.193  20.249  24.556  1.00  0.00     0.275 C 
ENDROOT
BRANCH   1   2
ATOM      2  O   UNL A   1      33.180  21.050  23.903  1.00  0.00    -0.458 OA
BRANCH   2   3
ATOM      3  C   UNL A   1      32.074  21.328  24.639  1.00  0.00     0.338 C 
ATOM      4  O   UNL A   1      31.525  20.593  25.442  1.00  0.00    -0.246 OA
BRANCH   3   5
ATOM      5  C   UNL A   1      31.711  22.748  24.459  1.00  0.00     0.062 A 
ATOM      6  C   UNL A   1      31.490  28.271  26.655  1.00  0.00     0.088 C 
ATOM      7  C   UNL A   1      31.269  26.954  26.002  1.00  0.00     0.106 A 
ATOM      8  N   UNL A   1      31.495  25.791  26.575  1.00  0.00    -0.233 NA
ATOM      9  N   UNL A   1      30.811  26.757  24.715  1.00  0.00    -0.328 N 
ATOM     10  C   UNL A   1      31.404  24.864  25.576  1.00  0.00     0.090 A 
ATOM     11  C   UNL A   1      31.111  25.456  24.357  1.00  0.00     0.068 A 
ATOM     12  C   UNL A   1      31.615  23.488  25.627  1.00  0.00     0.046 A 
ATOM     13  C   UNL A   1      31.124  24.722  23.156  1.00  0.00     0.029 A 
ATOM     14  C   UNL A   1      31.483  23.357  23.227  1.00  0.00     0.018 A 
BRANCH   9  15
ATOM     15  C   UNL A   1      30.039  27.700  23.928  1.00  0.00     0.130 C 
BRANCH  15  16
ATOM     16  C   UNL A   1      30.902  28.487  22.933  1.00  0.00     0.083 C 
BRANCH  16  17
ATOM     17  C   UNL A   1      30.270  29.773  22.374  1.00  0.00     0.264 C 
BRANCH  17  18
ATOM     18  N   UNL A   1      28.906  30.040  22.878  1.00  0.00    -0.331 N 
ATOM     19  C   UNL A   1      27.944  30.132  21.744  1.00  0.00     0.291 C 
ATOM     20  C   UNL A   1      28.821  31.297  23.651  1.00  0.00     0.291 C 
ATOM     21  H   UNL A   1      28.673  29.260  23.493  1.00  0.00     0.348 HD
ATOM     22  C   UNL A   1      27.993  31.456  20.955  1.00  0.00     0.221 C 
ATOM     23  C   UNL A   1      28.910  32.572  22.800  1.00  0.00     0.221 C 
ATOM     24  O   UNL A   1      27.856  32.590  21.829  1.00  0.00    -0.370 OA
ENDBRANCH  17  18
ENDBRANCH  16  17
ENDBRANCH  15  16
ENDBRANCH   9  15
ENDBRANCH   3   5
ENDBRANCH   2   3
ENDBRANCH   1   2
BRANCH   1  25
ATOM     25  C   UNL A   1      34.967  21.100  25.569  1.00  0.00     0.275 C 
BRANCH  25  26
ATOM     26  O   UNL A   1      36.207  21.486  24.960  1.00  0.00    -0.458 OA
BRANCH  26  27
ATOM     27  C   UNL A   1      37.289  20.723  25.253  1.00  0.00     0.338 C 
ATOM     28  O   UNL A   1      37.425  19.538  25.043  1.00  0.00    -0.246 OA
BRANCH  27  29
ATOM     29  C   UNL A   1      38.376  21.676  25.579  1.00  0.00     0.060 A 
ATOM     30  C   UNL A   1      39.653  21.245  25.969  1.00  0.00     0.016 A 
ATOM     31  C   UNL A   1      38.012  23.009  25.721  1.00  0.00     0.016 A 
ATOM     32  C   UNL A   1      40.498  22.105  26.674  1.00  0.00     0.010 A 
ATOM     33  C   UNL A   1      38.878  23.865  26.388  1.00  0.00     0.010 A 
ATOM     34  C   UNL A   1      40.074  23.401  26.966  1.00  0.00    -0.014 A 
BRANCH  34  35
ATOM     35  C   UNL A   1      40.906  24.306  27.777  1.00  0.00     0.031 A 
ATOM     36  C   UNL A   1      40.257  25.607  28.037  1.00  0.00     0.074 A 
ATOM     37  C   UNL A   1      42.061  24.086  28.448  1.00  0.00     0.049 A 
ATOM     38  N   UNL A   1      40.345  26.672  27.311  1.00  0.00    -0.248 NA
ATOM     39  C   UNL A   1      39.254  25.671  29.107  1.00  0.00     0.031 C 
ATOM     40  C   UNL A   1      42.756  22.832  28.744  1.00  0.00     0.029 A 
ATOM     41  N   UNL A   1      42.827  25.013  29.111  1.00  0.00    -0.354 N 
ATOM     42  C   UNL A   1      39.537  27.602  27.949  1.00  0.00     0.074 A 
ATOM     43  C   UNL A   1      38.682  26.840  28.823  1.00  0.00     0.031 C 
ATOM     44  C   UNL A   1      43.689  23.048  29.707  1.00  0.00     0.029 A 
ATOM     45  C   UNL A   1      43.802  24.479  29.943  1.00  0.00     0.049 A 
ATOM     46  H   UNL A   1      42.695  25.983  29.005  1.00  0.00     0.167 HD
ATOM     47  C   UNL A   1      39.824  28.935  27.941  1.00  0.00     0.034 A 
ATOM     48  C   UNL A   1      44.643  25.167  30.752  1.00  0.00     0.034 A 
ATOM     49  C   UNL A   1      40.951  29.215  27.085  1.00  0.00     0.049 A 
ATOM     50  C   UNL A   1      44.726  26.564  30.262  1.00  0.00     0.074 A 
ATOM     51  C   UNL A   1      41.224  29.143  25.736  1.00  0.00     0.029 A 
ATOM     52  N   UNL A   1      42.159  29.315  27.730  1.00  0.00    -0.354 N 
ATOM     53  N   UNL A   1      45.326  26.933  29.166  1.00  0.00    -0.248 NA
ATOM     54  C   UNL A   1      43.917  27.594  30.903  1.00  0.00     0.031 C 
ATOM     55  C   UNL A   1      42.627  28.919  25.632  1.00  0.00     0.029 A 
ATOM     56  C   UNL A   1      43.169  28.872  26.917  1.00  0.00     0.049 A 
ATOM     57  H   UNL A   1      42.282  29.656  28.646  1.00  0.00     0.167 HD
ATOM     58  C   UNL A   1      44.624  28.046  28.749  1.00  0.00     0.074 A 
ATOM     59  C   UNL A   1      43.935  28.518  29.940  1.00  0.00     0.031 C 
ATOM     60  C   UNL A   1      44.401  28.281  27.423  1.00  0.00     0.034 A 
BRANCH  47  61
ATOM     61  C   UNL A   1      39.365  29.920  28.999  1.00  0.00     0.023 A 
ATOM     62  C   UNL A   1      38.345  30.866  28.796  1.00  0.00     0.031 A 
ATOM     63  C   UNL A   1      39.829  29.811  30.325  1.00  0.00     0.131 A 
ATOM     64  C   UNL A   1      37.846  31.665  29.830  1.00  0.00     0.055 A 
ATOM     65  C   UNL A   1      39.284  30.559  31.378  1.00  0.00     0.041 A 
ATOM     66  F   UNL A   1      40.793  28.936  30.652  1.00  0.00    -0.206 F 
ATOM     67  C   UNL A   1      38.289  31.498  31.135  1.00  0.00     0.022 A 
BRANCH  64  68
ATOM     68  S   UNL A   1      36.597  32.933  29.472  1.00  0.00     0.124 S 
ATOM     69  O   UNL A   1      35.866  32.333  28.362  1.00  0.00    -0.237 OA
ATOM     70  O   UNL A   1      35.877  33.009  30.740  1.00  0.00    -0.237 OA
ATOM     71  O   UNL A   1      37.388  34.116  29.139  1.00  0.00    -0.744 OA
ENDBRANCH  64  68
ENDBRANCH  47  61
BRANCH  48  72
ATOM     72  C   UNL A   1      45.313  24.797  32.022  1.00  0.00     0.023 A 
ATOM     73  C   UNL A   1      44.559  24.311  33.106  1.00  0.00     0.031 A 
ATOM     74  C   UNL A   1      46.624  25.241  32.292  1.00  0.00     0.131 A 
ATOM     75  C   UNL A   1      45.091  24.353  34.408  1.00  0.00     0.055 A 
ATOM     76  C   UNL A   1      47.152  25.267  33.585  1.00  0.00     0.041 A 
ATOM     77  F   UNL A   1      47.397  25.730  31.309  1.00  0.00    -0.206 F 
ATOM     78  C   UNL A   1      46.377  24.839  34.654  1.00  0.00     0.022 A 
BRANCH  75  79
ATOM     79  S   UNL A   1      44.088  23.840  35.829  1.00  0.00     0.124 S 
ATOM     80  O   UNL A   1      42.854  23.363  35.208  1.00  0.00    -0.237 OA
ATOM     81  O   UNL A   1      44.924  22.807  36.430  1.00  0.00    -0.237 OA
ATOM     82  O   UNL A   1      43.945  25.067  36.603  1.00  0.00    -0.744 OA
ENDBRANCH  75  79
ENDBRANCH  48  72
BRANCH  60  83
ATOM     83  C   UNL A   1      45.353  27.693  26.404  1.00  0.00     0.023 A 
ATOM     84  C   UNL A   1      45.180  26.332  26.087  1.00  0.00     0.031 A 
ATOM     85  C   UNL A   1      46.479  28.343  25.867  1.00  0.00     0.131 A 
ATOM     86  C   UNL A   1      46.122  25.655  25.303  1.00  0.00     0.055 A 
ATOM     87  C   UNL A   1      47.373  27.685  25.016  1.00  0.00     0.041 A 
ATOM     88  F   UNL A   1      46.798  29.601  26.206  1.00  0.00    -0.206 F 
ATOM     89  C   UNL A   1      47.208  26.330  24.744  1.00  0.00     0.022 A 
BRANCH  86  90
ATOM     90  S   UNL A   1      46.046  23.852  25.130  1.00  0.00     0.124 S 
ATOM     91  O   UNL A   1      46.783  23.397  26.305  1.00  0.00    -0.237 OA
ATOM     92  O   UNL A   1      44.607  23.595  25.155  1.00  0.00    -0.237 OA
ATOM     93  O   UNL A   1      46.693  23.593  23.847  1.00  0.00    -0.744 OA
ENDBRANCH  86  90
ENDBRANCH  60  83
ENDBRANCH  34  35
ENDBRANCH  27  29
ENDBRANCH  26  27
ENDBRANCH  25  26
ENDBRANCH   1  25
TORSDOF 18
ENDMDL
MODEL 3
REMARK VINA RESULT:     -12.1      3.423      7.885
REMARK SMILES Cc1nc2cc(C(=O)OCCOC(=O)c3ccc(-c4c5nc(c(-c6cc(S(=O)(=O)[O-])ccc6F)c6ccc([nH]6)c(-c6cc(S(=O)(=O)[O-])ccc6F)c6nc(c(-c7cc(S(=O)(=O)[O-])ccc7F)c7ccc4[nH]7)C=C6)C=C5)cc3)ccc2n1CCC[NH+]1CCOCC1
REMARK SMILES IDX 10 1 9 2 7 3 8 4 6 5 1 6 2 7 3 8 81 9 4 10 80 11 5 12 79 13
REMARK SMILES IDX 78 14 82 15 83 16 84 17 85 18 86 19 90 20 87 22 89 23 88 24
REMARK SMILES IDX 11 25 12 26 13 27 14 28 15 29 16 30 77 31 17 32 76 33 18 34
REMARK SMILES IDX 19 35 20 36 70 37 21 38 75 39 69 40 71 41 22 42 74 43 68 44
REMARK SMILES IDX 67 45 23 47 55 48 35 49 54 50 36 51 39 52 53 53 72 54 37 55
REMARK SMILES IDX 38 56 52 58 73 59 40 60 24 61 25 62 33 63 26 64 32 65 34 66
REMARK SMILES IDX 31 67 27 68 28 69 29 70 30 71 56 72 57 73 65 74 58 75 64 76
REMARK SMILES IDX 66 77 63 78 59 79 60 80 61 81 62 82 41 83 42 84 50 85 43 86
REMARK SMILES IDX 49 87 51 88 48 89 44 90 45 91 46 92 47 93
REMARK H PARENT 85 21 71 46 39 57
REMARK Flexibility Score: inf
ROOT
ATOM      1  C   UNL A   1      32.936  30.012  26.130  1.00  0.00     0.275 C 
ENDROOT
BRANCH   1   2
ATOM      2  O   UNL A   1      32.734  28.624  26.483  1.00  0.00    -0.458 OA
BRANCH   2   3
ATOM      3  C   UNL A   1      32.225  27.829  25.508  1.00  0.00     0.338 C 
ATOM      4  O   UNL A   1      31.642  28.189  24.500  1.00  0.00    -0.246 OA
BRANCH   3   5
ATOM      5  C   UNL A   1      32.637  26.432  25.752  1.00  0.00     0.062 A 
ATOM      6  C   UNL A   1      36.944  22.331  25.855  1.00  0.00     0.088 C 
ATOM      7  C   UNL A   1      35.703  23.136  25.702  1.00  0.00     0.106 A 
ATOM      8  N   UNL A   1      35.661  24.349  25.195  1.00  0.00    -0.233 NA
ATOM      9  N   UNL A   1      34.434  22.742  26.074  1.00  0.00    -0.328 N 
ATOM     10  C   UNL A   1      34.404  24.815  25.459  1.00  0.00     0.090 A 
ATOM     11  C   UNL A   1      33.645  23.875  26.140  1.00  0.00     0.068 A 
ATOM     12  C   UNL A   1      33.852  26.066  25.193  1.00  0.00     0.046 A 
ATOM     13  C   UNL A   1      32.373  24.185  26.658  1.00  0.00     0.029 A 
ATOM     14  C   UNL A   1      31.904  25.508  26.493  1.00  0.00     0.018 A 
BRANCH   9  15
ATOM     15  C   UNL A   1      33.976  21.376  26.238  1.00  0.00     0.130 C 
BRANCH  15  16
ATOM     16  C   UNL A   1      33.374  20.794  24.953  1.00  0.00     0.083 C 
BRANCH  16  17
ATOM     17  C   UNL A   1      33.841  19.377  24.580  1.00  0.00     0.264 C 
BRANCH  17  18
ATOM     18  N   UNL A   1      32.737  18.442  24.273  1.00  0.00    -0.331 N 
ATOM     19  C   UNL A   1      32.517  17.508  25.413  1.00  0.00     0.291 C 
ATOM     20  C   UNL A   1      32.996  17.632  23.065  1.00  0.00     0.291 C 
ATOM     21  H   UNL A   1      31.913  19.020  24.110  1.00  0.00     0.348 HD
ATOM     22  C   UNL A   1      33.551  16.369  25.530  1.00  0.00     0.221 C 
ATOM     23  C   UNL A   1      34.061  16.540  23.249  1.00  0.00     0.221 C 
ATOM     24  O   UNL A   1      33.667  15.641  24.294  1.00  0.00    -0.370 OA
ENDBRANCH  17  18
ENDBRANCH  16  17
ENDBRANCH  15  16
ENDBRANCH   9  15
ENDBRANCH   3   5
ENDBRANCH   2   3
ENDBRANCH   1   2
BRANCH   1  25
ATOM     25  C   UNL A   1      33.051  30.869  27.397  1.00  0.00     0.275 C 
BRANCH  25  26
ATOM     26  O   UNL A   1      34.277  31.608  27.316  1.00  0.00    -0.458 OA
BRANCH  26  27
ATOM     27  C   UNL A   1      34.975  31.750  28.470  1.00  0.00     0.338 C 
ATOM     28  O   UNL A   1      34.553  32.141  29.536  1.00  0.00    -0.246 OA
BRANCH  27  29
ATOM     29  C   UNL A   1      36.256  31.036  28.255  1.00  0.00     0.060 A 
ATOM     30  C   UNL A   1      36.306  29.735  27.731  1.00  0.00     0.016 A 
ATOM     31  C   UNL A   1      37.388  31.608  28.820  1.00  0.00     0.016 A 
ATOM     32  C   UNL A   1      37.434  28.939  27.941  1.00  0.00     0.010 A 
ATOM     33  C   UNL A   1      38.517  30.819  28.988  1.00  0.00     0.010 A 
ATOM     34  C   UNL A   1      38.517  29.451  28.653  1.00  0.00    -0.014 A 
BRANCH  34  35
ATOM     35  C   UNL A   1      39.686  28.611  28.963  1.00  0.00     0.031 A 
ATOM     36  C   UNL A   1      39.982  28.546  30.409  1.00  0.00     0.074 A 
ATOM     37  C   UNL A   1      40.410  27.777  28.181  1.00  0.00     0.049 A 
ATOM     38  N   UNL A   1      40.757  29.337  31.074  1.00  0.00    -0.248 NA
ATOM     39  C   UNL A   1      39.183  27.629  31.231  1.00  0.00     0.031 C 
ATOM     40  C   UNL A   1      40.150  27.290  26.826  1.00  0.00     0.029 A 
ATOM     41  N   UNL A   1      41.551  27.093  28.527  1.00  0.00    -0.354 N 
ATOM     42  C   UNL A   1      40.675  28.890  32.385  1.00  0.00     0.074 A 
ATOM     43  C   UNL A   1      39.486  28.080  32.448  1.00  0.00     0.031 C 
ATOM     44  C   UNL A   1      40.958  26.231  26.562  1.00  0.00     0.029 A 
ATOM     45  C   UNL A   1      41.929  26.098  27.636  1.00  0.00     0.049 A 
ATOM     46  H   UNL A   1      42.061  27.294  29.345  1.00  0.00     0.167 HD
ATOM     47  C   UNL A   1      41.734  28.967  33.242  1.00  0.00     0.034 A 
ATOM     48  C   UNL A   1      42.971  25.241  27.772  1.00  0.00     0.034 A 
ATOM     49  C   UNL A   1      42.833  29.684  32.642  1.00  0.00     0.049 A 
ATOM     50  C   UNL A   1      43.936  25.827  28.732  1.00  0.00     0.074 A 
ATOM     51  C   UNL A   1      43.074  30.973  32.221  1.00  0.00     0.029 A 
ATOM     52  N   UNL A   1      43.800  28.893  32.072  1.00  0.00    -0.354 N 
ATOM     53  N   UNL A   1      44.694  26.859  28.489  1.00  0.00    -0.248 NA
ATOM     54  C   UNL A   1      43.917  25.385  30.122  1.00  0.00     0.031 C 
ATOM     55  C   UNL A   1      44.030  30.871  31.170  1.00  0.00     0.029 A 
ATOM     56  C   UNL A   1      44.352  29.525  30.989  1.00  0.00     0.049 A 
ATOM     57  H   UNL A   1      44.059  27.999  32.395  1.00  0.00     0.167 HD
ATOM     58  C   UNL A   1      44.866  27.454  29.723  1.00  0.00     0.074 A 
ATOM     59  C   UNL A   1      44.561  26.408  30.687  1.00  0.00     0.031 C 
ATOM     60  C   UNL A   1      44.913  28.813  29.848  1.00  0.00     0.034 A 
BRANCH  47  61
ATOM     61  C   UNL A   1      41.936  28.063  34.442  1.00  0.00     0.023 A 
ATOM     62  C   UNL A   1      42.560  26.804  34.377  1.00  0.00     0.031 A 
ATOM     63  C   UNL A   1      41.661  28.530  35.743  1.00  0.00     0.131 A 
ATOM     64  C   UNL A   1      42.860  26.055  35.520  1.00  0.00     0.055 A 
ATOM     65  C   UNL A   1      42.021  27.816  36.894  1.00  0.00     0.041 A 
ATOM     66  F   UNL A   1      41.077  29.724  35.941  1.00  0.00    -0.206 F 
ATOM     67  C   UNL A   1      42.621  26.567  36.788  1.00  0.00     0.022 A 
BRANCH  64  68
ATOM     68  S   UNL A   1      43.577  24.396  35.352  1.00  0.00     0.124 S 
ATOM     69  O   UNL A   1      44.256  24.229  36.633  1.00  0.00    -0.237 OA
ATOM     70  O   UNL A   1      42.387  23.575  35.151  1.00  0.00    -0.237 OA
ATOM     71  O   UNL A   1      44.451  24.512  34.186  1.00  0.00    -0.744 OA
ENDBRANCH  64  68
ENDBRANCH  47  61
BRANCH  48  72
ATOM     72  C   UNL A   1      43.191  23.868  27.259  1.00  0.00     0.023 A 
ATOM     73  C   UNL A   1      44.205  23.618  26.316  1.00  0.00     0.031 A 
ATOM     74  C   UNL A   1      42.201  22.878  27.425  1.00  0.00     0.131 A 
ATOM     75  C   UNL A   1      44.160  22.453  25.527  1.00  0.00     0.055 A 
ATOM     76  C   UNL A   1      42.170  21.715  26.650  1.00  0.00     0.041 A 
ATOM     77  F   UNL A   1      41.197  23.054  28.299  1.00  0.00    -0.206 F 
ATOM     78  C   UNL A   1      43.143  21.508  25.681  1.00  0.00     0.022 A 
BRANCH  75  79
ATOM     79  S   UNL A   1      45.391  22.174  24.227  1.00  0.00     0.124 S 
ATOM     80  O   UNL A   1      46.417  21.384  24.905  1.00  0.00    -0.237 OA
ATOM     81  O   UNL A   1      44.613  21.457  23.223  1.00  0.00    -0.237 OA
ATOM     82  O   UNL A   1      45.807  23.523  23.858  1.00  0.00    -0.744 OA
ENDBRANCH  75  79
ENDBRANCH  48  72
BRANCH  60  83
ATOM     83  C   UNL A   1      45.341  29.644  28.658  1.00  0.00     0.023 A 
ATOM     84  C   UNL A   1      46.700  30.008  28.595  1.00  0.00     0.031 A 
ATOM     85  C   UNL A   1      44.477  30.206  27.701  1.00  0.00     0.131 A 
ATOM     86  C   UNL A   1      47.151  30.926  27.639  1.00  0.00     0.055 A 
ATOM     87  C   UNL A   1      44.947  31.059  26.695  1.00  0.00     0.041 A 
ATOM     88  F   UNL A   1      43.150  30.020  27.749  1.00  0.00    -0.206 F 
ATOM     89  C   UNL A   1      46.286  31.437  26.672  1.00  0.00     0.022 A 
BRANCH  86  90
ATOM     90  S   UNL A   1      48.831  31.600  27.737  1.00  0.00     0.124 S 
ATOM     91  O   UNL A   1      48.704  32.598  28.796  1.00  0.00    -0.237 OA
ATOM     92  O   UNL A   1      49.623  30.420  28.080  1.00  0.00    -0.237 OA
ATOM     93  O   UNL A   1      49.075  32.136  26.400  1.00  0.00    -0.744 OA
ENDBRANCH  86  90
ENDBRANCH  60  83
ENDBRANCH  34  35
ENDBRANCH  27  29
ENDBRANCH  26  27
ENDBRANCH  25  26
ENDBRANCH   1  25
TORSDOF 18
ENDMDL
