MODEL 1
REMARK VINA RESULT:     -11.7      0.000      0.000
REMARK SMILES O=C(OCCOC(=O)c1cccc(CSc2nc(-c3ccccc3)n[nH]2)c1)c1ccc(-c2c3nc(c(-c4cc(S(=O)(=O)[O-])ccc4F)c4ccc([nH]4)c(-c4cc(S(=O)(=O)[O-])ccc4F)c4nc(c(-c5cc(S(=O)(=O)[O-])ccc5F)c5ccc2[nH]5)C=C4)C=C3)cc1
REMARK SMILES IDX 5 1 4 2 3 3 2 4 1 5 28 6 29 7 90 8 30 9 89 10 31 11 32 12
REMARK SMILES IDX 33 13 83 14 34 15 88 16 82 17 84 18 35 19 87 20 81 21 80 22
REMARK SMILES IDX 36 24 68 25 48 26 67 27 49 28 52 29 66 30 85 31 50 32 51 33
REMARK SMILES IDX 65 35 86 36 53 37 37 38 38 39 46 40 39 41 45 42 47 43 44 44
REMARK SMILES IDX 40 45 41 46 42 47 43 48 69 49 70 50 78 51 71 52 77 53 79 54
REMARK SMILES IDX 76 55 72 56 73 57 74 58 75 59 54 60 55 61 63 62 56 63 62 64
REMARK SMILES IDX 64 65 61 66 57 67 58 68 59 69 60 70 6 71 7 72 8 73 9 74
REMARK SMILES IDX 10 75 27 76 11 77 13 78 12 79 14 80 15 81 16 82 17 83 26 84
REMARK SMILES IDX 18 85 25 86 19 88 20 89 24 90 21 91 23 92 22 93
REMARK H PARENT 84 23 52 34 26 87
REMARK Flexibility Score: inf
ROOT
ATOM      1  C   UNL A   1      31.960  30.758  26.704  1.00  0.00     0.275 C 
ENDROOT
BRANCH   1   2
ATOM      2  C   UNL A   1      31.774  32.263  26.465  1.00  0.00     0.275 C 
BRANCH   2   3
ATOM      3  O   UNL A   1      32.147  33.106  27.569  1.00  0.00    -0.458 OA
BRANCH   3   4
ATOM      4  C   UNL A   1      33.324  33.705  27.866  1.00  0.00     0.338 C 
ATOM      5  O   UNL A   1      33.478  34.880  27.531  1.00  0.00    -0.246 OA
BRANCH   4   6
ATOM      6  C   UNL A   1      34.505  32.994  28.461  1.00  0.00     0.060 A 
ATOM      7  C   UNL A   1      34.456  31.875  29.293  1.00  0.00     0.016 A 
ATOM      8  C   UNL A   1      35.777  33.494  28.116  1.00  0.00     0.016 A 
ATOM      9  C   UNL A   1      35.618  31.230  29.708  1.00  0.00     0.010 A 
ATOM     10  C   UNL A   1      36.948  32.843  28.516  1.00  0.00     0.010 A 
ATOM     11  C   UNL A   1      36.869  31.706  29.324  1.00  0.00    -0.014 A 
BRANCH  11  12
ATOM     12  C   UNL A   1      38.066  31.109  29.951  1.00  0.00     0.031 A 
ATOM     13  C   UNL A   1      38.372  31.488  31.367  1.00  0.00     0.074 A 
ATOM     14  C   UNL A   1      38.771  30.150  29.324  1.00  0.00     0.049 A 
ATOM     15  N   UNL A   1      39.291  31.020  32.165  1.00  0.00    -0.248 NA
ATOM     16  C   UNL A   1      37.491  32.496  31.977  1.00  0.00     0.031 C 
ATOM     17  C   UNL A   1      38.443  29.593  28.013  1.00  0.00     0.029 A 
ATOM     18  N   UNL A   1      39.891  29.458  29.701  1.00  0.00    -0.354 N 
ATOM     19  C   UNL A   1      39.071  31.643  33.385  1.00  0.00     0.074 A 
ATOM     20  C   UNL A   1      37.986  32.581  33.199  1.00  0.00     0.031 C 
ATOM     21  C   UNL A   1      39.370  28.683  27.672  1.00  0.00     0.029 A 
ATOM     22  C   UNL A   1      40.358  28.596  28.736  1.00  0.00     0.049 A 
ATOM     23  H   UNL A   1      40.320  29.568  30.580  1.00  0.00     0.167 HD
ATOM     24  C   UNL A   1      39.698  31.419  34.565  1.00  0.00     0.034 A 
ATOM     25  C   UNL A   1      41.462  27.825  28.718  1.00  0.00     0.034 A 
ATOM     26  C   UNL A   1      40.803  30.506  34.703  1.00  0.00     0.049 A 
ATOM     27  C   UNL A   1      42.280  27.751  29.979  1.00  0.00     0.074 A 
ATOM     28  C   UNL A   1      41.550  30.220  35.828  1.00  0.00     0.029 A 
ATOM     29  N   UNL A   1      41.337  29.750  33.664  1.00  0.00    -0.354 N 
ATOM     30  N   UNL A   1      42.062  28.342  31.132  1.00  0.00    -0.248 NA
ATOM     31  C   UNL A   1      43.454  26.877  29.957  1.00  0.00     0.031 C 
ATOM     32  C   UNL A   1      42.589  29.361  35.452  1.00  0.00     0.029 A 
ATOM     33  C   UNL A   1      42.435  29.034  34.112  1.00  0.00     0.049 A 
ATOM     34  H   UNL A   1      40.985  29.725  32.745  1.00  0.00     0.167 HD
ATOM     35  C   UNL A   1      43.035  27.855  31.997  1.00  0.00     0.074 A 
ATOM     36  C   UNL A   1      43.842  26.930  31.223  1.00  0.00     0.031 C 
ATOM     37  C   UNL A   1      43.230  28.126  33.314  1.00  0.00     0.034 A 
BRANCH  24  38
ATOM     38  C   UNL A   1      39.236  32.243  35.739  1.00  0.00     0.023 A 
ATOM     39  C   UNL A   1      39.757  33.526  35.996  1.00  0.00     0.031 A 
ATOM     40  C   UNL A   1      38.348  31.694  36.679  1.00  0.00     0.131 A 
ATOM     41  C   UNL A   1      39.464  34.169  37.208  1.00  0.00     0.055 A 
ATOM     42  C   UNL A   1      37.988  32.380  37.840  1.00  0.00     0.041 A 
ATOM     43  F   UNL A   1      37.847  30.461  36.505  1.00  0.00    -0.206 F 
ATOM     44  C   UNL A   1      38.563  33.616  38.120  1.00  0.00     0.022 A 
BRANCH  41  45
ATOM     45  S   UNL A   1      40.425  35.642  37.662  1.00  0.00     0.124 S 
ATOM     46  O   UNL A   1      39.907  36.633  36.723  1.00  0.00    -0.237 OA
ATOM     47  O   UNL A   1      40.062  35.836  39.061  1.00  0.00    -0.237 OA
ATOM     48  O   UNL A   1      41.809  35.234  37.426  1.00  0.00    -0.744 OA
ENDBRANCH  41  45
ENDBRANCH  24  38
BRANCH  25  49
ATOM     49  C   UNL A   1      41.850  27.073  27.489  1.00  0.00     0.023 A 
ATOM     50  C   UNL A   1      41.694  25.682  27.399  1.00  0.00     0.031 A 
ATOM     51  C   UNL A   1      42.439  27.740  26.396  1.00  0.00     0.131 A 
ATOM     52  C   UNL A   1      42.166  24.994  26.268  1.00  0.00     0.055 A 
ATOM     53  C   UNL A   1      42.868  27.057  25.256  1.00  0.00     0.041 A 
ATOM     54  F   UNL A   1      42.600  29.074  26.423  1.00  0.00    -0.206 F 
ATOM     55  C   UNL A   1      42.747  25.673  25.195  1.00  0.00     0.022 A 
BRANCH  52  56
ATOM     56  S   UNL A   1      42.081  23.182  26.259  1.00  0.00     0.124 S 
ATOM     57  O   UNL A   1      42.760  22.859  25.009  1.00  0.00    -0.237 OA
ATOM     58  O   UNL A   1      42.797  22.843  27.485  1.00  0.00    -0.237 OA
ATOM     59  O   UNL A   1      40.646  22.908  26.281  1.00  0.00    -0.744 OA
ENDBRANCH  52  56
ENDBRANCH  25  49
BRANCH  37  60
ATOM     60  C   UNL A   1      44.331  27.362  34.005  1.00  0.00     0.023 A 
ATOM     61  C   UNL A   1      44.104  26.104  34.586  1.00  0.00     0.031 A 
ATOM     62  C   UNL A   1      45.619  27.916  34.101  1.00  0.00     0.131 A 
ATOM     63  C   UNL A   1      45.131  25.475  35.303  1.00  0.00     0.055 A 
ATOM     64  C   UNL A   1      46.659  27.248  34.744  1.00  0.00     0.041 A 
ATOM     65  F   UNL A   1      45.889  29.119  33.567  1.00  0.00    -0.206 F 
ATOM     66  C   UNL A   1      46.413  26.028  35.366  1.00  0.00     0.022 A 
BRANCH  63  67
ATOM     67  S   UNL A   1      44.730  23.989  36.259  1.00  0.00     0.124 S 
ATOM     68  O   UNL A   1      45.983  23.242  36.193  1.00  0.00    -0.237 OA
ATOM     69  O   UNL A   1      44.388  24.542  37.565  1.00  0.00    -0.237 OA
ATOM     70  O   UNL A   1      43.615  23.399  35.522  1.00  0.00    -0.744 OA
ENDBRANCH  63  67
ENDBRANCH  37  60
ENDBRANCH  11  12
ENDBRANCH   4   6
ENDBRANCH   3   4
ENDBRANCH   2   3
ENDBRANCH   1   2
BRANCH   1  71
ATOM     71  O   UNL A   1      33.044  30.175  25.962  1.00  0.00    -0.458 OA
BRANCH  71  72
ATOM     72  C   UNL A   1      33.532  29.019  26.477  1.00  0.00     0.338 C 
ATOM     73  O   UNL A   1      33.754  28.784  27.655  1.00  0.00    -0.246 OA
BRANCH  72  74
ATOM     74  C   UNL A   1      33.620  27.986  25.422  1.00  0.00     0.060 A 
ATOM     75  C   UNL A   1      33.557  28.409  24.089  1.00  0.00     0.016 A 
ATOM     76  C   UNL A   1      33.721  26.623  25.719  1.00  0.00     0.020 A 
ATOM     77  C   UNL A   1      33.665  27.482  23.053  1.00  0.00     0.001 A 
ATOM     78  C   UNL A   1      33.742  25.675  24.675  1.00  0.00    -0.037 A 
ATOM     79  C   UNL A   1      33.764  26.123  23.343  1.00  0.00     0.004 A 
BRANCH  78  80
ATOM     80  C   UNL A   1      33.619  24.195  24.974  1.00  0.00     0.113 C 
BRANCH  80  81
ATOM     81  S   UNL A   1      32.220  23.403  24.118  1.00  0.00    -0.082 SA
BRANCH  81  82
ATOM     82  C   UNL A   1      30.979  24.586  24.265  1.00  0.00     0.184 A 
ATOM     83  N   UNL A   1      30.559  25.436  23.361  1.00  0.00    -0.201 NA
ATOM     84  N   UNL A   1      30.386  24.856  25.457  1.00  0.00    -0.254 N 
ATOM     85  C   UNL A   1      29.700  26.244  24.074  1.00  0.00     0.182 A 
ATOM     86  N   UNL A   1      29.542  25.888  25.360  1.00  0.00    -0.153 NA
ATOM     87  H   UNL A   1      30.557  24.355  26.287  1.00  0.00     0.192 HD
BRANCH  85  88
ATOM     88  C   UNL A   1      29.117  27.456  23.523  1.00  0.00     0.021 A 
ATOM     89  C   UNL A   1      29.951  28.391  22.891  1.00  0.00     0.012 A 
ATOM     90  C   UNL A   1      27.740  27.693  23.577  1.00  0.00     0.012 A 
ATOM     91  C   UNL A   1      29.418  29.540  22.310  1.00  0.00     0.001 A 
ATOM     92  C   UNL A   1      27.209  28.855  23.009  1.00  0.00     0.001 A 
ATOM     93  C   UNL A   1      28.047  29.772  22.372  1.00  0.00     0.000 A 
ENDBRANCH  85  88
ENDBRANCH  81  82
ENDBRANCH  80  81
ENDBRANCH  78  80
ENDBRANCH  72  74
ENDBRANCH  71  72
ENDBRANCH   1  71
TORSDOF 18
ENDMDL
MODEL 2
REMARK VINA RESULT:     -11.6      2.108      3.585
REMARK SMILES O=C(OCCOC(=O)c1cccc(CSc2nc(-c3ccccc3)n[nH]2)c1)c1ccc(-c2c3nc(c(-c4cc(S(=O)(=O)[O-])ccc4F)c4ccc([nH]4)c(-c4cc(S(=O)(=O)[O-])ccc4F)c4nc(c(-c5cc(S(=O)(=O)[O-])ccc5F)c5ccc2[nH]5)C=C4)C=C3)cc1
REMARK SMILES IDX 5 1 4 2 3 3 2 4 1 5 28 6 29 7 90 8 30 9 89 10 31 11 32 12
REMARK SMILES IDX 33 13 83 14 34 15 88 16 82 17 84 18 35 19 87 20 81 21 80 22
REMARK SMILES IDX 36 24 68 25 48 26 67 27 49 28 52 29 66 30 85 31 50 32 51 33
REMARK SMILES IDX 65 35 86 36 53 37 37 38 38 39 46 40 39 41 45 42 47 43 44 44
REMARK SMILES IDX 40 45 41 46 42 47 43 48 69 49 70 50 78 51 71 52 77 53 79 54
REMARK SMILES IDX 76 55 72 56 73 57 74 58 75 59 54 60 55 61 63 62 56 63 62 64
REMARK SMILES IDX 64 65 61 66 57 67 58 68 59 69 60 70 6 71 7 72 8 73 9 74
REMARK SMILES IDX 10 75 27 76 11 77 13 78 12 79 14 80 15 81 16 82 17 83 26 84
REMARK SMILES IDX 18 85 25 86 19 88 20 89 24 90 21 91 23 92 22 93
REMARK H PARENT 84 23 52 34 26 87
REMARK Flexibility Score: inf
ROOT
ATOM      1  C   UNL A   1      32.178  30.757  26.839  1.00  0.00     0.275 C 
ENDROOT
BRANCH   1   2
ATOM      2  C   UNL A   1      31.800  32.206  26.499  1.00  0.00     0.275 C 
BRANCH   2   3
ATOM      3  O   UNL A   1      32.108  33.171  27.521  1.00  0.00    -0.458 OA
BRANCH   3   4
ATOM      4  C   UNL A   1      33.275  33.779  27.840  1.00  0.00     0.338 C 
ATOM      5  O   UNL A   1      33.415  34.963  27.530  1.00  0.00    -0.246 OA
BRANCH   4   6
ATOM      6  C   UNL A   1      34.460  33.072  28.429  1.00  0.00     0.060 A 
ATOM      7  C   UNL A   1      34.428  31.884  29.160  1.00  0.00     0.016 A 
ATOM      8  C   UNL A   1      35.721  33.656  28.191  1.00  0.00     0.016 A 
ATOM      9  C   UNL A   1      35.600  31.257  29.576  1.00  0.00     0.010 A 
ATOM     10  C   UNL A   1      36.903  33.025  28.592  1.00  0.00     0.010 A 
ATOM     11  C   UNL A   1      36.842  31.819  29.296  1.00  0.00    -0.014 A 
BRANCH  11  12
ATOM     12  C   UNL A   1      38.037  31.223  29.928  1.00  0.00     0.031 A 
ATOM     13  C   UNL A   1      38.358  31.633  31.331  1.00  0.00     0.074 A 
ATOM     14  C   UNL A   1      38.725  30.241  29.319  1.00  0.00     0.049 A 
ATOM     15  N   UNL A   1      39.278  31.173  32.133  1.00  0.00    -0.248 NA
ATOM     16  C   UNL A   1      37.494  32.666  31.923  1.00  0.00     0.031 C 
ATOM     17  C   UNL A   1      38.380  29.656  28.025  1.00  0.00     0.029 A 
ATOM     18  N   UNL A   1      39.840  29.545  29.704  1.00  0.00    -0.354 N 
ATOM     19  C   UNL A   1      39.075  31.828  33.340  1.00  0.00     0.074 A 
ATOM     20  C   UNL A   1      38.001  32.774  33.139  1.00  0.00     0.031 C 
ATOM     21  C   UNL A   1      39.294  28.726  27.699  1.00  0.00     0.029 A 
ATOM     22  C   UNL A   1      40.289  28.654  28.757  1.00  0.00     0.049 A 
ATOM     23  H   UNL A   1      40.278  29.670  30.577  1.00  0.00     0.167 HD
ATOM     24  C   UNL A   1      39.709  31.626  34.520  1.00  0.00     0.034 A 
ATOM     25  C   UNL A   1      41.384  27.869  28.749  1.00  0.00     0.034 A 
ATOM     26  C   UNL A   1      40.804  30.703  34.672  1.00  0.00     0.049 A 
ATOM     27  C   UNL A   1      42.210  27.816  30.005  1.00  0.00     0.074 A 
ATOM     28  C   UNL A   1      41.557  30.435  35.798  1.00  0.00     0.029 A 
ATOM     29  N   UNL A   1      41.321  29.915  33.648  1.00  0.00    -0.354 N 
ATOM     30  N   UNL A   1      42.008  28.438  31.146  1.00  0.00    -0.248 NA
ATOM     31  C   UNL A   1      43.374  26.927  29.996  1.00  0.00     0.031 C 
ATOM     32  C   UNL A   1      42.582  29.555  35.435  1.00  0.00     0.029 A 
ATOM     33  C   UNL A   1      42.414  29.197  34.104  1.00  0.00     0.049 A 
ATOM     34  H   UNL A   1      40.961  29.872  32.733  1.00  0.00     0.167 HD
ATOM     35  C   UNL A   1      42.983  27.960  32.014  1.00  0.00     0.074 A 
ATOM     36  C   UNL A   1      43.772  27.006  31.257  1.00  0.00     0.031 C 
ATOM     37  C   UNL A   1      43.192  28.261  33.323  1.00  0.00     0.034 A 
BRANCH  24  38
ATOM     38  C   UNL A   1      39.266  32.484  35.678  1.00  0.00     0.023 A 
ATOM     39  C   UNL A   1      39.676  33.825  35.806  1.00  0.00     0.031 A 
ATOM     40  C   UNL A   1      38.518  31.921  36.725  1.00  0.00     0.131 A 
ATOM     41  C   UNL A   1      39.422  34.521  36.997  1.00  0.00     0.055 A 
ATOM     42  C   UNL A   1      38.190  32.651  37.869  1.00  0.00     0.041 A 
ATOM     43  F   UNL A   1      38.130  30.637  36.673  1.00  0.00    -0.206 F 
ATOM     44  C   UNL A   1      38.659  33.952  38.019  1.00  0.00     0.022 A 
BRANCH  41  45
ATOM     45  S   UNL A   1      40.266  36.106  37.271  1.00  0.00     0.124 S 
ATOM     46  O   UNL A   1      39.360  36.764  38.208  1.00  0.00    -0.237 OA
ATOM     47  O   UNL A   1      41.554  35.688  37.814  1.00  0.00    -0.237 OA
ATOM     48  O   UNL A   1      40.314  36.704  35.938  1.00  0.00    -0.744 OA
ENDBRANCH  41  45
ENDBRANCH  24  38
BRANCH  25  49
ATOM     49  C   UNL A   1      41.753  27.083  27.537  1.00  0.00     0.023 A 
ATOM     50  C   UNL A   1      41.571  25.694  27.478  1.00  0.00     0.031 A 
ATOM     51  C   UNL A   1      42.349  27.714  26.427  1.00  0.00     0.131 A 
ATOM     52  C   UNL A   1      42.026  24.972  26.361  1.00  0.00     0.055 A 
ATOM     53  C   UNL A   1      42.762  26.998  25.301  1.00  0.00     0.041 A 
ATOM     54  F   UNL A   1      42.534  29.045  26.422  1.00  0.00    -0.206 F 
ATOM     55  C   UNL A   1      42.615  25.615  25.271  1.00  0.00     0.022 A 
BRANCH  52  56
ATOM     56  S   UNL A   1      41.909  23.162  26.394  1.00  0.00     0.124 S 
ATOM     57  O   UNL A   1      42.493  22.803  25.106  1.00  0.00    -0.237 OA
ATOM     58  O   UNL A   1      42.701  22.831  27.573  1.00  0.00    -0.237 OA
ATOM     59  O   UNL A   1      40.473  22.915  26.520  1.00  0.00    -0.744 OA
ENDBRANCH  52  56
ENDBRANCH  25  49
BRANCH  37  60
ATOM     60  C   UNL A   1      44.288  27.500  34.024  1.00  0.00     0.023 A 
ATOM     61  C   UNL A   1      44.056  26.249  34.619  1.00  0.00     0.031 A 
ATOM     62  C   UNL A   1      45.579  28.051  34.116  1.00  0.00     0.131 A 
ATOM     63  C   UNL A   1      45.080  25.625  35.343  1.00  0.00     0.055 A 
ATOM     64  C   UNL A   1      46.615  27.386  34.768  1.00  0.00     0.041 A 
ATOM     65  F   UNL A   1      45.853  29.247  33.569  1.00  0.00    -0.206 F 
ATOM     66  C   UNL A   1      46.364  26.174  35.403  1.00  0.00     0.022 A 
BRANCH  63  67
ATOM     67  S   UNL A   1      44.673  24.151  36.315  1.00  0.00     0.124 S 
ATOM     68  O   UNL A   1      45.906  23.375  36.217  1.00  0.00    -0.237 OA
ATOM     69  O   UNL A   1      44.379  24.715  37.628  1.00  0.00    -0.237 OA
ATOM     70  O   UNL A   1      43.525  23.584  35.611  1.00  0.00    -0.744 OA
ENDBRANCH  63  67
ENDBRANCH  37  60
ENDBRANCH  11  12
ENDBRANCH   4   6
ENDBRANCH   3   4
ENDBRANCH   2   3
ENDBRANCH   1   2
BRANCH   1  71
ATOM     71  O   UNL A   1      33.152  30.181  25.953  1.00  0.00    -0.458 OA
BRANCH  71  72
ATOM     72  C   UNL A   1      33.525  28.914  26.262  1.00  0.00     0.338 C 
ATOM     73  O   UNL A   1      33.672  28.451  27.383  1.00  0.00    -0.246 OA
BRANCH  72  74
ATOM     74  C   UNL A   1      33.586  28.087  25.038  1.00  0.00     0.060 A 
ATOM     75  C   UNL A   1      33.509  28.743  23.803  1.00  0.00     0.016 A 
ATOM     76  C   UNL A   1      33.673  26.691  25.083  1.00  0.00     0.020 A 
ATOM     77  C   UNL A   1      33.591  28.015  22.616  1.00  0.00     0.001 A 
ATOM     78  C   UNL A   1      33.667  25.946  23.886  1.00  0.00    -0.037 A 
ATOM     79  C   UNL A   1      33.676  26.625  22.656  1.00  0.00     0.004 A 
BRANCH  78  80
ATOM     80  C   UNL A   1      33.530  24.438  23.917  1.00  0.00     0.113 C 
BRANCH  80  81
ATOM     81  S   UNL A   1      34.316  23.675  25.372  1.00  0.00    -0.082 SA
BRANCH  81  82
ATOM     82  C   UNL A   1      33.587  22.116  25.411  1.00  0.00     0.184 A 
ATOM     83  N   UNL A   1      34.178  20.948  25.451  1.00  0.00    -0.201 NA
ATOM     84  N   UNL A   1      32.250  21.948  25.247  1.00  0.00    -0.254 N 
ATOM     85  C   UNL A   1      33.130  20.068  25.281  1.00  0.00     0.182 A 
ATOM     86  N   UNL A   1      31.923  20.652  25.192  1.00  0.00    -0.153 NA
ATOM     87  H   UNL A   1      31.602  22.687  25.177  1.00  0.00     0.192 HD
BRANCH  85  88
ATOM     88  C   UNL A   1      33.322  18.641  25.082  1.00  0.00     0.021 A 
ATOM     89  C   UNL A   1      32.530  17.737  25.805  1.00  0.00     0.012 A 
ATOM     90  C   UNL A   1      34.252  18.152  24.159  1.00  0.00     0.012 A 
ATOM     91  C   UNL A   1      32.655  16.364  25.603  1.00  0.00     0.001 A 
ATOM     92  C   UNL A   1      34.388  16.774  23.971  1.00  0.00     0.001 A 
ATOM     93  C   UNL A   1      33.586  15.884  24.687  1.00  0.00     0.000 A 
ENDBRANCH  85  88
ENDBRANCH  81  82
ENDBRANCH  80  81
ENDBRANCH  78  80
ENDBRANCH  72  74
ENDBRANCH  71  72
ENDBRANCH   1  71
TORSDOF 18
ENDMDL
MODEL 3
REMARK VINA RESULT:     -11.6      1.622      2.111
REMARK SMILES O=C(OCCOC(=O)c1cccc(CSc2nc(-c3ccccc3)n[nH]2)c1)c1ccc(-c2c3nc(c(-c4cc(S(=O)(=O)[O-])ccc4F)c4ccc([nH]4)c(-c4cc(S(=O)(=O)[O-])ccc4F)c4nc(c(-c5cc(S(=O)(=O)[O-])ccc5F)c5ccc2[nH]5)C=C4)C=C3)cc1
REMARK SMILES IDX 5 1 4 2 3 3 2 4 1 5 28 6 29 7 90 8 30 9 89 10 31 11 32 12
REMARK SMILES IDX 33 13 83 14 34 15 88 16 82 17 84 18 35 19 87 20 81 21 80 22
REMARK SMILES IDX 36 24 68 25 48 26 67 27 49 28 52 29 66 30 85 31 50 32 51 33
REMARK SMILES IDX 65 35 86 36 53 37 37 38 38 39 46 40 39 41 45 42 47 43 44 44
REMARK SMILES IDX 40 45 41 46 42 47 43 48 69 49 70 50 78 51 71 52 77 53 79 54
REMARK SMILES IDX 76 55 72 56 73 57 74 58 75 59 54 60 55 61 63 62 56 63 62 64
REMARK SMILES IDX 64 65 61 66 57 67 58 68 59 69 60 70 6 71 7 72 8 73 9 74
REMARK SMILES IDX 10 75 27 76 11 77 13 78 12 79 14 80 15 81 16 82 17 83 26 84
REMARK SMILES IDX 18 85 25 86 19 88 20 89 24 90 21 91 23 92 22 93
REMARK H PARENT 84 23 52 34 26 87
REMARK Flexibility Score: inf
ROOT
ATOM      1  C   UNL A   1      31.708  31.008  27.096  1.00  0.00     0.275 C 
ENDROOT
BRANCH   1   2
ATOM      2  C   UNL A   1      32.189  32.406  26.681  1.00  0.00     0.275 C 
BRANCH   2   3
ATOM      3  O   UNL A   1      32.492  33.294  27.771  1.00  0.00    -0.458 OA
BRANCH   3   4
ATOM      4  C   UNL A   1      33.660  33.869  28.144  1.00  0.00     0.338 C 
ATOM      5  O   UNL A   1      33.809  35.072  27.931  1.00  0.00    -0.246 OA
BRANCH   4   6
ATOM      6  C   UNL A   1      34.837  33.110  28.683  1.00  0.00     0.060 A 
ATOM      7  C   UNL A   1      34.793  31.871  29.323  1.00  0.00     0.016 A 
ATOM      8  C   UNL A   1      36.104  33.700  28.494  1.00  0.00     0.016 A 
ATOM      9  C   UNL A   1      35.959  31.205  29.694  1.00  0.00     0.010 A 
ATOM     10  C   UNL A   1      37.279  33.032  28.851  1.00  0.00     0.010 A 
ATOM     11  C   UNL A   1      37.206  31.777  29.462  1.00  0.00    -0.014 A 
BRANCH  11  12
ATOM     12  C   UNL A   1      38.394  31.126  30.051  1.00  0.00     0.031 A 
ATOM     13  C   UNL A   1      38.787  31.524  31.440  1.00  0.00     0.074 A 
ATOM     14  C   UNL A   1      39.011  30.110  29.422  1.00  0.00     0.049 A 
ATOM     15  N   UNL A   1      39.713  31.023  32.209  1.00  0.00    -0.248 NA
ATOM     16  C   UNL A   1      37.997  32.599  32.059  1.00  0.00     0.031 C 
ATOM     17  C   UNL A   1      38.590  29.539  28.144  1.00  0.00     0.029 A 
ATOM     18  N   UNL A   1      40.104  29.362  29.769  1.00  0.00    -0.354 N 
ATOM     19  C   UNL A   1      39.587  31.690  33.420  1.00  0.00     0.074 A 
ATOM     20  C   UNL A   1      38.553  32.686  33.255  1.00  0.00     0.031 C 
ATOM     21  C   UNL A   1      39.444  28.565  27.789  1.00  0.00     0.029 A 
ATOM     22  C   UNL A   1      40.474  28.448  28.810  1.00  0.00     0.049 A 
ATOM     23  H   UNL A   1      40.580  29.469  30.623  1.00  0.00     0.167 HD
ATOM     24  C   UNL A   1      40.254  31.461  34.576  1.00  0.00     0.034 A 
ATOM     25  C   UNL A   1      41.529  27.611  28.764  1.00  0.00     0.034 A 
ATOM     26  C   UNL A   1      41.309  30.487  34.691  1.00  0.00     0.049 A 
ATOM     27  C   UNL A   1      42.399  27.522  29.989  1.00  0.00     0.074 A 
ATOM     28  C   UNL A   1      42.090  30.186  35.790  1.00  0.00     0.029 A 
ATOM     29  N   UNL A   1      41.749  29.672  33.652  1.00  0.00    -0.354 N 
ATOM     30  N   UNL A   1      42.270  28.156  31.133  1.00  0.00    -0.248 NA
ATOM     31  C   UNL A   1      43.517  26.578  29.940  1.00  0.00     0.031 C 
ATOM     32  C   UNL A   1      43.057  29.256  35.392  1.00  0.00     0.029 A 
ATOM     33  C   UNL A   1      42.822  28.903  34.071  1.00  0.00     0.049 A 
ATOM     34  H   UNL A   1      41.353  29.643  32.751  1.00  0.00     0.167 HD
ATOM     35  C   UNL A   1      43.252  27.634  31.967  1.00  0.00     0.074 A 
ATOM     36  C   UNL A   1      43.966  26.641  31.185  1.00  0.00     0.031 C 
ATOM     37  C   UNL A   1      43.524  27.928  33.265  1.00  0.00     0.034 A 
BRANCH  24  38
ATOM     38  C   UNL A   1      39.897  32.342  35.745  1.00  0.00     0.023 A 
ATOM     39  C   UNL A   1      38.985  31.928  36.735  1.00  0.00     0.031 A 
ATOM     40  C   UNL A   1      40.388  33.657  35.811  1.00  0.00     0.131 A 
ATOM     41  C   UNL A   1      38.517  32.850  37.683  1.00  0.00     0.055 A 
ATOM     42  C   UNL A   1      39.988  34.541  36.814  1.00  0.00     0.041 A 
ATOM     43  F   UNL A   1      41.233  34.118  34.876  1.00  0.00    -0.206 F 
ATOM     44  C   UNL A   1      39.032  34.147  37.746  1.00  0.00     0.022 A 
BRANCH  41  45
ATOM     45  S   UNL A   1      37.090  32.392  38.707  1.00  0.00     0.124 S 
ATOM     46  O   UNL A   1      37.119  30.934  38.618  1.00  0.00    -0.237 OA
ATOM     47  O   UNL A   1      37.437  32.959  40.005  1.00  0.00    -0.237 OA
ATOM     48  O   UNL A   1      35.963  33.028  38.029  1.00  0.00    -0.744 OA
ENDBRANCH  41  45
ENDBRANCH  24  38
BRANCH  25  49
ATOM     49  C   UNL A   1      41.814  26.805  27.542  1.00  0.00     0.023 A 
ATOM     50  C   UNL A   1      41.548  25.429  27.491  1.00  0.00     0.031 A 
ATOM     51  C   UNL A   1      42.413  27.400  26.414  1.00  0.00     0.131 A 
ATOM     52  C   UNL A   1      41.926  24.681  26.363  1.00  0.00     0.055 A 
ATOM     53  C   UNL A   1      42.748  26.661  25.277  1.00  0.00     0.041 A 
ATOM     54  F   UNL A   1      42.677  28.717  26.402  1.00  0.00    -0.206 F 
ATOM     55  C   UNL A   1      42.518  25.289  25.254  1.00  0.00     0.022 A 
BRANCH  52  56
ATOM     56  S   UNL A   1      41.702  22.881  26.402  1.00  0.00     0.124 S 
ATOM     57  O   UNL A   1      42.349  22.529  27.661  1.00  0.00    -0.237 OA
ATOM     58  O   UNL A   1      40.248  22.759  26.370  1.00  0.00    -0.237 OA
ATOM     59  O   UNL A   1      42.391  22.426  25.196  1.00  0.00    -0.744 OA
ENDBRANCH  52  56
ENDBRANCH  25  49
BRANCH  37  60
ATOM     60  C   UNL A   1      44.609  27.118  33.928  1.00  0.00     0.023 A 
ATOM     61  C   UNL A   1      44.334  25.895  34.562  1.00  0.00     0.031 A 
ATOM     62  C   UNL A   1      45.932  27.592  33.944  1.00  0.00     0.131 A 
ATOM     63  C   UNL A   1      45.355  25.225  35.249  1.00  0.00     0.055 A 
ATOM     64  C   UNL A   1      46.960  26.879  34.558  1.00  0.00     0.041 A 
ATOM     65  F   UNL A   1      46.248  28.759  33.357  1.00  0.00    -0.206 F 
ATOM     66  C   UNL A   1      46.670  25.698  35.232  1.00  0.00     0.022 A 
BRANCH  63  67
ATOM     67  S   UNL A   1      44.912  23.797  36.274  1.00  0.00     0.124 S 
ATOM     68  O   UNL A   1      43.753  23.266  35.563  1.00  0.00    -0.237 OA
ATOM     69  O   UNL A   1      46.122  22.985  36.216  1.00  0.00    -0.237 OA
ATOM     70  O   UNL A   1      44.623  24.389  37.578  1.00  0.00    -0.744 OA
ENDBRANCH  63  67
ENDBRANCH  37  60
ENDBRANCH  11  12
ENDBRANCH   4   6
ENDBRANCH   3   4
ENDBRANCH   2   3
ENDBRANCH   1   2
BRANCH   1  71
ATOM     71  O   UNL A   1      32.758  30.032  27.196  1.00  0.00    -0.458 OA
BRANCH  71  72
ATOM     72  C   UNL A   1      32.344  28.741  27.142  1.00  0.00     0.338 C 
ATOM     73  O   UNL A   1      31.704  28.146  27.996  1.00  0.00    -0.246 OA
BRANCH  72  74
ATOM     74  C   UNL A   1      32.637  28.166  25.812  1.00  0.00     0.060 A 
ATOM     75  C   UNL A   1      33.724  28.688  25.101  1.00  0.00     0.016 A 
ATOM     76  C   UNL A   1      31.847  27.162  25.242  1.00  0.00     0.020 A 
ATOM     77  C   UNL A   1      34.065  28.163  23.854  1.00  0.00     0.001 A 
ATOM     78  C   UNL A   1      32.136  26.690  23.945  1.00  0.00    -0.037 A 
ATOM     79  C   UNL A   1      33.280  27.165  23.282  1.00  0.00     0.004 A 
BRANCH  78  80
ATOM     80  C   UNL A   1      31.167  25.777  23.223  1.00  0.00     0.113 C 
BRANCH  80  81
ATOM     81  S   UNL A   1      29.577  25.586  24.091  1.00  0.00    -0.082 SA
BRANCH  81  82
ATOM     82  C   UNL A   1      28.688  26.953  23.541  1.00  0.00     0.184 A 
ATOM     83  N   UNL A   1      29.143  28.030  22.950  1.00  0.00    -0.201 NA
ATOM     84  N   UNL A   1      27.369  27.108  23.822  1.00  0.00    -0.254 N 
ATOM     85  C   UNL A   1      28.035  28.849  22.908  1.00  0.00     0.182 A 
ATOM     86  N   UNL A   1      26.916  28.294  23.403  1.00  0.00    -0.153 NA
ATOM     87  H   UNL A   1      26.816  26.432  24.277  1.00  0.00     0.192 HD
BRANCH  85  88
ATOM     88  C   UNL A   1      28.097  30.239  22.490  1.00  0.00     0.021 A 
ATOM     89  C   UNL A   1      28.099  30.542  21.120  1.00  0.00     0.012 A 
ATOM     90  C   UNL A   1      28.117  31.281  23.421  1.00  0.00     0.012 A 
ATOM     91  C   UNL A   1      28.110  31.865  20.684  1.00  0.00     0.001 A 
ATOM     92  C   UNL A   1      28.144  32.608  22.983  1.00  0.00     0.001 A 
ATOM     93  C   UNL A   1      28.134  32.898  21.617  1.00  0.00     0.000 A 
ENDBRANCH  85  88
ENDBRANCH  81  82
ENDBRANCH  80  81
ENDBRANCH  78  80
ENDBRANCH  72  74
ENDBRANCH  71  72
ENDBRANCH   1  71
TORSDOF 18
ENDMDL
