MODEL 1
REMARK VINA RESULT:     -12.5      0.000      0.000
REMARK SMILES CC(C)CCc1cc2c(cc1Cl)C=C(C(=O)OCCOC(=O)c1ccc(-c3c4nc(c(-c5cc(S(=O)(=O)[O-])ccc5F)c5ccc([nH]5)c(-c5cc(S(=O)(=O)[O-])ccc5F)c5nc(c(-c6cc(S(=O)(=O)[O-])ccc6F)c6ccc3[nH]6)C=C5)C=C4)cc1)[C@H](C(F)(F)F)O2
REMARK SMILES IDX 18 1 17 2 15 3 16 4 14 5 6 6 7 7 11 8 8 9 10 10 12 11 9 12
REMARK SMILES IDX 91 13 13 14 86 15 5 16 4 17 2 18 1 19 3 20 87 21 88 22 89 23
REMARK SMILES IDX 90 24 19 25 20 26 21 27 22 28 23 29 24 30 85 31 25 32 84 33
REMARK SMILES IDX 26 34 27 35 28 36 78 37 29 38 83 39 77 40 79 41 30 42 82 43
REMARK SMILES IDX 76 44 75 45 31 47 63 48 43 49 62 50 44 51 47 52 61 53 80 54
REMARK SMILES IDX 45 55 46 56 60 58 81 59 48 60 32 61 33 62 41 63 34 64 40 65
REMARK SMILES IDX 42 66 39 67 35 68 36 69 37 70 38 71 64 72 65 73 73 74 66 75
REMARK SMILES IDX 72 76 74 77 71 78 67 79 68 80 69 81 70 82 49 83 50 84 58 85
REMARK SMILES IDX 51 86 57 87 59 88 56 89 52 90 53 91 54 92 55 93
REMARK H PARENT 79 46 47 57
REMARK Flexibility Score: inf
ROOT
ATOM      1  C   UNL A   1      34.855  21.100  25.542  1.00  0.00     0.275 C 
ENDROOT
BRANCH   1   2
ATOM      2  O   UNL A   1      35.013  22.407  26.134  1.00  0.00    -0.459 OA
BRANCH   2   3
ATOM      3  C   UNL A   1      34.067  22.783  27.022  1.00  0.00     0.338 C 
ATOM      4  O   UNL A   1      33.981  22.393  28.172  1.00  0.00    -0.246 OA
BRANCH   3   5
ATOM      5  C   UNL A   1      33.187  23.823  26.446  1.00  0.00     0.087 C 
ATOM      6  C   UNL A   1      31.524  28.072  24.329  1.00  0.00    -0.026 A 
ATOM      7  C   UNL A   1      30.933  27.086  25.150  1.00  0.00     0.052 A 
ATOM      8  C   UNL A   1      32.848  27.879  23.896  1.00  0.00     0.045 A 
ATOM      9  C   UNL A   1      31.673  25.999  25.609  1.00  0.00     0.128 A 
ATOM     10  C   UNL A   1      33.593  26.801  24.373  1.00  0.00     0.032 A 
ATOM     11  Cl  UNL A   1      33.643  28.957  22.807  1.00  0.00    -0.084 Cl
ATOM     12  C   UNL A   1      33.015  25.893  25.262  1.00  0.00     0.019 A 
ATOM     13  O   UNL A   1      31.068  25.115  26.467  1.00  0.00    -0.475 OA
ATOM     14  C   UNL A   1      33.817  24.867  25.891  1.00  0.00     0.027 C 
ATOM     15  C   UNL A   1      31.685  23.782  26.571  1.00  0.00     0.316 C 
BRANCH   6  16
ATOM     16  C   UNL A   1      30.740  29.324  23.998  1.00  0.00     0.037 C 
BRANCH  16  17
ATOM     17  C   UNL A   1      30.032  29.262  22.632  1.00  0.00     0.008 C 
BRANCH  17  18
ATOM     18  C   UNL A   1      28.567  29.752  22.621  1.00  0.00    -0.017 C 
ATOM     19  C   UNL A   1      27.585  28.673  23.078  1.00  0.00     0.007 C 
ATOM     20  C   UNL A   1      28.430  30.992  23.506  1.00  0.00     0.007 C 
ENDBRANCH  17  18
ENDBRANCH  16  17
ENDBRANCH   6  16
BRANCH  15  21
ATOM     21  C   UNL A   1      30.922  22.813  25.651  1.00  0.00     0.430 C 
ATOM     22  F   UNL A   1      29.975  22.107  26.302  1.00  0.00    -0.167 F 
ATOM     23  F   UNL A   1      30.339  23.425  24.598  1.00  0.00    -0.167 F 
ATOM     24  F   UNL A   1      31.793  21.913  25.113  1.00  0.00    -0.167 F 
ENDBRANCH  15  21
ENDBRANCH   3   5
ENDBRANCH   2   3
ENDBRANCH   1   2
BRANCH   1  25
ATOM     25  C   UNL A   1      36.185  20.585  24.981  1.00  0.00     0.275 C 
BRANCH  25  26
ATOM     26  O   UNL A   1      37.232  21.565  25.124  1.00  0.00    -0.458 OA
BRANCH  26  27
ATOM     27  C   UNL A   1      38.377  21.116  25.688  1.00  0.00     0.338 C 
ATOM     28  O   UNL A   1      38.851  19.995  25.594  1.00  0.00    -0.246 OA
BRANCH  27  29
ATOM     29  C   UNL A   1      39.099  22.245  26.294  1.00  0.00     0.060 A 
ATOM     30  C   UNL A   1      40.268  22.097  27.033  1.00  0.00     0.016 A 
ATOM     31  C   UNL A   1      38.615  23.517  26.012  1.00  0.00     0.016 A 
ATOM     32  C   UNL A   1      40.922  23.246  27.506  1.00  0.00     0.010 A 
ATOM     33  C   UNL A   1      39.299  24.657  26.412  1.00  0.00     0.010 A 
ATOM     34  C   UNL A   1      40.453  24.541  27.192  1.00  0.00    -0.014 A 
BRANCH  34  35
ATOM     35  C   UNL A   1      41.167  25.773  27.637  1.00  0.00     0.031 A 
ATOM     36  C   UNL A   1      42.601  26.032  27.240  1.00  0.00     0.074 A 
ATOM     37  C   UNL A   1      40.544  26.632  28.467  1.00  0.00     0.049 A 
ATOM     38  N   UNL A   1      43.360  27.062  27.520  1.00  0.00    -0.248 NA
ATOM     39  C   UNL A   1      43.287  24.988  26.462  1.00  0.00     0.031 C 
ATOM     40  C   UNL A   1      39.207  26.434  29.026  1.00  0.00     0.029 A 
ATOM     41  N   UNL A   1      40.943  27.841  28.985  1.00  0.00    -0.354 N 
ATOM     42  C   UNL A   1      44.608  26.783  26.968  1.00  0.00     0.074 A 
ATOM     43  C   UNL A   1      44.527  25.455  26.404  1.00  0.00     0.031 C 
ATOM     44  C   UNL A   1      38.870  27.509  29.753  1.00  0.00     0.029 A 
ATOM     45  C   UNL A   1      39.978  28.462  29.745  1.00  0.00     0.049 A 
ATOM     46  H   UNL A   1      41.836  28.227  28.828  1.00  0.00     0.167 HD
ATOM     47  C   UNL A   1      45.705  27.575  26.899  1.00  0.00     0.034 A 
ATOM     48  C   UNL A   1      39.971  29.669  30.350  1.00  0.00     0.034 A 
ATOM     49  C   UNL A   1      45.754  28.916  27.425  1.00  0.00     0.049 A 
ATOM     50  C   UNL A   1      41.170  30.571  30.191  1.00  0.00     0.074 A 
ATOM     51  C   UNL A   1      46.783  29.836  27.325  1.00  0.00     0.029 A 
ATOM     52  N   UNL A   1      44.733  29.535  28.132  1.00  0.00    -0.354 N 
ATOM     53  N   UNL A   1      42.293  30.343  29.551  1.00  0.00    -0.248 NA
ATOM     54  C   UNL A   1      41.099  31.900  30.815  1.00  0.00     0.031 C 
ATOM     55  C   UNL A   1      46.406  30.989  28.014  1.00  0.00     0.029 A 
ATOM     56  C   UNL A   1      45.114  30.818  28.484  1.00  0.00     0.049 A 
ATOM     57  H   UNL A   1      43.867  29.121  28.351  1.00  0.00     0.167 HD
ATOM     58  C   UNL A   1      43.049  31.505  29.674  1.00  0.00     0.074 A 
ATOM     59  C   UNL A   1      42.245  32.445  30.426  1.00  0.00     0.031 C 
ATOM     60  C   UNL A   1      44.298  31.763  29.211  1.00  0.00     0.034 A 
BRANCH  47  61
ATOM     61  C   UNL A   1      46.934  27.062  26.180  1.00  0.00     0.023 A 
ATOM     62  C   UNL A   1      47.957  26.405  26.893  1.00  0.00     0.031 A 
ATOM     63  C   UNL A   1      47.154  27.346  24.820  1.00  0.00     0.131 A 
ATOM     64  C   UNL A   1      49.159  26.084  26.248  1.00  0.00     0.055 A 
ATOM     65  C   UNL A   1      48.334  26.980  24.171  1.00  0.00     0.041 A 
ATOM     66  F   UNL A   1      46.218  27.982  24.095  1.00  0.00    -0.206 F 
ATOM     67  C   UNL A   1      49.348  26.357  24.890  1.00  0.00     0.022 A 
BRANCH  64  68
ATOM     68  S   UNL A   1      50.555  25.364  27.157  1.00  0.00     0.124 S 
ATOM     69  O   UNL A   1      51.465  25.000  26.073  1.00  0.00    -0.237 OA
ATOM     70  O   UNL A   1      50.990  26.485  27.986  1.00  0.00    -0.237 OA
ATOM     71  O   UNL A   1      49.965  24.240  27.876  1.00  0.00    -0.744 OA
ENDBRANCH  64  68
ENDBRANCH  47  61
BRANCH  48  72
ATOM     72  C   UNL A   1      38.731  30.119  31.049  1.00  0.00     0.023 A 
ATOM     73  C   UNL A   1      37.694  30.770  30.354  1.00  0.00     0.031 A 
ATOM     74  C   UNL A   1      38.627  30.022  32.448  1.00  0.00     0.131 A 
ATOM     75  C   UNL A   1      36.640  31.356  31.066  1.00  0.00     0.055 A 
ATOM     76  C   UNL A   1      37.538  30.544  33.147  1.00  0.00     0.041 A 
ATOM     77  F   UNL A   1      39.599  29.428  33.158  1.00  0.00    -0.206 F 
ATOM     78  C   UNL A   1      36.546  31.233  32.456  1.00  0.00     0.022 A 
BRANCH  75  79
ATOM     79  S   UNL A   1      35.432  32.424  30.232  1.00  0.00     0.124 S 
ATOM     80  O   UNL A   1      36.217  33.626  29.969  1.00  0.00    -0.237 OA
ATOM     81  O   UNL A   1      35.089  31.624  29.058  1.00  0.00    -0.237 OA
ATOM     82  O   UNL A   1      34.364  32.569  31.216  1.00  0.00    -0.744 OA
ENDBRANCH  75  79
ENDBRANCH  48  72
BRANCH  60  83
ATOM     83  C   UNL A   1      44.910  33.119  29.475  1.00  0.00     0.023 A 
ATOM     84  C   UNL A   1      44.683  34.177  28.575  1.00  0.00     0.031 A 
ATOM     85  C   UNL A   1      45.847  33.311  30.505  1.00  0.00     0.131 A 
ATOM     86  C   UNL A   1      45.420  35.363  28.692  1.00  0.00     0.055 A 
ATOM     87  C   UNL A   1      46.543  34.512  30.647  1.00  0.00     0.041 A 
ATOM     88  F   UNL A   1      46.108  32.327  31.381  1.00  0.00    -0.206 F 
ATOM     89  C   UNL A   1      46.343  35.538  29.727  1.00  0.00     0.022 A 
BRANCH  86  90
ATOM     90  S   UNL A   1      45.282  36.678  27.449  1.00  0.00     0.124 S 
ATOM     91  O   UNL A   1      45.400  37.881  28.269  1.00  0.00    -0.237 OA
ATOM     92  O   UNL A   1      46.425  36.402  26.581  1.00  0.00    -0.237 OA
ATOM     93  O   UNL A   1      43.972  36.461  26.847  1.00  0.00    -0.744 OA
ENDBRANCH  86  90
ENDBRANCH  60  83
ENDBRANCH  34  35
ENDBRANCH  27  29
ENDBRANCH  26  27
ENDBRANCH  25  26
ENDBRANCH   1  25
TORSDOF 18
ENDMDL
MODEL 2
REMARK VINA RESULT:     -12.2      4.672      9.988
REMARK SMILES CC(C)CCc1cc2c(cc1Cl)C=C(C(=O)OCCOC(=O)c1ccc(-c3c4nc(c(-c5cc(S(=O)(=O)[O-])ccc5F)c5ccc([nH]5)c(-c5cc(S(=O)(=O)[O-])ccc5F)c5nc(c(-c6cc(S(=O)(=O)[O-])ccc6F)c6ccc3[nH]6)C=C5)C=C4)cc1)[C@H](C(F)(F)F)O2
REMARK SMILES IDX 18 1 17 2 15 3 16 4 14 5 6 6 7 7 11 8 8 9 10 10 12 11 9 12
REMARK SMILES IDX 91 13 13 14 86 15 5 16 4 17 2 18 1 19 3 20 87 21 88 22 89 23
REMARK SMILES IDX 90 24 19 25 20 26 21 27 22 28 23 29 24 30 85 31 25 32 84 33
REMARK SMILES IDX 26 34 27 35 28 36 78 37 29 38 83 39 77 40 79 41 30 42 82 43
REMARK SMILES IDX 76 44 75 45 31 47 63 48 43 49 62 50 44 51 47 52 61 53 80 54
REMARK SMILES IDX 45 55 46 56 60 58 81 59 48 60 32 61 33 62 41 63 34 64 40 65
REMARK SMILES IDX 42 66 39 67 35 68 36 69 37 70 38 71 64 72 65 73 73 74 66 75
REMARK SMILES IDX 72 76 74 77 71 78 67 79 68 80 69 81 70 82 49 83 50 84 58 85
REMARK SMILES IDX 51 86 57 87 59 88 56 89 52 90 53 91 54 92 55 93
REMARK H PARENT 79 46 47 57
REMARK Flexibility Score: inf
ROOT
ATOM      1  C   UNL A   1      31.389  29.058  24.498  1.00  0.00     0.275 C 
ENDROOT
BRANCH   1   2
ATOM      2  O   UNL A   1      31.960  27.752  24.730  1.00  0.00    -0.459 OA
BRANCH   2   3
ATOM      3  C   UNL A   1      32.190  26.995  23.636  1.00  0.00     0.338 C 
ATOM      4  O   UNL A   1      32.344  27.415  22.504  1.00  0.00    -0.246 OA
BRANCH   3   5
ATOM      5  C   UNL A   1      32.335  25.569  24.003  1.00  0.00     0.087 C 
ATOM      6  C   UNL A   1      34.178  20.927  24.600  1.00  0.00    -0.026 A 
ATOM      7  C   UNL A   1      32.874  21.467  24.545  1.00  0.00     0.052 A 
ATOM      8  C   UNL A   1      35.272  21.810  24.556  1.00  0.00     0.045 A 
ATOM      9  C   UNL A   1      32.672  22.831  24.346  1.00  0.00     0.128 A 
ATOM     10  C   UNL A   1      35.068  23.171  24.337  1.00  0.00     0.032 A 
ATOM     11  Cl  UNL A   1      36.908  21.282  24.722  1.00  0.00    -0.084 Cl
ATOM     12  C   UNL A   1      33.771  23.667  24.187  1.00  0.00     0.019 A 
ATOM     13  O   UNL A   1      31.383  23.287  24.223  1.00  0.00    -0.475 OA
ATOM     14  C   UNL A   1      33.549  25.042  23.799  1.00  0.00     0.027 C 
ATOM     15  C   UNL A   1      31.175  24.724  24.466  1.00  0.00     0.316 C 
BRANCH   6  16
ATOM     16  C   UNL A   1      34.354  19.424  24.640  1.00  0.00     0.037 C 
BRANCH  16  17
ATOM     17  C   UNL A   1      33.030  18.656  24.809  1.00  0.00     0.008 C 
BRANCH  17  18
ATOM     18  C   UNL A   1      32.708  17.635  23.695  1.00  0.00    -0.017 C 
ATOM     19  C   UNL A   1      32.371  18.309  22.364  1.00  0.00     0.007 C 
ATOM     20  C   UNL A   1      33.888  16.679  23.512  1.00  0.00     0.007 C 
ENDBRANCH  17  18
ENDBRANCH  16  17
ENDBRANCH   6  16
BRANCH  15  21
ATOM     21  C   UNL A   1      30.692  24.913  25.915  1.00  0.00     0.430 C 
ATOM     22  F   UNL A   1      31.675  25.315  26.746  1.00  0.00    -0.167 F 
ATOM     23  F   UNL A   1      29.665  25.781  26.027  1.00  0.00    -0.167 F 
ATOM     24  F   UNL A   1      30.222  23.728  26.397  1.00  0.00    -0.167 F 
ENDBRANCH  15  21
ENDBRANCH   3   5
ENDBRANCH   2   3
ENDBRANCH   1   2
BRANCH   1  25
ATOM     25  C   UNL A   1      31.581  29.968  25.716  1.00  0.00     0.275 C 
BRANCH  25  26
ATOM     26  O   UNL A   1      32.977  30.240  25.955  1.00  0.00    -0.458 OA
BRANCH  26  27
ATOM     27  C   UNL A   1      33.234  31.218  26.854  1.00  0.00     0.338 C 
ATOM     28  O   UNL A   1      32.463  32.083  27.237  1.00  0.00    -0.246 OA
BRANCH  27  29
ATOM     29  C   UNL A   1      34.547  30.981  27.471  1.00  0.00     0.060 A 
ATOM     30  C   UNL A   1      35.443  32.000  27.777  1.00  0.00     0.016 A 
ATOM     31  C   UNL A   1      34.833  29.673  27.844  1.00  0.00     0.016 A 
ATOM     32  C   UNL A   1      36.641  31.676  28.436  1.00  0.00     0.010 A 
ATOM     33  C   UNL A   1      35.980  29.359  28.562  1.00  0.00     0.010 A 
ATOM     34  C   UNL A   1      36.918  30.353  28.847  1.00  0.00    -0.014 A 
BRANCH  34  35
ATOM     35  C   UNL A   1      38.158  30.000  29.598  1.00  0.00     0.031 A 
ATOM     36  C   UNL A   1      38.417  30.547  30.983  1.00  0.00     0.074 A 
ATOM     37  C   UNL A   1      39.098  29.241  29.000  1.00  0.00     0.049 A 
ATOM     38  N   UNL A   1      39.429  30.322  31.781  1.00  0.00    -0.248 NA
ATOM     39  C   UNL A   1      37.435  31.498  31.528  1.00  0.00     0.031 C 
ATOM     40  C   UNL A   1      39.028  28.757  27.622  1.00  0.00     0.029 A 
ATOM     41  N   UNL A   1      40.289  28.739  29.467  1.00  0.00    -0.354 N 
ATOM     42  C   UNL A   1      39.214  31.109  32.910  1.00  0.00     0.074 A 
ATOM     43  C   UNL A   1      38.015  31.876  32.659  1.00  0.00     0.031 C 
ATOM     44  C   UNL A   1      40.090  27.976  27.375  1.00  0.00     0.029 A 
ATOM     45  C   UNL A   1      40.939  27.930  28.564  1.00  0.00     0.049 A 
ATOM     46  H   UNL A   1      40.643  28.939  30.365  1.00  0.00     0.167 HD
ATOM     47  C   UNL A   1      39.923  31.156  34.063  1.00  0.00     0.034 A 
ATOM     48  C   UNL A   1      42.077  27.212  28.681  1.00  0.00     0.034 A 
ATOM     49  C   UNL A   1      41.090  30.349  34.315  1.00  0.00     0.049 A 
ATOM     50  C   UNL A   1      42.807  27.212  30.001  1.00  0.00     0.074 A 
ATOM     51  C   UNL A   1      41.825  30.252  35.483  1.00  0.00     0.029 A 
ATOM     52  N   UNL A   1      41.682  29.492  33.398  1.00  0.00    -0.354 N 
ATOM     53  N   UNL A   1      42.514  27.860  31.104  1.00  0.00    -0.248 NA
ATOM     54  C   UNL A   1      44.008  26.371  30.105  1.00  0.00     0.031 C 
ATOM     55  C   UNL A   1      42.889  29.378  35.258  1.00  0.00     0.029 A 
ATOM     56  C   UNL A   1      42.779  28.874  33.972  1.00  0.00     0.049 A 
ATOM     57  H   UNL A   1      41.367  29.347  32.477  1.00  0.00     0.167 HD
ATOM     58  C   UNL A   1      43.477  27.487  32.038  1.00  0.00     0.074 A 
ATOM     59  C   UNL A   1      44.346  26.535  31.378  1.00  0.00     0.031 C 
ATOM     60  C   UNL A   1      43.628  27.904  33.320  1.00  0.00     0.034 A 
BRANCH  47  61
ATOM     61  C   UNL A   1      39.441  32.056  35.181  1.00  0.00     0.023 A 
ATOM     62  C   UNL A   1      39.973  33.351  35.335  1.00  0.00     0.031 A 
ATOM     63  C   UNL A   1      38.563  31.580  36.172  1.00  0.00     0.131 A 
ATOM     64  C   UNL A   1      39.643  34.110  36.467  1.00  0.00     0.055 A 
ATOM     65  C   UNL A   1      38.199  32.358  37.271  1.00  0.00     0.041 A 
ATOM     66  F   UNL A   1      38.036  30.347  36.082  1.00  0.00    -0.206 F 
ATOM     67  C   UNL A   1      38.752  33.625  37.429  1.00  0.00     0.022 A 
BRANCH  64  68
ATOM     68  S   UNL A   1      40.410  35.725  36.777  1.00  0.00     0.124 S 
ATOM     69  O   UNL A   1      39.642  36.597  35.891  1.00  0.00    -0.237 OA
ATOM     70  O   UNL A   1      40.160  35.912  38.204  1.00  0.00    -0.237 OA
ATOM     71  O   UNL A   1      41.806  35.531  36.401  1.00  0.00    -0.744 OA
ENDBRANCH  64  68
ENDBRANCH  47  61
BRANCH  48  72
ATOM     72  C   UNL A   1      42.505  26.346  27.541  1.00  0.00     0.023 A 
ATOM     73  C   UNL A   1      41.998  25.043  27.383  1.00  0.00     0.031 A 
ATOM     74  C   UNL A   1      43.527  26.767  26.673  1.00  0.00     0.131 A 
ATOM     75  C   UNL A   1      42.565  24.188  26.428  1.00  0.00     0.055 A 
ATOM     76  C   UNL A   1      44.038  25.936  25.674  1.00  0.00     0.041 A 
ATOM     77  F   UNL A   1      44.055  27.995  26.796  1.00  0.00    -0.206 F 
ATOM     78  C   UNL A   1      43.569  24.631  25.561  1.00  0.00     0.022 A 
BRANCH  75  79
ATOM     79  S   UNL A   1      42.123  22.428  26.373  1.00  0.00     0.124 S 
ATOM     80  O   UNL A   1      40.665  22.481  26.331  1.00  0.00    -0.237 OA
ATOM     81  O   UNL A   1      42.775  21.996  25.139  1.00  0.00    -0.237 OA
ATOM     82  O   UNL A   1      42.701  21.890  27.600  1.00  0.00    -0.744 OA
ENDBRANCH  75  79
ENDBRANCH  48  72
BRANCH  60  83
ATOM     83  C   UNL A   1      44.766  27.343  34.140  1.00  0.00     0.023 A 
ATOM     84  C   UNL A   1      44.549  26.223  34.966  1.00  0.00     0.031 A 
ATOM     85  C   UNL A   1      45.996  28.015  34.241  1.00  0.00     0.131 A 
ATOM     86  C   UNL A   1      45.528  25.837  35.890  1.00  0.00     0.055 A 
ATOM     87  C   UNL A   1      46.988  27.597  35.129  1.00  0.00     0.041 A 
ATOM     88  F   UNL A   1      46.245  29.096  33.485  1.00  0.00    -0.206 F 
ATOM     89  C   UNL A   1      46.749  26.514  35.971  1.00  0.00     0.022 A 
BRANCH  86  90
ATOM     90  S   UNL A   1      45.215  24.512  37.089  1.00  0.00     0.124 S 
ATOM     91  O   UNL A   1      46.454  24.505  37.862  1.00  0.00    -0.237 OA
ATOM     92  O   UNL A   1      44.040  25.011  37.800  1.00  0.00    -0.237 OA
ATOM     93  O   UNL A   1      44.992  23.331  36.261  1.00  0.00    -0.744 OA
ENDBRANCH  86  90
ENDBRANCH  60  83
ENDBRANCH  34  35
ENDBRANCH  27  29
ENDBRANCH  26  27
ENDBRANCH  25  26
ENDBRANCH   1  25
TORSDOF 18
ENDMDL
MODEL 3
REMARK VINA RESULT:     -12.2      4.682     10.111
REMARK SMILES CC(C)CCc1cc2c(cc1Cl)C=C(C(=O)OCCOC(=O)c1ccc(-c3c4nc(c(-c5cc(S(=O)(=O)[O-])ccc5F)c5ccc([nH]5)c(-c5cc(S(=O)(=O)[O-])ccc5F)c5nc(c(-c6cc(S(=O)(=O)[O-])ccc6F)c6ccc3[nH]6)C=C5)C=C4)cc1)[C@H](C(F)(F)F)O2
REMARK SMILES IDX 18 1 17 2 15 3 16 4 14 5 6 6 7 7 11 8 8 9 10 10 12 11 9 12
REMARK SMILES IDX 91 13 13 14 86 15 5 16 4 17 2 18 1 19 3 20 87 21 88 22 89 23
REMARK SMILES IDX 90 24 19 25 20 26 21 27 22 28 23 29 24 30 85 31 25 32 84 33
REMARK SMILES IDX 26 34 27 35 28 36 78 37 29 38 83 39 77 40 79 41 30 42 82 43
REMARK SMILES IDX 76 44 75 45 31 47 63 48 43 49 62 50 44 51 47 52 61 53 80 54
REMARK SMILES IDX 45 55 46 56 60 58 81 59 48 60 32 61 33 62 41 63 34 64 40 65
REMARK SMILES IDX 42 66 39 67 35 68 36 69 37 70 38 71 64 72 65 73 73 74 66 75
REMARK SMILES IDX 72 76 74 77 71 78 67 79 68 80 69 81 70 82 49 83 50 84 58 85
REMARK SMILES IDX 51 86 57 87 59 88 56 89 52 90 53 91 54 92 55 93
REMARK H PARENT 79 46 47 57
REMARK Flexibility Score: inf
ROOT
ATOM      1  C   UNL A   1      31.610  29.352  24.616  1.00  0.00     0.275 C 
ENDROOT
BRANCH   1   2
ATOM      2  O   UNL A   1      32.985  28.929  24.739  1.00  0.00    -0.459 OA
BRANCH   2   3
ATOM      3  C   UNL A   1      33.554  28.407  23.630  1.00  0.00     0.338 C 
ATOM      4  O   UNL A   1      34.079  29.045  22.737  1.00  0.00    -0.246 OA
BRANCH   3   5
ATOM      5  C   UNL A   1      33.548  26.929  23.682  1.00  0.00     0.087 C 
ATOM      6  C   UNL A   1      33.933  22.178  25.290  1.00  0.00    -0.026 A 
ATOM      7  C   UNL A   1      34.012  22.796  24.022  1.00  0.00     0.052 A 
ATOM      8  C   UNL A   1      33.612  22.973  26.404  1.00  0.00     0.045 A 
ATOM      9  C   UNL A   1      33.879  24.177  23.889  1.00  0.00     0.128 A 
ATOM     10  C   UNL A   1      33.500  24.356  26.272  1.00  0.00     0.032 A 
ATOM     11  Cl  UNL A   1      33.384  22.319  27.986  1.00  0.00    -0.084 Cl
ATOM     12  C   UNL A   1      33.679  24.954  25.023  1.00  0.00     0.019 A 
ATOM     13  O   UNL A   1      34.042  24.729  22.643  1.00  0.00    -0.475 OA
ATOM     14  C   UNL A   1      33.727  26.394  24.897  1.00  0.00     0.027 C 
ATOM     15  C   UNL A   1      33.467  26.070  22.445  1.00  0.00     0.316 C 
BRANCH   6  16
ATOM     16  C   UNL A   1      34.259  20.705  25.415  1.00  0.00     0.037 C 
BRANCH  16  17
ATOM     17  C   UNL A   1      35.475  20.272  24.576  1.00  0.00     0.008 C 
BRANCH  17  18
ATOM     18  C   UNL A   1      36.854  20.659  25.156  1.00  0.00    -0.017 C 
ATOM     19  C   UNL A   1      37.892  19.550  24.985  1.00  0.00     0.007 C 
ATOM     20  C   UNL A   1      37.350  21.946  24.494  1.00  0.00     0.007 C 
ENDBRANCH  17  18
ENDBRANCH  16  17
ENDBRANCH   6  16
BRANCH  15  21
ATOM     21  C   UNL A   1      32.090  25.920  21.774  1.00  0.00     0.430 C 
ATOM     22  F   UNL A   1      31.427  27.090  21.670  1.00  0.00    -0.167 F 
ATOM     23  F   UNL A   1      32.152  25.362  20.546  1.00  0.00    -0.167 F 
ATOM     24  F   UNL A   1      31.310  25.084  22.515  1.00  0.00    -0.167 F 
ENDBRANCH  15  21
ENDBRANCH   3   5
ENDBRANCH   2   3
ENDBRANCH   1   2
BRANCH   1  25
ATOM     25  C   UNL A   1      31.302  30.508  25.575  1.00  0.00     0.275 C 
BRANCH  25  26
ATOM     26  O   UNL A   1      32.156  30.471  26.736  1.00  0.00    -0.458 OA
BRANCH  26  27
ATOM     27  C   UNL A   1      32.745  31.644  27.062  1.00  0.00     0.338 C 
ATOM     28  O   UNL A   1      32.234  32.752  27.044  1.00  0.00    -0.246 OA
BRANCH  27  29
ATOM     29  C   UNL A   1      34.069  31.380  27.645  1.00  0.00     0.060 A 
ATOM     30  C   UNL A   1      34.973  32.384  27.976  1.00  0.00     0.016 A 
ATOM     31  C   UNL A   1      34.359  30.057  27.958  1.00  0.00     0.016 A 
ATOM     32  C   UNL A   1      36.182  32.031  28.598  1.00  0.00     0.010 A 
ATOM     33  C   UNL A   1      35.518  29.712  28.641  1.00  0.00     0.010 A 
ATOM     34  C   UNL A   1      36.464  30.692  28.949  1.00  0.00    -0.014 A 
BRANCH  34  35
ATOM     35  C   UNL A   1      37.717  30.307  29.661  1.00  0.00     0.031 A 
ATOM     36  C   UNL A   1      38.003  30.796  31.062  1.00  0.00     0.074 A 
ATOM     37  C   UNL A   1      38.644  29.571  29.016  1.00  0.00     0.049 A 
ATOM     38  N   UNL A   1      39.030  30.536  31.832  1.00  0.00    -0.248 NA
ATOM     39  C   UNL A   1      37.034  31.725  31.665  1.00  0.00     0.031 C 
ATOM     40  C   UNL A   1      38.546  29.143  27.621  1.00  0.00     0.029 A 
ATOM     41  N   UNL A   1      39.841  29.048  29.440  1.00  0.00    -0.354 N 
ATOM     42  C   UNL A   1      38.837  31.277  32.995  1.00  0.00     0.074 A 
ATOM     43  C   UNL A   1      37.636  32.056  32.799  1.00  0.00     0.031 C 
ATOM     44  C   UNL A   1      39.602  28.372  27.322  1.00  0.00     0.029 A 
ATOM     45  C   UNL A   1      40.473  28.275  28.492  1.00  0.00     0.049 A 
ATOM     46  H   UNL A   1      40.213  29.210  30.337  1.00  0.00     0.167 HD
ATOM     47  C   UNL A   1      39.568  31.276  34.136  1.00  0.00     0.034 A 
ATOM     48  C   UNL A   1      41.611  27.551  28.558  1.00  0.00     0.034 A 
ATOM     49  C   UNL A   1      40.737  30.457  34.333  1.00  0.00     0.049 A 
ATOM     50  C   UNL A   1      42.366  27.496  29.863  1.00  0.00     0.074 A 
ATOM     51  C   UNL A   1      41.494  30.311  35.482  1.00  0.00     0.029 A 
ATOM     52  N   UNL A   1      41.310  29.638  33.371  1.00  0.00    -0.354 N 
ATOM     53  N   UNL A   1      42.095  28.099  30.997  1.00  0.00    -0.248 NA
ATOM     54  C   UNL A   1      43.566  26.650  29.910  1.00  0.00     0.031 C 
ATOM     55  C   UNL A   1      42.552  29.446  35.201  1.00  0.00     0.029 A 
ATOM     56  C   UNL A   1      42.417  28.995  33.898  1.00  0.00     0.049 A 
ATOM     57  H   UNL A   1      40.978  29.531  32.451  1.00  0.00     0.167 HD
ATOM     58  C   UNL A   1      43.074  27.687  31.896  1.00  0.00     0.074 A 
ATOM     59  C   UNL A   1      43.928  26.761  31.182  1.00  0.00     0.031 C 
ATOM     60  C   UNL A   1      43.250  28.050  33.191  1.00  0.00     0.034 A 
BRANCH  47  61
ATOM     61  C   UNL A   1      39.110  32.130  35.299  1.00  0.00     0.023 A 
ATOM     62  C   UNL A   1      39.616  33.433  35.472  1.00  0.00     0.031 A 
ATOM     63  C   UNL A   1      38.282  31.604  36.308  1.00  0.00     0.131 A 
ATOM     64  C   UNL A   1      39.313  34.150  36.638  1.00  0.00     0.055 A 
ATOM     65  C   UNL A   1      37.944  32.340  37.444  1.00  0.00     0.041 A 
ATOM     66  F   UNL A   1      37.782  30.361  36.201  1.00  0.00    -0.206 F 
ATOM     67  C   UNL A   1      38.472  33.615  37.618  1.00  0.00     0.022 A 
BRANCH  64  68
ATOM     68  S   UNL A   1      40.053  35.774  36.967  1.00  0.00     0.124 S 
ATOM     69  O   UNL A   1      39.372  36.170  38.199  1.00  0.00    -0.237 OA
ATOM     70  O   UNL A   1      41.467  35.440  37.117  1.00  0.00    -0.237 OA
ATOM     71  O   UNL A   1      39.711  36.562  35.788  1.00  0.00    -0.744 OA
ENDBRANCH  64  68
ENDBRANCH  47  61
BRANCH  48  72
ATOM     72  C   UNL A   1      42.015  26.732  27.376  1.00  0.00     0.023 A 
ATOM     73  C   UNL A   1      41.664  25.373  27.273  1.00  0.00     0.031 A 
ATOM     74  C   UNL A   1      42.873  27.268  26.399  1.00  0.00     0.131 A 
ATOM     75  C   UNL A   1      42.224  24.584  26.260  1.00  0.00     0.055 A 
ATOM     76  C   UNL A   1      43.370  26.495  25.348  1.00  0.00     0.041 A 
ATOM     77  F   UNL A   1      43.252  28.553  26.464  1.00  0.00    -0.206 F 
ATOM     78  C   UNL A   1      43.061  25.140  25.287  1.00  0.00     0.022 A 
BRANCH  75  79
ATOM     79  S   UNL A   1      42.005  22.783  26.252  1.00  0.00     0.124 S 
ATOM     80  O   UNL A   1      42.662  22.390  27.495  1.00  0.00    -0.237 OA
ATOM     81  O   UNL A   1      40.548  22.660  26.242  1.00  0.00    -0.237 OA
ATOM     82  O   UNL A   1      42.670  22.361  25.024  1.00  0.00    -0.744 OA
ENDBRANCH  75  79
ENDBRANCH  48  72
BRANCH  60  83
ATOM     83  C   UNL A   1      44.402  27.455  33.967  1.00  0.00     0.023 A 
ATOM     84  C   UNL A   1      44.180  26.350  34.812  1.00  0.00     0.031 A 
ATOM     85  C   UNL A   1      45.659  28.082  34.007  1.00  0.00     0.131 A 
ATOM     86  C   UNL A   1      45.185  25.936  35.696  1.00  0.00     0.055 A 
ATOM     87  C   UNL A   1      46.673  27.635  34.855  1.00  0.00     0.041 A 
ATOM     88  F   UNL A   1      45.914  29.147  33.230  1.00  0.00    -0.206 F 
ATOM     89  C   UNL A   1      46.432  26.568  35.717  1.00  0.00     0.022 A 
BRANCH  86  90
ATOM     90  S   UNL A   1      44.877  24.632  36.920  1.00  0.00     0.124 S 
ATOM     91  O   UNL A   1      44.151  25.359  37.958  1.00  0.00    -0.237 OA
ATOM     92  O   UNL A   1      44.079  23.676  36.156  1.00  0.00    -0.237 OA
ATOM     93  O   UNL A   1      46.211  24.177  37.296  1.00  0.00    -0.744 OA
ENDBRANCH  86  90
ENDBRANCH  60  83
ENDBRANCH  34  35
ENDBRANCH  27  29
ENDBRANCH  26  27
ENDBRANCH  25  26
ENDBRANCH   1  25
TORSDOF 18
ENDMDL
