MODEL 1
REMARK VINA RESULT:     -10.3      0.000      0.000
REMARK SMILES Cc1ccc(CC(=O)OCCOC(=O)c2ccc(-c3c4nc(c(-c5cc(S(=O)(=O)[O-])ccc5F)c5ccc([nH]5)c(-c5cc(S(=O)(=O)[O-])ccc5F)c5nc(c(-c6cc(S(=O)(=O)[O-])ccc6F)c6ccc3[nH]6)C=C5)C=C4)cc2)n1-c1ccc(F)cc1
REMARK SMILES IDX 11 1 10 2 9 3 7 4 8 5 6 6 5 7 1 8 2 9 3 10 78 11 4 12 79 13
REMARK SMILES IDX 80 14 85 15 81 16 84 17 82 18 83 19 12 20 13 21 14 22 15 23
REMARK SMILES IDX 16 24 77 25 17 26 76 27 18 28 19 29 20 30 70 31 21 32 75 33
REMARK SMILES IDX 69 34 71 35 22 36 74 37 68 38 67 39 23 41 55 42 35 43 54 44
REMARK SMILES IDX 36 45 39 46 53 47 72 48 37 49 38 50 52 52 73 53 40 54 24 55
REMARK SMILES IDX 25 56 33 57 26 58 32 59 34 60 31 61 27 62 28 63 29 64 30 65
REMARK SMILES IDX 56 66 57 67 65 68 58 69 64 70 66 71 63 72 59 73 60 74 61 75
REMARK SMILES IDX 62 76 41 77 42 78 50 79 43 80 49 81 51 82 48 83 44 84 45 85
REMARK SMILES IDX 46 86 47 87
REMARK H PARENT 71 40 39 51
REMARK Flexibility Score: inf
ROOT
ATOM      1  C   UNL A   1      47.419  25.505  28.782  1.00  0.00     0.275 C 
ENDROOT
BRANCH   1   2
ATOM      2  C   UNL A   1      46.768  24.430  27.871  1.00  0.00     0.274 C 
BRANCH   2   3
ATOM      3  O   UNL A   1      45.707  25.030  27.111  1.00  0.00    -0.462 OA
BRANCH   3   4
ATOM      4  C   UNL A   1      45.820  25.052  25.767  1.00  0.00     0.311 C 
ATOM      5  O   UNL A   1      46.859  25.310  25.162  1.00  0.00    -0.252 OA
BRANCH   4   6
ATOM      6  C   UNL A   1      44.543  24.683  25.036  1.00  0.00     0.177 C 
BRANCH   6   7
ATOM      7  C   UNL A   1      43.280  25.419  25.428  1.00  0.00     0.034 A 
ATOM      8  C   UNL A   1      40.023  25.673  27.165  1.00  0.00     0.065 C 
ATOM      9  C   UNL A   1      41.243  25.835  26.323  1.00  0.00     0.020 A 
ATOM     10  C   UNL A   1      41.673  26.990  25.703  1.00  0.00     0.023 A 
ATOM     11  N   UNL A   1      42.216  24.855  26.137  1.00  0.00    -0.318 N 
ATOM     12  C   UNL A   1      42.955  26.745  25.187  1.00  0.00     0.024 A 
BRANCH  11  13
ATOM     13  C   UNL A   1      42.133  23.512  26.600  1.00  0.00     0.046 A 
ATOM     14  C   UNL A   1      42.505  23.199  27.914  1.00  0.00     0.029 A 
ATOM     15  C   UNL A   1      41.720  22.499  25.723  1.00  0.00     0.029 A 
ATOM     16  C   UNL A   1      42.512  21.868  28.335  1.00  0.00     0.041 A 
ATOM     17  C   UNL A   1      41.733  21.170  26.150  1.00  0.00     0.041 A 
ATOM     18  C   UNL A   1      42.138  20.867  27.447  1.00  0.00     0.123 A 
ATOM     19  F   UNL A   1      42.173  19.588  27.843  1.00  0.00    -0.207 F 
ENDBRANCH  11  13
ENDBRANCH   6   7
ENDBRANCH   4   6
ENDBRANCH   3   4
ENDBRANCH   2   3
ENDBRANCH   1   2
BRANCH   1  20
ATOM     20  O   UNL A   1      48.417  26.494  28.270  1.00  0.00    -0.458 OA
BRANCH  20  21
ATOM     21  C   UNL A   1      48.193  27.867  28.201  1.00  0.00     0.338 C 
ATOM     22  O   UNL A   1      49.060  28.631  27.783  1.00  0.00    -0.246 OA
BRANCH  21  23
ATOM     23  C   UNL A   1      46.769  28.355  28.706  1.00  0.00     0.060 A 
ATOM     24  C   UNL A   1      46.380  29.117  29.855  1.00  0.00     0.016 A 
ATOM     25  C   UNL A   1      45.663  28.017  27.999  1.00  0.00     0.016 A 
ATOM     26  C   UNL A   1      44.912  29.590  30.248  1.00  0.00     0.010 A 
ATOM     27  C   UNL A   1      44.330  28.486  28.427  1.00  0.00     0.010 A 
ATOM     28  C   UNL A   1      43.722  29.277  29.543  1.00  0.00    -0.014 A 
BRANCH  28  29
ATOM     29  C   UNL A   1      42.174  30.295  29.322  1.00  0.00     0.031 A 
ATOM     30  C   UNL A   1      41.373  29.185  28.705  1.00  0.00     0.074 A 
ATOM     31  C   UNL A   1      41.243  31.466  29.692  1.00  0.00     0.049 A 
ATOM     32  N   UNL A   1      41.623  28.029  29.271  1.00  0.00    -0.248 NA
ATOM     33  C   UNL A   1      39.975  29.222  28.349  1.00  0.00     0.031 C 
ATOM     34  C   UNL A   1      41.447  32.702  30.523  1.00  0.00     0.029 A 
ATOM     35  N   UNL A   1      39.683  31.764  29.454  1.00  0.00    -0.354 N 
ATOM     36  C   UNL A   1      40.715  28.138  30.279  1.00  0.00     0.074 A 
ATOM     37  C   UNL A   1      39.553  28.463  29.381  1.00  0.00     0.031 C 
ATOM     38  C   UNL A   1      40.334  33.518  30.671  1.00  0.00     0.029 A 
ATOM     39  C   UNL A   1      39.059  33.045  30.017  1.00  0.00     0.049 A 
ATOM     40  H   UNL A   1      39.129  31.126  28.949  1.00  0.00     0.167 HD
ATOM     41  C   UNL A   1      40.899  28.514  31.629  1.00  0.00     0.034 A 
ATOM     42  C   UNL A   1      37.719  33.722  30.242  1.00  0.00     0.034 A 
ATOM     43  C   UNL A   1      39.690  28.213  32.299  1.00  0.00     0.049 A 
ATOM     44  C   UNL A   1      37.396  32.543  31.086  1.00  0.00     0.074 A 
ATOM     45  C   UNL A   1      38.589  27.452  31.991  1.00  0.00     0.029 A 
ATOM     46  N   UNL A   1      39.368  28.908  33.424  1.00  0.00    -0.354 N 
ATOM     47  N   UNL A   1      37.424  32.617  32.381  1.00  0.00    -0.248 NA
ATOM     48  C   UNL A   1      36.746  31.355  30.479  1.00  0.00     0.031 C 
ATOM     49  C   UNL A   1      37.569  28.370  32.313  1.00  0.00     0.029 A 
ATOM     50  C   UNL A   1      38.097  29.329  33.191  1.00  0.00     0.049 A 
ATOM     51  H   UNL A   1      39.925  29.069  34.219  1.00  0.00     0.167 HD
ATOM     52  C   UNL A   1      37.059  31.354  32.739  1.00  0.00     0.074 A 
ATOM     53  C   UNL A   1      36.364  30.773  31.613  1.00  0.00     0.031 C 
ATOM     54  C   UNL A   1      37.834  30.676  33.602  1.00  0.00     0.034 A 
BRANCH  41  55
ATOM     55  C   UNL A   1      42.173  29.034  32.635  1.00  0.00     0.023 A 
ATOM     56  C   UNL A   1      42.580  30.370  33.026  1.00  0.00     0.031 A 
ATOM     57  C   UNL A   1      43.101  28.055  33.055  1.00  0.00     0.131 A 
ATOM     58  C   UNL A   1      43.929  30.660  33.426  1.00  0.00     0.055 A 
ATOM     59  C   UNL A   1      44.326  28.339  33.688  1.00  0.00     0.041 A 
ATOM     60  F   UNL A   1      42.871  26.754  32.832  1.00  0.00    -0.206 F 
ATOM     61  C   UNL A   1      44.784  29.638  33.802  1.00  0.00     0.022 A 
BRANCH  58  62
ATOM     62  S   UNL A   1      44.722  32.328  33.183  1.00  0.00     0.124 S 
ATOM     63  O   UNL A   1      44.608  32.548  31.766  1.00  0.00    -0.237 OA
ATOM     64  O   UNL A   1      43.912  33.210  34.045  1.00  0.00    -0.237 OA
ATOM     65  O   UNL A   1      46.097  32.121  33.651  1.00  0.00    -0.744 OA
ENDBRANCH  58  62
ENDBRANCH  41  55
BRANCH  42  66
ATOM     66  C   UNL A   1      35.985  34.291  30.290  1.00  0.00     0.023 A 
ATOM     67  C   UNL A   1      35.288  34.986  31.363  1.00  0.00     0.031 A 
ATOM     68  C   UNL A   1      34.926  33.960  29.316  1.00  0.00     0.131 A 
ATOM     69  C   UNL A   1      33.828  35.367  31.295  1.00  0.00     0.055 A 
ATOM     70  C   UNL A   1      33.597  34.444  29.180  1.00  0.00     0.041 A 
ATOM     71  F   UNL A   1      34.963  32.896  28.525  1.00  0.00    -0.206 F 
ATOM     72  C   UNL A   1      33.032  35.162  30.174  1.00  0.00     0.022 A 
BRANCH  69  73
ATOM     73  S   UNL A   1      32.785  36.082  32.660  1.00  0.00     0.124 S 
ATOM     74  O   UNL A   1      33.645  35.933  33.830  1.00  0.00    -0.237 OA
ATOM     75  O   UNL A   1      32.525  37.442  32.209  1.00  0.00    -0.237 OA
ATOM     76  O   UNL A   1      31.607  35.208  32.673  1.00  0.00    -0.744 OA
ENDBRANCH  69  73
ENDBRANCH  42  66
BRANCH  54  77
ATOM     77  C   UNL A   1      38.694  31.593  34.449  1.00  0.00     0.023 A 
ATOM     78  C   UNL A   1      38.200  31.999  35.692  1.00  0.00     0.031 A 
ATOM     79  C   UNL A   1      39.867  32.229  33.989  1.00  0.00     0.131 A 
ATOM     80  C   UNL A   1      38.877  32.972  36.446  1.00  0.00     0.055 A 
ATOM     81  C   UNL A   1      40.541  33.206  34.734  1.00  0.00     0.041 A 
ATOM     82  F   UNL A   1      40.373  31.922  32.789  1.00  0.00    -0.206 F 
ATOM     83  C   UNL A   1      40.041  33.583  35.976  1.00  0.00     0.022 A 
BRANCH  80  84
ATOM     84  S   UNL A   1      38.223  33.368  38.085  1.00  0.00     0.124 S 
ATOM     85  O   UNL A   1      38.940  32.440  38.952  1.00  0.00    -0.237 OA
ATOM     86  O   UNL A   1      38.593  34.776  38.222  1.00  0.00    -0.237 OA
ATOM     87  O   UNL A   1      36.787  33.122  37.955  1.00  0.00    -0.744 OA
ENDBRANCH  80  84
ENDBRANCH  54  77
ENDBRANCH  28  29
ENDBRANCH  21  23
ENDBRANCH  20  21
ENDBRANCH   1  20
TORSDOF 16
ENDMDL
MODEL 2
REMARK VINA RESULT:     -10.0      3.265     12.126
REMARK SMILES Cc1ccc(CC(=O)OCCOC(=O)c2ccc(-c3c4nc(c(-c5cc(S(=O)(=O)[O-])ccc5F)c5ccc([nH]5)c(-c5cc(S(=O)(=O)[O-])ccc5F)c5nc(c(-c6cc(S(=O)(=O)[O-])ccc6F)c6ccc3[nH]6)C=C5)C=C4)cc2)n1-c1ccc(F)cc1
REMARK SMILES IDX 11 1 10 2 9 3 7 4 8 5 6 6 5 7 1 8 2 9 3 10 78 11 4 12 79 13
REMARK SMILES IDX 80 14 85 15 81 16 84 17 82 18 83 19 12 20 13 21 14 22 15 23
REMARK SMILES IDX 16 24 77 25 17 26 76 27 18 28 19 29 20 30 70 31 21 32 75 33
REMARK SMILES IDX 69 34 71 35 22 36 74 37 68 38 67 39 23 41 55 42 35 43 54 44
REMARK SMILES IDX 36 45 39 46 53 47 72 48 37 49 38 50 52 52 73 53 40 54 24 55
REMARK SMILES IDX 25 56 33 57 26 58 32 59 34 60 31 61 27 62 28 63 29 64 30 65
REMARK SMILES IDX 56 66 57 67 65 68 58 69 64 70 66 71 63 72 59 73 60 74 61 75
REMARK SMILES IDX 62 76 41 77 42 78 50 79 43 80 49 81 51 82 48 83 44 84 45 85
REMARK SMILES IDX 46 86 47 87
REMARK H PARENT 71 40 39 51
REMARK Flexibility Score: inf
ROOT
ATOM      1  C   UNL A   1      40.137  34.966  34.849  1.00  0.00     0.275 C 
ENDROOT
BRANCH   1   2
ATOM      2  C   UNL A   1      39.133  34.917  36.032  1.00  0.00     0.274 C 
BRANCH   2   3
ATOM      3  O   UNL A   1      38.741  33.556  36.267  1.00  0.00    -0.462 OA
BRANCH   3   4
ATOM      4  C   UNL A   1      37.467  33.203  35.997  1.00  0.00     0.311 C 
ATOM      5  O   UNL A   1      36.522  33.378  36.763  1.00  0.00    -0.252 OA
BRANCH   4   6
ATOM      6  C   UNL A   1      37.275  32.596  34.620  1.00  0.00     0.177 C 
BRANCH   6   7
ATOM      7  C   UNL A   1      36.191  33.187  33.744  1.00  0.00     0.034 A 
ATOM      8  C   UNL A   1      34.873  34.411  30.511  1.00  0.00     0.065 C 
ATOM      9  C   UNL A   1      35.146  34.051  31.932  1.00  0.00     0.020 A 
ATOM     10  C   UNL A   1      34.233  34.014  32.966  1.00  0.00     0.023 A 
ATOM     11  N   UNL A   1      36.361  33.566  32.410  1.00  0.00    -0.318 N 
ATOM     12  C   UNL A   1      34.869  33.437  34.076  1.00  0.00     0.024 A 
BRANCH  11  13
ATOM     13  C   UNL A   1      37.564  33.470  31.657  1.00  0.00     0.046 A 
ATOM     14  C   UNL A   1      37.819  32.331  30.881  1.00  0.00     0.029 A 
ATOM     15  C   UNL A   1      38.513  34.500  31.729  1.00  0.00     0.029 A 
ATOM     16  C   UNL A   1      39.041  32.200  30.220  1.00  0.00     0.041 A 
ATOM     17  C   UNL A   1      39.734  34.361  31.068  1.00  0.00     0.041 A 
ATOM     18  C   UNL A   1      39.990  33.209  30.328  1.00  0.00     0.123 A 
ATOM     19  F   UNL A   1      41.174  33.069  29.717  1.00  0.00    -0.207 F 
ENDBRANCH  11  13
ENDBRANCH   6   7
ENDBRANCH   4   6
ENDBRANCH   3   4
ENDBRANCH   2   3
ENDBRANCH   1   2
BRANCH   1  20
ATOM     20  O   UNL A   1      41.571  34.567  34.995  1.00  0.00    -0.458 OA
BRANCH  20  21
ATOM     21  C   UNL A   1      41.995  33.294  35.368  1.00  0.00     0.338 C 
ATOM     22  O   UNL A   1      42.206  33.016  36.546  1.00  0.00    -0.246 OA
BRANCH  21  23
ATOM     23  C   UNL A   1      42.193  32.262  34.177  1.00  0.00     0.060 A 
ATOM     24  C   UNL A   1      43.362  31.869  33.448  1.00  0.00     0.016 A 
ATOM     25  C   UNL A   1      41.116  31.608  33.681  1.00  0.00     0.016 A 
ATOM     26  C   UNL A   1      43.456  30.784  32.287  1.00  0.00     0.010 A 
ATOM     27  C   UNL A   1      41.276  30.618  32.597  1.00  0.00     0.010 A 
ATOM     28  C   UNL A   1      42.367  30.061  31.737  1.00  0.00    -0.014 A 
BRANCH  28  29
ATOM     29  C   UNL A   1      42.321  28.323  31.060  1.00  0.00     0.031 A 
ATOM     30  C   UNL A   1      40.950  28.450  30.464  1.00  0.00     0.074 A 
ATOM     31  C   UNL A   1      42.998  27.038  30.543  1.00  0.00     0.049 A 
ATOM     32  N   UNL A   1      40.755  29.633  29.933  1.00  0.00    -0.248 NA
ATOM     33  C   UNL A   1      40.265  27.472  29.653  1.00  0.00     0.031 C 
ATOM     34  C   UNL A   1      44.413  26.537  30.615  1.00  0.00     0.029 A 
ATOM     35  N   UNL A   1      42.505  25.813  29.629  1.00  0.00    -0.354 N 
ATOM     36  C   UNL A   1      41.273  29.352  28.706  1.00  0.00     0.074 A 
ATOM     37  C   UNL A   1      40.438  28.122  28.483  1.00  0.00     0.031 C 
ATOM     38  C   UNL A   1      44.656  25.328  29.976  1.00  0.00     0.029 A 
ATOM     39  C   UNL A   1      43.487  24.696  29.262  1.00  0.00     0.049 A 
ATOM     40  H   UNL A   1      41.576  25.780  29.306  1.00  0.00     0.167 HD
ATOM     41  C   UNL A   1      42.551  29.640  28.174  1.00  0.00     0.034 A 
ATOM     42  C   UNL A   1      43.632  23.480  28.365  1.00  0.00     0.034 A 
ATOM     43  C   UNL A   1      42.480  29.367  26.788  1.00  0.00     0.049 A 
ATOM     44  C   UNL A   1      43.446  24.433  27.240  1.00  0.00     0.074 A 
ATOM     45  C   UNL A   1      41.449  29.164  25.903  1.00  0.00     0.029 A 
ATOM     46  N   UNL A   1      43.622  29.046  26.120  1.00  0.00    -0.354 N 
ATOM     47  N   UNL A   1      44.453  24.831  26.524  1.00  0.00    -0.248 NA
ATOM     48  C   UNL A   1      42.083  24.709  26.723  1.00  0.00     0.031 C 
ATOM     49  C   UNL A   1      41.911  27.996  25.265  1.00  0.00     0.029 A 
ATOM     50  C   UNL A   1      43.298  27.905  25.457  1.00  0.00     0.049 A 
ATOM     51  H   UNL A   1      44.481  29.527  26.118  1.00  0.00     0.167 HD
ATOM     52  C   UNL A   1      43.845  25.656  25.627  1.00  0.00     0.074 A 
ATOM     53  C   UNL A   1      42.449  25.289  25.581  1.00  0.00     0.031 C 
ATOM     54  C   UNL A   1      44.322  26.903  25.467  1.00  0.00     0.034 A 
BRANCH  41  55
ATOM     55  C   UNL A   1      44.007  30.356  28.697  1.00  0.00     0.023 A 
ATOM     56  C   UNL A   1      45.174  29.769  29.324  1.00  0.00     0.031 A 
ATOM     57  C   UNL A   1      44.073  31.768  28.676  1.00  0.00     0.131 A 
ATOM     58  C   UNL A   1      46.056  30.545  30.151  1.00  0.00     0.055 A 
ATOM     59  C   UNL A   1      45.093  32.526  29.280  1.00  0.00     0.041 A 
ATOM     60  F   UNL A   1      43.109  32.489  28.088  1.00  0.00    -0.206 F 
ATOM     61  C   UNL A   1      46.042  31.927  30.088  1.00  0.00     0.022 A 
BRANCH  58  62
ATOM     62  S   UNL A   1      47.034  29.811  31.557  1.00  0.00     0.124 S 
ATOM     63  O   UNL A   1      46.227  28.699  31.981  1.00  0.00    -0.237 OA
ATOM     64  O   UNL A   1      48.324  29.475  30.924  1.00  0.00    -0.237 OA
ATOM     65  O   UNL A   1      47.106  30.908  32.529  1.00  0.00    -0.744 OA
ENDBRANCH  58  62
ENDBRANCH  41  55
BRANCH  42  66
ATOM     66  C   UNL A   1      43.456  22.050  27.244  1.00  0.00     0.023 A 
ATOM     67  C   UNL A   1      44.454  21.462  26.360  1.00  0.00     0.031 A 
ATOM     68  C   UNL A   1      42.199  21.361  26.890  1.00  0.00     0.131 A 
ATOM     69  C   UNL A   1      44.167  20.296  25.444  1.00  0.00     0.055 A 
ATOM     70  C   UNL A   1      41.960  20.175  26.145  1.00  0.00     0.041 A 
ATOM     71  F   UNL A   1      41.002  21.922  26.992  1.00  0.00    -0.206 F 
ATOM     72  C   UNL A   1      42.952  19.623  25.414  1.00  0.00     0.022 A 
BRANCH  69  73
ATOM     73  S   UNL A   1      45.292  19.582  24.144  1.00  0.00     0.124 S 
ATOM     74  O   UNL A   1      46.409  20.520  24.139  1.00  0.00    -0.237 OA
ATOM     75  O   UNL A   1      45.566  18.239  24.636  1.00  0.00    -0.237 OA
ATOM     76  O   UNL A   1      44.469  19.630  22.929  1.00  0.00    -0.744 OA
ENDBRANCH  69  73
ENDBRANCH  42  66
BRANCH  54  77
ATOM     77  C   UNL A   1      45.767  27.029  25.909  1.00  0.00     0.023 A 
ATOM     78  C   UNL A   1      46.768  26.852  24.949  1.00  0.00     0.031 A 
ATOM     79  C   UNL A   1      46.180  27.111  27.256  1.00  0.00     0.131 A 
ATOM     80  C   UNL A   1      48.119  26.798  25.329  1.00  0.00     0.055 A 
ATOM     81  C   UNL A   1      47.526  27.050  27.640  1.00  0.00     0.041 A 
ATOM     82  F   UNL A   1      45.273  27.238  28.232  1.00  0.00    -0.206 F 
ATOM     83  C   UNL A   1      48.508  26.890  26.667  1.00  0.00     0.022 A 
BRANCH  80  84
ATOM     84  S   UNL A   1      49.355  26.664  24.015  1.00  0.00     0.124 S 
ATOM     85  O   UNL A   1      50.480  26.033  24.695  1.00  0.00    -0.237 OA
ATOM     86  O   UNL A   1      48.660  25.832  23.035  1.00  0.00    -0.237 OA
ATOM     87  O   UNL A   1      49.571  28.049  23.599  1.00  0.00    -0.744 OA
ENDBRANCH  80  84
ENDBRANCH  54  77
ENDBRANCH  28  29
ENDBRANCH  21  23
ENDBRANCH  20  21
ENDBRANCH   1  20
TORSDOF 16
ENDMDL
MODEL 3
REMARK VINA RESULT:      -9.9      3.401     11.967
REMARK SMILES Cc1ccc(CC(=O)OCCOC(=O)c2ccc(-c3c4nc(c(-c5cc(S(=O)(=O)[O-])ccc5F)c5ccc([nH]5)c(-c5cc(S(=O)(=O)[O-])ccc5F)c5nc(c(-c6cc(S(=O)(=O)[O-])ccc6F)c6ccc3[nH]6)C=C5)C=C4)cc2)n1-c1ccc(F)cc1
REMARK SMILES IDX 11 1 10 2 9 3 7 4 8 5 6 6 5 7 1 8 2 9 3 10 78 11 4 12 79 13
REMARK SMILES IDX 80 14 85 15 81 16 84 17 82 18 83 19 12 20 13 21 14 22 15 23
REMARK SMILES IDX 16 24 77 25 17 26 76 27 18 28 19 29 20 30 70 31 21 32 75 33
REMARK SMILES IDX 69 34 71 35 22 36 74 37 68 38 67 39 23 41 55 42 35 43 54 44
REMARK SMILES IDX 36 45 39 46 53 47 72 48 37 49 38 50 52 52 73 53 40 54 24 55
REMARK SMILES IDX 25 56 33 57 26 58 32 59 34 60 31 61 27 62 28 63 29 64 30 65
REMARK SMILES IDX 56 66 57 67 65 68 58 69 64 70 66 71 63 72 59 73 60 74 61 75
REMARK SMILES IDX 62 76 41 77 42 78 50 79 43 80 49 81 51 82 48 83 44 84 45 85
REMARK SMILES IDX 46 86 47 87
REMARK H PARENT 71 40 39 51
REMARK Flexibility Score: inf
ROOT
ATOM      1  C   UNL A   1      37.783  32.637  35.875  1.00  0.00     0.275 C 
ENDROOT
BRANCH   1   2
ATOM      2  C   UNL A   1      36.746  33.778  36.057  1.00  0.00     0.274 C 
BRANCH   2   3
ATOM      3  O   UNL A   1      35.626  33.546  35.187  1.00  0.00    -0.462 OA
BRANCH   3   4
ATOM      4  C   UNL A   1      35.646  34.105  33.960  1.00  0.00     0.311 C 
ATOM      5  O   UNL A   1      36.436  34.979  33.608  1.00  0.00    -0.252 OA
BRANCH   4   6
ATOM      6  C   UNL A   1      34.618  33.529  33.005  1.00  0.00     0.177 C 
BRANCH   6   7
ATOM      7  C   UNL A   1      33.992  34.475  32.002  1.00  0.00     0.034 A 
ATOM      8  C   UNL A   1      33.372  35.685  28.562  1.00  0.00     0.065 C 
ATOM      9  C   UNL A   1      33.490  35.470  30.033  1.00  0.00     0.020 A 
ATOM     10  C   UNL A   1      32.782  36.119  31.023  1.00  0.00     0.023 A 
ATOM     11  N   UNL A   1      34.257  34.471  30.630  1.00  0.00    -0.318 N 
ATOM     12  C   UNL A   1      33.060  35.473  32.238  1.00  0.00     0.024 A 
BRANCH  11  13
ATOM     13  C   UNL A   1      35.149  33.598  29.948  1.00  0.00     0.046 A 
ATOM     14  C   UNL A   1      34.703  32.348  29.500  1.00  0.00     0.029 A 
ATOM     15  C   UNL A   1      36.487  33.975  29.768  1.00  0.00     0.029 A 
ATOM     16  C   UNL A   1      35.604  31.456  28.917  1.00  0.00     0.041 A 
ATOM     17  C   UNL A   1      37.384  33.077  29.186  1.00  0.00     0.041 A 
ATOM     18  C   UNL A   1      36.937  31.824  28.776  1.00  0.00     0.123 A 
ATOM     19  F   UNL A   1      37.808  30.957  28.243  1.00  0.00    -0.207 F 
ENDBRANCH  11  13
ENDBRANCH   6   7
ENDBRANCH   4   6
ENDBRANCH   3   4
ENDBRANCH   2   3
ENDBRANCH   1   2
BRANCH   1  20
ATOM     20  O   UNL A   1      39.258  32.882  35.898  1.00  0.00    -0.458 OA
BRANCH  20  21
ATOM     21  C   UNL A   1      40.216  31.879  36.026  1.00  0.00     0.338 C 
ATOM     22  O   UNL A   1      40.727  31.625  37.114  1.00  0.00    -0.246 OA
BRANCH  21  23
ATOM     23  C   UNL A   1      40.595  31.120  34.683  1.00  0.00     0.060 A 
ATOM     24  C   UNL A   1      41.701  31.277  33.786  1.00  0.00     0.016 A 
ATOM     25  C   UNL A   1      39.772  30.152  34.213  1.00  0.00     0.016 A 
ATOM     26  C   UNL A   1      42.009  30.427  32.476  1.00  0.00     0.010 A 
ATOM     27  C   UNL A   1      40.117  29.407  32.986  1.00  0.00     0.010 A 
ATOM     28  C   UNL A   1      41.192  29.397  31.944  1.00  0.00    -0.014 A 
BRANCH  28  29
ATOM     29  C   UNL A   1      41.685  27.847  31.030  1.00  0.00     0.031 A 
ATOM     30  C   UNL A   1      40.408  27.742  30.249  1.00  0.00     0.074 A 
ATOM     31  C   UNL A   1      42.732  26.876  30.449  1.00  0.00     0.049 A 
ATOM     32  N   UNL A   1      39.970  28.917  29.866  1.00  0.00    -0.248 NA
ATOM     33  C   UNL A   1      40.105  26.786  29.210  1.00  0.00     0.031 C 
ATOM     34  C   UNL A   1      44.212  26.727  30.672  1.00  0.00     0.029 A 
ATOM     35  N   UNL A   1      42.691  25.749  29.306  1.00  0.00    -0.354 N 
ATOM     36  C   UNL A   1      40.683  28.991  28.709  1.00  0.00     0.074 A 
ATOM     37  C   UNL A   1      40.234  27.655  28.186  1.00  0.00     0.031 C 
ATOM     38  C   UNL A   1      44.838  25.746  29.915  1.00  0.00     0.029 A 
ATOM     39  C   UNL A   1      43.968  24.986  28.944  1.00  0.00     0.049 A 
ATOM     40  H   UNL A   1      41.847  25.550  28.839  1.00  0.00     0.167 HD
ATOM     41  C   UNL A   1      41.892  29.669  28.431  1.00  0.00     0.034 A 
ATOM     42  C   UNL A   1      44.533  24.019  27.918  1.00  0.00     0.034 A 
ATOM     43  C   UNL A   1      42.058  29.636  27.027  1.00  0.00     0.049 A 
ATOM     44  C   UNL A   1      44.234  25.082  26.924  1.00  0.00     0.074 A 
ATOM     45  C   UNL A   1      41.226  29.350  25.971  1.00  0.00     0.029 A 
ATOM     46  N   UNL A   1      43.313  29.724  26.508  1.00  0.00    -0.354 N 
ATOM     47  N   UNL A   1      45.176  25.832  26.439  1.00  0.00    -0.248 NA
ATOM     48  C   UNL A   1      42.915  25.107  26.243  1.00  0.00     0.031 C 
ATOM     49  C   UNL A   1      42.051  28.459  25.255  1.00  0.00     0.029 A 
ATOM     50  C   UNL A   1      43.381  28.674  25.648  1.00  0.00     0.049 A 
ATOM     51  H   UNL A   1      44.008  30.391  26.709  1.00  0.00     0.167 HD
ATOM     52  C   UNL A   1      44.480  26.631  25.583  1.00  0.00     0.074 A 
ATOM     53  C   UNL A   1      43.245  25.951  25.267  1.00  0.00     0.031 C 
ATOM     54  C   UNL A   1      44.625  27.964  25.678  1.00  0.00     0.034 A 
BRANCH  41  55
ATOM     55  C   UNL A   1      43.036  30.612  29.272  1.00  0.00     0.023 A 
ATOM     56  C   UNL A   1      42.967  31.983  29.740  1.00  0.00     0.031 A 
ATOM     57  C   UNL A   1      44.331  30.067  29.426  1.00  0.00     0.131 A 
ATOM     58  C   UNL A   1      44.151  32.768  29.949  1.00  0.00     0.055 A 
ATOM     59  C   UNL A   1      45.449  30.788  29.882  1.00  0.00     0.041 A 
ATOM     60  F   UNL A   1      44.579  28.792  29.098  1.00  0.00    -0.206 F 
ATOM     61  C   UNL A   1      45.387  32.157  30.067  1.00  0.00     0.022 A 
BRANCH  58  62
ATOM     62  S   UNL A   1      44.181  34.622  29.770  1.00  0.00     0.124 S 
ATOM     63  O   UNL A   1      45.179  35.034  30.720  1.00  0.00    -0.237 OA
ATOM     64  O   UNL A   1      44.519  34.814  28.347  1.00  0.00    -0.237 OA
ATOM     65  O   UNL A   1      42.813  35.020  30.125  1.00  0.00    -0.744 OA
ENDBRANCH  58  62
ENDBRANCH  41  55
BRANCH  42  66
ATOM     66  C   UNL A   1      44.872  22.810  26.593  1.00  0.00     0.023 A 
ATOM     67  C   UNL A   1      44.229  21.526  26.352  1.00  0.00     0.031 A 
ATOM     68  C   UNL A   1      46.006  22.838  25.649  1.00  0.00     0.131 A 
ATOM     69  C   UNL A   1      44.634  20.591  25.237  1.00  0.00     0.055 A 
ATOM     70  C   UNL A   1      46.294  22.038  24.511  1.00  0.00     0.041 A 
ATOM     71  F   UNL A   1      47.140  23.483  25.884  1.00  0.00    -0.206 F 
ATOM     72  C   UNL A   1      45.602  20.900  24.289  1.00  0.00     0.022 A 
BRANCH  69  73
ATOM     73  S   UNL A   1      44.024  18.858  24.941  1.00  0.00     0.124 S 
ATOM     74  O   UNL A   1      42.574  19.019  24.986  1.00  0.00    -0.237 OA
ATOM     75  O   UNL A   1      44.604  18.511  23.651  1.00  0.00    -0.237 OA
ATOM     76  O   UNL A   1      44.575  18.111  26.078  1.00  0.00    -0.744 OA
ENDBRANCH  69  73
ENDBRANCH  42  66
BRANCH  54  77
ATOM     77  C   UNL A   1      45.924  28.356  26.355  1.00  0.00     0.023 A 
ATOM     78  C   UNL A   1      46.540  27.420  27.191  1.00  0.00     0.031 A 
ATOM     79  C   UNL A   1      46.450  29.665  26.364  1.00  0.00     0.131 A 
ATOM     80  C   UNL A   1      47.654  27.781  27.967  1.00  0.00     0.055 A 
ATOM     81  C   UNL A   1      47.555  30.032  27.143  1.00  0.00     0.041 A 
ATOM     82  F   UNL A   1      45.884  30.624  25.621  1.00  0.00    -0.206 F 
ATOM     83  C   UNL A   1      48.164  29.081  27.956  1.00  0.00     0.022 A 
BRANCH  80  84
ATOM     84  S   UNL A   1      48.450  26.485  28.946  1.00  0.00     0.124 S 
ATOM     85  O   UNL A   1      48.054  26.822  30.309  1.00  0.00    -0.237 OA
ATOM     86  O   UNL A   1      47.842  25.277  28.391  1.00  0.00    -0.237 OA
ATOM     87  O   UNL A   1      49.872  26.648  28.648  1.00  0.00    -0.744 OA
ENDBRANCH  80  84
ENDBRANCH  54  77
ENDBRANCH  28  29
ENDBRANCH  21  23
ENDBRANCH  20  21
ENDBRANCH   1  20
TORSDOF 16
ENDMDL
