MODEL 1
REMARK VINA RESULT:     -11.1      0.000      0.000
REMARK SMILES CC[NH2+][C@@]1(C(=O)OCCOC(=O)c2ccc(-c3c4nc(c(-c5cc(S(=O)(=O)[O-])ccc5F)c5ccc([nH]5)c(-c5cc(S(=O)(=O)[O-])ccc5F)c5nc(c(-c6cc(S(=O)(=O)[O-])ccc6F)c6ccc3[nH]6)C=C5)C=C4)cc2)CC[C@@H]([NH+]2CCC(C)(CC)CC2)C1
REMARK SMILES IDX 9 1 8 2 7 3 5 4 6 5 4 6 76 7 88 8 77 9 78 10 3 11 2 14 1 15
REMARK SMILES IDX 79 16 80 17 87 18 81 20 86 21 82 22 83 23 84 24 85 25 10 26
REMARK SMILES IDX 11 27 12 28 13 29 14 30 75 31 15 32 74 33 16 34 17 35 18 36
REMARK SMILES IDX 68 37 19 38 73 39 67 40 69 41 20 42 72 43 66 44 65 45 21 47
REMARK SMILES IDX 53 48 33 49 52 50 34 51 37 52 51 53 70 54 35 55 36 56 50 58
REMARK SMILES IDX 71 59 38 60 22 61 23 62 31 63 24 64 30 65 32 66 29 67 25 68
REMARK SMILES IDX 26 69 27 70 28 71 54 72 55 73 63 74 56 75 62 76 64 77 61 78
REMARK SMILES IDX 57 79 58 80 59 81 60 82 39 83 40 84 48 85 41 86 47 87 49 88
REMARK SMILES IDX 46 89 42 90 43 91 44 92 45 93
REMARK H PARENT 3 12 3 13 79 19 69 46 37 57
REMARK Flexibility Score: inf
ROOT
ATOM      1  C   UNL A   1      37.620  20.230  24.987  1.00  0.00     0.275 C 
ENDROOT
BRANCH   1   2
ATOM      2  C   UNL A   1      36.092  20.187  25.001  1.00  0.00     0.274 C 
BRANCH   2   3
ATOM      3  O   UNL A   1      35.609  21.520  25.210  1.00  0.00    -0.457 OA
BRANCH   3   4
ATOM      4  C   UNL A   1      34.486  21.644  25.961  1.00  0.00     0.368 C 
ATOM      5  O   UNL A   1      34.449  21.459  27.174  1.00  0.00    -0.245 OA
BRANCH   4   6
ATOM      6  C   UNL A   1      33.266  22.098  25.110  1.00  0.00     0.200 C 
ATOM      7  C   UNL A   1      33.755  22.790  23.833  1.00  0.00     0.087 C 
ATOM      8  C   UNL A   1      32.442  23.220  25.773  1.00  0.00     0.146 C 
ATOM      9  C   UNL A   1      34.174  24.171  24.330  1.00  0.00     0.072 C 
ATOM     10  C   UNL A   1      33.142  24.541  25.416  1.00  0.00     0.191 C 
BRANCH   6  11
ATOM     11  N   UNL A   1      32.347  20.964  24.853  1.00  0.00    -0.332 N 
ATOM     12  H   UNL A   1      32.602  20.206  25.485  1.00  0.00     0.347 HD
ATOM     13  H   UNL A   1      31.408  21.333  24.999  1.00  0.00     0.347 HD
BRANCH  11  14
ATOM     14  C   UNL A   1      32.351  20.432  23.493  1.00  0.00     0.257 C 
ATOM     15  C   UNL A   1      32.530  18.923  23.557  1.00  0.00     0.071 C 
ENDBRANCH  11  14
ENDBRANCH   6  11
BRANCH  10  16
ATOM     16  N   UNL A   1      32.287  25.684  25.072  1.00  0.00    -0.332 N 
ATOM     17  C   UNL A   1      32.843  26.600  24.076  1.00  0.00     0.263 C 
ATOM     18  C   UNL A   1      31.617  26.407  26.149  1.00  0.00     0.263 C 
ATOM     19  H   UNL A   1      31.525  25.165  24.635  1.00  0.00     0.348 HD
ATOM     20  C   UNL A   1      33.727  27.721  24.627  1.00  0.00     0.068 C 
ATOM     21  C   UNL A   1      32.427  27.512  26.829  1.00  0.00     0.068 C 
ATOM     22  C   UNL A   1      33.182  28.466  25.873  1.00  0.00    -0.022 C 
ATOM     23  C   UNL A   1      34.406  29.036  26.642  1.00  0.00     0.012 C 
BRANCH  22  24
ATOM     24  C   UNL A   1      32.322  29.710  25.493  1.00  0.00     0.004 C 
ATOM     25  C   UNL A   1      31.777  30.578  26.614  1.00  0.00     0.004 C 
ENDBRANCH  22  24
ENDBRANCH  10  16
ENDBRANCH   4   6
ENDBRANCH   3   4
ENDBRANCH   2   3
ENDBRANCH   1   2
BRANCH   1  26
ATOM     26  O   UNL A   1      38.095  21.427  25.635  1.00  0.00    -0.458 OA
BRANCH  26  27
ATOM     27  C   UNL A   1      39.331  21.335  26.197  1.00  0.00     0.338 C 
ATOM     28  O   UNL A   1      40.023  20.333  26.268  1.00  0.00    -0.246 OA
BRANCH  27  29
ATOM     29  C   UNL A   1      39.768  22.662  26.685  1.00  0.00     0.060 A 
ATOM     30  C   UNL A   1      39.200  23.808  26.115  1.00  0.00     0.016 A 
ATOM     31  C   UNL A   1      40.764  22.787  27.658  1.00  0.00     0.016 A 
ATOM     32  C   UNL A   1      39.609  25.078  26.535  1.00  0.00     0.010 A 
ATOM     33  C   UNL A   1      41.193  24.058  28.057  1.00  0.00     0.010 A 
ATOM     34  C   UNL A   1      40.618  25.211  27.499  1.00  0.00    -0.014 A 
BRANCH  34  35
ATOM     35  C   UNL A   1      41.140  26.554  27.854  1.00  0.00     0.031 A 
ATOM     36  C   UNL A   1      42.568  26.890  27.536  1.00  0.00     0.074 A 
ATOM     37  C   UNL A   1      40.349  27.460  28.459  1.00  0.00     0.049 A 
ATOM     38  N   UNL A   1      43.233  27.990  27.769  1.00  0.00    -0.248 NA
ATOM     39  C   UNL A   1      43.353  25.836  26.874  1.00  0.00     0.031 C 
ATOM     40  C   UNL A   1      38.946  27.250  28.807  1.00  0.00     0.029 A 
ATOM     41  N   UNL A   1      40.610  28.737  28.892  1.00  0.00    -0.354 N 
ATOM     42  C   UNL A   1      44.512  27.772  27.272  1.00  0.00     0.074 A 
ATOM     43  C   UNL A   1      44.533  26.422  26.745  1.00  0.00     0.031 C 
ATOM     44  C   UNL A   1      38.463  28.362  29.384  1.00  0.00     0.029 A 
ATOM     45  C   UNL A   1      39.535  29.346  29.501  1.00  0.00     0.049 A 
ATOM     46  H   UNL A   1      41.483  29.177  28.778  1.00  0.00     0.167 HD
ATOM     47  C   UNL A   1      45.573  28.614  27.266  1.00  0.00     0.034 A 
ATOM     48  C   UNL A   1      39.439  30.546  30.111  1.00  0.00     0.034 A 
ATOM     49  C   UNL A   1      45.559  29.929  27.859  1.00  0.00     0.049 A 
ATOM     50  C   UNL A   1      40.663  31.429  30.172  1.00  0.00     0.074 A 
ATOM     51  C   UNL A   1      46.587  30.853  27.937  1.00  0.00     0.029 A 
ATOM     52  N   UNL A   1      44.467  30.498  28.503  1.00  0.00    -0.354 N 
ATOM     53  N   UNL A   1      41.862  31.216  29.679  1.00  0.00    -0.248 NA
ATOM     54  C   UNL A   1      40.523  32.710  30.877  1.00  0.00     0.031 C 
ATOM     55  C   UNL A   1      46.139  31.945  28.687  1.00  0.00     0.029 A 
ATOM     56  C   UNL A   1      44.807  31.743  29.010  1.00  0.00     0.049 A 
ATOM     57  H   UNL A   1      43.580  30.077  28.588  1.00  0.00     0.167 HD
ATOM     58  C   UNL A   1      42.609  32.349  29.993  1.00  0.00     0.074 A 
ATOM     59  C   UNL A   1      41.721  33.248  30.700  1.00  0.00     0.031 C 
ATOM     60  C   UNL A   1      43.910  32.624  29.722  1.00  0.00     0.034 A 
BRANCH  47  61
ATOM     61  C   UNL A   1      46.853  28.096  26.660  1.00  0.00     0.023 A 
ATOM     62  C   UNL A   1      47.096  28.173  25.278  1.00  0.00     0.031 A 
ATOM     63  C   UNL A   1      47.820  27.471  27.468  1.00  0.00     0.131 A 
ATOM     64  C   UNL A   1      48.245  27.576  24.735  1.00  0.00     0.055 A 
ATOM     65  C   UNL A   1      48.995  26.943  26.931  1.00  0.00     0.041 A 
ATOM     66  F   UNL A   1      47.627  27.346  28.790  1.00  0.00    -0.206 F 
ATOM     67  C   UNL A   1      49.207  26.982  25.556  1.00  0.00     0.022 A 
BRANCH  64  68
ATOM     68  S   UNL A   1      48.400  27.469  22.932  1.00  0.00     0.124 S 
ATOM     69  O   UNL A   1      48.378  26.023  22.719  1.00  0.00    -0.237 OA
ATOM     70  O   UNL A   1      47.226  28.200  22.469  1.00  0.00    -0.237 OA
ATOM     71  O   UNL A   1      49.683  28.112  22.659  1.00  0.00    -0.744 OA
ENDBRANCH  64  68
ENDBRANCH  47  61
BRANCH  48  72
ATOM     72  C   UNL A   1      38.165  30.972  30.767  1.00  0.00     0.023 A 
ATOM     73  C   UNL A   1      37.175  31.665  30.051  1.00  0.00     0.031 A 
ATOM     74  C   UNL A   1      37.955  30.761  32.142  1.00  0.00     0.131 A 
ATOM     75  C   UNL A   1      36.047  32.165  30.722  1.00  0.00     0.055 A 
ATOM     76  C   UNL A   1      36.803  31.209  32.792  1.00  0.00     0.041 A 
ATOM     77  F   UNL A   1      38.871  30.111  32.878  1.00  0.00    -0.206 F 
ATOM     78  C   UNL A   1      35.847  31.929  32.084  1.00  0.00     0.022 A 
BRANCH  75  79
ATOM     79  S   UNL A   1      34.890  33.224  29.808  1.00  0.00     0.124 S 
ATOM     80  O   UNL A   1      35.791  34.207  29.219  1.00  0.00    -0.237 OA
ATOM     81  O   UNL A   1      34.278  32.277  28.883  1.00  0.00    -0.237 OA
ATOM     82  O   UNL A   1      34.002  33.737  30.851  1.00  0.00    -0.744 OA
ENDBRANCH  75  79
ENDBRANCH  48  72
BRANCH  60  83
ATOM     83  C   UNL A   1      44.432  33.974  30.153  1.00  0.00     0.023 A 
ATOM     84  C   UNL A   1      44.272  35.121  29.356  1.00  0.00     0.031 A 
ATOM     85  C   UNL A   1      45.104  34.107  31.381  1.00  0.00     0.131 A 
ATOM     86  C   UNL A   1      44.823  36.342  29.774  1.00  0.00     0.055 A 
ATOM     87  C   UNL A   1      45.601  35.336  31.817  1.00  0.00     0.041 A 
ATOM     88  F   UNL A   1      45.286  33.043  32.180  1.00  0.00    -0.206 F 
ATOM     89  C   UNL A   1      45.471  36.460  31.006  1.00  0.00     0.022 A 
BRANCH  86  90
ATOM     90  S   UNL A   1      44.753  37.764  28.648  1.00  0.00     0.124 S 
ATOM     91  O   UNL A   1      45.941  37.559  27.826  1.00  0.00    -0.237 OA
ATOM     92  O   UNL A   1      43.471  37.568  27.977  1.00  0.00    -0.237 OA
ATOM     93  O   UNL A   1      44.811  38.916  29.546  1.00  0.00    -0.744 OA
ENDBRANCH  86  90
ENDBRANCH  60  83
ENDBRANCH  34  35
ENDBRANCH  27  29
ENDBRANCH  26  27
ENDBRANCH   1  26
TORSDOF 18
ENDMDL
MODEL 2
REMARK VINA RESULT:     -11.0      1.148      7.727
REMARK SMILES CC[NH2+][C@@]1(C(=O)OCCOC(=O)c2ccc(-c3c4nc(c(-c5cc(S(=O)(=O)[O-])ccc5F)c5ccc([nH]5)c(-c5cc(S(=O)(=O)[O-])ccc5F)c5nc(c(-c6cc(S(=O)(=O)[O-])ccc6F)c6ccc3[nH]6)C=C5)C=C4)cc2)CC[C@@H]([NH+]2CCC(C)(CC)CC2)C1
REMARK SMILES IDX 9 1 8 2 7 3 5 4 6 5 4 6 76 7 88 8 77 9 78 10 3 11 2 14 1 15
REMARK SMILES IDX 79 16 80 17 87 18 81 20 86 21 82 22 83 23 84 24 85 25 10 26
REMARK SMILES IDX 11 27 12 28 13 29 14 30 75 31 15 32 74 33 16 34 17 35 18 36
REMARK SMILES IDX 68 37 19 38 73 39 67 40 69 41 20 42 72 43 66 44 65 45 21 47
REMARK SMILES IDX 53 48 33 49 52 50 34 51 37 52 51 53 70 54 35 55 36 56 50 58
REMARK SMILES IDX 71 59 38 60 22 61 23 62 31 63 24 64 30 65 32 66 29 67 25 68
REMARK SMILES IDX 26 69 27 70 28 71 54 72 55 73 63 74 56 75 62 76 64 77 61 78
REMARK SMILES IDX 57 79 58 80 59 81 60 82 39 83 40 84 48 85 41 86 47 87 49 88
REMARK SMILES IDX 46 89 42 90 43 91 44 92 45 93
REMARK H PARENT 3 12 3 13 79 19 69 46 37 57
REMARK Flexibility Score: inf
ROOT
ATOM      1  C   UNL A   1      37.227  20.653  24.662  1.00  0.00     0.275 C 
ENDROOT
BRANCH   1   2
ATOM      2  C   UNL A   1      35.854  20.083  25.015  1.00  0.00     0.274 C 
BRANCH   2   3
ATOM      3  O   UNL A   1      34.905  21.157  25.000  1.00  0.00    -0.457 OA
BRANCH   3   4
ATOM      4  C   UNL A   1      33.661  20.857  24.551  1.00  0.00     0.368 C 
ATOM      5  O   UNL A   1      33.316  19.738  24.182  1.00  0.00    -0.245 OA
BRANCH   4   6
ATOM      6  C   UNL A   1      32.711  22.087  24.610  1.00  0.00     0.200 C 
ATOM      7  C   UNL A   1      32.043  22.292  23.246  1.00  0.00     0.087 C 
ATOM      8  C   UNL A   1      33.455  23.426  24.792  1.00  0.00     0.146 C 
ATOM      9  C   UNL A   1      33.149  22.935  22.415  1.00  0.00     0.072 C 
ATOM     10  C   UNL A   1      33.894  23.872  23.389  1.00  0.00     0.191 C 
BRANCH   6  11
ATOM     11  N   UNL A   1      31.745  21.960  25.727  1.00  0.00    -0.332 N 
ATOM     12  H   UNL A   1      31.240  21.083  25.604  1.00  0.00     0.347 HD
ATOM     13  H   UNL A   1      32.304  22.005  26.579  1.00  0.00     0.347 HD
BRANCH  11  14
ATOM     14  C   UNL A   1      30.759  23.030  25.848  1.00  0.00     0.257 C 
ATOM     15  C   UNL A   1      29.860  22.738  27.039  1.00  0.00     0.071 C 
ENDBRANCH  11  14
ENDBRANCH   6  11
BRANCH  10  16
ATOM     16  N   UNL A   1      33.771  25.299  23.067  1.00  0.00    -0.332 N 
ATOM     17  C   UNL A   1      33.642  26.189  24.221  1.00  0.00     0.263 C 
ATOM     18  C   UNL A   1      32.881  25.699  21.981  1.00  0.00     0.263 C 
ATOM     19  H   UNL A   1      34.699  25.435  22.666  1.00  0.00     0.348 HD
ATOM     20  C   UNL A   1      32.215  26.416  24.727  1.00  0.00     0.068 C 
ATOM     21  C   UNL A   1      31.408  25.891  22.348  1.00  0.00     0.068 C 
ATOM     22  C   UNL A   1      31.146  26.702  23.639  1.00  0.00    -0.022 C 
ATOM     23  C   UNL A   1      29.774  26.250  24.211  1.00  0.00     0.012 C 
BRANCH  22  24
ATOM     24  C   UNL A   1      30.988  28.225  23.348  1.00  0.00     0.004 C 
ATOM     25  C   UNL A   1      29.706  28.702  22.687  1.00  0.00     0.004 C 
ENDBRANCH  22  24
ENDBRANCH  10  16
ENDBRANCH   4   6
ENDBRANCH   3   4
ENDBRANCH   2   3
ENDBRANCH   1   2
BRANCH   1  26
ATOM     26  O   UNL A   1      37.700  21.514  25.718  1.00  0.00    -0.458 OA
BRANCH  26  27
ATOM     27  C   UNL A   1      38.983  21.299  26.116  1.00  0.00     0.338 C 
ATOM     28  O   UNL A   1      39.599  20.249  26.044  1.00  0.00    -0.246 OA
BRANCH  27  29
ATOM     29  C   UNL A   1      39.577  22.558  26.620  1.00  0.00     0.060 A 
ATOM     30  C   UNL A   1      39.118  23.773  26.099  1.00  0.00     0.016 A 
ATOM     31  C   UNL A   1      40.613  22.548  27.559  1.00  0.00     0.016 A 
ATOM     32  C   UNL A   1      39.676  24.980  26.534  1.00  0.00     0.010 A 
ATOM     33  C   UNL A   1      41.189  23.754  27.973  1.00  0.00     0.010 A 
ATOM     34  C   UNL A   1      40.725  24.976  27.464  1.00  0.00    -0.014 A 
BRANCH  34  35
ATOM     35  C   UNL A   1      41.401  26.245  27.833  1.00  0.00     0.031 A 
ATOM     36  C   UNL A   1      40.625  27.299  28.568  1.00  0.00     0.074 A 
ATOM     37  C   UNL A   1      42.690  26.456  27.507  1.00  0.00     0.049 A 
ATOM     38  N   UNL A   1      41.010  28.481  28.972  1.00  0.00    -0.248 NA
ATOM     39  C   UNL A   1      39.224  26.978  28.880  1.00  0.00     0.031 C 
ATOM     40  C   UNL A   1      43.544  25.502  26.804  1.00  0.00     0.029 A 
ATOM     41  N   UNL A   1      43.509  27.538  27.720  1.00  0.00    -0.354 N 
ATOM     42  C   UNL A   1      39.905  29.044  29.600  1.00  0.00     0.074 A 
ATOM     43  C   UNL A   1      38.829  28.079  29.500  1.00  0.00     0.031 C 
ATOM     44  C   UNL A   1      44.770  26.031  26.657  1.00  0.00     0.029 A 
ATOM     45  C   UNL A   1      44.776  27.385  27.204  1.00  0.00     0.049 A 
ATOM     46  H   UNL A   1      43.217  28.347  28.199  1.00  0.00     0.167 HD
ATOM     47  C   UNL A   1      39.796  30.257  30.193  1.00  0.00     0.034 A 
ATOM     48  C   UNL A   1      45.811  28.250  27.151  1.00  0.00     0.034 A 
ATOM     49  C   UNL A   1      40.854  31.237  30.222  1.00  0.00     0.049 A 
ATOM     50  C   UNL A   1      45.632  29.630  27.739  1.00  0.00     0.074 A 
ATOM     51  C   UNL A   1      40.840  32.508  30.768  1.00  0.00     0.029 A 
ATOM     52  N   UNL A   1      42.111  31.064  29.654  1.00  0.00    -0.354 N 
ATOM     53  N   UNL A   1      44.585  30.141  28.347  1.00  0.00    -0.248 NA
ATOM     54  C   UNL A   1      46.771  30.551  27.627  1.00  0.00     0.031 C 
ATOM     55  C   UNL A   1      42.058  33.127  30.470  1.00  0.00     0.029 A 
ATOM     56  C   UNL A   1      42.866  32.217  29.806  1.00  0.00     0.049 A 
ATOM     57  H   UNL A   1      42.420  30.243  29.207  1.00  0.00     0.167 HD
ATOM     58  C   UNL A   1      44.953  31.434  28.712  1.00  0.00     0.074 A 
ATOM     59  C   UNL A   1      46.320  31.617  28.272  1.00  0.00     0.031 C 
ATOM     60  C   UNL A   1      44.227  32.386  29.353  1.00  0.00     0.034 A 
BRANCH  47  61
ATOM     61  C   UNL A   1      38.456  30.606  30.790  1.00  0.00     0.023 A 
ATOM     62  C   UNL A   1      37.465  31.262  30.040  1.00  0.00     0.031 A 
ATOM     63  C   UNL A   1      38.185  30.324  32.141  1.00  0.00     0.131 A 
ATOM     64  C   UNL A   1      36.275  31.673  30.661  1.00  0.00     0.055 A 
ATOM     65  C   UNL A   1      36.971  30.672  32.734  1.00  0.00     0.041 A 
ATOM     66  F   UNL A   1      39.105  29.724  32.911  1.00  0.00    -0.206 F 
ATOM     67  C   UNL A   1      36.013  31.362  31.998  1.00  0.00     0.022 A 
BRANCH  64  68
ATOM     68  S   UNL A   1      35.134  32.737  29.736  1.00  0.00     0.124 S 
ATOM     69  O   UNL A   1      34.233  33.192  30.793  1.00  0.00    -0.237 OA
ATOM     70  O   UNL A   1      36.025  33.748  29.179  1.00  0.00    -0.237 OA
ATOM     71  O   UNL A   1      34.533  31.829  28.762  1.00  0.00    -0.744 OA
ENDBRANCH  64  68
ENDBRANCH  47  61
BRANCH  48  72
ATOM     72  C   UNL A   1      47.089  27.876  26.473  1.00  0.00     0.023 A 
ATOM     73  C   UNL A   1      47.243  28.018  25.084  1.00  0.00     0.031 A 
ATOM     74  C   UNL A   1      48.147  27.296  27.195  1.00  0.00     0.131 A 
ATOM     75  C   UNL A   1      48.405  27.540  24.456  1.00  0.00     0.055 A 
ATOM     76  C   UNL A   1      49.325  26.876  26.574  1.00  0.00     0.041 A 
ATOM     77  F   UNL A   1      48.052  27.127  28.524  1.00  0.00    -0.206 F 
ATOM     78  C   UNL A   1      49.453  26.983  25.193  1.00  0.00     0.022 A 
BRANCH  75  79
ATOM     79  S   UNL A   1      48.485  27.560  22.643  1.00  0.00     0.124 S 
ATOM     80  O   UNL A   1      47.257  28.267  22.300  1.00  0.00    -0.237 OA
ATOM     81  O   UNL A   1      49.730  28.280  22.402  1.00  0.00    -0.237 OA
ATOM     82  O   UNL A   1      48.510  26.142  22.289  1.00  0.00    -0.744 OA
ENDBRANCH  75  79
ENDBRANCH  48  72
BRANCH  60  83
ATOM     83  C   UNL A   1      44.922  33.692  29.657  1.00  0.00     0.023 A 
ATOM     84  C   UNL A   1      44.884  34.778  28.764  1.00  0.00     0.031 A 
ATOM     85  C   UNL A   1      45.636  33.845  30.859  1.00  0.00     0.131 A 
ATOM     86  C   UNL A   1      45.591  35.952  29.065  1.00  0.00     0.055 A 
ATOM     87  C   UNL A   1      46.290  35.036  31.178  1.00  0.00     0.041 A 
ATOM     88  F   UNL A   1      45.706  32.839  31.745  1.00  0.00    -0.206 F 
ATOM     89  C   UNL A   1      46.279  36.094  30.273  1.00  0.00     0.022 A 
BRANCH  86  90
ATOM     90  S   UNL A   1      45.667  37.270  27.820  1.00  0.00     0.124 S 
ATOM     91  O   UNL A   1      44.296  37.771  27.825  1.00  0.00    -0.237 OA
ATOM     92  O   UNL A   1      46.675  38.167  28.376  1.00  0.00    -0.237 OA
ATOM     93  O   UNL A   1      46.066  36.569  26.602  1.00  0.00    -0.744 OA
ENDBRANCH  86  90
ENDBRANCH  60  83
ENDBRANCH  34  35
ENDBRANCH  27  29
ENDBRANCH  26  27
ENDBRANCH   1  26
TORSDOF 18
ENDMDL
MODEL 3
REMARK VINA RESULT:     -10.9      4.975      7.772
REMARK SMILES CC[NH2+][C@@]1(C(=O)OCCOC(=O)c2ccc(-c3c4nc(c(-c5cc(S(=O)(=O)[O-])ccc5F)c5ccc([nH]5)c(-c5cc(S(=O)(=O)[O-])ccc5F)c5nc(c(-c6cc(S(=O)(=O)[O-])ccc6F)c6ccc3[nH]6)C=C5)C=C4)cc2)CC[C@@H]([NH+]2CCC(C)(CC)CC2)C1
REMARK SMILES IDX 9 1 8 2 7 3 5 4 6 5 4 6 76 7 88 8 77 9 78 10 3 11 2 14 1 15
REMARK SMILES IDX 79 16 80 17 87 18 81 20 86 21 82 22 83 23 84 24 85 25 10 26
REMARK SMILES IDX 11 27 12 28 13 29 14 30 75 31 15 32 74 33 16 34 17 35 18 36
REMARK SMILES IDX 68 37 19 38 73 39 67 40 69 41 20 42 72 43 66 44 65 45 21 47
REMARK SMILES IDX 53 48 33 49 52 50 34 51 37 52 51 53 70 54 35 55 36 56 50 58
REMARK SMILES IDX 71 59 38 60 22 61 23 62 31 63 24 64 30 65 32 66 29 67 25 68
REMARK SMILES IDX 26 69 27 70 28 71 54 72 55 73 63 74 56 75 62 76 64 77 61 78
REMARK SMILES IDX 57 79 58 80 59 81 60 82 39 83 40 84 48 85 41 86 47 87 49 88
REMARK SMILES IDX 46 89 42 90 43 91 44 92 45 93
REMARK H PARENT 3 12 3 13 79 19 69 46 37 57
REMARK Flexibility Score: inf
ROOT
ATOM      1  C   UNL A   1      31.786  30.559  26.239  1.00  0.00     0.275 C 
ENDROOT
BRANCH   1   2
ATOM      2  C   UNL A   1      31.420  29.624  25.087  1.00  0.00     0.274 C 
BRANCH   2   3
ATOM      3  O   UNL A   1      31.917  28.315  25.398  1.00  0.00    -0.457 OA
BRANCH   3   4
ATOM      4  C   UNL A   1      31.320  27.276  24.762  1.00  0.00     0.368 C 
ATOM      5  O   UNL A   1      30.520  27.405  23.840  1.00  0.00    -0.245 OA
BRANCH   4   6
ATOM      6  C   UNL A   1      31.811  25.904  25.306  1.00  0.00     0.200 C 
ATOM      7  C   UNL A   1      33.282  26.010  25.726  1.00  0.00     0.087 C 
ATOM      8  C   UNL A   1      31.877  24.807  24.225  1.00  0.00     0.146 C 
ATOM      9  C   UNL A   1      34.023  25.971  24.392  1.00  0.00     0.072 C 
ATOM     10  C   UNL A   1      33.231  24.975  23.519  1.00  0.00     0.191 C 
BRANCH   6  11
ATOM     11  N   UNL A   1      30.923  25.413  26.386  1.00  0.00    -0.332 N 
ATOM     12  H   UNL A   1      31.005  26.055  27.174  1.00  0.00     0.347 HD
ATOM     13  H   UNL A   1      29.991  25.371  25.976  1.00  0.00     0.347 HD
BRANCH  11  14
ATOM     14  C   UNL A   1      31.197  24.066  26.878  1.00  0.00     0.257 C 
ATOM     15  C   UNL A   1      29.899  23.272  26.884  1.00  0.00     0.071 C 
ENDBRANCH  11  14
ENDBRANCH   6  11
BRANCH  10  16
ATOM     16  N   UNL A   1      33.969  23.752  23.177  1.00  0.00    -0.332 N 
ATOM     17  C   UNL A   1      33.177  22.522  23.191  1.00  0.00     0.263 C 
ATOM     18  C   UNL A   1      35.290  23.544  23.762  1.00  0.00     0.263 C 
ATOM     19  H   UNL A   1      34.181  23.981  22.206  1.00  0.00     0.348 HD
ATOM     20  C   UNL A   1      33.080  21.811  24.543  1.00  0.00     0.068 C 
ATOM     21  C   UNL A   1      35.323  22.900  25.149  1.00  0.00     0.068 C 
ATOM     22  C   UNL A   1      34.408  21.665  25.330  1.00  0.00    -0.022 C 
ATOM     23  C   UNL A   1      34.042  21.563  26.837  1.00  0.00     0.012 C 
BRANCH  22  24
ATOM     24  C   UNL A   1      35.153  20.337  24.999  1.00  0.00     0.004 C 
ATOM     25  C   UNL A   1      34.325  19.128  24.596  1.00  0.00     0.004 C 
ENDBRANCH  22  24
ENDBRANCH  10  16
ENDBRANCH   4   6
ENDBRANCH   3   4
ENDBRANCH   2   3
ENDBRANCH   1   2
BRANCH   1  26
ATOM     26  O   UNL A   1      33.185  30.433  26.565  1.00  0.00    -0.458 OA
BRANCH  26  27
ATOM     27  C   UNL A   1      33.706  31.450  27.303  1.00  0.00     0.338 C 
ATOM     28  O   UNL A   1      33.188  32.535  27.512  1.00  0.00    -0.246 OA
BRANCH  27  29
ATOM     29  C   UNL A   1      35.006  31.044  27.882  1.00  0.00     0.060 A 
ATOM     30  C   UNL A   1      35.154  29.733  28.349  1.00  0.00     0.016 A 
ATOM     31  C   UNL A   1      36.059  31.955  28.015  1.00  0.00     0.016 A 
ATOM     32  C   UNL A   1      36.360  29.323  28.925  1.00  0.00     0.010 A 
ATOM     33  C   UNL A   1      37.256  31.552  28.618  1.00  0.00     0.010 A 
ATOM     34  C   UNL A   1      37.414  30.235  29.075  1.00  0.00    -0.014 A 
BRANCH  34  35
ATOM     35  C   UNL A   1      38.648  29.838  29.799  1.00  0.00     0.031 A 
ATOM     36  C   UNL A   1      39.550  28.803  29.191  1.00  0.00     0.074 A 
ATOM     37  C   UNL A   1      38.955  30.390  30.988  1.00  0.00     0.049 A 
ATOM     38  N   UNL A   1      40.663  28.299  29.654  1.00  0.00    -0.248 NA
ATOM     39  C   UNL A   1      39.133  28.258  27.891  1.00  0.00     0.031 C 
ATOM     40  C   UNL A   1      38.161  31.410  31.669  1.00  0.00     0.029 A 
ATOM     41  N   UNL A   1      40.012  30.172  31.838  1.00  0.00    -0.354 N 
ATOM     42  C   UNL A   1      41.091  27.386  28.698  1.00  0.00     0.074 A 
ATOM     43  C   UNL A   1      40.101  27.391  27.639  1.00  0.00     0.031 C 
ATOM     44  C   UNL A   1      38.764  31.743  32.821  1.00  0.00     0.029 A 
ATOM     45  C   UNL A   1      39.958  30.920  32.992  1.00  0.00     0.049 A 
ATOM     46  H   UNL A   1      40.741  29.541  31.639  1.00  0.00     0.167 HD
ATOM     47  C   UNL A   1      42.200  26.607  28.707  1.00  0.00     0.034 A 
ATOM     48  C   UNL A   1      40.763  30.916  34.076  1.00  0.00     0.034 A 
ATOM     49  C   UNL A   1      43.139  26.559  29.800  1.00  0.00     0.049 A 
ATOM     50  C   UNL A   1      41.942  29.972  34.101  1.00  0.00     0.074 A 
ATOM     51  C   UNL A   1      44.278  25.784  29.927  1.00  0.00     0.029 A 
ATOM     52  N   UNL A   1      43.032  27.300  30.972  1.00  0.00    -0.354 N 
ATOM     53  N   UNL A   1      42.344  29.127  33.178  1.00  0.00    -0.248 NA
ATOM     54  C   UNL A   1      42.769  29.975  35.314  1.00  0.00     0.031 C 
ATOM     55  C   UNL A   1      44.819  26.002  31.199  1.00  0.00     0.029 A 
ATOM     56  C   UNL A   1      44.065  26.973  31.838  1.00  0.00     0.049 A 
ATOM     57  H   UNL A   1      42.326  27.959  31.160  1.00  0.00     0.167 HD
ATOM     58  C   UNL A   1      43.487  28.520  33.693  1.00  0.00     0.074 A 
ATOM     59  C   UNL A   1      43.718  29.107  34.996  1.00  0.00     0.031 C 
ATOM     60  C   UNL A   1      44.276  27.563  33.140  1.00  0.00     0.034 A 
BRANCH  47  61
ATOM     61  C   UNL A   1      42.403  25.695  27.523  1.00  0.00     0.023 A 
ATOM     62  C   UNL A   1      41.855  24.401  27.489  1.00  0.00     0.031 A 
ATOM     63  C   UNL A   1      43.196  26.107  26.438  1.00  0.00     0.131 A 
ATOM     64  C   UNL A   1      42.161  23.540  26.424  1.00  0.00     0.055 A 
ATOM     65  C   UNL A   1      43.438  25.270  25.347  1.00  0.00     0.041 A 
ATOM     66  F   UNL A   1      43.766  27.322  26.430  1.00  0.00    -0.206 F 
ATOM     67  C   UNL A   1      42.931  23.975  25.341  1.00  0.00     0.022 A 
BRANCH  64  68
ATOM     68  S   UNL A   1      41.653  21.803  26.536  1.00  0.00     0.124 S 
ATOM     69  O   UNL A   1      41.905  21.512  27.946  1.00  0.00    -0.237 OA
ATOM     70  O   UNL A   1      40.251  21.858  26.137  1.00  0.00    -0.237 OA
ATOM     71  O   UNL A   1      42.543  21.124  25.598  1.00  0.00    -0.744 OA
ENDBRANCH  64  68
ENDBRANCH  47  61
BRANCH  48  72
ATOM     72  C   UNL A   1      40.464  31.784  35.255  1.00  0.00     0.023 A 
ATOM     73  C   UNL A   1      39.450  31.449  36.167  1.00  0.00     0.031 A 
ATOM     74  C   UNL A   1      41.138  33.005  35.443  1.00  0.00     0.131 A 
ATOM     75  C   UNL A   1      39.104  32.345  37.192  1.00  0.00     0.055 A 
ATOM     76  C   UNL A   1      40.830  33.866  36.499  1.00  0.00     0.041 A 
ATOM     77  F   UNL A   1      42.111  33.382  34.598  1.00  0.00    -0.206 F 
ATOM     78  C   UNL A   1      39.797  33.544  37.372  1.00  0.00     0.022 A 
BRANCH  75  79
ATOM     79  S   UNL A   1      37.661  31.970  38.226  1.00  0.00     0.124 S 
ATOM     80  O   UNL A   1      37.387  30.585  37.861  1.00  0.00    -0.237 OA
ATOM     81  O   UNL A   1      38.185  32.189  39.569  1.00  0.00    -0.237 OA
ATOM     82  O   UNL A   1      36.663  32.941  37.782  1.00  0.00    -0.744 OA
ENDBRANCH  75  79
ENDBRANCH  48  72
BRANCH  60  83
ATOM     83  C   UNL A   1      45.488  27.131  33.929  1.00  0.00     0.023 A 
ATOM     84  C   UNL A   1      45.412  26.144  34.927  1.00  0.00     0.031 A 
ATOM     85  C   UNL A   1      46.739  27.725  33.676  1.00  0.00     0.131 A 
ATOM     86  C   UNL A   1      46.556  25.816  35.672  1.00  0.00     0.055 A 
ATOM     87  C   UNL A   1      47.884  27.353  34.382  1.00  0.00     0.041 A 
ATOM     88  F   UNL A   1      46.867  28.674  32.736  1.00  0.00    -0.206 F 
ATOM     89  C   UNL A   1      47.794  26.401  35.394  1.00  0.00     0.022 A 
BRANCH  86  90
ATOM     90  S   UNL A   1      46.391  24.666  37.067  1.00  0.00     0.124 S 
ATOM     91  O   UNL A   1      46.039  23.421  36.393  1.00  0.00    -0.237 OA
ATOM     92  O   UNL A   1      47.719  24.713  37.669  1.00  0.00    -0.237 OA
ATOM     93  O   UNL A   1      45.324  25.257  37.873  1.00  0.00    -0.744 OA
ENDBRANCH  86  90
ENDBRANCH  60  83
ENDBRANCH  34  35
ENDBRANCH  27  29
ENDBRANCH  26  27
ENDBRANCH   1  26
TORSDOF 18
ENDMDL
