MODEL 1
REMARK VINA RESULT:     -13.0      0.000      0.000
REMARK SMILES Cc1nn(-c2ccccc2)c(C)c1CNC(=O)[C@@H]1[C@@H](C(=O)OCCOC(=O)c2ccc(-c3c4nc(c(-c5cc(S(=O)(=O)[O-])ccc5F)c5ccc([nH]5)c(-c5cc(S(=O)(=O)[O-])ccc5F)c5nc(c(-c6cc(S(=O)(=O)[O-])ccc6F)c6ccc3[nH]6)C=C5)C=C4)cc2)[C@@H]2C=C[C@H]1C2
REMARK SMILES IDX 23 1 22 2 20 3 21 4 19 5 18 6 94 7 91 8 93 9 95 10 92 11
REMARK SMILES IDX 16 12 15 13 17 15 14 16 13 17 1 18 2 19 3 20 4 21 11 22
REMARK SMILES IDX 12 23 5 24 6 25 10 26 7 27 9 28 8 29 24 30 25 31 26 32 27 33
REMARK SMILES IDX 28 34 29 35 90 36 30 37 89 38 31 39 32 40 33 41 83 42 34 43
REMARK SMILES IDX 88 44 82 45 84 46 35 47 87 48 81 49 80 50 36 52 68 53 48 54
REMARK SMILES IDX 67 55 49 56 52 57 66 58 85 59 50 60 51 61 65 63 86 64 53 65
REMARK SMILES IDX 37 66 38 67 46 68 39 69 45 70 47 71 44 72 40 73 41 74 42 75
REMARK SMILES IDX 43 76 69 77 70 78 78 79 71 80 77 81 79 82 76 83 72 84 73 85
REMARK SMILES IDX 74 86 75 87 54 88 55 89 63 90 56 91 62 92 64 93 61 94 57 95
REMARK SMILES IDX 58 96 59 97 60 98
REMARK H PARENT 15 14 84 51 52 62
REMARK Flexibility Score: inf
ROOT
ATOM      1  C   UNL A   1      37.749  21.413  25.201  1.00  0.00     0.274 C 
ENDROOT
BRANCH   1   2
ATOM      2  O   UNL A   1      36.554  21.342  26.016  1.00  0.00    -0.462 OA
BRANCH   2   3
ATOM      3  C   UNL A   1      35.555  22.214  25.695  1.00  0.00     0.310 C 
ATOM      4  O   UNL A   1      35.372  23.278  26.275  1.00  0.00    -0.252 OA
BRANCH   3   5
ATOM      5  C   UNL A   1      34.643  21.673  24.594  1.00  0.00     0.119 C 
ATOM      6  C   UNL A   1      33.266  22.414  24.428  1.00  0.00     0.100 C 
ATOM      7  C   UNL A   1      32.232  21.286  24.704  1.00  0.00     0.025 C 
ATOM      8  C   UNL A   1      34.187  20.242  25.004  1.00  0.00     0.027 C 
ATOM      9  C   UNL A   1      32.341  20.213  23.642  1.00  0.00    -0.027 C 
ATOM     10  C   UNL A   1      32.929  20.533  25.839  1.00  0.00     0.017 C 
ATOM     11  C   UNL A   1      33.520  19.599  23.813  1.00  0.00    -0.027 C 
BRANCH   6  12
ATOM     12  C   UNL A   1      33.045  23.041  23.053  1.00  0.00     0.224 C 
ATOM     13  N   UNL A   1      31.814  23.510  22.694  1.00  0.00    -0.352 N 
ATOM     14  H   UNL A   1      31.714  23.704  21.735  1.00  0.00     0.163 HD
ATOM     15  O   UNL A   1      33.953  23.127  22.222  1.00  0.00    -0.275 OA
BRANCH  13  16
ATOM     16  C   UNL A   1      30.626  23.772  23.493  1.00  0.00     0.155 C 
BRANCH  16  17
ATOM     17  C   UNL A   1      30.936  24.769  24.570  1.00  0.00     0.016 A 
ATOM     18  C   UNL A   1      30.229  23.413  26.720  1.00  0.00     0.069 C 
ATOM     19  C   UNL A   1      30.807  24.569  25.978  1.00  0.00     0.065 A 
ATOM     20  N   UNL A   1      31.342  25.578  26.673  1.00  0.00    -0.173 NA
ATOM     21  N   UNL A   1      31.745  26.475  25.757  1.00  0.00    -0.237 N 
ATOM     22  C   UNL A   1      31.490  26.043  24.464  1.00  0.00     0.046 A 
ATOM     23  C   UNL A   1      31.930  26.801  23.266  1.00  0.00     0.067 C 
BRANCH  21  24
ATOM     24  C   UNL A   1      32.437  27.647  26.165  1.00  0.00     0.065 A 
ATOM     25  C   UNL A   1      31.697  28.742  26.630  1.00  0.00     0.028 A 
ATOM     26  C   UNL A   1      33.836  27.696  26.176  1.00  0.00     0.028 A 
ATOM     27  C   UNL A   1      32.361  29.836  27.189  1.00  0.00     0.002 A 
ATOM     28  C   UNL A   1      34.493  28.800  26.718  1.00  0.00     0.002 A 
ATOM     29  C   UNL A   1      33.755  29.860  27.244  1.00  0.00     0.000 A 
ENDBRANCH  21  24
ENDBRANCH  16  17
ENDBRANCH  13  16
ENDBRANCH   6  12
ENDBRANCH   3   5
ENDBRANCH   2   3
ENDBRANCH   1   2
BRANCH   1  30
ATOM     30  C   UNL A   1      39.057  21.633  25.973  1.00  0.00     0.275 C 
BRANCH  30  31
ATOM     31  O   UNL A   1      39.126  22.894  26.650  1.00  0.00    -0.458 OA
BRANCH  31  32
ATOM     32  C   UNL A   1      40.314  23.062  27.265  1.00  0.00     0.338 C 
ATOM     33  O   UNL A   1      40.937  22.211  27.875  1.00  0.00    -0.246 OA
BRANCH  32  34
ATOM     34  C   UNL A   1      40.772  24.444  27.295  1.00  0.00     0.060 A 
ATOM     35  C   UNL A   1      41.851  24.717  28.145  1.00  0.00     0.016 A 
ATOM     36  C   UNL A   1      39.912  25.442  26.838  1.00  0.00     0.016 A 
ATOM     37  C   UNL A   1      41.969  25.976  28.688  1.00  0.00     0.010 A 
ATOM     38  C   UNL A   1      40.046  26.710  27.370  1.00  0.00     0.010 A 
ATOM     39  C   UNL A   1      41.019  26.942  28.350  1.00  0.00    -0.014 A 
BRANCH  39  40
ATOM     40  C   UNL A   1      41.112  28.227  29.024  1.00  0.00     0.031 A 
ATOM     41  C   UNL A   1      42.206  29.110  28.548  1.00  0.00     0.074 A 
ATOM     42  C   UNL A   1      40.178  28.646  29.898  1.00  0.00     0.049 A 
ATOM     43  N   UNL A   1      43.093  29.744  29.241  1.00  0.00    -0.248 NA
ATOM     44  C   UNL A   1      42.388  29.224  27.091  1.00  0.00     0.031 C 
ATOM     45  C   UNL A   1      38.916  27.979  30.233  1.00  0.00     0.029 A 
ATOM     46  N   UNL A   1      40.083  29.844  30.542  1.00  0.00    -0.354 N 
ATOM     47  C   UNL A   1      43.821  30.498  28.324  1.00  0.00     0.074 A 
ATOM     48  C   UNL A   1      43.446  30.029  27.018  1.00  0.00     0.031 C 
ATOM     49  C   UNL A   1      38.078  28.885  30.778  1.00  0.00     0.029 A 
ATOM     50  C   UNL A   1      38.784  30.148  30.929  1.00  0.00     0.049 A 
ATOM     51  H   UNL A   1      40.853  30.431  30.715  1.00  0.00     0.167 HD
ATOM     52  C   UNL A   1      44.538  31.593  28.692  1.00  0.00     0.034 A 
ATOM     53  C   UNL A   1      38.288  31.376  31.223  1.00  0.00     0.034 A 
ATOM     54  C   UNL A   1      44.859  31.578  30.096  1.00  0.00     0.049 A 
ATOM     55  C   UNL A   1      39.429  32.263  31.552  1.00  0.00     0.074 A 
ATOM     56  C   UNL A   1      45.527  30.691  30.921  1.00  0.00     0.029 A 
ATOM     57  N   UNL A   1      44.198  32.437  30.943  1.00  0.00    -0.354 N 
ATOM     58  N   UNL A   1      40.184  32.117  32.604  1.00  0.00    -0.248 NA
ATOM     59  C   UNL A   1      40.008  33.072  30.487  1.00  0.00     0.031 C 
ATOM     60  C   UNL A   1      44.837  30.750  32.166  1.00  0.00     0.029 A 
ATOM     61  C   UNL A   1      43.820  31.697  32.037  1.00  0.00     0.049 A 
ATOM     62  H   UNL A   1      44.028  33.395  30.795  1.00  0.00     0.167 HD
ATOM     63  C   UNL A   1      41.464  32.439  32.179  1.00  0.00     0.074 A 
ATOM     64  C   UNL A   1      41.275  33.132  30.909  1.00  0.00     0.031 C 
ATOM     65  C   UNL A   1      42.567  31.868  32.747  1.00  0.00     0.034 A 
BRANCH  52  66
ATOM     66  C   UNL A   1      44.698  32.818  27.828  1.00  0.00     0.023 A 
ATOM     67  C   UNL A   1      43.939  33.957  28.151  1.00  0.00     0.031 A 
ATOM     68  C   UNL A   1      45.332  32.839  26.563  1.00  0.00     0.131 A 
ATOM     69  C   UNL A   1      43.781  35.004  27.227  1.00  0.00     0.055 A 
ATOM     70  C   UNL A   1      45.238  33.917  25.680  1.00  0.00     0.041 A 
ATOM     71  F   UNL A   1      45.992  31.783  26.069  1.00  0.00    -0.206 F 
ATOM     72  C   UNL A   1      44.435  34.998  25.997  1.00  0.00     0.022 A 
BRANCH  69  73
ATOM     73  S   UNL A   1      42.545  36.280  27.578  1.00  0.00     0.124 S 
ATOM     74  O   UNL A   1      41.328  35.487  27.716  1.00  0.00    -0.237 OA
ATOM     75  O   UNL A   1      43.068  36.876  28.802  1.00  0.00    -0.237 OA
ATOM     76  O   UNL A   1      42.597  37.135  26.394  1.00  0.00    -0.744 OA
ENDBRANCH  69  73
ENDBRANCH  52  66
BRANCH  53  77
ATOM     77  C   UNL A   1      36.921  31.863  30.906  1.00  0.00     0.023 A 
ATOM     78  C   UNL A   1      36.115  32.511  31.859  1.00  0.00     0.031 A 
ATOM     79  C   UNL A   1      36.455  31.868  29.569  1.00  0.00     0.131 A 
ATOM     80  C   UNL A   1      34.894  33.104  31.467  1.00  0.00     0.055 A 
ATOM     81  C   UNL A   1      35.236  32.430  29.192  1.00  0.00     0.041 A 
ATOM     82  F   UNL A   1      37.211  31.395  28.564  1.00  0.00    -0.206 F 
ATOM     83  C   UNL A   1      34.448  33.056  30.143  1.00  0.00     0.022 A 
BRANCH  80  84
ATOM     84  S   UNL A   1      33.916  34.054  32.672  1.00  0.00     0.124 S 
ATOM     85  O   UNL A   1      33.185  33.006  33.371  1.00  0.00    -0.237 OA
ATOM     86  O   UNL A   1      34.948  34.748  33.434  1.00  0.00    -0.237 OA
ATOM     87  O   UNL A   1      33.094  34.924  31.828  1.00  0.00    -0.744 OA
ENDBRANCH  80  84
ENDBRANCH  53  77
BRANCH  65  88
ATOM     88  C   UNL A   1      42.415  31.122  34.055  1.00  0.00     0.023 A 
ATOM     89  C   UNL A   1      42.264  29.722  34.158  1.00  0.00     0.031 A 
ATOM     90  C   UNL A   1      42.573  31.850  35.249  1.00  0.00     0.131 A 
ATOM     91  C   UNL A   1      42.263  29.105  35.422  1.00  0.00     0.055 A 
ATOM     92  C   UNL A   1      42.586  31.232  36.500  1.00  0.00     0.041 A 
ATOM     93  F   UNL A   1      42.759  33.180  35.217  1.00  0.00    -0.206 F 
ATOM     94  C   UNL A   1      42.424  29.855  36.591  1.00  0.00     0.022 A 
BRANCH  91  95
ATOM     95  S   UNL A   1      42.054  27.305  35.582  1.00  0.00     0.124 S 
ATOM     96  O   UNL A   1      41.862  27.100  37.012  1.00  0.00    -0.237 OA
ATOM     97  O   UNL A   1      40.887  27.061  34.737  1.00  0.00    -0.237 OA
ATOM     98  O   UNL A   1      43.310  26.774  35.050  1.00  0.00    -0.744 OA
ENDBRANCH  91  95
ENDBRANCH  65  88
ENDBRANCH  39  40
ENDBRANCH  32  34
ENDBRANCH  31  32
ENDBRANCH  30  31
ENDBRANCH   1  30
TORSDOF 18
ENDMDL
MODEL 2
REMARK VINA RESULT:     -12.9      2.110      6.568
REMARK SMILES Cc1nn(-c2ccccc2)c(C)c1CNC(=O)[C@@H]1[C@@H](C(=O)OCCOC(=O)c2ccc(-c3c4nc(c(-c5cc(S(=O)(=O)[O-])ccc5F)c5ccc([nH]5)c(-c5cc(S(=O)(=O)[O-])ccc5F)c5nc(c(-c6cc(S(=O)(=O)[O-])ccc6F)c6ccc3[nH]6)C=C5)C=C4)cc2)[C@@H]2C=C[C@H]1C2
REMARK SMILES IDX 23 1 22 2 20 3 21 4 19 5 18 6 94 7 91 8 93 9 95 10 92 11
REMARK SMILES IDX 16 12 15 13 17 15 14 16 13 17 1 18 2 19 3 20 4 21 11 22
REMARK SMILES IDX 12 23 5 24 6 25 10 26 7 27 9 28 8 29 24 30 25 31 26 32 27 33
REMARK SMILES IDX 28 34 29 35 90 36 30 37 89 38 31 39 32 40 33 41 83 42 34 43
REMARK SMILES IDX 88 44 82 45 84 46 35 47 87 48 81 49 80 50 36 52 68 53 48 54
REMARK SMILES IDX 67 55 49 56 52 57 66 58 85 59 50 60 51 61 65 63 86 64 53 65
REMARK SMILES IDX 37 66 38 67 46 68 39 69 45 70 47 71 44 72 40 73 41 74 42 75
REMARK SMILES IDX 43 76 69 77 70 78 78 79 71 80 77 81 79 82 76 83 72 84 73 85
REMARK SMILES IDX 74 86 75 87 54 88 55 89 63 90 56 91 62 92 64 93 61 94 57 95
REMARK SMILES IDX 58 96 59 97 60 98
REMARK H PARENT 15 14 84 51 52 62
REMARK Flexibility Score: inf
ROOT
ATOM      1  C   UNL A   1      37.869  22.143  25.380  1.00  0.00     0.274 C 
ENDROOT
BRANCH   1   2
ATOM      2  O   UNL A   1      36.689  21.566  25.988  1.00  0.00    -0.462 OA
BRANCH   2   3
ATOM      3  C   UNL A   1      35.529  22.266  25.833  1.00  0.00     0.310 C 
ATOM      4  O   UNL A   1      35.190  23.188  26.567  1.00  0.00    -0.252 OA
BRANCH   3   5
ATOM      5  C   UNL A   1      34.665  21.717  24.698  1.00  0.00     0.119 C 
ATOM      6  C   UNL A   1      33.279  22.430  24.493  1.00  0.00     0.100 C 
ATOM      7  C   UNL A   1      32.260  21.279  24.726  1.00  0.00     0.025 C 
ATOM      8  C   UNL A   1      34.225  20.273  25.082  1.00  0.00     0.027 C 
ATOM      9  C   UNL A   1      32.426  20.217  23.660  1.00  0.00    -0.027 C 
ATOM     10  C   UNL A   1      32.935  20.531  25.877  1.00  0.00     0.017 C 
ATOM     11  C   UNL A   1      33.612  19.626  23.864  1.00  0.00    -0.027 C 
BRANCH   6  12
ATOM     12  C   UNL A   1      33.090  23.064  23.116  1.00  0.00     0.224 C 
ATOM     13  N   UNL A   1      31.873  23.554  22.739  1.00  0.00    -0.352 N 
ATOM     14  H   UNL A   1      31.791  23.752  21.778  1.00  0.00     0.163 HD
ATOM     15  O   UNL A   1      34.013  23.137  22.300  1.00  0.00    -0.275 OA
BRANCH  13  16
ATOM     16  C   UNL A   1      30.677  23.834  23.519  1.00  0.00     0.155 C 
BRANCH  16  17
ATOM     17  C   UNL A   1      30.985  24.830  24.598  1.00  0.00     0.016 A 
ATOM     18  C   UNL A   1      30.270  23.473  26.745  1.00  0.00     0.069 C 
ATOM     19  C   UNL A   1      30.852  24.630  26.005  1.00  0.00     0.065 A 
ATOM     20  N   UNL A   1      31.385  25.638  26.703  1.00  0.00    -0.173 NA
ATOM     21  N   UNL A   1      31.791  26.535  25.788  1.00  0.00    -0.237 N 
ATOM     22  C   UNL A   1      31.540  26.105  24.494  1.00  0.00     0.046 A 
ATOM     23  C   UNL A   1      31.984  26.863  23.298  1.00  0.00     0.067 C 
BRANCH  21  24
ATOM     24  C   UNL A   1      32.482  27.707  26.199  1.00  0.00     0.065 A 
ATOM     25  C   UNL A   1      31.743  28.797  26.674  1.00  0.00     0.028 A 
ATOM     26  C   UNL A   1      33.882  27.759  26.203  1.00  0.00     0.028 A 
ATOM     27  C   UNL A   1      32.407  29.890  27.236  1.00  0.00     0.002 A 
ATOM     28  C   UNL A   1      34.539  28.861  26.747  1.00  0.00     0.002 A 
ATOM     29  C   UNL A   1      33.801  29.916  27.283  1.00  0.00     0.000 A 
ENDBRANCH  21  24
ENDBRANCH  16  17
ENDBRANCH  13  16
ENDBRANCH   6  12
ENDBRANCH   3   5
ENDBRANCH   2   3
ENDBRANCH   1   2
BRANCH   1  30
ATOM     30  C   UNL A   1      38.279  23.520  25.919  1.00  0.00     0.275 C 
BRANCH  30  31
ATOM     31  O   UNL A   1      39.397  23.484  26.813  1.00  0.00    -0.458 OA
BRANCH  31  32
ATOM     32  C   UNL A   1      40.182  24.571  26.669  1.00  0.00     0.338 C 
ATOM     33  O   UNL A   1      41.290  24.599  26.164  1.00  0.00    -0.246 OA
BRANCH  32  34
ATOM     34  C   UNL A   1      39.667  25.761  27.332  1.00  0.00     0.060 A 
ATOM     35  C   UNL A   1      40.086  26.989  26.805  1.00  0.00     0.016 A 
ATOM     36  C   UNL A   1      39.159  25.639  28.625  1.00  0.00     0.016 A 
ATOM     37  C   UNL A   1      40.165  28.079  27.641  1.00  0.00     0.010 A 
ATOM     38  C   UNL A   1      39.221  26.740  29.455  1.00  0.00     0.010 A 
ATOM     39  C   UNL A   1      39.800  27.924  28.980  1.00  0.00    -0.014 A 
BRANCH  39  40
ATOM     40  C   UNL A   1      39.997  29.066  29.857  1.00  0.00     0.031 A 
ATOM     41  C   UNL A   1      38.820  29.960  30.002  1.00  0.00     0.074 A 
ATOM     42  C   UNL A   1      41.107  29.211  30.605  1.00  0.00     0.049 A 
ATOM     43  N   UNL A   1      38.765  31.247  29.895  1.00  0.00    -0.248 NA
ATOM     44  C   UNL A   1      37.512  29.316  30.203  1.00  0.00     0.031 C 
ATOM     45  C   UNL A   1      42.207  28.253  30.751  1.00  0.00     0.029 A 
ATOM     46  N   UNL A   1      41.401  30.172  31.526  1.00  0.00    -0.354 N 
ATOM     47  C   UNL A   1      37.454  31.595  30.214  1.00  0.00     0.074 A 
ATOM     48  C   UNL A   1      36.701  30.371  30.247  1.00  0.00     0.031 C 
ATOM     49  C   UNL A   1      42.884  28.539  31.884  1.00  0.00     0.029 A 
ATOM     50  C   UNL A   1      42.334  29.754  32.466  1.00  0.00     0.049 A 
ATOM     51  H   UNL A   1      40.994  31.068  31.526  1.00  0.00     0.167 HD
ATOM     52  C   UNL A   1      37.116  32.847  30.623  1.00  0.00     0.034 A 
ATOM     53  C   UNL A   1      42.550  30.287  33.695  1.00  0.00     0.034 A 
ATOM     54  C   UNL A   1      38.091  33.826  30.218  1.00  0.00     0.049 A 
ATOM     55  C   UNL A   1      42.002  31.665  33.696  1.00  0.00     0.074 A 
ATOM     56  C   UNL A   1      38.614  34.216  28.999  1.00  0.00     0.029 A 
ATOM     57  N   UNL A   1      38.930  34.366  31.165  1.00  0.00    -0.354 N 
ATOM     58  N   UNL A   1      42.492  32.643  32.987  1.00  0.00    -0.248 NA
ATOM     59  C   UNL A   1      40.639  31.869  34.167  1.00  0.00     0.031 C 
ATOM     60  C   UNL A   1      39.980  34.522  29.262  1.00  0.00     0.029 A 
ATOM     61  C   UNL A   1      40.195  34.341  30.629  1.00  0.00     0.049 A 
ATOM     62  H   UNL A   1      38.675  34.704  32.054  1.00  0.00     0.167 HD
ATOM     63  C   UNL A   1      41.390  33.372  32.567  1.00  0.00     0.074 A 
ATOM     64  C   UNL A   1      40.294  32.922  33.420  1.00  0.00     0.031 C 
ATOM     65  C   UNL A   1      41.398  34.060  31.387  1.00  0.00     0.034 A 
BRANCH  52  66
ATOM     66  C   UNL A   1      36.039  33.133  31.640  1.00  0.00     0.023 A 
ATOM     67  C   UNL A   1      34.959  33.942  31.246  1.00  0.00     0.031 A 
ATOM     68  C   UNL A   1      36.154  32.890  33.029  1.00  0.00     0.131 A 
ATOM     69  C   UNL A   1      34.104  34.517  32.202  1.00  0.00     0.055 A 
ATOM     70  C   UNL A   1      35.254  33.398  33.969  1.00  0.00     0.041 A 
ATOM     71  F   UNL A   1      37.194  32.236  33.564  1.00  0.00    -0.206 F 
ATOM     72  C   UNL A   1      34.237  34.242  33.561  1.00  0.00     0.022 A 
BRANCH  69  73
ATOM     73  S   UNL A   1      32.939  35.793  31.656  1.00  0.00     0.124 S 
ATOM     74  O   UNL A   1      32.891  35.556  30.217  1.00  0.00    -0.237 OA
ATOM     75  O   UNL A   1      31.739  35.442  32.407  1.00  0.00    -0.237 OA
ATOM     76  O   UNL A   1      33.589  37.038  32.060  1.00  0.00    -0.744 OA
ENDBRANCH  69  73
ENDBRANCH  52  66
BRANCH  53  77
ATOM     77  C   UNL A   1      42.905  29.532  34.922  1.00  0.00     0.023 A 
ATOM     78  C   UNL A   1      42.194  28.390  35.333  1.00  0.00     0.031 A 
ATOM     79  C   UNL A   1      44.102  29.821  35.620  1.00  0.00     0.131 A 
ATOM     80  C   UNL A   1      42.669  27.609  36.410  1.00  0.00     0.055 A 
ATOM     81  C   UNL A   1      44.554  29.063  36.700  1.00  0.00     0.041 A 
ATOM     82  F   UNL A   1      44.922  30.807  35.220  1.00  0.00    -0.206 F 
ATOM     83  C   UNL A   1      43.838  27.947  37.099  1.00  0.00     0.022 A 
BRANCH  80  84
ATOM     84  S   UNL A   1      41.823  26.062  36.856  1.00  0.00     0.124 S 
ATOM     85  O   UNL A   1      40.701  26.542  37.653  1.00  0.00    -0.237 OA
ATOM     86  O   UNL A   1      41.500  25.495  35.552  1.00  0.00    -0.237 OA
ATOM     87  O   UNL A   1      42.842  25.323  37.606  1.00  0.00    -0.744 OA
ENDBRANCH  80  84
ENDBRANCH  53  77
BRANCH  65  88
ATOM     88  C   UNL A   1      42.719  34.291  30.684  1.00  0.00     0.023 A 
ATOM     89  C   UNL A   1      43.225  33.471  29.652  1.00  0.00     0.031 A 
ATOM     90  C   UNL A   1      43.422  35.475  30.978  1.00  0.00     0.131 A 
ATOM     91  C   UNL A   1      44.397  33.841  28.969  1.00  0.00     0.055 A 
ATOM     92  C   UNL A   1      44.575  35.845  30.287  1.00  0.00     0.041 A 
ATOM     93  F   UNL A   1      42.971  36.318  31.923  1.00  0.00    -0.206 F 
ATOM     94  C   UNL A   1      45.072  35.024  29.283  1.00  0.00     0.022 A 
BRANCH  91  95
ATOM     95  S   UNL A   1      45.077  32.791  27.648  1.00  0.00     0.124 S 
ATOM     96  O   UNL A   1      46.208  32.123  28.279  1.00  0.00    -0.237 OA
ATOM     97  O   UNL A   1      43.934  31.944  27.316  1.00  0.00    -0.237 OA
ATOM     98  O   UNL A   1      45.438  33.756  26.607  1.00  0.00    -0.744 OA
ENDBRANCH  91  95
ENDBRANCH  65  88
ENDBRANCH  39  40
ENDBRANCH  32  34
ENDBRANCH  31  32
ENDBRANCH  30  31
ENDBRANCH   1  30
TORSDOF 18
ENDMDL
MODEL 3
REMARK VINA RESULT:     -12.8      3.409      9.427
REMARK SMILES Cc1nn(-c2ccccc2)c(C)c1CNC(=O)[C@@H]1[C@@H](C(=O)OCCOC(=O)c2ccc(-c3c4nc(c(-c5cc(S(=O)(=O)[O-])ccc5F)c5ccc([nH]5)c(-c5cc(S(=O)(=O)[O-])ccc5F)c5nc(c(-c6cc(S(=O)(=O)[O-])ccc6F)c6ccc3[nH]6)C=C5)C=C4)cc2)[C@@H]2C=C[C@H]1C2
REMARK SMILES IDX 23 1 22 2 20 3 21 4 19 5 18 6 94 7 91 8 93 9 95 10 92 11
REMARK SMILES IDX 16 12 15 13 17 15 14 16 13 17 1 18 2 19 3 20 4 21 11 22
REMARK SMILES IDX 12 23 5 24 6 25 10 26 7 27 9 28 8 29 24 30 25 31 26 32 27 33
REMARK SMILES IDX 28 34 29 35 90 36 30 37 89 38 31 39 32 40 33 41 83 42 34 43
REMARK SMILES IDX 88 44 82 45 84 46 35 47 87 48 81 49 80 50 36 52 68 53 48 54
REMARK SMILES IDX 67 55 49 56 52 57 66 58 85 59 50 60 51 61 65 63 86 64 53 65
REMARK SMILES IDX 37 66 38 67 46 68 39 69 45 70 47 71 44 72 40 73 41 74 42 75
REMARK SMILES IDX 43 76 69 77 70 78 78 79 71 80 77 81 79 82 76 83 72 84 73 85
REMARK SMILES IDX 74 86 75 87 54 88 55 89 63 90 56 91 62 92 64 93 61 94 57 95
REMARK SMILES IDX 58 96 59 97 60 98
REMARK H PARENT 15 14 84 51 52 62
REMARK Flexibility Score: inf
ROOT
ATOM      1  C   UNL A   1      32.376  30.637  26.733  1.00  0.00     0.274 C 
ENDROOT
BRANCH   1   2
ATOM      2  O   UNL A   1      31.914  29.342  27.189  1.00  0.00    -0.462 OA
BRANCH   2   3
ATOM      3  C   UNL A   1      32.423  28.258  26.535  1.00  0.00     0.310 C 
ATOM      4  O   UNL A   1      33.597  27.911  26.611  1.00  0.00    -0.252 OA
BRANCH   3   5
ATOM      5  C   UNL A   1      31.389  27.584  25.634  1.00  0.00     0.119 C 
ATOM      6  C   UNL A   1      31.896  26.323  24.845  1.00  0.00     0.100 C 
ATOM      7  C   UNL A   1      31.706  26.745  23.361  1.00  0.00     0.025 C 
ATOM      8  C   UNL A   1      31.043  28.566  24.476  1.00  0.00     0.027 C 
ATOM      9  C   UNL A   1      30.235  26.948  23.064  1.00  0.00    -0.027 C 
ATOM     10  C   UNL A   1      32.114  28.217  23.429  1.00  0.00     0.017 C 
ATOM     11  C   UNL A   1      29.835  28.031  23.747  1.00  0.00    -0.027 C 
BRANCH   6  12
ATOM     12  C   UNL A   1      31.136  25.034  25.154  1.00  0.00     0.224 C 
ATOM     13  N   UNL A   1      31.480  23.862  24.543  1.00  0.00    -0.352 N 
ATOM     14  H   UNL A   1      30.819  23.140  24.641  1.00  0.00     0.163 HD
ATOM     15  O   UNL A   1      30.186  25.010  25.940  1.00  0.00    -0.275 OA
BRANCH  13  16
ATOM     16  C   UNL A   1      32.661  23.502  23.772  1.00  0.00     0.155 C 
BRANCH  16  17
ATOM     17  C   UNL A   1      33.227  22.204  24.267  1.00  0.00     0.016 A 
ATOM     18  C   UNL A   1      34.702  23.043  26.286  1.00  0.00     0.069 C 
ATOM     19  C   UNL A   1      34.072  22.021  25.403  1.00  0.00     0.065 A 
ATOM     20  N   UNL A   1      34.247  20.727  25.688  1.00  0.00    -0.173 NA
ATOM     21  N   UNL A   1      33.605  20.053  24.719  1.00  0.00    -0.237 N 
ATOM     22  C   UNL A   1      32.996  20.907  23.812  1.00  0.00     0.046 A 
ATOM     23  C   UNL A   1      32.137  20.417  22.704  1.00  0.00     0.067 C 
BRANCH  21  24
ATOM     24  C   UNL A   1      33.529  18.634  24.769  1.00  0.00     0.065 A 
ATOM     25  C   UNL A   1      32.743  18.033  25.759  1.00  0.00     0.028 A 
ATOM     26  C   UNL A   1      34.166  17.841  23.807  1.00  0.00     0.028 A 
ATOM     27  C   UNL A   1      32.523  16.655  25.724  1.00  0.00     0.002 A 
ATOM     28  C   UNL A   1      33.958  16.462  23.789  1.00  0.00     0.002 A 
ATOM     29  C   UNL A   1      33.120  15.873  24.734  1.00  0.00     0.000 A 
ENDBRANCH  21  24
ENDBRANCH  16  17
ENDBRANCH  13  16
ENDBRANCH   6  12
ENDBRANCH   3   5
ENDBRANCH   2   3
ENDBRANCH   1   2
BRANCH   1  30
ATOM     30  C   UNL A   1      33.443  31.301  27.613  1.00  0.00     0.275 C 
BRANCH  30  31
ATOM     31  O   UNL A   1      34.786  30.944  27.265  1.00  0.00    -0.458 OA
BRANCH  31  32
ATOM     32  C   UNL A   1      35.686  31.721  27.901  1.00  0.00     0.338 C 
ATOM     33  O   UNL A   1      35.844  32.919  27.742  1.00  0.00    -0.246 OA
BRANCH  32  34
ATOM     34  C   UNL A   1      36.625  30.978  28.729  1.00  0.00     0.060 A 
ATOM     35  C   UNL A   1      37.647  31.727  29.325  1.00  0.00     0.016 A 
ATOM     36  C   UNL A   1      36.713  29.596  28.563  1.00  0.00     0.016 A 
ATOM     37  C   UNL A   1      38.848  31.114  29.600  1.00  0.00     0.010 A 
ATOM     38  C   UNL A   1      37.914  28.981  28.859  1.00  0.00     0.010 A 
ATOM     39  C   UNL A   1      38.993  29.760  29.294  1.00  0.00    -0.014 A 
BRANCH  39  40
ATOM     40  C   UNL A   1      40.307  29.172  29.498  1.00  0.00     0.031 A 
ATOM     41  C   UNL A   1      40.713  29.011  30.917  1.00  0.00     0.074 A 
ATOM     42  C   UNL A   1      41.030  28.665  28.480  1.00  0.00     0.049 A 
ATOM     43  N   UNL A   1      41.820  29.360  31.485  1.00  0.00    -0.248 NA
ATOM     44  C   UNL A   1      39.705  28.470  31.843  1.00  0.00     0.031 C 
ATOM     45  C   UNL A   1      40.610  28.519  27.083  1.00  0.00     0.029 A 
ATOM     46  N   UNL A   1      42.228  28.015  28.520  1.00  0.00    -0.354 N 
ATOM     47  C   UNL A   1      41.730  28.901  32.797  1.00  0.00     0.074 A 
ATOM     48  C   UNL A   1      40.364  28.500  32.999  1.00  0.00     0.031 C 
ATOM     49  C   UNL A   1      41.396  27.596  26.489  1.00  0.00     0.029 A 
ATOM     50  C   UNL A   1      42.428  27.182  27.428  1.00  0.00     0.049 A 
ATOM     51  H   UNL A   1      42.881  28.125  29.248  1.00  0.00     0.167 HD
ATOM     52  C   UNL A   1      42.830  28.697  33.571  1.00  0.00     0.034 A 
ATOM     53  C   UNL A   1      43.289  26.137  27.346  1.00  0.00     0.034 A 
ATOM     54  C   UNL A   1      43.966  29.446  33.098  1.00  0.00     0.049 A 
ATOM     55  C   UNL A   1      44.325  26.317  28.392  1.00  0.00     0.074 A 
ATOM     56  C   UNL A   1      44.205  30.789  32.868  1.00  0.00     0.029 A 
ATOM     57  N   UNL A   1      44.992  28.780  32.470  1.00  0.00    -0.354 N 
ATOM     58  N   UNL A   1      45.205  27.278  28.387  1.00  0.00    -0.248 NA
ATOM     59  C   UNL A   1      44.124  25.673  29.684  1.00  0.00     0.031 C 
ATOM     60  C   UNL A   1      45.046  30.825  31.719  1.00  0.00     0.029 A 
ATOM     61  C   UNL A   1      45.301  29.505  31.345  1.00  0.00     0.049 A 
ATOM     62  H   UNL A   1      45.421  27.946  32.768  1.00  0.00     0.167 HD
ATOM     63  C   UNL A   1      45.351  27.642  29.716  1.00  0.00     0.074 A 
ATOM     64  C   UNL A   1      44.756  26.545  30.474  1.00  0.00     0.031 C 
ATOM     65  C   UNL A   1      45.678  28.919  30.073  1.00  0.00     0.034 A 
BRANCH  52  66
ATOM     66  C   UNL A   1      42.943  27.591  34.589  1.00  0.00     0.023 A 
ATOM     67  C   UNL A   1      43.683  26.447  34.240  1.00  0.00     0.031 A 
ATOM     68  C   UNL A   1      42.149  27.479  35.755  1.00  0.00     0.131 A 
ATOM     69  C   UNL A   1      43.566  25.259  34.981  1.00  0.00     0.055 A 
ATOM     70  C   UNL A   1      42.098  26.322  36.535  1.00  0.00     0.041 A 
ATOM     71  F   UNL A   1      41.305  28.443  36.148  1.00  0.00    -0.206 F 
ATOM     72  C   UNL A   1      42.787  25.191  36.134  1.00  0.00     0.022 A 
BRANCH  69  73
ATOM     73  S   UNL A   1      44.289  23.745  34.299  1.00  0.00     0.124 S 
ATOM     74  O   UNL A   1      43.112  23.066  33.766  1.00  0.00    -0.237 OA
ATOM     75  O   UNL A   1      45.226  24.278  33.317  1.00  0.00    -0.237 OA
ATOM     76  O   UNL A   1      44.899  23.108  35.464  1.00  0.00    -0.744 OA
ENDBRANCH  69  73
ENDBRANCH  52  66
BRANCH  53  77
ATOM     77  C   UNL A   1      43.046  24.862  26.626  1.00  0.00     0.023 A 
ATOM     78  C   UNL A   1      43.921  24.380  25.636  1.00  0.00     0.031 A 
ATOM     79  C   UNL A   1      42.024  23.982  27.054  1.00  0.00     0.131 A 
ATOM     80  C   UNL A   1      43.740  23.085  25.100  1.00  0.00     0.055 A 
ATOM     81  C   UNL A   1      41.831  22.715  26.503  1.00  0.00     0.041 A 
ATOM     82  F   UNL A   1      41.222  24.293  28.086  1.00  0.00    -0.206 F 
ATOM     83  C   UNL A   1      42.695  22.258  25.522  1.00  0.00     0.022 A 
BRANCH  80  84
ATOM     84  S   UNL A   1      44.946  22.413  23.917  1.00  0.00     0.124 S 
ATOM     85  O   UNL A   1      45.932  23.484  23.838  1.00  0.00    -0.237 OA
ATOM     86  O   UNL A   1      45.374  21.182  24.572  1.00  0.00    -0.237 OA
ATOM     87  O   UNL A   1      44.153  22.213  22.702  1.00  0.00    -0.744 OA
ENDBRANCH  80  84
ENDBRANCH  53  77
BRANCH  65  88
ATOM     88  C   UNL A   1      46.196  29.866  29.011  1.00  0.00     0.023 A 
ATOM     89  C   UNL A   1      45.389  30.781  28.300  1.00  0.00     0.031 A 
ATOM     90  C   UNL A   1      47.588  29.939  28.818  1.00  0.00     0.131 A 
ATOM     91  C   UNL A   1      45.981  31.712  27.428  1.00  0.00     0.055 A 
ATOM     92  C   UNL A   1      48.171  30.874  27.962  1.00  0.00     0.041 A 
ATOM     93  F   UNL A   1      48.413  29.122  29.494  1.00  0.00    -0.206 F 
ATOM     94  C   UNL A   1      47.367  31.761  27.258  1.00  0.00     0.022 A 
BRANCH  91  95
ATOM     95  S   UNL A   1      44.961  32.889  26.488  1.00  0.00     0.124 S 
ATOM     96  O   UNL A   1      45.936  33.731  25.806  1.00  0.00    -0.237 OA
ATOM     97  O   UNL A   1      44.177  31.997  25.637  1.00  0.00    -0.237 OA
ATOM     98  O   UNL A   1      44.188  33.568  27.530  1.00  0.00    -0.744 OA
ENDBRANCH  91  95
ENDBRANCH  65  88
ENDBRANCH  39  40
ENDBRANCH  32  34
ENDBRANCH  31  32
ENDBRANCH  30  31
ENDBRANCH   1  30
TORSDOF 18
ENDMDL
