MODEL 1
REMARK VINA RESULT:     -11.5      0.000      0.000
REMARK SMILES C[NH2+][C@@]1(C(=O)OCCOC(=O)c2ccc(-c3c4nc(c(-c5cc(S(=O)(=O)[O-])ccc5F)c5ccc([nH]5)c(-c5cc(S(=O)(=O)[O-])ccc5F)c5nc(c(-c6cc(S(=O)(=O)[O-])ccc6F)c6ccc3[nH]6)C=C5)C=C4)cc2)CC[C@H](Oc2cccc(C)c2)C1
REMARK SMILES IDX 8 1 7 2 6 3 4 4 5 5 3 6 75 7 86 8 76 9 77 10 2 11 1 12 78 15
REMARK SMILES IDX 79 16 80 17 85 18 81 19 83 20 82 21 84 22 9 23 10 24 11 25
REMARK SMILES IDX 12 26 13 27 74 28 14 29 73 30 15 31 16 32 17 33 67 34 18 35
REMARK SMILES IDX 72 36 66 37 68 38 19 39 71 40 65 41 64 42 20 44 52 45 32 46
REMARK SMILES IDX 51 47 33 48 36 49 50 50 69 51 34 52 35 53 49 55 70 56 37 57
REMARK SMILES IDX 21 58 22 59 30 60 23 61 29 62 31 63 28 64 24 65 25 66 26 67
REMARK SMILES IDX 27 68 53 69 54 70 62 71 55 72 61 73 63 74 60 75 56 76 57 77
REMARK SMILES IDX 58 78 59 79 38 80 39 81 47 82 40 83 46 84 48 85 45 86 41 87
REMARK SMILES IDX 42 88 43 89 44 90
REMARK H PARENT 2 13 2 14 68 43 36 54
REMARK Flexibility Score: inf
ROOT
ATOM      1  C   UNL A   1      32.308  30.313  25.642  1.00  0.00     0.275 C 
ENDROOT
BRANCH   1   2
ATOM      2  C   UNL A   1      32.843  28.937  25.264  1.00  0.00     0.274 C 
BRANCH   2   3
ATOM      3  O   UNL A   1      32.100  27.906  25.943  1.00  0.00    -0.457 OA
BRANCH   3   4
ATOM      4  C   UNL A   1      32.583  26.641  25.845  1.00  0.00     0.368 C 
ATOM      5  O   UNL A   1      33.777  26.354  25.866  1.00  0.00    -0.245 OA
BRANCH   4   6
ATOM      6  C   UNL A   1      31.473  25.570  25.627  1.00  0.00     0.197 C 
ATOM      7  C   UNL A   1      31.980  24.627  24.528  1.00  0.00     0.085 C 
ATOM      8  C   UNL A   1      30.159  26.077  25.014  1.00  0.00     0.126 C 
ATOM      9  C   UNL A   1      31.714  25.404  23.246  1.00  0.00     0.052 C 
ATOM     10  C   UNL A   1      30.414  26.182  23.500  1.00  0.00     0.180 C 
BRANCH   6  11
ATOM     11  N   UNL A   1      31.306  24.776  26.867  1.00  0.00    -0.334 N 
ATOM     12  C   UNL A   1      31.752  23.394  26.769  1.00  0.00     0.331 C 
ATOM     13  H   UNL A   1      31.837  25.230  27.609  1.00  0.00     0.347 HD
ATOM     14  H   UNL A   1      30.304  24.742  27.054  1.00  0.00     0.347 HD
ENDBRANCH   6  11
BRANCH  10  15
ATOM     15  O   UNL A   1      30.541  27.566  23.183  1.00  0.00    -0.490 OA
BRANCH  15  16
ATOM     16  C   UNL A   1      29.441  28.368  23.226  1.00  0.00     0.119 A 
ATOM     17  C   UNL A   1      28.115  27.954  23.131  1.00  0.00     0.046 A 
ATOM     18  C   UNL A   1      29.729  29.730  23.349  1.00  0.00     0.049 A 
ATOM     19  C   UNL A   1      27.087  28.899  23.129  1.00  0.00     0.004 A 
ATOM     20  C   UNL A   1      28.706  30.685  23.373  1.00  0.00    -0.047 A 
ATOM     21  C   UNL A   1      27.380  30.258  23.245  1.00  0.00     0.003 A 
ATOM     22  C   UNL A   1      29.022  32.144  23.501  1.00  0.00     0.044 C 
ENDBRANCH  15  16
ENDBRANCH  10  15
ENDBRANCH   4   6
ENDBRANCH   3   4
ENDBRANCH   2   3
ENDBRANCH   1   2
BRANCH   1  23
ATOM     23  O   UNL A   1      32.536  30.521  27.044  1.00  0.00    -0.458 OA
BRANCH  23  24
ATOM     24  C   UNL A   1      33.208  31.643  27.379  1.00  0.00     0.338 C 
ATOM     25  O   UNL A   1      32.797  32.794  27.297  1.00  0.00    -0.246 OA
BRANCH  24  26
ATOM     26  C   UNL A   1      34.550  31.288  27.886  1.00  0.00     0.060 A 
ATOM     27  C   UNL A   1      34.843  29.983  28.286  1.00  0.00     0.016 A 
ATOM     28  C   UNL A   1      35.502  32.291  28.060  1.00  0.00     0.016 A 
ATOM     29  C   UNL A   1      36.039  29.698  28.943  1.00  0.00     0.010 A 
ATOM     30  C   UNL A   1      36.745  31.980  28.623  1.00  0.00     0.010 A 
ATOM     31  C   UNL A   1      37.018  30.687  29.104  1.00  0.00    -0.014 A 
BRANCH  31  32
ATOM     32  C   UNL A   1      38.299  30.395  29.810  1.00  0.00     0.031 A 
ATOM     33  C   UNL A   1      39.320  29.492  29.166  1.00  0.00     0.074 A 
ATOM     34  C   UNL A   1      38.558  30.922  31.024  1.00  0.00     0.049 A 
ATOM     35  N   UNL A   1      40.351  28.888  29.700  1.00  0.00    -0.248 NA
ATOM     36  C   UNL A   1      39.136  29.212  27.734  1.00  0.00     0.031 C 
ATOM     37  C   UNL A   1      37.697  31.861  31.748  1.00  0.00     0.029 A 
ATOM     38  N   UNL A   1      39.627  30.742  31.869  1.00  0.00    -0.354 N 
ATOM     39  C   UNL A   1      40.893  28.096  28.692  1.00  0.00     0.074 A 
ATOM     40  C   UNL A   1      40.076  28.303  27.514  1.00  0.00     0.031 C 
ATOM     41  C   UNL A   1      38.287  32.202  32.904  1.00  0.00     0.029 A 
ATOM     42  C   UNL A   1      39.511  31.426  33.058  1.00  0.00     0.049 A 
ATOM     43  H   UNL A   1      40.401  30.177  31.645  1.00  0.00     0.167 HD
ATOM     44  C   UNL A   1      41.963  27.264  28.754  1.00  0.00     0.034 A 
ATOM     45  C   UNL A   1      40.265  31.388  34.174  1.00  0.00     0.034 A 
ATOM     46  C   UNL A   1      42.803  27.121  29.919  1.00  0.00     0.049 A 
ATOM     47  C   UNL A   1      41.439  30.450  34.228  1.00  0.00     0.074 A 
ATOM     48  C   UNL A   1      43.918  26.318  30.090  1.00  0.00     0.029 A 
ATOM     49  N   UNL A   1      42.631  27.815  31.112  1.00  0.00    -0.354 N 
ATOM     50  N   UNL A   1      41.873  29.618  33.310  1.00  0.00    -0.248 NA
ATOM     51  C   UNL A   1      42.209  30.428  35.478  1.00  0.00     0.031 C 
ATOM     52  C   UNL A   1      44.392  26.492  31.396  1.00  0.00     0.029 A 
ATOM     53  C   UNL A   1      43.611  27.448  32.023  1.00  0.00     0.049 A 
ATOM     54  H   UNL A   1      41.918  28.471  31.285  1.00  0.00     0.167 HD
ATOM     55  C   UNL A   1      42.968  28.970  33.875  1.00  0.00     0.074 A 
ATOM     56  C   UNL A   1      43.142  29.529  35.201  1.00  0.00     0.031 C 
ATOM     57  C   UNL A   1      43.753  27.997  33.349  1.00  0.00     0.034 A 
BRANCH  44  58
ATOM     58  C   UNL A   1      42.239  26.393  27.551  1.00  0.00     0.023 A 
ATOM     59  C   UNL A   1      41.790  25.065  27.465  1.00  0.00     0.031 A 
ATOM     60  C   UNL A   1      42.997  26.903  26.481  1.00  0.00     0.131 A 
ATOM     61  C   UNL A   1      42.157  24.273  26.364  1.00  0.00     0.055 A 
ATOM     62  C   UNL A   1      43.295  26.134  25.355  1.00  0.00     0.041 A 
ATOM     63  F   UNL A   1      43.472  28.158  26.517  1.00  0.00    -0.206 F 
ATOM     64  C   UNL A   1      42.886  24.805  25.298  1.00  0.00     0.022 A 
BRANCH  61  65
ATOM     65  S   UNL A   1      41.781  22.499  26.405  1.00  0.00     0.124 S 
ATOM     66  O   UNL A   1      42.396  22.095  27.666  1.00  0.00    -0.237 OA
ATOM     67  O   UNL A   1      40.323  22.485  26.373  1.00  0.00    -0.237 OA
ATOM     68  O   UNL A   1      42.436  21.981  25.206  1.00  0.00    -0.744 OA
ENDBRANCH  61  65
ENDBRANCH  44  58
BRANCH  45  69
ATOM     69  C   UNL A   1      39.879  32.198  35.365  1.00  0.00     0.023 A 
ATOM     70  C   UNL A   1      39.005  31.688  36.336  1.00  0.00     0.031 A 
ATOM     71  C   UNL A   1      40.370  33.505  35.537  1.00  0.00     0.131 A 
ATOM     72  C   UNL A   1      38.630  32.490  37.425  1.00  0.00     0.055 A 
ATOM     73  C   UNL A   1      40.033  34.279  36.647  1.00  0.00     0.041 A 
ATOM     74  F   UNL A   1      41.208  34.040  34.633  1.00  0.00    -0.206 F 
ATOM     75  C   UNL A   1      39.150  33.776  37.595  1.00  0.00     0.022 A 
BRANCH  72  76
ATOM     76  S   UNL A   1      37.398  31.851  38.594  1.00  0.00     0.124 S 
ATOM     77  O   UNL A   1      38.124  31.915  39.858  1.00  0.00    -0.237 OA
ATOM     78  O   UNL A   1      36.304  32.804  38.433  1.00  0.00    -0.237 OA
ATOM     79  O   UNL A   1      37.125  30.504  38.098  1.00  0.00    -0.744 OA
ENDBRANCH  72  76
ENDBRANCH  45  69
BRANCH  57  80
ATOM     80  C   UNL A   1      44.884  27.506  34.214  1.00  0.00     0.023 A 
ATOM     81  C   UNL A   1      44.704  26.460  35.136  1.00  0.00     0.031 A 
ATOM     82  C   UNL A   1      46.149  28.116  34.138  1.00  0.00     0.131 A 
ATOM     83  C   UNL A   1      45.757  26.090  35.985  1.00  0.00     0.055 A 
ATOM     84  C   UNL A   1      47.206  27.711  34.951  1.00  0.00     0.041 A 
ATOM     85  F   UNL A   1      46.371  29.121  33.275  1.00  0.00    -0.206 F 
ATOM     86  C   UNL A   1      47.010  26.701  35.890  1.00  0.00     0.022 A 
BRANCH  83  87
ATOM     87  S   UNL A   1      45.443  24.856  37.277  1.00  0.00     0.124 S 
ATOM     88  O   UNL A   1      46.787  24.596  37.781  1.00  0.00    -0.237 OA
ATOM     89  O   UNL A   1      44.549  25.571  38.182  1.00  0.00    -0.237 OA
ATOM     90  O   UNL A   1      44.829  23.747  36.550  1.00  0.00    -0.744 OA
ENDBRANCH  83  87
ENDBRANCH  57  80
ENDBRANCH  31  32
ENDBRANCH  24  26
ENDBRANCH  23  24
ENDBRANCH   1  23
TORSDOF 17
ENDMDL
MODEL 2
REMARK VINA RESULT:     -11.4      5.639     10.733
REMARK SMILES C[NH2+][C@@]1(C(=O)OCCOC(=O)c2ccc(-c3c4nc(c(-c5cc(S(=O)(=O)[O-])ccc5F)c5ccc([nH]5)c(-c5cc(S(=O)(=O)[O-])ccc5F)c5nc(c(-c6cc(S(=O)(=O)[O-])ccc6F)c6ccc3[nH]6)C=C5)C=C4)cc2)CC[C@H](Oc2cccc(C)c2)C1
REMARK SMILES IDX 8 1 7 2 6 3 4 4 5 5 3 6 75 7 86 8 76 9 77 10 2 11 1 12 78 15
REMARK SMILES IDX 79 16 80 17 85 18 81 19 83 20 82 21 84 22 9 23 10 24 11 25
REMARK SMILES IDX 12 26 13 27 74 28 14 29 73 30 15 31 16 32 17 33 67 34 18 35
REMARK SMILES IDX 72 36 66 37 68 38 19 39 71 40 65 41 64 42 20 44 52 45 32 46
REMARK SMILES IDX 51 47 33 48 36 49 50 50 69 51 34 52 35 53 49 55 70 56 37 57
REMARK SMILES IDX 21 58 22 59 30 60 23 61 29 62 31 63 28 64 24 65 25 66 26 67
REMARK SMILES IDX 27 68 53 69 54 70 62 71 55 72 61 73 63 74 60 75 56 76 57 77
REMARK SMILES IDX 58 78 59 79 38 80 39 81 47 82 40 83 46 84 48 85 45 86 41 87
REMARK SMILES IDX 42 88 43 89 44 90
REMARK H PARENT 2 13 2 14 68 43 36 54
REMARK Flexibility Score: inf
ROOT
ATOM      1  C   UNL A   1      36.808  21.438  24.378  1.00  0.00     0.275 C 
ENDROOT
BRANCH   1   2
ATOM      2  C   UNL A   1      36.397  22.742  23.706  1.00  0.00     0.274 C 
BRANCH   2   3
ATOM      3  O   UNL A   1      35.274  23.329  24.392  1.00  0.00    -0.457 OA
BRANCH   3   4
ATOM      4  C   UNL A   1      34.038  22.944  23.983  1.00  0.00     0.368 C 
ATOM      5  O   UNL A   1      33.750  22.671  22.819  1.00  0.00    -0.245 OA
BRANCH   4   6
ATOM      6  C   UNL A   1      32.978  22.947  25.124  1.00  0.00     0.197 C 
ATOM      7  C   UNL A   1      33.713  22.544  26.409  1.00  0.00     0.085 C 
ATOM      8  C   UNL A   1      31.894  21.861  25.038  1.00  0.00     0.126 C 
ATOM      9  C   UNL A   1      33.827  21.031  26.292  1.00  0.00     0.052 C 
ATOM     10  C   UNL A   1      32.541  20.577  25.584  1.00  0.00     0.180 C 
BRANCH   6  11
ATOM     11  N   UNL A   1      32.458  24.321  25.308  1.00  0.00    -0.334 N 
ATOM     12  C   UNL A   1      31.527  24.476  26.417  1.00  0.00     0.331 C 
ATOM     13  H   UNL A   1      33.250  24.942  25.470  1.00  0.00     0.347 HD
ATOM     14  H   UNL A   1      31.937  24.548  24.461  1.00  0.00     0.347 HD
ENDBRANCH   6  11
BRANCH  10  15
ATOM     15  O   UNL A   1      32.807  19.726  24.472  1.00  0.00    -0.490 OA
BRANCH  15  16
ATOM     16  C   UNL A   1      33.358  18.499  24.681  1.00  0.00     0.119 A 
ATOM     17  C   UNL A   1      34.658  18.114  24.364  1.00  0.00     0.046 A 
ATOM     18  C   UNL A   1      32.482  17.565  25.243  1.00  0.00     0.049 A 
ATOM     19  C   UNL A   1      35.069  16.797  24.582  1.00  0.00     0.004 A 
ATOM     20  C   UNL A   1      32.891  16.249  25.488  1.00  0.00    -0.047 A 
ATOM     21  C   UNL A   1      34.190  15.868  25.136  1.00  0.00     0.003 A 
ATOM     22  C   UNL A   1      31.946  15.252  26.088  1.00  0.00     0.044 C 
ENDBRANCH  15  16
ENDBRANCH  10  15
ENDBRANCH   4   6
ENDBRANCH   3   4
ENDBRANCH   2   3
ENDBRANCH   1   2
BRANCH   1  23
ATOM     23  O   UNL A   1      37.269  21.735  25.705  1.00  0.00    -0.458 OA
BRANCH  23  24
ATOM     24  C   UNL A   1      38.575  21.494  25.950  1.00  0.00     0.338 C 
ATOM     25  O   UNL A   1      39.182  20.455  25.723  1.00  0.00    -0.246 OA
BRANCH  24  26
ATOM     26  C   UNL A   1      39.202  22.694  26.539  1.00  0.00     0.060 A 
ATOM     27  C   UNL A   1      38.799  23.975  26.156  1.00  0.00     0.016 A 
ATOM     28  C   UNL A   1      40.277  22.545  27.413  1.00  0.00     0.016 A 
ATOM     29  C   UNL A   1      39.522  25.095  26.564  1.00  0.00     0.010 A 
ATOM     30  C   UNL A   1      40.935  23.677  27.908  1.00  0.00     0.010 A 
ATOM     31  C   UNL A   1      40.589  24.966  27.462  1.00  0.00    -0.014 A 
BRANCH  31  32
ATOM     32  C   UNL A   1      41.374  26.156  27.902  1.00  0.00     0.031 A 
ATOM     33  C   UNL A   1      40.717  27.214  28.752  1.00  0.00     0.074 A 
ATOM     34  C   UNL A   1      42.666  26.307  27.546  1.00  0.00     0.049 A 
ATOM     35  N   UNL A   1      41.107  28.436  29.009  1.00  0.00    -0.248 NA
ATOM     36  C   UNL A   1      39.433  26.853  29.372  1.00  0.00     0.031 C 
ATOM     37  C   UNL A   1      43.456  25.341  26.780  1.00  0.00     0.029 A 
ATOM     38  N   UNL A   1      43.546  27.335  27.782  1.00  0.00    -0.354 N 
ATOM     39  C   UNL A   1      40.084  29.016  29.753  1.00  0.00     0.074 A 
ATOM     40  C   UNL A   1      39.058  28.005  29.910  1.00  0.00     0.031 C 
ATOM     41  C   UNL A   1      44.709  25.803  26.643  1.00  0.00     0.029 A 
ATOM     42  C   UNL A   1      44.784  27.143  27.212  1.00  0.00     0.049 A 
ATOM     43  H   UNL A   1      43.313  28.134  28.308  1.00  0.00     0.167 HD
ATOM     44  C   UNL A   1      40.006  30.278  30.245  1.00  0.00     0.034 A 
ATOM     45  C   UNL A   1      45.842  27.970  27.100  1.00  0.00     0.034 A 
ATOM     46  C   UNL A   1      41.068  31.250  30.134  1.00  0.00     0.049 A 
ATOM     47  C   UNL A   1      45.731  29.370  27.639  1.00  0.00     0.074 A 
ATOM     48  C   UNL A   1      41.102  32.552  30.604  1.00  0.00     0.029 A 
ATOM     49  N   UNL A   1      42.295  31.019  29.524  1.00  0.00    -0.354 N 
ATOM     50  N   UNL A   1      44.715  29.945  28.238  1.00  0.00    -0.248 NA
ATOM     51  C   UNL A   1      46.903  30.238  27.465  1.00  0.00     0.031 C 
ATOM     52  C   UNL A   1      42.329  33.121  30.239  1.00  0.00     0.029 A 
ATOM     53  C   UNL A   1      43.086  32.156  29.595  1.00  0.00     0.049 A 
ATOM     54  H   UNL A   1      42.565  30.171  29.102  1.00  0.00     0.167 HD
ATOM     55  C   UNL A   1      45.124  31.247  28.510  1.00  0.00     0.074 A 
ATOM     56  C   UNL A   1      46.489  31.361  28.035  1.00  0.00     0.031 C 
ATOM     57  C   UNL A   1      44.434  32.259  29.092  1.00  0.00     0.034 A 
BRANCH  44  58
ATOM     58  C   UNL A   1      38.703  30.699  30.882  1.00  0.00     0.023 A 
ATOM     59  C   UNL A   1      37.698  31.372  30.168  1.00  0.00     0.031 A 
ATOM     60  C   UNL A   1      38.480  30.441  32.248  1.00  0.00     0.131 A 
ATOM     61  C   UNL A   1      36.548  31.822  30.835  1.00  0.00     0.055 A 
ATOM     62  C   UNL A   1      37.301  30.825  32.888  1.00  0.00     0.041 A 
ATOM     63  F   UNL A   1      39.413  29.821  32.987  1.00  0.00    -0.206 F 
ATOM     64  C   UNL A   1      36.331  31.533  32.185  1.00  0.00     0.022 A 
BRANCH  61  65
ATOM     65  S   UNL A   1      35.395  32.906  29.948  1.00  0.00     0.124 S 
ATOM     66  O   UNL A   1      34.568  31.936  29.234  1.00  0.00    -0.237 OA
ATOM     67  O   UNL A   1      34.740  33.626  31.033  1.00  0.00    -0.237 OA
ATOM     68  O   UNL A   1      36.267  33.714  29.099  1.00  0.00    -0.744 OA
ENDBRANCH  61  65
ENDBRANCH  44  58
BRANCH  45  69
ATOM     69  C   UNL A   1      47.063  27.528  26.368  1.00  0.00     0.023 A 
ATOM     70  C   UNL A   1      47.231  27.804  25.004  1.00  0.00     0.031 A 
ATOM     71  C   UNL A   1      48.074  26.804  27.027  1.00  0.00     0.131 A 
ATOM     72  C   UNL A   1      48.374  27.339  24.335  1.00  0.00     0.055 A 
ATOM     73  C   UNL A   1      49.231  26.387  26.369  1.00  0.00     0.041 A 
ATOM     74  F   UNL A   1      47.959  26.512  28.333  1.00  0.00    -0.206 F 
ATOM     75  C   UNL A   1      49.382  26.647  25.011  1.00  0.00     0.022 A 
BRANCH  72  76
ATOM     76  S   UNL A   1      48.501  27.600  22.543  1.00  0.00     0.124 S 
ATOM     77  O   UNL A   1      47.231  28.252  22.246  1.00  0.00    -0.237 OA
ATOM     78  O   UNL A   1      49.692  28.438  22.443  1.00  0.00    -0.237 OA
ATOM     79  O   UNL A   1      48.649  26.247  22.013  1.00  0.00    -0.744 OA
ENDBRANCH  72  76
ENDBRANCH  45  69
BRANCH  57  80
ATOM     80  C   UNL A   1      45.169  33.562  29.264  1.00  0.00     0.023 A 
ATOM     81  C   UNL A   1      45.049  34.602  28.325  1.00  0.00     0.031 A 
ATOM     82  C   UNL A   1      46.025  33.752  30.363  1.00  0.00     0.131 A 
ATOM     83  C   UNL A   1      45.817  35.766  28.474  1.00  0.00     0.055 A 
ATOM     84  C   UNL A   1      46.749  34.931  30.531  1.00  0.00     0.041 A 
ATOM     85  F   UNL A   1      46.175  32.787  31.285  1.00  0.00    -0.206 F 
ATOM     86  C   UNL A   1      46.657  35.942  29.576  1.00  0.00     0.022 A 
BRANCH  83  87
ATOM     87  S   UNL A   1      45.769  37.016  27.160  1.00  0.00     0.124 S 
ATOM     88  O   UNL A   1      44.336  37.219  26.985  1.00  0.00    -0.237 OA
ATOM     89  O   UNL A   1      46.502  38.127  27.759  1.00  0.00    -0.237 OA
ATOM     90  O   UNL A   1      46.444  36.362  26.040  1.00  0.00    -0.744 OA
ENDBRANCH  83  87
ENDBRANCH  57  80
ENDBRANCH  31  32
ENDBRANCH  24  26
ENDBRANCH  23  24
ENDBRANCH   1  23
TORSDOF 17
ENDMDL
MODEL 3
REMARK VINA RESULT:     -11.3      5.208     10.158
REMARK SMILES C[NH2+][C@@]1(C(=O)OCCOC(=O)c2ccc(-c3c4nc(c(-c5cc(S(=O)(=O)[O-])ccc5F)c5ccc([nH]5)c(-c5cc(S(=O)(=O)[O-])ccc5F)c5nc(c(-c6cc(S(=O)(=O)[O-])ccc6F)c6ccc3[nH]6)C=C5)C=C4)cc2)CC[C@H](Oc2cccc(C)c2)C1
REMARK SMILES IDX 8 1 7 2 6 3 4 4 5 5 3 6 75 7 86 8 76 9 77 10 2 11 1 12 78 15
REMARK SMILES IDX 79 16 80 17 85 18 81 19 83 20 82 21 84 22 9 23 10 24 11 25
REMARK SMILES IDX 12 26 13 27 74 28 14 29 73 30 15 31 16 32 17 33 67 34 18 35
REMARK SMILES IDX 72 36 66 37 68 38 19 39 71 40 65 41 64 42 20 44 52 45 32 46
REMARK SMILES IDX 51 47 33 48 36 49 50 50 69 51 34 52 35 53 49 55 70 56 37 57
REMARK SMILES IDX 21 58 22 59 30 60 23 61 29 62 31 63 28 64 24 65 25 66 26 67
REMARK SMILES IDX 27 68 53 69 54 70 62 71 55 72 61 73 63 74 60 75 56 76 57 77
REMARK SMILES IDX 58 78 59 79 38 80 39 81 47 82 40 83 46 84 48 85 45 86 41 87
REMARK SMILES IDX 42 88 43 89 44 90
REMARK H PARENT 2 13 2 14 68 43 36 54
REMARK Flexibility Score: inf
ROOT
ATOM      1  C   UNL A   1      36.234  20.925  25.287  1.00  0.00     0.275 C 
ENDROOT
BRANCH   1   2
ATOM      2  C   UNL A   1      35.424  21.868  26.167  1.00  0.00     0.274 C 
BRANCH   2   3
ATOM      3  O   UNL A   1      35.275  23.150  25.525  1.00  0.00    -0.457 OA
BRANCH   3   4
ATOM      4  C   UNL A   1      34.052  23.733  25.603  1.00  0.00     0.368 C 
ATOM      5  O   UNL A   1      33.501  24.046  26.656  1.00  0.00    -0.245 OA
BRANCH   4   6
ATOM      6  C   UNL A   1      33.361  23.910  24.218  1.00  0.00     0.197 C 
ATOM      7  C   UNL A   1      31.895  24.263  24.499  1.00  0.00     0.085 C 
ATOM      8  C   UNL A   1      33.213  22.637  23.372  1.00  0.00     0.126 C 
ATOM      9  C   UNL A   1      31.264  22.918  24.828  1.00  0.00     0.052 C 
ATOM     10  C   UNL A   1      31.987  21.897  23.936  1.00  0.00     0.180 C 
BRANCH   6  11
ATOM     11  N   UNL A   1      33.976  25.054  23.504  1.00  0.00    -0.334 N 
ATOM     12  C   UNL A   1      33.799  26.344  24.156  1.00  0.00     0.331 C 
ATOM     13  H   UNL A   1      34.977  24.875  23.420  1.00  0.00     0.347 HD
ATOM     14  H   UNL A   1      33.503  25.119  22.603  1.00  0.00     0.347 HD
ENDBRANCH   6  11
BRANCH  10  15
ATOM     15  O   UNL A   1      32.468  20.777  24.675  1.00  0.00    -0.490 OA
BRANCH  15  16
ATOM     16  C   UNL A   1      32.737  19.610  24.026  1.00  0.00     0.119 A 
ATOM     17  C   UNL A   1      32.195  19.197  22.812  1.00  0.00     0.046 A 
ATOM     18  C   UNL A   1      33.629  18.771  24.702  1.00  0.00     0.049 A 
ATOM     19  C   UNL A   1      32.520  17.942  22.293  1.00  0.00     0.004 A 
ATOM     20  C   UNL A   1      33.981  17.521  24.179  1.00  0.00    -0.047 A 
ATOM     21  C   UNL A   1      33.404  17.106  22.975  1.00  0.00     0.003 A 
ATOM     22  C   UNL A   1      34.934  16.625  24.911  1.00  0.00     0.044 C 
ENDBRANCH  15  16
ENDBRANCH  10  15
ENDBRANCH   4   6
ENDBRANCH   3   4
ENDBRANCH   2   3
ENDBRANCH   1   2
BRANCH   1  23
ATOM     23  O   UNL A   1      37.470  21.570  24.945  1.00  0.00    -0.458 OA
BRANCH  23  24
ATOM     24  C   UNL A   1      38.559  21.178  25.640  1.00  0.00     0.338 C 
ATOM     25  O   UNL A   1      38.991  20.036  25.742  1.00  0.00    -0.246 OA
BRANCH  24  26
ATOM     26  C   UNL A   1      39.193  22.350  26.277  1.00  0.00     0.060 A 
ATOM     27  C   UNL A   1      38.740  23.644  26.009  1.00  0.00     0.016 A 
ATOM     28  C   UNL A   1      40.320  22.169  27.077  1.00  0.00     0.016 A 
ATOM     29  C   UNL A   1      39.461  24.751  26.454  1.00  0.00     0.010 A 
ATOM     30  C   UNL A   1      40.980  23.280  27.612  1.00  0.00     0.010 A 
ATOM     31  C   UNL A   1      40.582  24.588  27.279  1.00  0.00    -0.014 A 
BRANCH  31  32
ATOM     32  C   UNL A   1      41.364  25.764  27.758  1.00  0.00     0.031 A 
ATOM     33  C   UNL A   1      40.699  26.804  28.625  1.00  0.00     0.074 A 
ATOM     34  C   UNL A   1      42.660  25.919  27.420  1.00  0.00     0.049 A 
ATOM     35  N   UNL A   1      41.090  28.018  28.916  1.00  0.00    -0.248 NA
ATOM     36  C   UNL A   1      39.407  26.431  29.220  1.00  0.00     0.031 C 
ATOM     37  C   UNL A   1      43.458  24.970  26.641  1.00  0.00     0.029 A 
ATOM     38  N   UNL A   1      43.540  26.939  27.693  1.00  0.00    -0.354 N 
ATOM     39  C   UNL A   1      40.059  28.582  29.661  1.00  0.00     0.074 A 
ATOM     40  C   UNL A   1      39.029  27.571  29.781  1.00  0.00     0.031 C 
ATOM     41  C   UNL A   1      44.713  25.432  26.531  1.00  0.00     0.029 A 
ATOM     42  C   UNL A   1      44.785  26.757  27.133  1.00  0.00     0.049 A 
ATOM     43  H   UNL A   1      43.303  27.725  28.235  1.00  0.00     0.167 HD
ATOM     44  C   UNL A   1      39.979  29.832  30.183  1.00  0.00     0.034 A 
ATOM     45  C   UNL A   1      45.846  27.584  27.054  1.00  0.00     0.034 A 
ATOM     46  C   UNL A   1      41.045  30.803  30.108  1.00  0.00     0.049 A 
ATOM     47  C   UNL A   1      45.733  28.970  27.626  1.00  0.00     0.074 A 
ATOM     48  C   UNL A   1      41.077  32.094  30.610  1.00  0.00     0.029 A 
ATOM     49  N   UNL A   1      42.279  30.583  29.508  1.00  0.00    -0.354 N 
ATOM     50  N   UNL A   1      44.711  29.534  28.226  1.00  0.00    -0.248 NA
ATOM     51  C   UNL A   1      46.909  29.838  27.487  1.00  0.00     0.031 C 
ATOM     52  C   UNL A   1      42.309  32.667  30.275  1.00  0.00     0.029 A 
ATOM     53  C   UNL A   1      43.072  31.716  29.616  1.00  0.00     0.049 A 
ATOM     54  H   UNL A   1      42.551  29.745  29.069  1.00  0.00     0.167 HD
ATOM     55  C   UNL A   1      45.121  30.827  28.534  1.00  0.00     0.074 A 
ATOM     56  C   UNL A   1      46.492  30.948  28.079  1.00  0.00     0.031 C 
ATOM     57  C   UNL A   1      44.426  31.827  29.132  1.00  0.00     0.034 A 
BRANCH  44  58
ATOM     58  C   UNL A   1      38.670  30.241  30.814  1.00  0.00     0.023 A 
ATOM     59  C   UNL A   1      37.650  30.880  30.088  1.00  0.00     0.031 A 
ATOM     60  C   UNL A   1      38.454  30.009  32.186  1.00  0.00     0.131 A 
ATOM     61  C   UNL A   1      36.493  31.322  30.749  1.00  0.00     0.055 A 
ATOM     62  C   UNL A   1      37.270  30.384  32.821  1.00  0.00     0.041 A 
ATOM     63  F   UNL A   1      39.401  29.423  32.936  1.00  0.00    -0.206 F 
ATOM     64  C   UNL A   1      36.285  31.058  32.105  1.00  0.00     0.022 A 
BRANCH  61  65
ATOM     65  S   UNL A   1      35.317  32.364  29.841  1.00  0.00     0.124 S 
ATOM     66  O   UNL A   1      34.890  31.465  28.772  1.00  0.00    -0.237 OA
ATOM     67  O   UNL A   1      34.317  32.669  30.857  1.00  0.00    -0.237 OA
ATOM     68  O   UNL A   1      36.129  33.497  29.404  1.00  0.00    -0.744 OA
ENDBRANCH  61  65
ENDBRANCH  44  58
BRANCH  45  69
ATOM     69  C   UNL A   1      47.075  27.155  26.327  1.00  0.00     0.023 A 
ATOM     70  C   UNL A   1      48.106  26.468  26.985  1.00  0.00     0.031 A 
ATOM     71  C   UNL A   1      47.241  27.445  24.960  1.00  0.00     0.131 A 
ATOM     72  C   UNL A   1      49.267  26.114  26.281  1.00  0.00     0.055 A 
ATOM     73  C   UNL A   1      48.375  27.047  24.254  1.00  0.00     0.041 A 
ATOM     74  F   UNL A   1      46.284  28.103  24.285  1.00  0.00    -0.206 F 
ATOM     75  C   UNL A   1      49.402  26.384  24.917  1.00  0.00     0.022 A 
BRANCH  72  76
ATOM     76  S   UNL A   1      50.636  25.343  27.190  1.00  0.00     0.124 S 
ATOM     77  O   UNL A   1      51.110  26.451  28.011  1.00  0.00    -0.237 OA
ATOM     78  O   UNL A   1      49.957  24.263  27.900  1.00  0.00    -0.237 OA
ATOM     79  O   UNL A   1      51.547  24.914  26.132  1.00  0.00    -0.744 OA
ENDBRANCH  72  76
ENDBRANCH  45  69
BRANCH  57  80
ATOM     80  C   UNL A   1      45.163  33.123  29.345  1.00  0.00     0.023 A 
ATOM     81  C   UNL A   1      45.904  33.363  30.516  1.00  0.00     0.031 A 
ATOM     82  C   UNL A   1      45.093  34.143  28.380  1.00  0.00     0.131 A 
ATOM     83  C   UNL A   1      46.503  34.615  30.716  1.00  0.00     0.055 A 
ATOM     84  C   UNL A   1      45.732  35.369  28.564  1.00  0.00     0.041 A 
ATOM     85  F   UNL A   1      44.396  33.963  27.246  1.00  0.00    -0.206 F 
ATOM     86  C   UNL A   1      46.431  35.615  29.743  1.00  0.00     0.022 A 
BRANCH  83  87
ATOM     87  S   UNL A   1      47.307  34.953  32.308  1.00  0.00     0.124 S 
ATOM     88  O   UNL A   1      47.221  36.407  32.389  1.00  0.00    -0.237 OA
ATOM     89  O   UNL A   1      46.469  34.211  33.244  1.00  0.00    -0.237 OA
ATOM     90  O   UNL A   1      48.656  34.421  32.129  1.00  0.00    -0.744 OA
ENDBRANCH  83  87
ENDBRANCH  57  80
ENDBRANCH  31  32
ENDBRANCH  24  26
ENDBRANCH  23  24
ENDBRANCH   1  23
TORSDOF 17
ENDMDL
