MODEL 1
REMARK VINA RESULT:     -13.6      0.000      0.000
REMARK SMILES O=C(OCCOC(=O)c1ccc(-c2c3nc(c(-c4cc(S(=O)(=O)[O-])ccc4F)c4ccc([nH]4)c(-c4cc(S(=O)(=O)[O-])ccc4F)c4nc(c(-c5cc(S(=O)(=O)[O-])ccc5F)c5ccc2[nH]5)C=C4)C=C3)cc1)C(=O)/C(=C/c1cnn(Cc2ccccc2Cl)c1)c1ccc2ccccc2n1
REMARK SMILES IDX 4 1 3 2 2 3 1 4 72 5 73 6 74 7 75 8 89 9 90 10 98 11 91 12
REMARK SMILES IDX 97 13 92 14 96 15 93 16 95 17 94 18 76 19 77 20 88 21 78 22
REMARK SMILES IDX 79 23 80 24 81 25 82 26 86 27 83 28 85 29 87 30 84 31 5 32
REMARK SMILES IDX 6 33 7 34 8 35 9 36 10 37 71 38 11 39 70 40 12 41 13 42
REMARK SMILES IDX 14 43 64 44 15 45 69 46 63 47 65 48 16 49 68 50 62 51 61 52
REMARK SMILES IDX 17 54 49 55 29 56 48 57 30 58 33 59 47 60 66 61 31 62 32 63
REMARK SMILES IDX 46 65 67 66 34 67 18 68 19 69 27 70 20 71 26 72 28 73 25 74
REMARK SMILES IDX 21 75 22 76 23 77 24 78 50 79 51 80 59 81 52 82 58 83 60 84
REMARK SMILES IDX 57 85 53 86 54 87 55 88 56 89 35 90 36 91 44 92 37 93 43 94
REMARK SMILES IDX 45 95 42 96 38 97 39 98 40 99 41 100
REMARK H PARENT 65 53 33 64
REMARK Flexibility Score: inf
ROOT
ATOM      1  C   UNL A   1      35.930  20.522  25.043  1.00  0.00     0.275 C 
ENDROOT
BRANCH   1   2
ATOM      2  O   UNL A   1      35.374  21.512  24.139  1.00  0.00    -0.456 OA
BRANCH   2   3
ATOM      3  C   UNL A   1      35.583  22.772  23.761  1.00  0.00     0.379 C 
ATOM      4  O   UNL A   1      36.174  22.955  22.697  1.00  0.00    -0.242 OA
BRANCH   3   5
ATOM      5  C   UNL A   1      35.231  24.057  24.562  1.00  0.00     0.272 C 
ATOM      6  O   UNL A   1      36.174  24.548  25.191  1.00  0.00    -0.281 OA
BRANCH   5   7
ATOM      7  C   UNL A   1      33.841  24.756  24.633  1.00  0.00     0.056 C 
ATOM      8  C   UNL A   1      33.840  25.663  25.693  1.00  0.00     0.026 C 
BRANCH   7   9
ATOM      9  C   UNL A   1      33.060  24.380  23.167  1.00  0.00     0.075 A 
ATOM     10  C   UNL A   1      31.783  24.818  23.309  1.00  0.00     0.030 A 
ATOM     11  N   UNL A   1      33.132  23.181  22.409  1.00  0.00    -0.248 NA
ATOM     12  C   UNL A   1      31.151  23.922  24.113  1.00  0.00     0.012 A 
ATOM     13  C   UNL A   1      32.309  22.106  22.722  1.00  0.00     0.071 A 
ATOM     14  C   UNL A   1      31.740  22.654  24.109  1.00  0.00     0.000 A 
ATOM     15  C   UNL A   1      32.505  20.295  22.492  1.00  0.00     0.029 A 
ATOM     16  C   UNL A   1      31.985  21.696  25.545  1.00  0.00     0.010 A 
ATOM     17  C   UNL A   1      32.526  19.121  23.897  1.00  0.00     0.002 A 
ATOM     18  C   UNL A   1      32.357  19.837  25.560  1.00  0.00     0.001 A 
ENDBRANCH   7   9
BRANCH   8  19
ATOM     19  C   UNL A   1      33.170  26.905  26.156  1.00  0.00     0.013 A 
ATOM     20  C   UNL A   1      31.985  27.051  26.944  1.00  0.00     0.143 A 
ATOM     21  C   UNL A   1      33.552  28.262  26.025  1.00  0.00     0.117 A 
ATOM     22  N   UNL A   1      31.508  28.321  27.005  1.00  0.00    -0.181 NA
ATOM     23  N   UNL A   1      32.314  29.021  26.144  1.00  0.00    -0.268 N 
BRANCH  23  24
ATOM     24  C   UNL A   1      31.651  30.020  24.978  1.00  0.00     0.181 C 
BRANCH  24  25
ATOM     25  C   UNL A   1      30.117  29.763  23.981  1.00  0.00    -0.008 A 
ATOM     26  C   UNL A   1      29.894  28.387  23.879  1.00  0.00     0.007 A 
ATOM     27  C   UNL A   1      29.025  30.962  23.269  1.00  0.00     0.046 A 
ATOM     28  C   UNL A   1      28.809  27.958  23.127  1.00  0.00     0.000 A 
ATOM     29  C   UNL A   1      27.959  30.273  22.559  1.00  0.00     0.021 A 
ATOM     30  Cl  UNL A   1      29.528  33.398  23.501  1.00  0.00    -0.084 Cl
ATOM     31  C   UNL A   1      27.913  28.849  22.488  1.00  0.00     0.002 A 
ENDBRANCH  24  25
ENDBRANCH  23  24
ENDBRANCH   8  19
ENDBRANCH   5   7
ENDBRANCH   3   5
ENDBRANCH   2   3
ENDBRANCH   1   2
BRANCH   1  32
ATOM     32  C   UNL A   1      37.430  20.263  24.998  1.00  0.00     0.275 C 
BRANCH  32  33
ATOM     33  O   UNL A   1      38.192  21.415  25.320  1.00  0.00    -0.458 OA
BRANCH  33  34
ATOM     34  C   UNL A   1      39.267  21.131  26.097  1.00  0.00     0.338 C 
ATOM     35  O   UNL A   1      39.814  20.048  26.205  1.00  0.00    -0.246 OA
BRANCH  34  36
ATOM     36  C   UNL A   1      39.765  22.390  26.666  1.00  0.00     0.060 A 
ATOM     37  C   UNL A   1      39.125  23.570  26.280  1.00  0.00     0.016 A 
ATOM     38  C   UNL A   1      40.835  22.409  27.565  1.00  0.00     0.016 A 
ATOM     39  C   UNL A   1      39.596  24.788  26.758  1.00  0.00     0.010 A 
ATOM     40  C   UNL A   1      41.288  23.631  28.060  1.00  0.00     0.010 A 
ATOM     41  C   UNL A   1      40.695  24.829  27.629  1.00  0.00    -0.014 A 
BRANCH  41  42
ATOM     42  C   UNL A   1      41.289  26.136  27.997  1.00  0.00     0.031 A 
ATOM     43  C   UNL A   1      42.694  26.450  27.566  1.00  0.00     0.074 A 
ATOM     44  C   UNL A   1      40.562  27.051  28.664  1.00  0.00     0.049 A 
ATOM     45  N   UNL A   1      43.404  27.529  27.773  1.00  0.00    -0.248 NA
ATOM     46  C   UNL A   1      43.395  25.406  26.803  1.00  0.00     0.031 C 
ATOM     47  C   UNL A   1      39.177  26.873  29.099  1.00  0.00     0.029 A 
ATOM     48  N   UNL A   1      40.889  28.317  29.084  1.00  0.00    -0.354 N 
ATOM     49  C   UNL A   1      44.631  27.300  27.161  1.00  0.00     0.074 A 
ATOM     50  C   UNL A   1      44.587  25.955  26.625  1.00  0.00     0.031 C 
ATOM     51  C   UNL A   1      38.767  27.998  29.707  1.00  0.00     0.029 A 
ATOM     52  C   UNL A   1      39.872  28.955  29.753  1.00  0.00     0.049 A 
ATOM     53  H   UNL A   1      41.769  28.728  28.922  1.00  0.00     0.167 HD
ATOM     54  C   UNL A   1      45.688  28.140  27.043  1.00  0.00     0.034 A 
ATOM     55  C   UNL A   1      39.843  30.163  30.352  1.00  0.00     0.034 A 
ATOM     56  C   UNL A   1      45.722  29.471  27.598  1.00  0.00     0.049 A 
ATOM     57  C   UNL A   1      41.077  31.033  30.308  1.00  0.00     0.074 A 
ATOM     58  C   UNL A   1      46.743  30.404  27.529  1.00  0.00     0.029 A 
ATOM     59  N   UNL A   1      44.703  30.055  28.339  1.00  0.00    -0.354 N 
ATOM     60  N   UNL A   1      42.230  30.809  29.719  1.00  0.00    -0.248 NA
ATOM     61  C   UNL A   1      41.003  32.324  31.005  1.00  0.00     0.031 C 
ATOM     62  C   UNL A   1      46.382  31.507  28.308  1.00  0.00     0.029 A 
ATOM     63  C   UNL A   1      45.090  31.316  28.770  1.00  0.00     0.049 A 
ATOM     64  H   UNL A   1      43.832  29.636  28.530  1.00  0.00     0.167 HD
ATOM     65  C   UNL A   1      42.999  31.950  29.941  1.00  0.00     0.074 A 
ATOM     66  C   UNL A   1      42.175  32.863  30.706  1.00  0.00     0.031 C 
ATOM     67  C   UNL A   1      44.268  32.221  29.540  1.00  0.00     0.034 A 
BRANCH  54  68
ATOM     68  C   UNL A   1      46.913  27.623  26.327  1.00  0.00     0.023 A 
ATOM     69  C   UNL A   1      47.158  27.911  24.974  1.00  0.00     0.031 A 
ATOM     70  C   UNL A   1      47.843  26.815  27.005  1.00  0.00     0.131 A 
ATOM     71  C   UNL A   1      48.263  27.339  24.325  1.00  0.00     0.055 A 
ATOM     72  C   UNL A   1      48.989  26.325  26.379  1.00  0.00     0.041 A 
ATOM     73  F   UNL A   1      47.649  26.479  28.290  1.00  0.00    -0.206 F 
ATOM     74  C   UNL A   1      49.196  26.573  25.026  1.00  0.00     0.022 A 
BRANCH  71  75
ATOM     75  S   UNL A   1      48.372  27.472  22.520  1.00  0.00     0.124 S 
ATOM     76  O   UNL A   1      48.401  26.067  22.121  1.00  0.00    -0.237 OA
ATOM     77  O   UNL A   1      47.159  28.207  22.182  1.00  0.00    -0.237 OA
ATOM     78  O   UNL A   1      49.622  28.197  22.304  1.00  0.00    -0.744 OA
ENDBRANCH  71  75
ENDBRANCH  54  68
BRANCH  55  79
ATOM     79  C   UNL A   1      38.622  30.619  31.080  1.00  0.00     0.023 A 
ATOM     80  C   UNL A   1      37.582  31.284  30.412  1.00  0.00     0.031 A 
ATOM     81  C   UNL A   1      38.513  30.462  32.474  1.00  0.00     0.131 A 
ATOM     82  C   UNL A   1      36.509  31.818  31.143  1.00  0.00     0.055 A 
ATOM     83  C   UNL A   1      37.407  30.930  33.186  1.00  0.00     0.041 A 
ATOM     84  F   UNL A   1      39.486  29.852  33.169  1.00  0.00    -0.206 F 
ATOM     85  C   UNL A   1      36.404  31.627  32.522  1.00  0.00     0.022 A 
BRANCH  82  86
ATOM     86  S   UNL A   1      35.315  32.880  30.283  1.00  0.00     0.124 S 
ATOM     87  O   UNL A   1      35.990  34.172  30.317  1.00  0.00    -0.237 OA
ATOM     88  O   UNL A   1      35.221  32.238  28.975  1.00  0.00    -0.237 OA
ATOM     89  O   UNL A   1      34.114  32.780  31.110  1.00  0.00    -0.744 OA
ENDBRANCH  82  86
ENDBRANCH  55  79
BRANCH  67  90
ATOM     90  C   UNL A   1      44.828  33.587  29.869  1.00  0.00     0.023 A 
ATOM     91  C   UNL A   1      44.655  34.692  29.017  1.00  0.00     0.031 A 
ATOM     92  C   UNL A   1      45.550  33.785  31.061  1.00  0.00     0.131 A 
ATOM     93  C   UNL A   1      45.247  35.924  29.338  1.00  0.00     0.055 A 
ATOM     94  C   UNL A   1      46.068  35.031  31.413  1.00  0.00     0.041 A 
ATOM     95  F   UNL A   1      45.756  32.767  31.913  1.00  0.00    -0.206 F 
ATOM     96  C   UNL A   1      45.932  36.107  30.542  1.00  0.00     0.022 A 
BRANCH  93  97
ATOM     97  S   UNL A   1      45.212  37.256  28.106  1.00  0.00     0.124 S 
ATOM     98  O   UNL A   1      45.384  36.518  26.859  1.00  0.00    -0.237 OA
ATOM     99  O   UNL A   1      43.896  37.848  28.322  1.00  0.00    -0.237 OA
ATOM    100  O   UNL A   1      46.342  38.103  28.486  1.00  0.00    -0.744 OA
ENDBRANCH  93  97
ENDBRANCH  67  90
ENDBRANCH  41  42
ENDBRANCH  34  36
ENDBRANCH  33  34
ENDBRANCH  32  33
ENDBRANCH   1  32
TORSDOF 19
ENDMDL
MODEL 2
REMARK VINA RESULT:     -13.3      5.514      8.814
REMARK SMILES O=C(OCCOC(=O)c1ccc(-c2c3nc(c(-c4cc(S(=O)(=O)[O-])ccc4F)c4ccc([nH]4)c(-c4cc(S(=O)(=O)[O-])ccc4F)c4nc(c(-c5cc(S(=O)(=O)[O-])ccc5F)c5ccc2[nH]5)C=C4)C=C3)cc1)C(=O)/C(=C/c1cnn(Cc2ccccc2Cl)c1)c1ccc2ccccc2n1
REMARK SMILES IDX 4 1 3 2 2 3 1 4 72 5 73 6 74 7 75 8 89 9 90 10 98 11 91 12
REMARK SMILES IDX 97 13 92 14 96 15 93 16 95 17 94 18 76 19 77 20 88 21 78 22
REMARK SMILES IDX 79 23 80 24 81 25 82 26 86 27 83 28 85 29 87 30 84 31 5 32
REMARK SMILES IDX 6 33 7 34 8 35 9 36 10 37 71 38 11 39 70 40 12 41 13 42
REMARK SMILES IDX 14 43 64 44 15 45 69 46 63 47 65 48 16 49 68 50 62 51 61 52
REMARK SMILES IDX 17 54 49 55 29 56 48 57 30 58 33 59 47 60 66 61 31 62 32 63
REMARK SMILES IDX 46 65 67 66 34 67 18 68 19 69 27 70 20 71 26 72 28 73 25 74
REMARK SMILES IDX 21 75 22 76 23 77 24 78 50 79 51 80 59 81 52 82 58 83 60 84
REMARK SMILES IDX 57 85 53 86 54 87 55 88 56 89 35 90 36 91 44 92 37 93 43 94
REMARK SMILES IDX 45 95 42 96 38 97 39 98 40 99 41 100
REMARK H PARENT 65 53 33 64
REMARK Flexibility Score: inf
ROOT
ATOM      1  C   UNL A   1      32.771  30.861  27.027  1.00  0.00     0.275 C 
ENDROOT
BRANCH   1   2
ATOM      2  O   UNL A   1      31.872  29.744  27.248  1.00  0.00    -0.456 OA
BRANCH   2   3
ATOM      3  C   UNL A   1      31.772  28.448  26.957  1.00  0.00     0.379 C 
ATOM      4  O   UNL A   1      31.406  27.691  27.855  1.00  0.00    -0.242 OA
BRANCH   3   5
ATOM      5  C   UNL A   1      32.149  27.762  25.613  1.00  0.00     0.272 C 
ATOM      6  O   UNL A   1      32.330  28.539  24.670  1.00  0.00    -0.281 OA
BRANCH   5   7
ATOM      7  C   UNL A   1      32.316  26.233  25.365  1.00  0.00     0.056 C 
ATOM      8  C   UNL A   1      33.646  25.878  25.591  1.00  0.00     0.026 C 
BRANCH   7   9
ATOM      9  C   UNL A   1      30.736  25.603  25.287  1.00  0.00     0.075 A 
ATOM     10  C   UNL A   1      30.797  24.566  24.413  1.00  0.00     0.030 A 
ATOM     11  N   UNL A   1      29.507  26.308  25.193  1.00  0.00    -0.248 NA
ATOM     12  C   UNL A   1      30.863  25.109  23.169  1.00  0.00     0.012 A 
ATOM     13  C   UNL A   1      29.031  26.721  23.955  1.00  0.00     0.071 A 
ATOM     14  C   UNL A   1      30.337  26.402  23.093  1.00  0.00     0.000 A 
ATOM     15  C   UNL A   1      27.951  28.118  23.451  1.00  0.00     0.029 A 
ATOM     16  C   UNL A   1      31.086  27.703  22.207  1.00  0.00     0.010 A 
ATOM     17  C   UNL A   1      28.515  29.439  22.315  1.00  0.00     0.002 A 
ATOM     18  C   UNL A   1      30.224  29.315  21.705  1.00  0.00     0.001 A 
ENDBRANCH   7   9
BRANCH   8  19
ATOM     19  C   UNL A   1      34.487  24.710  25.960  1.00  0.00     0.013 A 
ATOM     20  C   UNL A   1      35.853  24.442  25.632  1.00  0.00     0.143 A 
ATOM     21  C   UNL A   1      34.208  23.601  26.794  1.00  0.00     0.117 A 
ATOM     22  N   UNL A   1      36.263  23.183  25.931  1.00  0.00    -0.181 NA
ATOM     23  N   UNL A   1      35.120  22.552  26.354  1.00  0.00    -0.268 N 
BRANCH  23  24
ATOM     24  C   UNL A   1      34.687  21.062  25.730  1.00  0.00     0.181 C 
BRANCH  24  25
ATOM     25  C   UNL A   1      33.568  20.693  24.307  1.00  0.00    -0.008 A 
ATOM     26  C   UNL A   1      33.335  21.888  23.621  1.00  0.00     0.007 A 
ATOM     27  C   UNL A   1      32.886  19.144  23.787  1.00  0.00     0.046 A 
ATOM     28  C   UNL A   1      32.475  21.854  22.532  1.00  0.00     0.000 A 
ATOM     29  C   UNL A   1      32.048  19.361  22.618  1.00  0.00     0.021 A 
ATOM     30  Cl  UNL A   1      33.358  17.071  25.098  1.00  0.00    -0.084 Cl
ATOM     31  C   UNL A   1      31.854  20.666  22.076  1.00  0.00     0.002 A 
ENDBRANCH  24  25
ENDBRANCH  23  24
ENDBRANCH   8  19
ENDBRANCH   5   7
ENDBRANCH   3   5
ENDBRANCH   2   3
ENDBRANCH   1   2
BRANCH   1  32
ATOM     32  C   UNL A   1      32.253  32.269  27.288  1.00  0.00     0.275 C 
BRANCH  32  33
ATOM     33  O   UNL A   1      33.269  33.253  27.177  1.00  0.00    -0.458 OA
BRANCH  33  34
ATOM     34  C   UNL A   1      33.313  34.083  28.249  1.00  0.00     0.338 C 
ATOM     35  O   UNL A   1      32.524  34.976  28.503  1.00  0.00    -0.246 OA
BRANCH  34  36
ATOM     36  C   UNL A   1      34.384  33.621  29.141  1.00  0.00     0.060 A 
ATOM     37  C   UNL A   1      35.690  34.004  28.833  1.00  0.00     0.016 A 
ATOM     38  C   UNL A   1      34.107  32.833  30.262  1.00  0.00     0.016 A 
ATOM     39  C   UNL A   1      36.739  33.548  29.624  1.00  0.00     0.010 A 
ATOM     40  C   UNL A   1      35.159  32.398  31.066  1.00  0.00     0.010 A 
ATOM     41  C   UNL A   1      36.484  32.722  30.729  1.00  0.00    -0.014 A 
BRANCH  41  42
ATOM     42  C   UNL A   1      37.617  32.108  31.462  1.00  0.00     0.031 A 
ATOM     43  C   UNL A   1      38.381  30.983  30.822  1.00  0.00     0.074 A 
ATOM     44  C   UNL A   1      37.989  32.586  32.663  1.00  0.00     0.049 A 
ATOM     45  N   UNL A   1      39.405  30.310  31.279  1.00  0.00    -0.248 NA
ATOM     46  C   UNL A   1      37.928  30.558  29.488  1.00  0.00     0.031 C 
ATOM     47  C   UNL A   1      37.348  33.698  33.364  1.00  0.00     0.029 A 
ATOM     48  N   UNL A   1      39.005  32.199  33.501  1.00  0.00    -0.354 N 
ATOM     49  C   UNL A   1      39.725  29.387  30.290  1.00  0.00     0.074 A 
ATOM     50  C   UNL A   1      38.749  29.551  29.233  1.00  0.00     0.031 C 
ATOM     51  C   UNL A   1      38.000  33.916  34.518  1.00  0.00     0.029 A 
ATOM     52  C   UNL A   1      39.069  32.929  34.664  1.00  0.00     0.049 A 
ATOM     53  H   UNL A   1      39.629  31.467  33.290  1.00  0.00     0.167 HD
ATOM     54  C   UNL A   1      40.748  28.499  30.261  1.00  0.00     0.034 A 
ATOM     55  C   UNL A   1      39.881  32.802  35.733  1.00  0.00     0.034 A 
ATOM     56  C   UNL A   1      41.702  28.336  31.332  1.00  0.00     0.049 A 
ATOM     57  C   UNL A   1      40.939  31.723  35.725  1.00  0.00     0.074 A 
ATOM     58  C   UNL A   1      42.778  27.468  31.397  1.00  0.00     0.029 A 
ATOM     59  N   UNL A   1      41.687  29.038  32.530  1.00  0.00    -0.354 N 
ATOM     60  N   UNL A   1      41.239  30.861  34.781  1.00  0.00    -0.248 NA
ATOM     61  C   UNL A   1      41.775  31.606  36.928  1.00  0.00     0.031 C 
ATOM     62  C   UNL A   1      43.351  27.576  32.668  1.00  0.00     0.029 A 
ATOM     63  C   UNL A   1      42.707  28.591  33.357  1.00  0.00     0.049 A 
ATOM     64  H   UNL A   1      41.046  29.751  32.758  1.00  0.00     0.167 HD
ATOM     65  C   UNL A   1      42.324  30.130  35.261  1.00  0.00     0.074 A 
ATOM     66  C   UNL A   1      42.632  30.661  36.573  1.00  0.00     0.031 C 
ATOM     67  C   UNL A   1      43.008  29.118  34.668  1.00  0.00     0.034 A 
BRANCH  54  68
ATOM     68  C   UNL A   1      40.856  27.600  29.052  1.00  0.00     0.023 A 
ATOM     69  C   UNL A   1      41.798  27.835  28.036  1.00  0.00     0.031 A 
ATOM     70  C   UNL A   1      39.993  26.499  28.907  1.00  0.00     0.131 A 
ATOM     71  C   UNL A   1      41.806  27.026  26.889  1.00  0.00     0.055 A 
ATOM     72  C   UNL A   1      40.069  25.643  27.808  1.00  0.00     0.041 A 
ATOM     73  F   UNL A   1      39.053  26.240  29.829  1.00  0.00    -0.206 F 
ATOM     74  C   UNL A   1      40.969  25.914  26.783  1.00  0.00     0.022 A 
BRANCH  71  75
ATOM     75  S   UNL A   1      42.808  27.546  25.470  1.00  0.00     0.124 S 
ATOM     76  O   UNL A   1      44.101  27.805  26.100  1.00  0.00    -0.237 OA
ATOM     77  O   UNL A   1      42.746  26.382  24.594  1.00  0.00    -0.237 OA
ATOM     78  O   UNL A   1      42.116  28.735  24.978  1.00  0.00    -0.744 OA
ENDBRANCH  71  75
ENDBRANCH  54  68
BRANCH  55  79
ATOM     79  C   UNL A   1      39.714  33.689  36.922  1.00  0.00     0.023 A 
ATOM     80  C   UNL A   1      40.574  34.777  37.145  1.00  0.00     0.031 A 
ATOM     81  C   UNL A   1      38.737  33.413  37.896  1.00  0.00     0.131 A 
ATOM     82  C   UNL A   1      40.477  35.512  38.337  1.00  0.00     0.055 A 
ATOM     83  C   UNL A   1      38.598  34.193  39.045  1.00  0.00     0.041 A 
ATOM     84  F   UNL A   1      37.901  32.373  37.746  1.00  0.00    -0.206 F 
ATOM     85  C   UNL A   1      39.482  35.241  39.278  1.00  0.00     0.022 A 
BRANCH  82  86
ATOM     86  S   UNL A   1      41.755  36.747  38.701  1.00  0.00     0.124 S 
ATOM     87  O   UNL A   1      42.614  36.019  39.628  1.00  0.00    -0.237 OA
ATOM     88  O   UNL A   1      42.313  37.009  37.379  1.00  0.00    -0.237 OA
ATOM     89  O   UNL A   1      41.002  37.854  39.287  1.00  0.00    -0.744 OA
ENDBRANCH  82  86
ENDBRANCH  55  79
BRANCH  67  90
ATOM     90  C   UNL A   1      44.201  28.554  35.406  1.00  0.00     0.023 A 
ATOM     91  C   UNL A   1      44.077  27.524  36.355  1.00  0.00     0.031 A 
ATOM     92  C   UNL A   1      45.490  29.059  35.152  1.00  0.00     0.131 A 
ATOM     93  C   UNL A   1      45.208  27.078  37.058  1.00  0.00     0.055 A 
ATOM     94  C   UNL A   1      46.622  28.557  35.796  1.00  0.00     0.041 A 
ATOM     95  F   UNL A   1      45.674  30.049  34.263  1.00  0.00    -0.206 F 
ATOM     96  C   UNL A   1      46.482  27.571  36.767  1.00  0.00     0.022 A 
BRANCH  93  97
ATOM     97  S   UNL A   1      44.977  25.928  38.441  1.00  0.00     0.124 S 
ATOM     98  O   UNL A   1      46.354  25.654  38.840  1.00  0.00    -0.237 OA
ATOM     99  O   UNL A   1      44.187  26.719  39.378  1.00  0.00    -0.237 OA
ATOM    100  O   UNL A   1      44.271  24.800  37.835  1.00  0.00    -0.744 OA
ENDBRANCH  93  97
ENDBRANCH  67  90
ENDBRANCH  41  42
ENDBRANCH  34  36
ENDBRANCH  33  34
ENDBRANCH  32  33
ENDBRANCH   1  32
TORSDOF 19
ENDMDL
MODEL 3
REMARK VINA RESULT:     -13.0      4.970     10.281
REMARK SMILES O=C(OCCOC(=O)c1ccc(-c2c3nc(c(-c4cc(S(=O)(=O)[O-])ccc4F)c4ccc([nH]4)c(-c4cc(S(=O)(=O)[O-])ccc4F)c4nc(c(-c5cc(S(=O)(=O)[O-])ccc5F)c5ccc2[nH]5)C=C4)C=C3)cc1)C(=O)/C(=C/c1cnn(Cc2ccccc2Cl)c1)c1ccc2ccccc2n1
REMARK SMILES IDX 4 1 3 2 2 3 1 4 72 5 73 6 74 7 75 8 89 9 90 10 98 11 91 12
REMARK SMILES IDX 97 13 92 14 96 15 93 16 95 17 94 18 76 19 77 20 88 21 78 22
REMARK SMILES IDX 79 23 80 24 81 25 82 26 86 27 83 28 85 29 87 30 84 31 5 32
REMARK SMILES IDX 6 33 7 34 8 35 9 36 10 37 71 38 11 39 70 40 12 41 13 42
REMARK SMILES IDX 14 43 64 44 15 45 69 46 63 47 65 48 16 49 68 50 62 51 61 52
REMARK SMILES IDX 17 54 49 55 29 56 48 57 30 58 33 59 47 60 66 61 31 62 32 63
REMARK SMILES IDX 46 65 67 66 34 67 18 68 19 69 27 70 20 71 26 72 28 73 25 74
REMARK SMILES IDX 21 75 22 76 23 77 24 78 50 79 51 80 59 81 52 82 58 83 60 84
REMARK SMILES IDX 57 85 53 86 54 87 55 88 56 89 35 90 36 91 44 92 37 93 43 94
REMARK SMILES IDX 45 95 42 96 38 97 39 98 40 99 41 100
REMARK H PARENT 65 53 33 64
REMARK Flexibility Score: inf
ROOT
ATOM      1  C   UNL A   1      32.775  30.660  27.071  1.00  0.00     0.275 C 
ENDROOT
BRANCH   1   2
ATOM      2  O   UNL A   1      31.877  29.545  27.307  1.00  0.00    -0.456 OA
BRANCH   2   3
ATOM      3  C   UNL A   1      31.769  28.249  27.014  1.00  0.00     0.379 C 
ATOM      4  O   UNL A   1      31.410  27.492  27.915  1.00  0.00    -0.242 OA
BRANCH   3   5
ATOM      5  C   UNL A   1      32.127  27.565  25.665  1.00  0.00     0.272 C 
ATOM      6  O   UNL A   1      32.243  28.339  24.709  1.00  0.00    -0.281 OA
BRANCH   5   7
ATOM      7  C   UNL A   1      32.349  26.042  25.425  1.00  0.00     0.056 C 
ATOM      8  C   UNL A   1      33.699  25.744  25.605  1.00  0.00     0.026 C 
BRANCH   7   9
ATOM      9  C   UNL A   1      30.794  25.346  25.412  1.00  0.00     0.075 A 
ATOM     10  C   UNL A   1      30.865  24.308  24.540  1.00  0.00     0.030 A 
ATOM     11  N   UNL A   1      29.534  25.999  25.363  1.00  0.00    -0.248 NA
ATOM     12  C   UNL A   1      30.859  24.847  23.291  1.00  0.00     0.012 A 
ATOM     13  C   UNL A   1      28.993  26.386  24.143  1.00  0.00     0.071 A 
ATOM     14  C   UNL A   1      30.277  26.116  23.232  1.00  0.00     0.000 A 
ATOM     15  C   UNL A   1      27.838  27.734  23.676  1.00  0.00     0.029 A 
ATOM     16  C   UNL A   1      30.937  27.442  22.313  1.00  0.00     0.010 A 
ATOM     17  C   UNL A   1      28.301  29.070  22.514  1.00  0.00     0.002 A 
ATOM     18  C   UNL A   1      29.989  29.014  21.839  1.00  0.00     0.001 A 
ENDBRANCH   7   9
BRANCH   8  19
ATOM     19  C   UNL A   1      34.601  24.616  25.954  1.00  0.00     0.013 A 
ATOM     20  C   UNL A   1      35.987  24.440  25.646  1.00  0.00     0.143 A 
ATOM     21  C   UNL A   1      34.373  23.465  26.746  1.00  0.00     0.117 A 
ATOM     22  N   UNL A   1      36.465  23.198  25.913  1.00  0.00    -0.181 NA
ATOM     23  N   UNL A   1      35.354  22.488  26.292  1.00  0.00    -0.268 N 
BRANCH  23  24
ATOM     24  C   UNL A   1      35.022  20.996  25.612  1.00  0.00     0.181 C 
BRANCH  24  25
ATOM     25  C   UNL A   1      33.754  20.570  24.339  1.00  0.00    -0.008 A 
ATOM     26  C   UNL A   1      33.318  19.265  24.582  1.00  0.00     0.007 A 
ATOM     27  C   UNL A   1      33.101  21.565  23.027  1.00  0.00     0.046 A 
ATOM     28  C   UNL A   1      32.388  18.716  23.710  1.00  0.00     0.000 A 
ATOM     29  C   UNL A   1      32.131  20.784  22.275  1.00  0.00     0.021 A 
ATOM     30  Cl  UNL A   1      33.962  23.882  22.674  1.00  0.00    -0.084 Cl
ATOM     31  C   UNL A   1      31.848  19.427  22.612  1.00  0.00     0.002 A 
ENDBRANCH  24  25
ENDBRANCH  23  24
ENDBRANCH   8  19
ENDBRANCH   5   7
ENDBRANCH   3   5
ENDBRANCH   2   3
ENDBRANCH   1   2
BRANCH   1  32
ATOM     32  C   UNL A   1      32.219  32.073  27.192  1.00  0.00     0.275 C 
BRANCH  32  33
ATOM     33  O   UNL A   1      33.216  33.067  27.021  1.00  0.00    -0.458 OA
BRANCH  33  34
ATOM     34  C   UNL A   1      33.412  33.809  28.141  1.00  0.00     0.338 C 
ATOM     35  O   UNL A   1      32.673  34.678  28.569  1.00  0.00    -0.246 OA
BRANCH  34  36
ATOM     36  C   UNL A   1      34.588  33.277  28.840  1.00  0.00     0.060 A 
ATOM     37  C   UNL A   1      35.844  33.580  28.312  1.00  0.00     0.016 A 
ATOM     38  C   UNL A   1      34.458  32.502  29.997  1.00  0.00     0.016 A 
ATOM     39  C   UNL A   1      36.982  33.057  28.916  1.00  0.00     0.010 A 
ATOM     40  C   UNL A   1      35.603  31.999  30.613  1.00  0.00     0.010 A 
ATOM     41  C   UNL A   1      36.869  32.243  30.054  1.00  0.00    -0.014 A 
BRANCH  41  42
ATOM     42  C   UNL A   1      38.070  31.557  30.587  1.00  0.00     0.031 A 
ATOM     43  C   UNL A   1      38.598  31.947  31.938  1.00  0.00     0.074 A 
ATOM     44  C   UNL A   1      38.650  30.562  29.891  1.00  0.00     0.049 A 
ATOM     45  N   UNL A   1      39.627  31.477  32.595  1.00  0.00    -0.248 NA
ATOM     46  C   UNL A   1      37.872  33.016  32.643  1.00  0.00     0.031 C 
ATOM     47  C   UNL A   1      38.202  30.071  28.589  1.00  0.00     0.029 A 
ATOM     48  N   UNL A   1      39.738  29.781  30.191  1.00  0.00    -0.354 N 
ATOM     49  C   UNL A   1      39.669  32.182  33.792  1.00  0.00     0.074 A 
ATOM     50  C   UNL A   1      38.596  33.153  33.744  1.00  0.00     0.031 C 
ATOM     51  C   UNL A   1      38.998  29.057  28.211  1.00  0.00     0.029 A 
ATOM     52  C   UNL A   1      40.042  28.861  29.216  1.00  0.00     0.049 A 
ATOM     53  H   UNL A   1      40.253  29.871  31.026  1.00  0.00     0.167 HD
ATOM     54  C   UNL A   1      40.514  32.022  34.839  1.00  0.00     0.034 A 
ATOM     55  C   UNL A   1      41.057  27.978  29.133  1.00  0.00     0.034 A 
ATOM     56  C   UNL A   1      41.590  31.061  34.864  1.00  0.00     0.049 A 
ATOM     57  C   UNL A   1      42.057  27.902  30.264  1.00  0.00     0.074 A 
ATOM     58  C   UNL A   1      42.499  30.817  35.878  1.00  0.00     0.029 A 
ATOM     59  N   UNL A   1      41.918  30.200  33.824  1.00  0.00    -0.354 N 
ATOM     60  N   UNL A   1      42.083  28.569  31.395  1.00  0.00    -0.248 NA
ATOM     61  C   UNL A   1      43.163  26.947  30.108  1.00  0.00     0.031 C 
ATOM     62  C   UNL A   1      43.431  29.883  35.417  1.00  0.00     0.029 A 
ATOM     63  C   UNL A   1      43.041  29.458  34.157  1.00  0.00     0.049 A 
ATOM     64  H   UNL A   1      41.424  30.128  32.975  1.00  0.00     0.167 HD
ATOM     65  C   UNL A   1      43.182  28.081  32.100  1.00  0.00     0.074 A 
ATOM     66  C   UNL A   1      43.784  27.058  31.272  1.00  0.00     0.031 C 
ATOM     67  C   UNL A   1      43.645  28.442  33.325  1.00  0.00     0.034 A 
BRANCH  54  68
ATOM     68  C   UNL A   1      40.338  32.942  36.023  1.00  0.00     0.023 A 
ATOM     69  C   UNL A   1      39.603  32.557  37.158  1.00  0.00     0.031 A 
ATOM     70  C   UNL A   1      40.900  34.231  36.011  1.00  0.00     0.131 A 
ATOM     71  C   UNL A   1      39.391  33.474  38.199  1.00  0.00     0.055 A 
ATOM     72  C   UNL A   1      40.764  35.105  37.090  1.00  0.00     0.041 A 
ATOM     73  F   UNL A   1      41.587  34.667  34.944  1.00  0.00    -0.206 F 
ATOM     74  C   UNL A   1      39.993  34.734  38.187  1.00  0.00     0.022 A 
BRANCH  71  75
ATOM     75  S   UNL A   1      38.186  33.057  39.488  1.00  0.00     0.124 S 
ATOM     76  O   UNL A   1      38.004  34.347  40.150  1.00  0.00    -0.237 OA
ATOM     77  O   UNL A   1      37.050  32.569  38.715  1.00  0.00    -0.237 OA
ATOM     78  O   UNL A   1      38.876  32.049  40.290  1.00  0.00    -0.744 OA
ENDBRANCH  71  75
ENDBRANCH  54  68
BRANCH  55  79
ATOM     79  C   UNL A   1      41.214  27.113  27.926  1.00  0.00     0.023 A 
ATOM     80  C   UNL A   1      40.943  25.737  27.977  1.00  0.00     0.031 A 
ATOM     81  C   UNL A   1      41.713  27.641  26.721  1.00  0.00     0.131 A 
ATOM     82  C   UNL A   1      41.226  24.927  26.865  1.00  0.00     0.055 A 
ATOM     83  C   UNL A   1      41.922  26.843  25.595  1.00  0.00     0.041 A 
ATOM     84  F   UNL A   1      42.009  28.947  26.620  1.00  0.00    -0.206 F 
ATOM     85  C   UNL A   1      41.693  25.473  25.669  1.00  0.00     0.022 A 
BRANCH  82  86
ATOM     86  S   UNL A   1      41.096  23.126  27.048  1.00  0.00     0.124 S 
ATOM     87  O   UNL A   1      41.806  22.657  25.863  1.00  0.00    -0.237 OA
ATOM     88  O   UNL A   1      41.761  22.899  28.327  1.00  0.00    -0.237 OA
ATOM     89  O   UNL A   1      39.655  22.887  27.047  1.00  0.00    -0.744 OA
ENDBRANCH  82  86
ENDBRANCH  55  79
BRANCH  67  90
ATOM     90  C   UNL A   1      44.830  27.682  33.876  1.00  0.00     0.023 A 
ATOM     91  C   UNL A   1      44.683  26.479  34.589  1.00  0.00     0.031 A 
ATOM     92  C   UNL A   1      46.135  28.172  33.680  1.00  0.00     0.131 A 
ATOM     93  C   UNL A   1      45.812  25.844  35.133  1.00  0.00     0.055 A 
ATOM     94  C   UNL A   1      47.259  27.496  34.154  1.00  0.00     0.041 A 
ATOM     95  F   UNL A   1      46.341  29.320  33.014  1.00  0.00    -0.206 F 
ATOM     96  C   UNL A   1      47.099  26.331  34.900  1.00  0.00     0.022 A 
BRANCH  93  97
ATOM     97  S   UNL A   1      45.566  24.436  36.250  1.00  0.00     0.124 S 
ATOM     98  O   UNL A   1      46.342  24.838  37.418  1.00  0.00    -0.237 OA
ATOM     99  O   UNL A   1      44.117  24.422  36.422  1.00  0.00    -0.237 OA
ATOM    100  O   UNL A   1      46.111  23.305  35.501  1.00  0.00    -0.744 OA
ENDBRANCH  93  97
ENDBRANCH  67  90
ENDBRANCH  41  42
ENDBRANCH  34  36
ENDBRANCH  33  34
ENDBRANCH  32  33
ENDBRANCH   1  32
TORSDOF 19
ENDMDL
