MODEL 1
REMARK VINA RESULT:     -14.3      0.000      0.000
REMARK SMILES O=C(OCCOC(=O)c1ccc(-c2c3nc(c(-c4cc(S(=O)(=O)[O-])ccc4F)c4ccc([nH]4)c(-c4cc(S(=O)(=O)[O-])ccc4F)c4nc(c(-c5cc(S(=O)(=O)[O-])ccc5F)c5ccc2[nH]5)C=C4)C=C3)cc1)C1=Cc2cc(Cl)ccc2O[C@@H]1C(F)(F)F
REMARK SMILES IDX 5 1 4 2 3 3 2 4 1 5 72 6 73 7 82 8 74 9 81 10 75 11 80 12
REMARK SMILES IDX 76 13 79 14 77 15 78 16 83 17 84 18 85 19 86 20 6 21 7 22
REMARK SMILES IDX 8 23 9 24 10 25 71 26 11 27 70 28 12 29 13 30 14 31 64 32
REMARK SMILES IDX 15 33 69 34 63 35 65 36 16 37 68 38 62 39 61 40 17 42 49 43
REMARK SMILES IDX 29 44 48 45 30 46 33 47 47 48 66 49 31 50 32 51 46 53 67 54
REMARK SMILES IDX 34 55 18 56 19 57 27 58 20 59 26 60 28 61 25 62 21 63 22 64
REMARK SMILES IDX 23 65 24 66 50 67 51 68 59 69 52 70 58 71 60 72 57 73 53 74
REMARK SMILES IDX 54 75 55 76 56 77 35 78 36 79 44 80 37 81 43 82 45 83 42 84
REMARK SMILES IDX 38 85 39 86 40 87 41 88
REMARK H PARENT 65 41 33 52
REMARK Flexibility Score: inf
ROOT
ATOM      1  C   UNL A   1      38.544  19.446  25.123  1.00  0.00     0.275 C 
ENDROOT
BRANCH   1   2
ATOM      2  C   UNL A   1      37.358  21.255  24.972  1.00  0.00     0.275 C 
BRANCH   2   3
ATOM      3  O   UNL A   1      35.869  21.425  25.370  1.00  0.00    -0.459 OA
BRANCH   3   4
ATOM      4  C   UNL A   1      35.149  22.050  24.429  1.00  0.00     0.338 C 
ATOM      5  O   UNL A   1      35.510  22.743  23.514  1.00  0.00    -0.246 OA
BRANCH   4   6
ATOM      6  C   UNL A   1      33.886  21.910  25.116  1.00  0.00     0.087 C 
ATOM      7  C   UNL A   1      33.585  23.033  25.980  1.00  0.00     0.027 C 
ATOM      8  C   UNL A   1      32.888  21.375  23.565  1.00  0.00     0.316 C 
ATOM      9  C   UNL A   1      32.331  24.243  25.604  1.00  0.00     0.019 A 
ATOM     10  O   UNL A   1      31.584  22.730  23.075  1.00  0.00    -0.475 OA
ATOM     11  C   UNL A   1      32.237  25.324  26.432  1.00  0.00     0.032 A 
ATOM     12  C   UNL A   1      31.410  24.219  24.135  1.00  0.00     0.128 A 
ATOM     13  C   UNL A   1      31.377  26.330  25.975  1.00  0.00     0.041 A 
ATOM     14  C   UNL A   1      30.586  25.242  23.766  1.00  0.00     0.048 A 
ATOM     15  Cl  UNL A   1      31.249  27.738  26.982  1.00  0.00    -0.084 Cl
ATOM     16  C   UNL A   1      30.610  26.297  24.726  1.00  0.00     0.024 A 
BRANCH   8  17
ATOM     17  C   UNL A   1      32.840  19.896  24.184  1.00  0.00     0.430 C 
ATOM     18  F   UNL A   1      32.223  19.794  25.335  1.00  0.00    -0.167 F 
ATOM     19  F   UNL A   1      32.075  19.120  23.359  1.00  0.00    -0.167 F 
ATOM     20  F   UNL A   1      34.021  19.237  24.261  1.00  0.00    -0.167 F 
ENDBRANCH   8  17
ENDBRANCH   4   6
ENDBRANCH   3   4
ENDBRANCH   2   3
ENDBRANCH   1   2
BRANCH   1  21
ATOM     21  O   UNL A   1      40.065  19.358  26.012  1.00  0.00    -0.458 OA
BRANCH  21  22
ATOM     22  C   UNL A   1      41.277  20.030  26.126  1.00  0.00     0.338 C 
ATOM     23  O   UNL A   1      42.326  19.835  25.539  1.00  0.00    -0.246 OA
BRANCH  22  24
ATOM     24  C   UNL A   1      41.018  21.287  26.908  1.00  0.00     0.060 A 
ATOM     25  C   UNL A   1      41.926  21.701  27.910  1.00  0.00     0.016 A 
ATOM     26  C   UNL A   1      40.137  22.210  26.357  1.00  0.00     0.016 A 
ATOM     27  C   UNL A   1      42.159  23.089  28.098  1.00  0.00     0.010 A 
ATOM     28  C   UNL A   1      40.354  23.573  26.570  1.00  0.00     0.010 A 
ATOM     29  C   UNL A   1      41.440  24.031  27.340  1.00  0.00    -0.014 A 
BRANCH  29  30
ATOM     30  C   UNL A   1      41.630  25.510  27.459  1.00  0.00     0.031 A 
ATOM     31  C   UNL A   1      42.922  26.025  26.904  1.00  0.00     0.074 A 
ATOM     32  C   UNL A   1      40.815  26.342  28.154  1.00  0.00     0.049 A 
ATOM     33  N   UNL A   1      43.501  27.182  27.066  1.00  0.00    -0.248 NA
ATOM     34  C   UNL A   1      43.689  25.062  26.096  1.00  0.00     0.031 C 
ATOM     35  C   UNL A   1      39.524  25.991  28.746  1.00  0.00     0.029 A 
ATOM     36  N   UNL A   1      40.972  27.672  28.510  1.00  0.00    -0.354 N 
ATOM     37  C   UNL A   1      44.719  27.071  26.411  1.00  0.00     0.074 A 
ATOM     38  C   UNL A   1      44.808  25.727  25.889  1.00  0.00     0.031 C 
ATOM     39  C   UNL A   1      39.020  27.061  29.396  1.00  0.00     0.029 A 
ATOM     40  C   UNL A   1      39.963  28.176  29.315  1.00  0.00     0.049 A 
ATOM     41  H   UNL A   1      41.738  28.214  28.214  1.00  0.00     0.167 HD
ATOM     42  C   UNL A   1      45.681  28.006  26.253  1.00  0.00     0.034 A 
ATOM     43  C   UNL A   1      39.836  29.380  29.931  1.00  0.00     0.034 A 
ATOM     44  C   UNL A   1      45.591  29.337  26.779  1.00  0.00     0.049 A 
ATOM     45  C   UNL A   1      40.962  30.395  29.778  1.00  0.00     0.074 A 
ATOM     46  C   UNL A   1      46.492  30.374  26.636  1.00  0.00     0.029 A 
ATOM     47  N   UNL A   1      44.550  29.809  27.566  1.00  0.00    -0.354 N 
ATOM     48  N   UNL A   1      42.078  30.299  29.090  1.00  0.00    -0.248 NA
ATOM     49  C   UNL A   1      40.820  31.677  30.493  1.00  0.00     0.031 C 
ATOM     50  C   UNL A   1      46.034  31.451  27.398  1.00  0.00     0.029 A 
ATOM     51  C   UNL A   1      44.807  31.113  27.949  1.00  0.00     0.049 A 
ATOM     52  H   UNL A   1      43.750  29.293  27.814  1.00  0.00     0.167 HD
ATOM     53  C   UNL A   1      42.740  31.516  29.258  1.00  0.00     0.074 A 
ATOM     54  C   UNL A   1      41.898  32.337  30.098  1.00  0.00     0.031 C 
ATOM     55  C   UNL A   1      43.940  31.921  28.769  1.00  0.00     0.034 A 
BRANCH  42  56
ATOM     56  C   UNL A   1      46.924  27.576  25.527  1.00  0.00     0.023 A 
ATOM     57  C   UNL A   1      47.167  27.968  24.200  1.00  0.00     0.031 A 
ATOM     58  C   UNL A   1      47.828  26.694  26.140  1.00  0.00     0.131 A 
ATOM     59  C   UNL A   1      48.241  27.408  23.499  1.00  0.00     0.055 A 
ATOM     60  C   UNL A   1      48.948  26.213  25.465  1.00  0.00     0.041 A 
ATOM     61  F   UNL A   1      47.619  26.262  27.394  1.00  0.00    -0.206 F 
ATOM     62  C   UNL A   1      49.151  26.557  24.131  1.00  0.00     0.022 A 
BRANCH  59  63
ATOM     63  S   UNL A   1      48.338  27.683  21.710  1.00  0.00     0.124 S 
ATOM     64  O   UNL A   1      47.010  28.220  21.423  1.00  0.00    -0.237 OA
ATOM     65  O   UNL A   1      49.446  28.625  21.593  1.00  0.00    -0.237 OA
ATOM     66  O   UNL A   1      48.595  26.349  21.172  1.00  0.00    -0.744 OA
ENDBRANCH  59  63
ENDBRANCH  42  56
BRANCH  43  67
ATOM     67  C   UNL A   1      38.664  29.727  30.814  1.00  0.00     0.023 A 
ATOM     68  C   UNL A   1      37.595  30.517  30.341  1.00  0.00     0.031 A 
ATOM     69  C   UNL A   1      38.671  29.419  32.187  1.00  0.00     0.131 A 
ATOM     70  C   UNL A   1      36.637  31.034  31.237  1.00  0.00     0.055 A 
ATOM     71  C   UNL A   1      37.678  29.878  33.061  1.00  0.00     0.041 A 
ATOM     72  F   UNL A   1      39.668  28.691  32.715  1.00  0.00    -0.206 F 
ATOM     73  C   UNL A   1      36.665  30.708  32.593  1.00  0.00     0.022 A 
BRANCH  70  74
ATOM     74  S   UNL A   1      35.441  32.268  30.637  1.00  0.00     0.124 S 
ATOM     75  O   UNL A   1      36.268  33.467  30.558  1.00  0.00    -0.237 OA
ATOM     76  O   UNL A   1      35.021  31.692  29.364  1.00  0.00    -0.237 OA
ATOM     77  O   UNL A   1      34.416  32.286  31.679  1.00  0.00    -0.744 OA
ENDBRANCH  70  74
ENDBRANCH  43  67
BRANCH  55  78
ATOM     78  C   UNL A   1      44.390  33.329  29.071  1.00  0.00     0.023 A 
ATOM     79  C   UNL A   1      43.985  34.424  28.290  1.00  0.00     0.031 A 
ATOM     80  C   UNL A   1      45.183  33.583  30.206  1.00  0.00     0.131 A 
ATOM     81  C   UNL A   1      44.395  35.720  28.640  1.00  0.00     0.055 A 
ATOM     82  C   UNL A   1      45.538  34.877  30.582  1.00  0.00     0.041 A 
ATOM     83  F   UNL A   1      45.596  32.572  30.990  1.00  0.00    -0.206 F 
ATOM     84  C   UNL A   1      45.149  35.955  29.793  1.00  0.00     0.022 A 
BRANCH  81  85
ATOM     85  S   UNL A   1      43.970  37.099  27.539  1.00  0.00     0.124 S 
ATOM     86  O   UNL A   1      45.274  37.465  26.995  1.00  0.00    -0.237 OA
ATOM     87  O   UNL A   1      43.040  36.477  26.603  1.00  0.00    -0.237 OA
ATOM     88  O   UNL A   1      43.374  38.084  28.439  1.00  0.00    -0.744 OA
ENDBRANCH  81  85
ENDBRANCH  55  78
ENDBRANCH  29  30
ENDBRANCH  22  24
ENDBRANCH  21  22
ENDBRANCH   1  21
TORSDOF 15
ENDMDL
MODEL 2
REMARK VINA RESULT:     -14.2      5.135     10.731
REMARK SMILES O=C(OCCOC(=O)c1ccc(-c2c3nc(c(-c4cc(S(=O)(=O)[O-])ccc4F)c4ccc([nH]4)c(-c4cc(S(=O)(=O)[O-])ccc4F)c4nc(c(-c5cc(S(=O)(=O)[O-])ccc5F)c5ccc2[nH]5)C=C4)C=C3)cc1)C1=Cc2cc(Cl)ccc2O[C@@H]1C(F)(F)F
REMARK SMILES IDX 5 1 4 2 3 3 2 4 1 5 72 6 73 7 82 8 74 9 81 10 75 11 80 12
REMARK SMILES IDX 76 13 79 14 77 15 78 16 83 17 84 18 85 19 86 20 6 21 7 22
REMARK SMILES IDX 8 23 9 24 10 25 71 26 11 27 70 28 12 29 13 30 14 31 64 32
REMARK SMILES IDX 15 33 69 34 63 35 65 36 16 37 68 38 62 39 61 40 17 42 49 43
REMARK SMILES IDX 29 44 48 45 30 46 33 47 47 48 66 49 31 50 32 51 46 53 67 54
REMARK SMILES IDX 34 55 18 56 19 57 27 58 20 59 26 60 28 61 25 62 21 63 22 64
REMARK SMILES IDX 23 65 24 66 50 67 51 68 59 69 52 70 58 71 60 72 57 73 53 74
REMARK SMILES IDX 54 75 55 76 56 77 35 78 36 79 44 80 37 81 43 82 45 83 42 84
REMARK SMILES IDX 38 85 39 86 40 87 41 88
REMARK H PARENT 65 41 33 52
REMARK Flexibility Score: inf
ROOT
ATOM      1  C   UNL A   1      31.463  32.348  26.505  1.00  0.00     0.275 C 
ENDROOT
BRANCH   1   2
ATOM      2  C   UNL A   1      32.244  30.433  25.857  1.00  0.00     0.275 C 
BRANCH   2   3
ATOM      3  O   UNL A   1      31.445  29.277  25.201  1.00  0.00    -0.459 OA
BRANCH   3   4
ATOM      4  C   UNL A   1      31.404  28.177  25.962  1.00  0.00     0.338 C 
ATOM      5  O   UNL A   1      31.437  28.065  27.160  1.00  0.00    -0.246 OA
BRANCH   4   6
ATOM      6  C   UNL A   1      31.684  27.259  24.883  1.00  0.00     0.087 C 
ATOM      7  C   UNL A   1      33.067  26.825  24.854  1.00  0.00     0.027 C 
ATOM      8  C   UNL A   1      30.153  26.141  25.184  1.00  0.00     0.316 C 
ATOM      9  C   UNL A   1      33.582  25.182  25.314  1.00  0.00     0.019 A 
ATOM     10  O   UNL A   1      30.689  24.373  25.787  1.00  0.00    -0.475 OA
ATOM     11  C   UNL A   1      34.924  24.941  25.372  1.00  0.00     0.032 A 
ATOM     12  C   UNL A   1      32.480  23.980  25.903  1.00  0.00     0.128 A 
ATOM     13  C   UNL A   1      35.266  23.702  25.928  1.00  0.00     0.041 A 
ATOM     14  C   UNL A   1      32.897  22.791  26.426  1.00  0.00     0.048 A 
ATOM     15  Cl  UNL A   1      36.965  23.364  26.050  1.00  0.00    -0.084 Cl
ATOM     16  C   UNL A   1      34.321  22.699  26.429  1.00  0.00     0.024 A 
BRANCH   8  17
ATOM     17  C   UNL A   1      29.516  26.762  23.849  1.00  0.00     0.430 C 
ATOM     18  F   UNL A   1      30.278  26.695  22.785  1.00  0.00    -0.167 F 
ATOM     19  F   UNL A   1      28.440  25.994  23.500  1.00  0.00    -0.167 F 
ATOM     20  F   UNL A   1      29.013  28.015  23.949  1.00  0.00    -0.167 F 
ENDBRANCH   8  17
ENDBRANCH   4   6
ENDBRANCH   3   4
ENDBRANCH   2   3
ENDBRANCH   1   2
BRANCH   1  21
ATOM     21  O   UNL A   1      32.153  33.275  27.837  1.00  0.00    -0.458 OA
BRANCH  21  22
ATOM     22  C   UNL A   1      33.286  34.022  28.146  1.00  0.00     0.338 C 
ATOM     23  O   UNL A   1      33.368  35.116  28.674  1.00  0.00    -0.246 OA
BRANCH  22  24
ATOM     24  C   UNL A   1      34.474  33.115  27.990  1.00  0.00     0.060 A 
ATOM     25  C   UNL A   1      35.785  33.645  28.041  1.00  0.00     0.016 A 
ATOM     26  C   UNL A   1      34.274  31.758  28.214  1.00  0.00     0.016 A 
ATOM     27  C   UNL A   1      36.816  32.875  28.638  1.00  0.00     0.010 A 
ATOM     28  C   UNL A   1      35.303  30.999  28.776  1.00  0.00     0.010 A 
ATOM     29  C   UNL A   1      36.542  31.578  29.109  1.00  0.00    -0.014 A 
BRANCH  29  30
ATOM     30  C   UNL A   1      37.561  30.702  29.766  1.00  0.00     0.031 A 
ATOM     31  C   UNL A   1      37.848  31.035  31.198  1.00  0.00     0.074 A 
ATOM     32  C   UNL A   1      38.319  29.779  29.123  1.00  0.00     0.049 A 
ATOM     33  N   UNL A   1      38.830  30.652  31.966  1.00  0.00    -0.248 NA
ATOM     34  C   UNL A   1      36.914  31.986  31.823  1.00  0.00     0.031 C 
ATOM     35  C   UNL A   1      38.157  29.342  27.736  1.00  0.00     0.029 A 
ATOM     36  N   UNL A   1      39.417  29.052  29.554  1.00  0.00    -0.354 N 
ATOM     37  C   UNL A   1      38.650  31.347  33.154  1.00  0.00     0.074 A 
ATOM     38  C   UNL A   1      37.495  32.199  32.986  1.00  0.00     0.031 C 
ATOM     39  C   UNL A   1      39.118  28.445  27.431  1.00  0.00     0.029 A 
ATOM     40  C   UNL A   1      40.005  28.262  28.579  1.00  0.00     0.049 A 
ATOM     41  H   UNL A   1      39.752  29.094  30.479  1.00  0.00     0.167 HD
ATOM     42  C   UNL A   1      39.380  31.280  34.289  1.00  0.00     0.034 A 
ATOM     43  C   UNL A   1      41.135  27.510  28.608  1.00  0.00     0.034 A 
ATOM     44  C   UNL A   1      40.529  30.438  34.449  1.00  0.00     0.049 A 
ATOM     45  C   UNL A   1      41.967  27.497  29.885  1.00  0.00     0.074 A 
ATOM     46  C   UNL A   1      41.311  30.265  35.574  1.00  0.00     0.029 A 
ATOM     47  N   UNL A   1      41.074  29.645  33.449  1.00  0.00    -0.354 N 
ATOM     48  N   UNL A   1      41.739  28.105  31.028  1.00  0.00    -0.248 NA
ATOM     49  C   UNL A   1      43.212  26.707  29.875  1.00  0.00     0.031 C 
ATOM     50  C   UNL A   1      42.374  29.425  35.235  1.00  0.00     0.029 A 
ATOM     51  C   UNL A   1      42.208  29.009  33.922  1.00  0.00     0.049 A 
ATOM     52  H   UNL A   1      40.709  29.549  32.540  1.00  0.00     0.167 HD
ATOM     53  C   UNL A   1      42.786  27.737  31.874  1.00  0.00     0.074 A 
ATOM     54  C   UNL A   1      43.638  26.844  31.122  1.00  0.00     0.031 C 
ATOM     55  C   UNL A   1      43.030  28.104  33.158  1.00  0.00     0.034 A 
BRANCH  42  56
ATOM     56  C   UNL A   1      38.966  32.194  35.407  1.00  0.00     0.023 A 
ATOM     57  C   UNL A   1      39.409  33.526  35.464  1.00  0.00     0.031 A 
ATOM     58  C   UNL A   1      38.194  31.701  36.471  1.00  0.00     0.131 A 
ATOM     59  C   UNL A   1      39.151  34.294  36.606  1.00  0.00     0.055 A 
ATOM     60  C   UNL A   1      37.862  32.500  37.563  1.00  0.00     0.041 A 
ATOM     61  F   UNL A   1      37.779  30.424  36.480  1.00  0.00    -0.206 F 
ATOM     62  C   UNL A   1      38.354  33.801  37.643  1.00  0.00     0.022 A 
BRANCH  59  63
ATOM     63  S   UNL A   1      40.002  35.884  36.785  1.00  0.00     0.124 S 
ATOM     64  O   UNL A   1      39.653  36.547  35.530  1.00  0.00    -0.237 OA
ATOM     65  O   UNL A   1      39.392  36.436  37.989  1.00  0.00    -0.237 OA
ATOM     66  O   UNL A   1      41.407  35.506  36.914  1.00  0.00    -0.744 OA
ENDBRANCH  59  63
ENDBRANCH  42  56
BRANCH  43  67
ATOM     67  C   UNL A   1      41.638  26.745  27.410  1.00  0.00     0.023 A 
ATOM     68  C   UNL A   1      41.411  25.358  27.273  1.00  0.00     0.031 A 
ATOM     69  C   UNL A   1      42.494  27.347  26.469  1.00  0.00     0.131 A 
ATOM     70  C   UNL A   1      42.089  24.616  26.285  1.00  0.00     0.055 A 
ATOM     71  C   UNL A   1      43.111  26.616  25.446  1.00  0.00     0.041 A 
ATOM     72  F   UNL A   1      42.777  28.656  26.547  1.00  0.00    -0.206 F 
ATOM     73  C   UNL A   1      42.928  25.240  25.361  1.00  0.00     0.022 A 
BRANCH  70  74
ATOM     74  S   UNL A   1      41.985  22.800  26.316  1.00  0.00     0.124 S 
ATOM     75  O   UNL A   1      42.701  22.442  25.097  1.00  0.00    -0.237 OA
ATOM     76  O   UNL A   1      42.653  22.478  27.573  1.00  0.00    -0.237 OA
ATOM     77  O   UNL A   1      40.547  22.538  26.293  1.00  0.00    -0.744 OA
ENDBRANCH  70  74
ENDBRANCH  43  67
BRANCH  55  78
ATOM     78  C   UNL A   1      44.224  27.500  33.855  1.00  0.00     0.023 A 
ATOM     79  C   UNL A   1      44.175  26.227  34.447  1.00  0.00     0.031 A 
ATOM     80  C   UNL A   1      45.452  28.187  33.863  1.00  0.00     0.131 A 
ATOM     81  C   UNL A   1      45.327  25.691  35.044  1.00  0.00     0.055 A 
ATOM     82  C   UNL A   1      46.607  27.626  34.405  1.00  0.00     0.041 A 
ATOM     83  F   UNL A   1      45.555  29.407  33.309  1.00  0.00    -0.206 F 
ATOM     84  C   UNL A   1      46.547  26.372  35.006  1.00  0.00     0.022 A 
BRANCH  81  85
ATOM     85  S   UNL A   1      45.202  24.105  35.918  1.00  0.00     0.124 S 
ATOM     86  O   UNL A   1      44.661  24.513  37.210  1.00  0.00    -0.237 OA
ATOM     87  O   UNL A   1      44.299  23.345  35.060  1.00  0.00    -0.237 OA
ATOM     88  O   UNL A   1      46.581  23.621  35.946  1.00  0.00    -0.744 OA
ENDBRANCH  81  85
ENDBRANCH  55  78
ENDBRANCH  29  30
ENDBRANCH  22  24
ENDBRANCH  21  22
ENDBRANCH   1  21
TORSDOF 15
ENDMDL
MODEL 3
REMARK VINA RESULT:     -14.0      1.594      1.813
REMARK SMILES O=C(OCCOC(=O)c1ccc(-c2c3nc(c(-c4cc(S(=O)(=O)[O-])ccc4F)c4ccc([nH]4)c(-c4cc(S(=O)(=O)[O-])ccc4F)c4nc(c(-c5cc(S(=O)(=O)[O-])ccc5F)c5ccc2[nH]5)C=C4)C=C3)cc1)C1=Cc2cc(Cl)ccc2O[C@@H]1C(F)(F)F
REMARK SMILES IDX 5 1 4 2 3 3 2 4 1 5 72 6 73 7 82 8 74 9 81 10 75 11 80 12
REMARK SMILES IDX 76 13 79 14 77 15 78 16 83 17 84 18 85 19 86 20 6 21 7 22
REMARK SMILES IDX 8 23 9 24 10 25 71 26 11 27 70 28 12 29 13 30 14 31 64 32
REMARK SMILES IDX 15 33 69 34 63 35 65 36 16 37 68 38 62 39 61 40 17 42 49 43
REMARK SMILES IDX 29 44 48 45 30 46 33 47 47 48 66 49 31 50 32 51 46 53 67 54
REMARK SMILES IDX 34 55 18 56 19 57 27 58 20 59 26 60 28 61 25 62 21 63 22 64
REMARK SMILES IDX 23 65 24 66 50 67 51 68 59 69 52 70 58 71 60 72 57 73 53 74
REMARK SMILES IDX 54 75 55 76 56 77 35 78 36 79 44 80 37 81 43 82 45 83 42 84
REMARK SMILES IDX 38 85 39 86 40 87 41 88
REMARK H PARENT 65 41 33 52
REMARK Flexibility Score: inf
ROOT
ATOM      1  C   UNL A   1      38.661  19.057  25.574  1.00  0.00     0.275 C 
ENDROOT
BRANCH   1   2
ATOM      2  C   UNL A   1      37.375  20.584  24.728  1.00  0.00     0.275 C 
BRANCH   2   3
ATOM      3  O   UNL A   1      36.173  21.275  25.421  1.00  0.00    -0.459 OA
BRANCH   3   4
ATOM      4  C   UNL A   1      35.395  21.946  24.563  1.00  0.00     0.338 C 
ATOM      5  O   UNL A   1      35.698  22.676  23.655  1.00  0.00    -0.246 OA
BRANCH   4   6
ATOM      6  C   UNL A   1      34.182  21.787  25.332  1.00  0.00     0.087 C 
ATOM      7  C   UNL A   1      33.847  22.964  26.109  1.00  0.00     0.027 C 
ATOM      8  C   UNL A   1      33.146  21.045  23.896  1.00  0.00     0.316 C 
ATOM      9  C   UNL A   1      32.492  24.047  25.700  1.00  0.00     0.019 A 
ATOM     10  O   UNL A   1      31.724  22.258  23.364  1.00  0.00    -0.475 OA
ATOM     11  C   UNL A   1      32.364  25.192  26.432  1.00  0.00     0.032 A 
ATOM     12  C   UNL A   1      31.500  23.825  24.295  1.00  0.00     0.128 A 
ATOM     13  C   UNL A   1      31.411  26.091  25.937  1.00  0.00     0.041 A 
ATOM     14  C   UNL A   1      30.587  24.752  23.884  1.00  0.00     0.048 A 
ATOM     15  Cl  UNL A   1      31.235  27.576  26.819  1.00  0.00    -0.084 Cl
ATOM     16  C   UNL A   1      30.585  25.891  24.743  1.00  0.00     0.024 A 
BRANCH   8  17
ATOM     17  C   UNL A   1      33.237  19.630  24.647  1.00  0.00     0.430 C 
ATOM     18  F   UNL A   1      33.045  19.674  25.942  1.00  0.00    -0.167 F 
ATOM     19  F   UNL A   1      32.198  18.856  24.212  1.00  0.00    -0.167 F 
ATOM     20  F   UNL A   1      34.338  18.883  24.392  1.00  0.00    -0.167 F 
ENDBRANCH   8  17
ENDBRANCH   4   6
ENDBRANCH   3   4
ENDBRANCH   2   3
ENDBRANCH   1   2
BRANCH   1  21
ATOM     21  O   UNL A   1      40.421  19.162  25.569  1.00  0.00    -0.458 OA
BRANCH  21  22
ATOM     22  C   UNL A   1      41.470  19.588  26.378  1.00  0.00     0.338 C 
ATOM     23  O   UNL A   1      42.610  19.167  26.450  1.00  0.00    -0.246 OA
BRANCH  22  24
ATOM     24  C   UNL A   1      41.061  20.903  26.982  1.00  0.00     0.060 A 
ATOM     25  C   UNL A   1      41.646  21.343  28.192  1.00  0.00     0.016 A 
ATOM     26  C   UNL A   1      40.443  21.824  26.144  1.00  0.00     0.016 A 
ATOM     27  C   UNL A   1      41.892  22.729  28.374  1.00  0.00     0.010 A 
ATOM     28  C   UNL A   1      40.666  23.188  26.346  1.00  0.00     0.010 A 
ATOM     29  C   UNL A   1      41.493  23.649  27.387  1.00  0.00    -0.014 A 
BRANCH  29  30
ATOM     30  C   UNL A   1      41.725  25.123  27.486  1.00  0.00     0.031 A 
ATOM     31  C   UNL A   1      43.065  25.584  27.003  1.00  0.00     0.074 A 
ATOM     32  C   UNL A   1      40.896  25.997  28.110  1.00  0.00     0.049 A 
ATOM     33  N   UNL A   1      43.672  26.725  27.177  1.00  0.00    -0.248 NA
ATOM     34  C   UNL A   1      43.849  24.578  26.266  1.00  0.00     0.031 C 
ATOM     35  C   UNL A   1      39.559  25.702  28.627  1.00  0.00     0.029 A 
ATOM     36  N   UNL A   1      41.075  27.329  28.447  1.00  0.00    -0.354 N 
ATOM     37  C   UNL A   1      44.924  26.559  26.603  1.00  0.00     0.074 A 
ATOM     38  C   UNL A   1      45.001  25.200  26.117  1.00  0.00     0.031 C 
ATOM     39  C   UNL A   1      39.052  26.803  29.220  1.00  0.00     0.029 A 
ATOM     40  C   UNL A   1      40.036  27.885  29.175  1.00  0.00     0.049 A 
ATOM     41  H   UNL A   1      41.877  27.840  28.188  1.00  0.00     0.167 HD
ATOM     42  C   UNL A   1      45.925  27.459  26.486  1.00  0.00     0.034 A 
ATOM     43  C   UNL A   1      39.911  29.106  29.756  1.00  0.00     0.034 A 
ATOM     44  C   UNL A   1      45.848  28.804  26.977  1.00  0.00     0.049 A 
ATOM     45  C   UNL A   1      41.078  30.081  29.653  1.00  0.00     0.074 A 
ATOM     46  C   UNL A   1      46.789  29.808  26.869  1.00  0.00     0.029 A 
ATOM     47  N   UNL A   1      44.776  29.327  27.685  1.00  0.00    -0.354 N 
ATOM     48  N   UNL A   1      42.231  29.932  29.039  1.00  0.00    -0.248 NA
ATOM     49  C   UNL A   1      40.934  31.383  30.329  1.00  0.00     0.031 C 
ATOM     50  C   UNL A   1      46.322  30.916  27.577  1.00  0.00     0.029 A 
ATOM     51  C   UNL A   1      45.052  30.631  28.056  1.00  0.00     0.049 A 
ATOM     52  H   UNL A   1      43.944  28.843  27.894  1.00  0.00     0.167 HD
ATOM     53  C   UNL A   1      42.922  31.131  29.223  1.00  0.00     0.074 A 
ATOM     54  C   UNL A   1      42.057  31.999  29.990  1.00  0.00     0.031 C 
ATOM     55  C   UNL A   1      44.162  31.486  28.803  1.00  0.00     0.034 A 
BRANCH  42  56
ATOM     56  C   UNL A   1      47.196  26.972  25.850  1.00  0.00     0.023 A 
ATOM     57  C   UNL A   1      48.153  26.255  26.585  1.00  0.00     0.031 A 
ATOM     58  C   UNL A   1      47.488  27.305  24.517  1.00  0.00     0.131 A 
ATOM     59  C   UNL A   1      49.398  25.971  26.011  1.00  0.00     0.055 A 
ATOM     60  C   UNL A   1      48.693  26.938  23.922  1.00  0.00     0.041 A 
ATOM     61  F   UNL A   1      46.620  28.021  23.784  1.00  0.00    -0.206 F 
ATOM     62  C   UNL A   1      49.664  26.281  24.674  1.00  0.00     0.022 A 
BRANCH  59  63
ATOM     63  S   UNL A   1      50.716  25.338  27.081  1.00  0.00     0.124 S 
ATOM     64  O   UNL A   1      51.709  24.906  26.100  1.00  0.00    -0.237 OA
ATOM     65  O   UNL A   1      51.070  26.509  27.875  1.00  0.00    -0.237 OA
ATOM     66  O   UNL A   1      50.067  24.257  27.819  1.00  0.00    -0.744 OA
ENDBRANCH  59  63
ENDBRANCH  42  56
BRANCH  43  67
ATOM     67  C   UNL A   1      38.698  29.511  30.555  1.00  0.00     0.023 A 
ATOM     68  C   UNL A   1      37.778  30.462  30.065  1.00  0.00     0.031 A 
ATOM     69  C   UNL A   1      38.528  29.085  31.886  1.00  0.00     0.131 A 
ATOM     70  C   UNL A   1      36.794  31.009  30.914  1.00  0.00     0.055 A 
ATOM     71  C   UNL A   1      37.506  29.581  32.704  1.00  0.00     0.041 A 
ATOM     72  F   UNL A   1      39.377  28.200  32.430  1.00  0.00    -0.206 F 
ATOM     73  C   UNL A   1      36.644  30.564  32.228  1.00  0.00     0.022 A 
BRANCH  70  74
ATOM     74  S   UNL A   1      35.810  32.425  30.331  1.00  0.00     0.124 S 
ATOM     75  O   UNL A   1      35.257  32.935  31.581  1.00  0.00    -0.237 OA
ATOM     76  O   UNL A   1      36.824  33.256  29.690  1.00  0.00    -0.237 OA
ATOM     77  O   UNL A   1      34.840  31.817  29.422  1.00  0.00    -0.744 OA
ENDBRANCH  70  74
ENDBRANCH  43  67
BRANCH  55  78
ATOM     78  C   UNL A   1      44.640  32.885  29.102  1.00  0.00     0.023 A 
ATOM     79  C   UNL A   1      44.411  33.955  28.221  1.00  0.00     0.031 A 
ATOM     80  C   UNL A   1      45.275  33.161  30.328  1.00  0.00     0.131 A 
ATOM     81  C   UNL A   1      44.836  35.247  28.567  1.00  0.00     0.055 A 
ATOM     82  C   UNL A   1      45.642  34.456  30.692  1.00  0.00     0.041 A 
ATOM     83  F   UNL A   1      45.517  32.176  31.208  1.00  0.00    -0.206 F 
ATOM     84  C   UNL A   1      45.428  35.508  29.806  1.00  0.00     0.022 A 
BRANCH  81  85
ATOM     85  S   UNL A   1      44.648  36.584  27.354  1.00  0.00     0.124 S 
ATOM     86  O   UNL A   1      44.850  37.771  28.178  1.00  0.00    -0.237 OA
ATOM     87  O   UNL A   1      45.706  36.286  26.394  1.00  0.00    -0.237 OA
ATOM     88  O   UNL A   1      43.288  36.401  26.850  1.00  0.00    -0.744 OA
ENDBRANCH  81  85
ENDBRANCH  55  78
ENDBRANCH  29  30
ENDBRANCH  22  24
ENDBRANCH  21  22
ENDBRANCH   1  21
TORSDOF 15
ENDMDL
