MODEL 1
REMARK VINA RESULT:     -10.8      0.000      0.000
REMARK SMILES O=C(C[C@@H]1CN(c2nc3ccccc3s2)CCO1)OCCOC(=O)c1ccc(-c2c3nc(c(-c4cc(S(=O)(=O)[O-])ccc4F)c4ccc([nH]4)c(-c4cc(S(=O)(=O)[O-])ccc4F)c4nc(c(-c5cc(S(=O)(=O)[O-])ccc5F)c5ccc2[nH]5)C=C4)C=C3)cc1
REMARK SMILES IDX 21 1 20 2 19 3 2 4 1 5 3 6 4 7 5 8 18 9 6 10 17 11 16 12
REMARK SMILES IDX 7 13 8 14 15 15 9 16 14 17 10 18 13 19 11 20 12 21 22 22
REMARK SMILES IDX 23 23 24 24 25 25 26 26 87 27 27 28 86 29 28 30 29 31 30 32
REMARK SMILES IDX 80 33 31 34 85 35 79 36 81 37 32 38 84 39 78 40 77 41 33 43
REMARK SMILES IDX 65 44 45 45 64 46 46 47 49 48 63 49 82 50 47 51 48 52 62 54
REMARK SMILES IDX 83 55 50 56 34 57 35 58 43 59 36 60 42 61 44 62 41 63 37 64
REMARK SMILES IDX 38 65 39 66 40 67 66 68 67 69 75 70 68 71 74 72 76 73 73 74
REMARK SMILES IDX 69 75 70 76 71 77 72 78 51 79 52 80 60 81 53 82 59 83 61 84
REMARK SMILES IDX 58 85 54 86 55 87 56 88 57 89
REMARK H PARENT 81 42 49 53
REMARK Flexibility Score: inf
ROOT
ATOM      1  C   UNL A   1      33.891  33.759  27.906  1.00  0.00     0.275 C 
ENDROOT
BRANCH   1   2
ATOM      2  C   UNL A   1      34.673  35.074  27.822  1.00  0.00     0.274 C 
BRANCH   2   3
ATOM      3  O   UNL A   1      34.229  36.061  28.774  1.00  0.00    -0.462 OA
BRANCH   3   4
ATOM      4  C   UNL A   1      32.949  36.052  29.230  1.00  0.00     0.308 C 
ATOM      5  O   UNL A   1      32.056  36.651  28.638  1.00  0.00    -0.252 OA
BRANCH   4   6
ATOM      6  C   UNL A   1      32.719  35.419  30.571  1.00  0.00     0.156 C 
BRANCH   6   7
ATOM      7  C   UNL A   1      33.845  35.655  31.560  1.00  0.00     0.148 C 
ATOM      8  C   UNL A   1      34.631  34.333  31.677  1.00  0.00     0.151 C 
ATOM      9  O   UNL A   1      33.283  35.993  32.851  1.00  0.00    -0.374 OA
ATOM     10  N   UNL A   1      35.651  34.478  32.701  1.00  0.00    -0.343 N 
ATOM     11  C   UNL A   1      34.315  36.147  33.848  1.00  0.00     0.182 C 
ATOM     12  C   UNL A   1      35.161  34.869  34.013  1.00  0.00     0.147 C 
BRANCH  10  13
ATOM     13  C   UNL A   1      36.971  34.439  32.413  1.00  0.00     0.186 A 
ATOM     14  N   UNL A   1      37.913  34.794  33.255  1.00  0.00    -0.220 NA
ATOM     15  S   UNL A   1      37.548  33.930  30.864  1.00  0.00    -0.097 S 
ATOM     16  C   UNL A   1      39.157  34.443  32.751  1.00  0.00     0.084 A 
ATOM     17  C   UNL A   1      39.159  33.981  31.435  1.00  0.00     0.056 A 
ATOM     18  C   UNL A   1      40.381  34.498  33.444  1.00  0.00     0.030 A 
ATOM     19  C   UNL A   1      40.337  33.613  30.769  1.00  0.00     0.021 A 
ATOM     20  C   UNL A   1      41.560  34.095  32.805  1.00  0.00     0.002 A 
ATOM     21  C   UNL A   1      41.537  33.667  31.481  1.00  0.00     0.002 A 
ENDBRANCH  10  13
ENDBRANCH   6   7
ENDBRANCH   4   6
ENDBRANCH   3   4
ENDBRANCH   2   3
ENDBRANCH   1   2
BRANCH   1  22
ATOM     22  O   UNL A   1      34.656  32.720  28.544  1.00  0.00    -0.458 OA
BRANCH  22  23
ATOM     23  C   UNL A   1      34.550  31.495  27.970  1.00  0.00     0.338 C 
ATOM     24  O   UNL A   1      33.673  31.137  27.199  1.00  0.00    -0.246 OA
BRANCH  23  25
ATOM     25  C   UNL A   1      35.763  30.688  28.257  1.00  0.00     0.060 A 
ATOM     26  C   UNL A   1      35.664  29.704  29.250  1.00  0.00     0.016 A 
ATOM     27  C   UNL A   1      36.972  30.871  27.577  1.00  0.00     0.016 A 
ATOM     28  C   UNL A   1      36.780  28.942  29.602  1.00  0.00     0.010 A 
ATOM     29  C   UNL A   1      38.092  30.107  27.933  1.00  0.00     0.010 A 
ATOM     30  C   UNL A   1      38.012  29.165  28.974  1.00  0.00    -0.014 A 
BRANCH  30  31
ATOM     31  C   UNL A   1      39.243  28.562  29.548  1.00  0.00     0.031 A 
ATOM     32  C   UNL A   1      39.747  29.079  30.869  1.00  0.00     0.074 A 
ATOM     33  C   UNL A   1      39.885  27.551  28.934  1.00  0.00     0.049 A 
ATOM     34  N   UNL A   1      40.770  28.686  31.584  1.00  0.00    -0.248 NA
ATOM     35  C   UNL A   1      38.993  30.196  31.454  1.00  0.00     0.031 C 
ATOM     36  C   UNL A   1      39.491  26.944  27.665  1.00  0.00     0.029 A 
ATOM     37  N   UNL A   1      41.011  26.858  29.306  1.00  0.00    -0.354 N 
ATOM     38  C   UNL A   1      40.775  29.501  32.712  1.00  0.00     0.074 A 
ATOM     39  C   UNL A   1      39.690  30.447  32.550  1.00  0.00     0.031 C 
ATOM     40  C   UNL A   1      40.365  25.967  27.362  1.00  0.00     0.029 A 
ATOM     41  C   UNL A   1      41.390  25.892  28.403  1.00  0.00     0.049 A 
ATOM     42  H   UNL A   1      41.501  27.036  30.141  1.00  0.00     0.167 HD
ATOM     43  C   UNL A   1      41.596  29.458  33.791  1.00  0.00     0.034 A 
ATOM     44  C   UNL A   1      42.445  25.051  28.416  1.00  0.00     0.034 A 
ATOM     45  C   UNL A   1      42.696  28.536  33.931  1.00  0.00     0.049 A 
ATOM     46  C   UNL A   1      43.403  25.079  29.583  1.00  0.00     0.074 A 
ATOM     47  C   UNL A   1      43.582  28.400  34.986  1.00  0.00     0.029 A 
ATOM     48  N   UNL A   1      43.077  27.604  32.973  1.00  0.00    -0.354 N 
ATOM     49  N   UNL A   1      43.377  25.827  30.662  1.00  0.00    -0.248 NA
ATOM     50  C   UNL A   1      44.528  24.133  29.538  1.00  0.00     0.031 C 
ATOM     51  C   UNL A   1      44.539  27.440  34.637  1.00  0.00     0.029 A 
ATOM     52  C   UNL A   1      44.205  26.917  33.397  1.00  0.00     0.049 A 
ATOM     53  H   UNL A   1      42.615  27.453  32.118  1.00  0.00     0.167 HD
ATOM     54  C   UNL A   1      44.456  25.412  31.441  1.00  0.00     0.074 A 
ATOM     55  C   UNL A   1      45.112  24.349  30.708  1.00  0.00     0.031 C 
ATOM     56  C   UNL A   1      44.860  25.861  32.658  1.00  0.00     0.034 A 
BRANCH  43  57
ATOM     57  C   UNL A   1      41.351  30.484  34.874  1.00  0.00     0.023 A 
ATOM     58  C   UNL A   1      40.148  30.510  35.603  1.00  0.00     0.031 A 
ATOM     59  C   UNL A   1      42.296  31.491  35.129  1.00  0.00     0.131 A 
ATOM     60  C   UNL A   1      39.882  31.574  36.477  1.00  0.00     0.055 A 
ATOM     61  C   UNL A   1      42.063  32.499  36.067  1.00  0.00     0.041 A 
ATOM     62  F   UNL A   1      43.452  31.533  34.448  1.00  0.00    -0.206 F 
ATOM     63  C   UNL A   1      40.841  32.556  36.732  1.00  0.00     0.022 A 
BRANCH  60  64
ATOM     64  S   UNL A   1      38.198  31.757  37.128  1.00  0.00     0.124 S 
ATOM     65  O   UNL A   1      37.748  30.368  37.176  1.00  0.00    -0.237 OA
ATOM     66  O   UNL A   1      38.428  32.401  38.417  1.00  0.00    -0.237 OA
ATOM     67  O   UNL A   1      37.531  32.585  36.125  1.00  0.00    -0.744 OA
ENDBRANCH  60  64
ENDBRANCH  43  57
BRANCH  44  68
ATOM     68  C   UNL A   1      42.671  24.113  27.279  1.00  0.00     0.023 A 
ATOM     69  C   UNL A   1      42.104  22.829  27.273  1.00  0.00     0.031 A 
ATOM     70  C   UNL A   1      43.501  24.474  26.203  1.00  0.00     0.131 A 
ATOM     71  C   UNL A   1      42.410  21.935  26.233  1.00  0.00     0.055 A 
ATOM     72  C   UNL A   1      43.764  23.599  25.149  1.00  0.00     0.041 A 
ATOM     73  F   UNL A   1      44.069  25.690  26.164  1.00  0.00    -0.206 F 
ATOM     74  C   UNL A   1      43.226  22.316  25.166  1.00  0.00     0.022 A 
BRANCH  71  75
ATOM     75  S   UNL A   1      41.772  20.240  26.326  1.00  0.00     0.124 S 
ATOM     76  O   UNL A   1      42.178  19.841  27.668  1.00  0.00    -0.237 OA
ATOM     77  O   UNL A   1      40.342  20.441  26.120  1.00  0.00    -0.237 OA
ATOM     78  O   UNL A   1      42.465  19.557  25.234  1.00  0.00    -0.744 OA
ENDBRANCH  71  75
ENDBRANCH  44  68
BRANCH  56  79
ATOM     79  C   UNL A   1      46.034  25.160  33.303  1.00  0.00     0.023 A 
ATOM     80  C   UNL A   1      45.875  24.007  34.092  1.00  0.00     0.031 A 
ATOM     81  C   UNL A   1      47.336  25.662  33.127  1.00  0.00     0.131 A 
ATOM     82  C   UNL A   1      46.991  23.426  34.717  1.00  0.00     0.055 A 
ATOM     83  C   UNL A   1      48.449  25.046  33.701  1.00  0.00     0.041 A 
ATOM     84  F   UNL A   1      47.549  26.761  32.385  1.00  0.00    -0.206 F 
ATOM     85  C   UNL A   1      48.279  23.929  34.513  1.00  0.00     0.022 A 
BRANCH  82  86
ATOM     86  S   UNL A   1      46.731  22.054  35.876  1.00  0.00     0.124 S 
ATOM     87  O   UNL A   1      47.739  22.320  36.896  1.00  0.00    -0.237 OA
ATOM     88  O   UNL A   1      45.343  22.250  36.285  1.00  0.00    -0.237 OA
ATOM     89  O   UNL A   1      46.972  20.864  35.060  1.00  0.00    -0.744 OA
ENDBRANCH  82  86
ENDBRANCH  56  79
ENDBRANCH  30  31
ENDBRANCH  23  25
ENDBRANCH  22  23
ENDBRANCH   1  22
TORSDOF 16
ENDMDL
MODEL 2
REMARK VINA RESULT:     -10.7      4.184      6.983
REMARK SMILES O=C(C[C@@H]1CN(c2nc3ccccc3s2)CCO1)OCCOC(=O)c1ccc(-c2c3nc(c(-c4cc(S(=O)(=O)[O-])ccc4F)c4ccc([nH]4)c(-c4cc(S(=O)(=O)[O-])ccc4F)c4nc(c(-c5cc(S(=O)(=O)[O-])ccc5F)c5ccc2[nH]5)C=C4)C=C3)cc1
REMARK SMILES IDX 21 1 20 2 19 3 2 4 1 5 3 6 4 7 5 8 18 9 6 10 17 11 16 12
REMARK SMILES IDX 7 13 8 14 15 15 9 16 14 17 10 18 13 19 11 20 12 21 22 22
REMARK SMILES IDX 23 23 24 24 25 25 26 26 87 27 27 28 86 29 28 30 29 31 30 32
REMARK SMILES IDX 80 33 31 34 85 35 79 36 81 37 32 38 84 39 78 40 77 41 33 43
REMARK SMILES IDX 65 44 45 45 64 46 46 47 49 48 63 49 82 50 47 51 48 52 62 54
REMARK SMILES IDX 83 55 50 56 34 57 35 58 43 59 36 60 42 61 44 62 41 63 37 64
REMARK SMILES IDX 38 65 39 66 40 67 66 68 67 69 75 70 68 71 74 72 76 73 73 74
REMARK SMILES IDX 69 75 70 76 71 77 72 78 51 79 52 80 60 81 53 82 59 83 61 84
REMARK SMILES IDX 58 85 54 86 55 87 56 88 57 89
REMARK H PARENT 81 42 49 53
REMARK Flexibility Score: inf
ROOT
ATOM      1  C   UNL A   1      31.821  31.008  26.383  1.00  0.00     0.275 C 
ENDROOT
BRANCH   1   2
ATOM      2  C   UNL A   1      31.773  29.814  25.424  1.00  0.00     0.274 C 
BRANCH   2   3
ATOM      3  O   UNL A   1      32.278  28.596  26.007  1.00  0.00    -0.462 OA
BRANCH   3   4
ATOM      4  C   UNL A   1      31.446  27.758  26.678  1.00  0.00     0.308 C 
ATOM      5  O   UNL A   1      31.338  27.807  27.900  1.00  0.00    -0.252 OA
BRANCH   4   6
ATOM      6  C   UNL A   1      30.800  26.669  25.873  1.00  0.00     0.156 C 
BRANCH   6   7
ATOM      7  C   UNL A   1      31.236  25.272  26.271  1.00  0.00     0.148 C 
ATOM      8  C   UNL A   1      31.966  24.660  25.058  1.00  0.00     0.151 C 
ATOM      9  O   UNL A   1      30.067  24.475  26.577  1.00  0.00    -0.374 OA
ATOM     10  N   UNL A   1      32.302  23.279  25.354  1.00  0.00    -0.343 N 
ATOM     11  C   UNL A   1      30.426  23.111  26.883  1.00  0.00     0.182 C 
ATOM     12  C   UNL A   1      31.178  22.432  25.721  1.00  0.00     0.147 C 
BRANCH  10  13
ATOM     13  C   UNL A   1      33.581  22.857  25.465  1.00  0.00     0.186 A 
ATOM     14  N   UNL A   1      33.953  21.606  25.323  1.00  0.00    -0.220 NA
ATOM     15  S   UNL A   1      34.868  23.951  25.838  1.00  0.00    -0.097 S 
ATOM     16  C   UNL A   1      35.337  21.525  25.282  1.00  0.00     0.084 A 
ATOM     17  C   UNL A   1      36.014  22.709  25.576  1.00  0.00     0.056 A 
ATOM     18  C   UNL A   1      36.094  20.382  24.961  1.00  0.00     0.030 A 
ATOM     19  C   UNL A   1      37.414  22.787  25.604  1.00  0.00     0.021 A 
ATOM     20  C   UNL A   1      37.492  20.456  24.946  1.00  0.00     0.002 A 
ATOM     21  C   UNL A   1      38.141  21.642  25.273  1.00  0.00     0.002 A 
ENDBRANCH  10  13
ENDBRANCH   6   7
ENDBRANCH   4   6
ENDBRANCH   3   4
ENDBRANCH   2   3
ENDBRANCH   1   2
BRANCH   1  22
ATOM     22  O   UNL A   1      32.826  30.840  27.400  1.00  0.00    -0.458 OA
BRANCH  22  23
ATOM     23  C   UNL A   1      33.621  31.920  27.605  1.00  0.00     0.338 C 
ATOM     24  O   UNL A   1      33.272  33.089  27.554  1.00  0.00    -0.246 OA
BRANCH  23  25
ATOM     25  C   UNL A   1      34.955  31.489  28.094  1.00  0.00     0.060 A 
ATOM     26  C   UNL A   1      35.130  30.128  28.381  1.00  0.00     0.016 A 
ATOM     27  C   UNL A   1      36.022  32.378  28.268  1.00  0.00     0.016 A 
ATOM     28  C   UNL A   1      36.344  29.664  28.888  1.00  0.00     0.010 A 
ATOM     29  C   UNL A   1      37.240  31.912  28.780  1.00  0.00     0.010 A 
ATOM     30  C   UNL A   1      37.395  30.558  29.130  1.00  0.00    -0.014 A 
BRANCH  30  31
ATOM     31  C   UNL A   1      38.565  30.110  29.929  1.00  0.00     0.031 A 
ATOM     32  C   UNL A   1      38.717  30.634  31.333  1.00  0.00     0.074 A 
ATOM     33  C   UNL A   1      39.458  29.230  29.442  1.00  0.00     0.049 A 
ATOM     34  N   UNL A   1      39.626  30.359  32.233  1.00  0.00    -0.248 NA
ATOM     35  C   UNL A   1      37.706  31.605  31.772  1.00  0.00     0.031 C 
ATOM     36  C   UNL A   1      39.416  28.631  28.110  1.00  0.00     0.029 A 
ATOM     37  N   UNL A   1      40.579  28.688  30.021  1.00  0.00    -0.354 N 
ATOM     38  C   UNL A   1      39.289  31.115  33.352  1.00  0.00     0.074 A 
ATOM     39  C   UNL A   1      38.129  31.903  32.990  1.00  0.00     0.031 C 
ATOM     40  C   UNL A   1      40.467  27.802  27.973  1.00  0.00     0.029 A 
ATOM     41  C   UNL A   1      41.267  27.827  29.199  1.00  0.00     0.049 A 
ATOM     42  H   UNL A   1      40.863  28.896  30.941  1.00  0.00     0.167 HD
ATOM     43  C   UNL A   1      39.879  31.140  34.573  1.00  0.00     0.034 A 
ATOM     44  C   UNL A   1      42.412  27.145  29.410  1.00  0.00     0.034 A 
ATOM     45  C   UNL A   1      41.054  30.379  34.917  1.00  0.00     0.049 A 
ATOM     46  C   UNL A   1      43.107  27.256  30.746  1.00  0.00     0.074 A 
ATOM     47  C   UNL A   1      41.726  30.322  36.126  1.00  0.00     0.029 A 
ATOM     48  N   UNL A   1      41.750  29.554  34.041  1.00  0.00    -0.354 N 
ATOM     49  N   UNL A   1      42.758  27.943  31.810  1.00  0.00    -0.248 NA
ATOM     50  C   UNL A   1      44.347  26.483  30.914  1.00  0.00     0.031 C 
ATOM     51  C   UNL A   1      42.864  29.525  35.961  1.00  0.00     0.029 A 
ATOM     52  C   UNL A   1      42.862  29.016  34.672  1.00  0.00     0.049 A 
ATOM     53  H   UNL A   1      41.492  29.378  33.108  1.00  0.00     0.167 HD
ATOM     54  C   UNL A   1      43.713  27.652  32.783  1.00  0.00     0.074 A 
ATOM     55  C   UNL A   1      44.650  26.727  32.180  1.00  0.00     0.031 C 
ATOM     56  C   UNL A   1      43.799  28.099  34.063  1.00  0.00     0.034 A 
BRANCH  43  57
ATOM     57  C   UNL A   1      39.276  32.071  35.600  1.00  0.00     0.023 A 
ATOM     58  C   UNL A   1      39.674  33.417  35.696  1.00  0.00     0.031 A 
ATOM     59  C   UNL A   1      38.349  31.591  36.541  1.00  0.00     0.131 A 
ATOM     60  C   UNL A   1      39.224  34.206  36.765  1.00  0.00     0.055 A 
ATOM     61  C   UNL A   1      37.835  32.407  37.550  1.00  0.00     0.041 A 
ATOM     62  F   UNL A   1      37.949  30.310  36.515  1.00  0.00    -0.206 F 
ATOM     63  C   UNL A   1      38.288  33.717  37.679  1.00  0.00     0.022 A 
BRANCH  60  64
ATOM     64  S   UNL A   1      40.021  35.810  37.050  1.00  0.00     0.124 S 
ATOM     65  O   UNL A   1      39.335  36.270  38.255  1.00  0.00    -0.237 OA
ATOM     66  O   UNL A   1      41.423  35.441  37.212  1.00  0.00    -0.237 OA
ATOM     67  O   UNL A   1      39.710  36.568  35.839  1.00  0.00    -0.744 OA
ENDBRANCH  60  64
ENDBRANCH  43  57
BRANCH  44  68
ATOM     68  C   UNL A   1      42.993  26.301  28.327  1.00  0.00     0.023 A 
ATOM     69  C   UNL A   1      44.071  26.757  27.550  1.00  0.00     0.031 A 
ATOM     70  C   UNL A   1      42.442  25.045  28.021  1.00  0.00     0.131 A 
ATOM     71  C   UNL A   1      44.537  25.978  26.478  1.00  0.00     0.055 A 
ATOM     72  C   UNL A   1      42.939  24.254  26.984  1.00  0.00     0.041 A 
ATOM     73  F   UNL A   1      41.409  24.566  28.732  1.00  0.00    -0.206 F 
ATOM     74  C   UNL A   1      43.986  24.725  26.197  1.00  0.00     0.022 A 
BRANCH  71  75
ATOM     75  S   UNL A   1      45.839  26.655  25.411  1.00  0.00     0.124 S 
ATOM     76  O   UNL A   1      46.151  25.511  24.562  1.00  0.00    -0.237 OA
ATOM     77  O   UNL A   1      45.153  27.768  24.764  1.00  0.00    -0.237 OA
ATOM     78  O   UNL A   1      46.887  27.037  26.357  1.00  0.00    -0.744 OA
ENDBRANCH  71  75
ENDBRANCH  44  68
BRANCH  56  79
ATOM     79  C   UNL A   1      44.913  27.543  34.920  1.00  0.00     0.023 A 
ATOM     80  C   UNL A   1      44.785  26.330  35.619  1.00  0.00     0.031 A 
ATOM     81  C   UNL A   1      46.125  28.248  35.041  1.00  0.00     0.131 A 
ATOM     82  C   UNL A   1      45.830  25.885  36.448  1.00  0.00     0.055 A 
ATOM     83  C   UNL A   1      47.181  27.772  35.819  1.00  0.00     0.041 A 
ATOM     84  F   UNL A   1      46.304  29.413  34.397  1.00  0.00    -0.206 F 
ATOM     85  C   UNL A   1      47.032  26.591  36.539  1.00  0.00     0.022 A 
BRANCH  82  86
ATOM     86  S   UNL A   1      45.564  24.417  37.480  1.00  0.00     0.124 S 
ATOM     87  O   UNL A   1      46.903  24.163  38.001  1.00  0.00    -0.237 OA
ATOM     88  O   UNL A   1      44.581  24.891  38.450  1.00  0.00    -0.237 OA
ATOM     89  O   UNL A   1      45.067  23.418  36.535  1.00  0.00    -0.744 OA
ENDBRANCH  82  86
ENDBRANCH  56  79
ENDBRANCH  30  31
ENDBRANCH  23  25
ENDBRANCH  22  23
ENDBRANCH   1  22
TORSDOF 16
ENDMDL
MODEL 3
REMARK VINA RESULT:     -10.6      5.378     12.025
REMARK SMILES O=C(C[C@@H]1CN(c2nc3ccccc3s2)CCO1)OCCOC(=O)c1ccc(-c2c3nc(c(-c4cc(S(=O)(=O)[O-])ccc4F)c4ccc([nH]4)c(-c4cc(S(=O)(=O)[O-])ccc4F)c4nc(c(-c5cc(S(=O)(=O)[O-])ccc5F)c5ccc2[nH]5)C=C4)C=C3)cc1
REMARK SMILES IDX 21 1 20 2 19 3 2 4 1 5 3 6 4 7 5 8 18 9 6 10 17 11 16 12
REMARK SMILES IDX 7 13 8 14 15 15 9 16 14 17 10 18 13 19 11 20 12 21 22 22
REMARK SMILES IDX 23 23 24 24 25 25 26 26 87 27 27 28 86 29 28 30 29 31 30 32
REMARK SMILES IDX 80 33 31 34 85 35 79 36 81 37 32 38 84 39 78 40 77 41 33 43
REMARK SMILES IDX 65 44 45 45 64 46 46 47 49 48 63 49 82 50 47 51 48 52 62 54
REMARK SMILES IDX 83 55 50 56 34 57 35 58 43 59 36 60 42 61 44 62 41 63 37 64
REMARK SMILES IDX 38 65 39 66 40 67 66 68 67 69 75 70 68 71 74 72 76 73 73 74
REMARK SMILES IDX 69 75 70 76 71 77 72 78 51 79 52 80 60 81 53 82 59 83 61 84
REMARK SMILES IDX 58 85 54 86 55 87 56 88 57 89
REMARK H PARENT 81 42 49 53
REMARK Flexibility Score: inf
ROOT
ATOM      1  C   UNL A   1      37.748  21.167  24.867  1.00  0.00     0.275 C 
ENDROOT
BRANCH   1   2
ATOM      2  C   UNL A   1      36.537  20.237  25.002  1.00  0.00     0.274 C 
BRANCH   2   3
ATOM      3  O   UNL A   1      35.277  20.936  24.968  1.00  0.00    -0.462 OA
BRANCH   3   4
ATOM      4  C   UNL A   1      34.114  20.251  24.812  1.00  0.00     0.308 C 
ATOM      5  O   UNL A   1      34.106  19.038  24.623  1.00  0.00    -0.252 OA
BRANCH   4   6
ATOM      6  C   UNL A   1      32.861  21.072  24.718  1.00  0.00     0.156 C 
BRANCH   6   7
ATOM      7  C   UNL A   1      33.094  22.492  24.239  1.00  0.00     0.148 C 
ATOM      8  C   UNL A   1      31.907  23.340  24.738  1.00  0.00     0.151 C 
ATOM      9  O   UNL A   1      33.119  22.510  22.791  1.00  0.00    -0.374 OA
ATOM     10  N   UNL A   1      32.029  24.686  24.206  1.00  0.00    -0.343 N 
ATOM     11  C   UNL A   1      33.257  23.854  22.285  1.00  0.00     0.182 C 
ATOM     12  C   UNL A   1      32.113  24.774  22.757  1.00  0.00     0.147 C 
BRANCH  10  13
ATOM     13  C   UNL A   1      32.241  25.759  25.001  1.00  0.00     0.186 A 
ATOM     14  N   UNL A   1      33.429  26.150  25.399  1.00  0.00    -0.220 NA
ATOM     15  S   UNL A   1      30.931  26.718  25.598  1.00  0.00    -0.097 S 
ATOM     16  C   UNL A   1      33.337  27.388  26.017  1.00  0.00     0.084 A 
ATOM     17  C   UNL A   1      32.040  27.848  26.245  1.00  0.00     0.056 A 
ATOM     18  C   UNL A   1      34.416  28.204  26.410  1.00  0.00     0.030 A 
ATOM     19  C   UNL A   1      31.776  29.067  26.885  1.00  0.00     0.021 A 
ATOM     20  C   UNL A   1      34.167  29.442  27.013  1.00  0.00     0.002 A 
ATOM     21  C   UNL A   1      32.863  29.862  27.256  1.00  0.00     0.002 A 
ENDBRANCH  10  13
ENDBRANCH   6   7
ENDBRANCH   4   6
ENDBRANCH   3   4
ENDBRANCH   2   3
ENDBRANCH   1   2
BRANCH   1  22
ATOM     22  O   UNL A   1      38.079  21.800  26.117  1.00  0.00    -0.458 OA
BRANCH  22  23
ATOM     23  C   UNL A   1      39.408  21.944  26.353  1.00  0.00     0.338 C 
ATOM     24  O   UNL A   1      40.290  21.188  25.977  1.00  0.00    -0.246 OA
BRANCH  23  25
ATOM     25  C   UNL A   1      39.677  23.263  26.980  1.00  0.00     0.060 A 
ATOM     26  C   UNL A   1      38.952  24.365  26.505  1.00  0.00     0.016 A 
ATOM     27  C   UNL A   1      40.606  23.434  28.013  1.00  0.00     0.016 A 
ATOM     28  C   UNL A   1      39.190  25.640  27.019  1.00  0.00     0.010 A 
ATOM     29  C   UNL A   1      40.846  24.716  28.526  1.00  0.00     0.010 A 
ATOM     30  C   UNL A   1      40.166  25.832  28.005  1.00  0.00    -0.014 A 
BRANCH  30  31
ATOM     31  C   UNL A   1      40.610  27.212  28.333  1.00  0.00     0.031 A 
ATOM     32  C   UNL A   1      42.047  27.584  28.077  1.00  0.00     0.074 A 
ATOM     33  C   UNL A   1      39.755  28.132  28.816  1.00  0.00     0.049 A 
ATOM     34  N   UNL A   1      42.655  28.730  28.243  1.00  0.00    -0.248 NA
ATOM     35  C   UNL A   1      42.910  26.509  27.568  1.00  0.00     0.031 C 
ATOM     36  C   UNL A   1      38.338  27.910  29.090  1.00  0.00     0.029 A 
ATOM     37  N   UNL A   1      39.965  29.445  29.160  1.00  0.00    -0.354 N 
ATOM     38  C   UNL A   1      43.972  28.518  27.847  1.00  0.00     0.074 A 
ATOM     39  C   UNL A   1      44.082  27.118  27.493  1.00  0.00     0.031 C 
ATOM     40  C   UNL A   1      37.803  29.050  29.562  1.00  0.00     0.029 A 
ATOM     41  C   UNL A   1      38.843  30.077  29.643  1.00  0.00     0.049 A 
ATOM     42  H   UNL A   1      40.837  29.893  29.069  1.00  0.00     0.167 HD
ATOM     43  C   UNL A   1      44.994  29.408  27.769  1.00  0.00     0.034 A 
ATOM     44  C   UNL A   1      38.678  31.334  30.102  1.00  0.00     0.034 A 
ATOM     45  C   UNL A   1      44.886  30.793  28.156  1.00  0.00     0.049 A 
ATOM     46  C   UNL A   1      39.851  32.288  30.095  1.00  0.00     0.074 A 
ATOM     47  C   UNL A   1      45.854  31.782  28.108  1.00  0.00     0.029 A 
ATOM     48  N   UNL A   1      43.745  31.384  28.686  1.00  0.00    -0.354 N 
ATOM     49  N   UNL A   1      41.081  32.088  29.682  1.00  0.00    -0.248 NA
ATOM     50  C   UNL A   1      39.603  33.645  30.603  1.00  0.00     0.031 C 
ATOM     51  C   UNL A   1      45.323  32.946  28.674  1.00  0.00     0.029 A 
ATOM     52  C   UNL A   1      43.997  32.711  29.002  1.00  0.00     0.049 A 
ATOM     53  H   UNL A   1      42.884  30.927  28.819  1.00  0.00     0.167 HD
ATOM     54  C   UNL A   1      41.740  33.305  29.844  1.00  0.00     0.074 A 
ATOM     55  C   UNL A   1      40.771  34.232  30.389  1.00  0.00     0.031 C 
ATOM     56  C   UNL A   1      43.027  33.630  29.554  1.00  0.00     0.034 A 
BRANCH  43  57
ATOM     57  C   UNL A   1      46.325  28.875  27.294  1.00  0.00     0.023 A 
ATOM     58  C   UNL A   1      46.590  28.671  25.927  1.00  0.00     0.031 A 
ATOM     59  C   UNL A   1      47.313  28.496  28.219  1.00  0.00     0.131 A 
ATOM     60  C   UNL A   1      47.766  28.017  25.532  1.00  0.00     0.055 A 
ATOM     61  C   UNL A   1      48.522  27.927  27.813  1.00  0.00     0.041 A 
ATOM     62  F   UNL A   1      47.109  28.645  29.537  1.00  0.00    -0.206 F 
ATOM     63  C   UNL A   1      48.745  27.665  26.464  1.00  0.00     0.022 A 
BRANCH  60  64
ATOM     64  S   UNL A   1      47.911  27.465  23.810  1.00  0.00     0.124 S 
ATOM     65  O   UNL A   1      49.295  27.819  23.502  1.00  0.00    -0.237 OA
ATOM     66  O   UNL A   1      47.622  26.039  23.911  1.00  0.00    -0.237 OA
ATOM     67  O   UNL A   1      46.904  28.259  23.109  1.00  0.00    -0.744 OA
ENDBRANCH  60  64
ENDBRANCH  43  57
BRANCH  44  68
ATOM     68  C   UNL A   1      37.354  31.775  30.627  1.00  0.00     0.023 A 
ATOM     69  C   UNL A   1      36.453  32.487  29.820  1.00  0.00     0.031 A 
ATOM     70  C   UNL A   1      36.993  31.531  31.964  1.00  0.00     0.131 A 
ATOM     71  C   UNL A   1      35.253  32.968  30.369  1.00  0.00     0.055 A 
ATOM     72  C   UNL A   1      35.779  31.971  32.493  1.00  0.00     0.041 A 
ATOM     73  F   UNL A   1      37.822  30.857  32.778  1.00  0.00    -0.206 F 
ATOM     74  C   UNL A   1      34.905  32.705  31.696  1.00  0.00     0.022 A 
BRANCH  71  75
ATOM     75  S   UNL A   1      34.175  34.001  29.338  1.00  0.00     0.124 S 
ATOM     76  O   UNL A   1      33.261  34.558  30.329  1.00  0.00    -0.237 OA
ATOM     77  O   UNL A   1      35.126  34.933  28.743  1.00  0.00    -0.237 OA
ATOM     78  O   UNL A   1      33.580  33.044  28.406  1.00  0.00    -0.744 OA
ENDBRANCH  71  75
ENDBRANCH  44  68
BRANCH  56  79
ATOM     79  C   UNL A   1      43.446  35.068  29.764  1.00  0.00     0.023 A 
ATOM     80  C   UNL A   1      43.243  36.057  28.785  1.00  0.00     0.031 A 
ATOM     81  C   UNL A   1      44.065  35.450  30.968  1.00  0.00     0.131 A 
ATOM     82  C   UNL A   1      43.702  37.366  29.007  1.00  0.00     0.055 A 
ATOM     83  C   UNL A   1      44.466  36.766  31.207  1.00  0.00     0.041 A 
ATOM     84  F   UNL A   1      44.286  34.549  31.938  1.00  0.00    -0.206 F 
ATOM     85  C   UNL A   1      44.297  37.729  30.218  1.00  0.00     0.022 A 
BRANCH  82  86
ATOM     86  S   UNL A   1      43.593  38.572  27.656  1.00  0.00     0.124 S 
ATOM     87  O   UNL A   1      42.661  37.922  26.741  1.00  0.00    -0.237 OA
ATOM     88  O   UNL A   1      43.092  39.761  28.338  1.00  0.00    -0.237 OA
ATOM     89  O   UNL A   1      44.969  38.671  27.171  1.00  0.00    -0.744 OA
ENDBRANCH  82  86
ENDBRANCH  56  79
ENDBRANCH  30  31
ENDBRANCH  23  25
ENDBRANCH  22  23
ENDBRANCH   1  22
TORSDOF 16
ENDMDL
