MODEL 1
REMARK VINA RESULT:     -12.9      0.000      0.000
REMARK SMILES O=C(OCCOC(=O)[C@H]1[C@@H](C(=O)Nc2ccccc2-c2ccccc2)[C@@H]2C=C[C@H]1O2)c1ccc(-c2c3nc(c(-c4cc(S(=O)(=O)[O-])ccc4F)c4ccc([nH]4)c(-c4cc(S(=O)(=O)[O-])ccc4F)c4nc(c(-c5cc(S(=O)(=O)[O-])ccc5F)c5ccc2[nH]5)C=C4)C=C3)cc1
REMARK SMILES IDX 4 1 3 2 2 3 1 4 31 5 32 6 93 7 33 8 92 9 34 10 35 11 36 12
REMARK SMILES IDX 86 13 37 14 91 15 85 16 87 17 38 18 90 19 84 20 83 21 39 23
REMARK SMILES IDX 71 24 51 25 70 26 52 27 55 28 69 29 88 30 53 31 54 32 68 34
REMARK SMILES IDX 89 35 56 36 40 37 41 38 49 39 42 40 48 41 50 42 47 43 43 44
REMARK SMILES IDX 44 45 45 46 46 47 72 48 73 49 81 50 74 51 80 52 82 53 79 54
REMARK SMILES IDX 75 55 76 56 77 57 78 58 57 59 58 60 66 61 59 62 65 63 67 64
REMARK SMILES IDX 64 65 60 66 61 67 62 68 63 69 5 70 6 71 7 72 8 73 9 74 10 75
REMARK SMILES IDX 29 76 26 77 28 78 30 79 27 80 11 81 12 82 13 83 14 85 15 86
REMARK SMILES IDX 19 87 16 88 18 89 17 90 20 91 21 92 25 93 22 94 24 95 23 96
REMARK H PARENT 87 22 55 33 13 84
REMARK Flexibility Score: inf
ROOT
ATOM      1  C   UNL A   1      32.411  30.076  26.948  1.00  0.00     0.275 C 
ENDROOT
BRANCH   1   2
ATOM      2  O   UNL A   1      33.686  30.724  26.850  1.00  0.00    -0.458 OA
BRANCH   2   3
ATOM      3  C   UNL A   1      34.395  31.213  27.902  1.00  0.00     0.338 C 
ATOM      4  O   UNL A   1      34.136  32.334  28.331  1.00  0.00    -0.246 OA
BRANCH   3   5
ATOM      5  C   UNL A   1      35.650  30.534  28.357  1.00  0.00     0.060 A 
ATOM      6  C   UNL A   1      35.784  29.734  29.497  1.00  0.00     0.016 A 
ATOM      7  C   UNL A   1      36.779  30.711  27.540  1.00  0.00     0.016 A 
ATOM      8  C   UNL A   1      36.969  29.045  29.765  1.00  0.00     0.010 A 
ATOM      9  C   UNL A   1      37.961  30.005  27.791  1.00  0.00     0.010 A 
ATOM     10  C   UNL A   1      38.068  29.174  28.917  1.00  0.00    -0.014 A 
BRANCH  10  11
ATOM     11  C   UNL A   1      39.380  28.654  29.375  1.00  0.00     0.031 A 
ATOM     12  C   UNL A   1      39.924  29.240  30.649  1.00  0.00     0.074 A 
ATOM     13  C   UNL A   1      40.013  27.642  28.744  1.00  0.00     0.049 A 
ATOM     14  N   UNL A   1      40.967  28.887  31.351  1.00  0.00    -0.248 NA
ATOM     15  C   UNL A   1      39.184  30.384  31.208  1.00  0.00     0.031 C 
ATOM     16  C   UNL A   1      39.559  26.982  27.517  1.00  0.00     0.029 A 
ATOM     17  N   UNL A   1      41.176  26.981  29.052  1.00  0.00    -0.354 N 
ATOM     18  C   UNL A   1      40.981  29.749  32.443  1.00  0.00     0.074 A 
ATOM     19  C   UNL A   1      39.933  30.719  32.239  1.00  0.00     0.031 C 
ATOM     20  C   UNL A   1      40.447  26.036  27.161  1.00  0.00     0.029 A 
ATOM     21  C   UNL A   1      41.505  25.979  28.163  1.00  0.00     0.049 A 
ATOM     22  H   UNL A   1      41.727  27.203  29.838  1.00  0.00     0.167 HD
ATOM     23  C   UNL A   1      41.749  29.696  33.556  1.00  0.00     0.034 A 
ATOM     24  C   UNL A   1      42.522  25.093  28.188  1.00  0.00     0.034 A 
ATOM     25  C   UNL A   1      42.796  28.729  33.727  1.00  0.00     0.049 A 
ATOM     26  C   UNL A   1      43.425  25.097  29.400  1.00  0.00     0.074 A 
ATOM     27  C   UNL A   1      43.683  28.583  34.775  1.00  0.00     0.029 A 
ATOM     28  N   UNL A   1      43.099  27.739  32.798  1.00  0.00    -0.354 N 
ATOM     29  N   UNL A   1      43.383  25.878  30.458  1.00  0.00    -0.248 NA
ATOM     30  C   UNL A   1      44.474  24.073  29.448  1.00  0.00     0.031 C 
ATOM     31  C   UNL A   1      44.555  27.534  34.455  1.00  0.00     0.029 A 
ATOM     32  C   UNL A   1      44.170  26.986  33.239  1.00  0.00     0.049 A 
ATOM     33  H   UNL A   1      42.621  27.596  31.950  1.00  0.00     0.167 HD
ATOM     34  C   UNL A   1      44.366  25.400  31.321  1.00  0.00     0.074 A 
ATOM     35  C   UNL A   1      44.975  24.262  30.659  1.00  0.00     0.031 C 
ATOM     36  C   UNL A   1      44.731  25.848  32.550  1.00  0.00     0.034 A 
BRANCH  23  37
ATOM     37  C   UNL A   1      41.467  30.743  34.606  1.00  0.00     0.023 A 
ATOM     38  C   UNL A   1      40.374  30.611  35.486  1.00  0.00     0.031 A 
ATOM     39  C   UNL A   1      42.176  31.954  34.615  1.00  0.00     0.131 A 
ATOM     40  C   UNL A   1      39.938  31.718  36.230  1.00  0.00     0.055 A 
ATOM     41  C   UNL A   1      41.799  33.018  35.438  1.00  0.00     0.041 A 
ATOM     42  F   UNL A   1      43.210  32.146  33.781  1.00  0.00    -0.206 F 
ATOM     43  C   UNL A   1      40.657  32.914  36.230  1.00  0.00     0.022 A 
BRANCH  40  44
ATOM     44  S   UNL A   1      38.301  31.640  37.014  1.00  0.00     0.124 S 
ATOM     45  O   UNL A   1      37.506  32.472  36.112  1.00  0.00    -0.237 OA
ATOM     46  O   UNL A   1      38.005  30.212  36.992  1.00  0.00    -0.237 OA
ATOM     47  O   UNL A   1      38.530  32.211  38.339  1.00  0.00    -0.744 OA
ENDBRANCH  40  44
ENDBRANCH  23  37
BRANCH  24  48
ATOM     48  C   UNL A   1      42.716  24.096  27.089  1.00  0.00     0.023 A 
ATOM     49  C   UNL A   1      42.091  22.836  27.123  1.00  0.00     0.031 A 
ATOM     50  C   UNL A   1      43.589  24.360  26.017  1.00  0.00     0.131 A 
ATOM     51  C   UNL A   1      42.390  21.871  26.146  1.00  0.00     0.055 A 
ATOM     52  C   UNL A   1      43.850  23.412  25.022  1.00  0.00     0.041 A 
ATOM     53  F   UNL A   1      44.208  25.547  25.924  1.00  0.00    -0.206 F 
ATOM     54  C   UNL A   1      43.261  22.153  25.091  1.00  0.00     0.022 A 
BRANCH  51  55
ATOM     55  S   UNL A   1      41.693  20.204  26.322  1.00  0.00     0.124 S 
ATOM     56  O   UNL A   1      42.106  19.850  27.675  1.00  0.00    -0.237 OA
ATOM     57  O   UNL A   1      40.268  20.452  26.129  1.00  0.00    -0.237 OA
ATOM     58  O   UNL A   1      42.342  19.447  25.253  1.00  0.00    -0.744 OA
ENDBRANCH  51  55
ENDBRANCH  24  48
BRANCH  36  59
ATOM     59  C   UNL A   1      45.792  25.061  33.272  1.00  0.00     0.023 A 
ATOM     60  C   UNL A   1      45.469  23.957  34.078  1.00  0.00     0.031 A 
ATOM     61  C   UNL A   1      47.145  25.419  33.139  1.00  0.00     0.131 A 
ATOM     62  C   UNL A   1      46.485  23.281  34.766  1.00  0.00     0.055 A 
ATOM     63  C   UNL A   1      48.156  24.702  33.775  1.00  0.00     0.041 A 
ATOM     64  F   UNL A   1      47.503  26.466  32.378  1.00  0.00    -0.206 F 
ATOM     65  C   UNL A   1      47.828  23.634  34.604  1.00  0.00     0.022 A 
BRANCH  62  66
ATOM     66  S   UNL A   1      46.016  21.989  35.947  1.00  0.00     0.124 S 
ATOM     67  O   UNL A   1      45.169  21.126  35.131  1.00  0.00    -0.237 OA
ATOM     68  O   UNL A   1      47.310  21.435  36.332  1.00  0.00    -0.237 OA
ATOM     69  O   UNL A   1      45.319  22.727  37.000  1.00  0.00    -0.744 OA
ENDBRANCH  62  66
ENDBRANCH  36  59
ENDBRANCH  10  11
ENDBRANCH   3   5
ENDBRANCH   2   3
ENDBRANCH   1   2
BRANCH   1  70
ATOM     70  C   UNL A   1      32.492  28.705  27.617  1.00  0.00     0.274 C 
BRANCH  70  71
ATOM     71  O   UNL A   1      31.923  27.650  26.814  1.00  0.00    -0.462 OA
BRANCH  71  72
ATOM     72  C   UNL A   1      32.806  26.906  26.087  1.00  0.00     0.312 C 
ATOM     73  O   UNL A   1      34.025  27.042  26.180  1.00  0.00    -0.252 OA
BRANCH  72  74
ATOM     74  C   UNL A   1      32.096  26.106  25.019  1.00  0.00     0.147 C 
ATOM     75  C   UNL A   1      32.159  24.564  25.110  1.00  0.00     0.129 C 
ATOM     76  C   UNL A   1      30.582  26.317  24.891  1.00  0.00     0.157 C 
ATOM     77  C   UNL A   1      30.757  24.165  24.699  1.00  0.00     0.155 C 
ATOM     78  C   UNL A   1      30.137  25.984  23.500  1.00  0.00     0.004 C 
ATOM     79  O   UNL A   1      30.039  25.130  25.493  1.00  0.00    -0.365 OA
ATOM     80  C   UNL A   1      30.330  24.666  23.351  1.00  0.00     0.004 C 
BRANCH  75  81
ATOM     81  C   UNL A   1      32.592  23.922  26.432  1.00  0.00     0.231 C 
ATOM     82  O   UNL A   1      31.774  23.959  27.368  1.00  0.00    -0.274 OA
ATOM     83  N   UNL A   1      33.735  23.223  26.695  1.00  0.00    -0.325 N 
ATOM     84  H   UNL A   1      33.709  22.788  27.579  1.00  0.00     0.169 HD
BRANCH  83  85
ATOM     85  C   UNL A   1      34.947  22.972  26.014  1.00  0.00     0.049 A 
ATOM     86  C   UNL A   1      35.992  23.871  26.303  1.00  0.00     0.027 A 
ATOM     87  C   UNL A   1      35.114  22.024  24.969  1.00  0.00     0.005 A 
ATOM     88  C   UNL A   1      37.237  23.768  25.685  1.00  0.00     0.002 A 
ATOM     89  C   UNL A   1      36.389  21.955  24.353  1.00  0.00     0.011 A 
ATOM     90  C   UNL A   1      37.441  22.799  24.717  1.00  0.00     0.001 A 
BRANCH  87  91
ATOM     91  C   UNL A   1      34.051  21.099  24.489  1.00  0.00    -0.016 A 
ATOM     92  C   UNL A   1      33.084  21.543  23.559  1.00  0.00     0.009 A 
ATOM     93  C   UNL A   1      34.020  19.743  24.849  1.00  0.00     0.009 A 
ATOM     94  C   UNL A   1      32.189  20.658  22.954  1.00  0.00     0.001 A 
ATOM     95  C   UNL A   1      33.130  18.854  24.239  1.00  0.00     0.001 A 
ATOM     96  C   UNL A   1      32.227  19.308  23.281  1.00  0.00     0.000 A 
ENDBRANCH  87  91
ENDBRANCH  83  85
ENDBRANCH  75  81
ENDBRANCH  72  74
ENDBRANCH  71  72
ENDBRANCH  70  71
ENDBRANCH   1  70
TORSDOF 17
ENDMDL
MODEL 2
REMARK VINA RESULT:     -12.5      4.920     10.329
REMARK SMILES O=C(OCCOC(=O)[C@H]1[C@@H](C(=O)Nc2ccccc2-c2ccccc2)[C@@H]2C=C[C@H]1O2)c1ccc(-c2c3nc(c(-c4cc(S(=O)(=O)[O-])ccc4F)c4ccc([nH]4)c(-c4cc(S(=O)(=O)[O-])ccc4F)c4nc(c(-c5cc(S(=O)(=O)[O-])ccc5F)c5ccc2[nH]5)C=C4)C=C3)cc1
REMARK SMILES IDX 4 1 3 2 2 3 1 4 31 5 32 6 93 7 33 8 92 9 34 10 35 11 36 12
REMARK SMILES IDX 86 13 37 14 91 15 85 16 87 17 38 18 90 19 84 20 83 21 39 23
REMARK SMILES IDX 71 24 51 25 70 26 52 27 55 28 69 29 88 30 53 31 54 32 68 34
REMARK SMILES IDX 89 35 56 36 40 37 41 38 49 39 42 40 48 41 50 42 47 43 43 44
REMARK SMILES IDX 44 45 45 46 46 47 72 48 73 49 81 50 74 51 80 52 82 53 79 54
REMARK SMILES IDX 75 55 76 56 77 57 78 58 57 59 58 60 66 61 59 62 65 63 67 64
REMARK SMILES IDX 64 65 60 66 61 67 62 68 63 69 5 70 6 71 7 72 8 73 9 74 10 75
REMARK SMILES IDX 29 76 26 77 28 78 30 79 27 80 11 81 12 82 13 83 14 85 15 86
REMARK SMILES IDX 19 87 16 88 18 89 17 90 20 91 21 92 25 93 22 94 24 95 23 96
REMARK H PARENT 87 22 55 33 13 84
REMARK Flexibility Score: inf
ROOT
ATOM      1  C   UNL A   1      37.749  21.082  25.373  1.00  0.00     0.275 C 
ENDROOT
BRANCH   1   2
ATOM      2  O   UNL A   1      38.517  22.287  25.481  1.00  0.00    -0.458 OA
BRANCH   2   3
ATOM      3  C   UNL A   1      39.451  22.534  26.437  1.00  0.00     0.338 C 
ATOM      4  O   UNL A   1      39.880  21.601  27.112  1.00  0.00    -0.246 OA
BRANCH   3   5
ATOM      5  C   UNL A   1      39.756  23.937  26.863  1.00  0.00     0.060 A 
ATOM      6  C   UNL A   1      40.245  24.957  26.040  1.00  0.00     0.016 A 
ATOM      7  C   UNL A   1      39.499  24.242  28.209  1.00  0.00     0.016 A 
ATOM      8  C   UNL A   1      40.378  26.266  26.509  1.00  0.00     0.010 A 
ATOM      9  C   UNL A   1      39.608  25.557  28.678  1.00  0.00     0.010 A 
ATOM     10  C   UNL A   1      40.063  26.579  27.830  1.00  0.00    -0.014 A 
BRANCH  10  11
ATOM     11  C   UNL A   1      40.472  27.902  28.362  1.00  0.00     0.031 A 
ATOM     12  C   UNL A   1      41.932  28.247  28.247  1.00  0.00     0.074 A 
ATOM     13  C   UNL A   1      39.578  28.795  28.836  1.00  0.00     0.049 A 
ATOM     14  N   UNL A   1      42.546  29.371  28.498  1.00  0.00    -0.248 NA
ATOM     15  C   UNL A   1      42.821  27.169  27.781  1.00  0.00     0.031 C 
ATOM     16  C   UNL A   1      38.135  28.575  28.965  1.00  0.00     0.029 A 
ATOM     17  N   UNL A   1      39.748  30.079  29.293  1.00  0.00    -0.354 N 
ATOM     18  C   UNL A   1      43.882  29.134  28.191  1.00  0.00     0.074 A 
ATOM     19  C   UNL A   1      44.008  27.734  27.868  1.00  0.00     0.031 C 
ATOM     20  C   UNL A   1      37.559  29.669  29.495  1.00  0.00     0.029 A 
ATOM     21  C   UNL A   1      38.578  30.692  29.691  1.00  0.00     0.049 A 
ATOM     22  H   UNL A   1      40.626  30.522  29.333  1.00  0.00     0.167 HD
ATOM     23  C   UNL A   1      44.904  30.019  28.109  1.00  0.00     0.034 A 
ATOM     24  C   UNL A   1      38.360  31.953  30.121  1.00  0.00     0.034 A 
ATOM     25  C   UNL A   1      44.754  31.405  28.449  1.00  0.00     0.049 A 
ATOM     26  C   UNL A   1      39.529  32.911  30.104  1.00  0.00     0.074 A 
ATOM     27  C   UNL A   1      45.705  32.406  28.461  1.00  0.00     0.029 A 
ATOM     28  N   UNL A   1      43.555  31.981  28.856  1.00  0.00    -0.354 N 
ATOM     29  N   UNL A   1      40.774  32.688  29.745  1.00  0.00    -0.248 NA
ATOM     30  C   UNL A   1      39.253  34.298  30.495  1.00  0.00     0.031 C 
ATOM     31  C   UNL A   1      45.090  33.577  28.923  1.00  0.00     0.029 A 
ATOM     32  C   UNL A   1      43.742  33.321  29.135  1.00  0.00     0.049 A 
ATOM     33  H   UNL A   1      42.698  31.504  28.933  1.00  0.00     0.167 HD
ATOM     34  C   UNL A   1      41.417  33.921  29.815  1.00  0.00     0.074 A 
ATOM     35  C   UNL A   1      40.417  34.880  30.245  1.00  0.00     0.031 C 
ATOM     36  C   UNL A   1      42.708  34.242  29.545  1.00  0.00     0.034 A 
BRANCH  23  37
ATOM     37  C   UNL A   1      46.233  29.456  27.670  1.00  0.00     0.023 A 
ATOM     38  C   UNL A   1      46.459  29.095  26.326  1.00  0.00     0.031 A 
ATOM     39  C   UNL A   1      47.211  29.113  28.616  1.00  0.00     0.131 A 
ATOM     40  C   UNL A   1      47.561  28.293  25.994  1.00  0.00     0.055 A 
ATOM     41  C   UNL A   1      48.360  28.404  28.259  1.00  0.00     0.041 A 
ATOM     42  F   UNL A   1      47.038  29.408  29.915  1.00  0.00    -0.206 F 
ATOM     43  C   UNL A   1      48.526  27.964  26.947  1.00  0.00     0.022 A 
BRANCH  40  44
ATOM     44  S   UNL A   1      47.592  27.503  24.358  1.00  0.00     0.124 S 
ATOM     45  O   UNL A   1      46.394  28.067  23.738  1.00  0.00    -0.237 OA
ATOM     46  O   UNL A   1      48.866  27.953  23.810  1.00  0.00    -0.237 OA
ATOM     47  O   UNL A   1      47.513  26.077  24.666  1.00  0.00    -0.744 OA
ENDBRANCH  40  44
ENDBRANCH  23  37
BRANCH  24  48
ATOM     48  C   UNL A   1      36.999  32.410  30.540  1.00  0.00     0.023 A 
ATOM     49  C   UNL A   1      36.080  32.928  29.609  1.00  0.00     0.031 A 
ATOM     50  C   UNL A   1      36.616  32.401  31.895  1.00  0.00     0.131 A 
ATOM     51  C   UNL A   1      34.858  33.468  30.046  1.00  0.00     0.055 A 
ATOM     52  C   UNL A   1      35.381  32.900  32.320  1.00  0.00     0.041 A 
ATOM     53  F   UNL A   1      37.445  31.911  32.829  1.00  0.00    -0.206 F 
ATOM     54  C   UNL A   1      34.499  33.452  31.395  1.00  0.00     0.022 A 
BRANCH  51  55
ATOM     55  S   UNL A   1      33.777  34.279  28.833  1.00  0.00     0.124 S 
ATOM     56  O   UNL A   1      33.414  33.165  27.965  1.00  0.00    -0.237 OA
ATOM     57  O   UNL A   1      32.714  34.806  29.683  1.00  0.00    -0.237 OA
ATOM     58  O   UNL A   1      34.643  35.288  28.225  1.00  0.00    -0.744 OA
ENDBRANCH  51  55
ENDBRANCH  24  48
BRANCH  36  59
ATOM     59  C   UNL A   1      43.083  35.696  29.645  1.00  0.00     0.023 A 
ATOM     60  C   UNL A   1      42.807  36.601  28.607  1.00  0.00     0.031 A 
ATOM     61  C   UNL A   1      43.713  36.180  30.804  1.00  0.00     0.131 A 
ATOM     62  C   UNL A   1      43.213  37.936  28.726  1.00  0.00     0.055 A 
ATOM     63  C   UNL A   1      44.057  37.524  30.943  1.00  0.00     0.041 A 
ATOM     64  F   UNL A   1      43.996  35.354  31.825  1.00  0.00    -0.206 F 
ATOM     65  C   UNL A   1      43.818  38.408  29.895  1.00  0.00     0.022 A 
BRANCH  62  66
ATOM     66  S   UNL A   1      43.019  39.028  27.293  1.00  0.00     0.124 S 
ATOM     67  O   UNL A   1      44.328  38.925  26.654  1.00  0.00    -0.237 OA
ATOM     68  O   UNL A   1      41.909  38.409  26.577  1.00  0.00    -0.237 OA
ATOM     69  O   UNL A   1      42.722  40.329  27.892  1.00  0.00    -0.744 OA
ENDBRANCH  62  66
ENDBRANCH  36  59
ENDBRANCH  10  11
ENDBRANCH   3   5
ENDBRANCH   2   3
ENDBRANCH   1   2
BRANCH   1  70
ATOM     70  C   UNL A   1      36.244  21.325  25.474  1.00  0.00     0.274 C 
BRANCH  70  71
ATOM     71  O   UNL A   1      35.763  22.297  24.523  1.00  0.00    -0.462 OA
BRANCH  71  72
ATOM     72  C   UNL A   1      35.247  23.446  25.047  1.00  0.00     0.312 C 
ATOM     73  O   UNL A   1      35.952  24.340  25.511  1.00  0.00    -0.252 OA
BRANCH  72  74
ATOM     74  C   UNL A   1      33.746  23.352  25.194  1.00  0.00     0.147 C 
ATOM     75  C   UNL A   1      32.897  24.557  24.726  1.00  0.00     0.129 C 
ATOM     76  C   UNL A   1      33.048  22.211  24.443  1.00  0.00     0.157 C 
ATOM     77  C   UNL A   1      31.708  23.876  24.082  1.00  0.00     0.155 C 
ATOM     78  C   UNL A   1      31.760  21.865  25.123  1.00  0.00     0.004 C 
ATOM     79  O   UNL A   1      32.436  22.884  23.331  1.00  0.00    -0.365 OA
ATOM     80  C   UNL A   1      30.962  22.932  24.977  1.00  0.00     0.004 C 
BRANCH  75  81
ATOM     81  C   UNL A   1      33.545  25.604  23.814  1.00  0.00     0.231 C 
ATOM     82  O   UNL A   1      33.999  25.198  22.731  1.00  0.00    -0.274 OA
ATOM     83  N   UNL A   1      33.608  26.956  23.994  1.00  0.00    -0.325 N 
ATOM     84  H   UNL A   1      33.948  27.420  23.195  1.00  0.00     0.169 HD
BRANCH  83  85
ATOM     85  C   UNL A   1      33.309  27.852  25.044  1.00  0.00     0.049 A 
ATOM     86  C   UNL A   1      34.327  28.006  26.005  1.00  0.00     0.027 A 
ATOM     87  C   UNL A   1      32.037  28.439  25.278  1.00  0.00     0.005 A 
ATOM     88  C   UNL A   1      34.165  28.833  27.116  1.00  0.00     0.002 A 
ATOM     89  C   UNL A   1      31.904  29.264  26.423  1.00  0.00     0.011 A 
ATOM     90  C   UNL A   1      32.955  29.475  27.318  1.00  0.00     0.001 A 
BRANCH  87  91
ATOM     91  C   UNL A   1      30.848  28.256  24.403  1.00  0.00    -0.016 A 
ATOM     92  C   UNL A   1      30.099  27.059  24.454  1.00  0.00     0.009 A 
ATOM     93  C   UNL A   1      30.362  29.281  23.575  1.00  0.00     0.009 A 
ATOM     94  C   UNL A   1      28.882  26.925  23.783  1.00  0.00     0.001 A 
ATOM     95  C   UNL A   1      29.139  29.154  22.909  1.00  0.00     0.001 A 
ATOM     96  C   UNL A   1      28.393  27.983  23.026  1.00  0.00     0.000 A 
ENDBRANCH  87  91
ENDBRANCH  83  85
ENDBRANCH  75  81
ENDBRANCH  72  74
ENDBRANCH  71  72
ENDBRANCH  70  71
ENDBRANCH   1  70
TORSDOF 17
ENDMDL
MODEL 3
REMARK VINA RESULT:     -12.3      1.357      1.675
REMARK SMILES O=C(OCCOC(=O)[C@H]1[C@@H](C(=O)Nc2ccccc2-c2ccccc2)[C@@H]2C=C[C@H]1O2)c1ccc(-c2c3nc(c(-c4cc(S(=O)(=O)[O-])ccc4F)c4ccc([nH]4)c(-c4cc(S(=O)(=O)[O-])ccc4F)c4nc(c(-c5cc(S(=O)(=O)[O-])ccc5F)c5ccc2[nH]5)C=C4)C=C3)cc1
REMARK SMILES IDX 4 1 3 2 2 3 1 4 31 5 32 6 93 7 33 8 92 9 34 10 35 11 36 12
REMARK SMILES IDX 86 13 37 14 91 15 85 16 87 17 38 18 90 19 84 20 83 21 39 23
REMARK SMILES IDX 71 24 51 25 70 26 52 27 55 28 69 29 88 30 53 31 54 32 68 34
REMARK SMILES IDX 89 35 56 36 40 37 41 38 49 39 42 40 48 41 50 42 47 43 43 44
REMARK SMILES IDX 44 45 45 46 46 47 72 48 73 49 81 50 74 51 80 52 82 53 79 54
REMARK SMILES IDX 75 55 76 56 77 57 78 58 57 59 58 60 66 61 59 62 65 63 67 64
REMARK SMILES IDX 64 65 60 66 61 67 62 68 63 69 5 70 6 71 7 72 8 73 9 74 10 75
REMARK SMILES IDX 29 76 26 77 28 78 30 79 27 80 11 81 12 82 13 83 14 85 15 86
REMARK SMILES IDX 19 87 16 88 18 89 17 90 20 91 21 92 25 93 22 94 24 95 23 96
REMARK H PARENT 87 22 55 33 13 84
REMARK Flexibility Score: inf
ROOT
ATOM      1  C   UNL A   1      32.274  30.281  27.215  1.00  0.00     0.275 C 
ENDROOT
BRANCH   1   2
ATOM      2  O   UNL A   1      33.654  30.557  26.944  1.00  0.00    -0.458 OA
BRANCH   2   3
ATOM      3  C   UNL A   1      34.507  31.180  27.800  1.00  0.00     0.338 C 
ATOM      4  O   UNL A   1      34.389  32.387  27.992  1.00  0.00    -0.246 OA
BRANCH   3   5
ATOM      5  C   UNL A   1      35.741  30.486  28.288  1.00  0.00     0.060 A 
ATOM      6  C   UNL A   1      35.875  29.806  29.503  1.00  0.00     0.016 A 
ATOM      7  C   UNL A   1      36.846  30.510  27.421  1.00  0.00     0.016 A 
ATOM      8  C   UNL A   1      37.032  29.085  29.808  1.00  0.00     0.010 A 
ATOM      9  C   UNL A   1      37.999  29.771  27.711  1.00  0.00     0.010 A 
ATOM     10  C   UNL A   1      38.104  29.061  28.918  1.00  0.00    -0.014 A 
BRANCH  10  11
ATOM     11  C   UNL A   1      39.403  28.521  29.388  1.00  0.00     0.031 A 
ATOM     12  C   UNL A   1      39.935  29.086  30.678  1.00  0.00     0.074 A 
ATOM     13  C   UNL A   1      40.035  27.511  28.755  1.00  0.00     0.049 A 
ATOM     14  N   UNL A   1      40.963  28.713  31.391  1.00  0.00    -0.248 NA
ATOM     15  C   UNL A   1      39.198  30.231  31.240  1.00  0.00     0.031 C 
ATOM     16  C   UNL A   1      39.592  26.870  27.513  1.00  0.00     0.029 A 
ATOM     17  N   UNL A   1      41.186  26.833  29.072  1.00  0.00    -0.354 N 
ATOM     18  C   UNL A   1      40.970  29.562  32.493  1.00  0.00     0.074 A 
ATOM     19  C   UNL A   1      39.936  30.545  32.286  1.00  0.00     0.031 C 
ATOM     20  C   UNL A   1      40.475  25.919  27.159  1.00  0.00     0.029 A 
ATOM     21  C   UNL A   1      41.517  25.838  28.175  1.00  0.00     0.049 A 
ATOM     22  H   UNL A   1      41.728  27.039  29.868  1.00  0.00     0.167 HD
ATOM     23  C   UNL A   1      41.720  29.487  33.617  1.00  0.00     0.034 A 
ATOM     24  C   UNL A   1      42.524  24.940  28.204  1.00  0.00     0.034 A 
ATOM     25  C   UNL A   1      42.754  28.506  33.792  1.00  0.00     0.049 A 
ATOM     26  C   UNL A   1      43.409  24.920  29.430  1.00  0.00     0.074 A 
ATOM     27  C   UNL A   1      43.624  28.337  34.850  1.00  0.00     0.029 A 
ATOM     28  N   UNL A   1      43.060  27.524  32.855  1.00  0.00    -0.354 N 
ATOM     29  N   UNL A   1      43.359  25.688  30.497  1.00  0.00    -0.248 NA
ATOM     30  C   UNL A   1      44.445  23.883  29.481  1.00  0.00     0.031 C 
ATOM     31  C   UNL A   1      44.489  27.283  34.531  1.00  0.00     0.029 A 
ATOM     32  C   UNL A   1      44.116  26.754  33.303  1.00  0.00     0.049 A 
ATOM     33  H   UNL A   1      42.594  27.397  31.998  1.00  0.00     0.167 HD
ATOM     34  C   UNL A   1      44.323  25.189  31.369  1.00  0.00     0.074 A 
ATOM     35  C   UNL A   1      44.930  24.053  30.702  1.00  0.00     0.031 C 
ATOM     36  C   UNL A   1      44.675  25.618  32.608  1.00  0.00     0.034 A 
BRANCH  23  37
ATOM     37  C   UNL A   1      41.434  30.524  34.675  1.00  0.00     0.023 A 
ATOM     38  C   UNL A   1      40.226  30.503  35.402  1.00  0.00     0.031 A 
ATOM     39  C   UNL A   1      42.280  31.632  34.836  1.00  0.00     0.131 A 
ATOM     40  C   UNL A   1      39.836  31.630  36.141  1.00  0.00     0.055 A 
ATOM     41  C   UNL A   1      41.932  32.706  35.658  1.00  0.00     0.041 A 
ATOM     42  F   UNL A   1      43.431  31.718  34.150  1.00  0.00    -0.206 F 
ATOM     43  C   UNL A   1      40.692  32.723  36.294  1.00  0.00     0.022 A 
BRANCH  40  44
ATOM     44  S   UNL A   1      38.113  31.738  36.707  1.00  0.00     0.124 S 
ATOM     45  O   UNL A   1      37.852  30.357  37.110  1.00  0.00    -0.237 OA
ATOM     46  O   UNL A   1      38.193  32.713  37.788  1.00  0.00    -0.237 OA
ATOM     47  O   UNL A   1      37.390  32.180  35.517  1.00  0.00    -0.744 OA
ENDBRANCH  40  44
ENDBRANCH  23  37
BRANCH  24  48
ATOM     48  C   UNL A   1      42.724  23.955  27.097  1.00  0.00     0.023 A 
ATOM     49  C   UNL A   1      42.112  22.688  27.123  1.00  0.00     0.031 A 
ATOM     50  C   UNL A   1      43.590  24.236  26.024  1.00  0.00     0.131 A 
ATOM     51  C   UNL A   1      42.417  21.734  26.136  1.00  0.00     0.055 A 
ATOM     52  C   UNL A   1      43.856  23.299  25.020  1.00  0.00     0.041 A 
ATOM     53  F   UNL A   1      44.196  25.430  25.938  1.00  0.00    -0.206 F 
ATOM     54  C   UNL A   1      43.281  22.034  25.081  1.00  0.00     0.022 A 
BRANCH  51  55
ATOM     55  S   UNL A   1      41.738  20.059  26.301  1.00  0.00     0.124 S 
ATOM     56  O   UNL A   1      40.319  20.286  26.050  1.00  0.00    -0.237 OA
ATOM     57  O   UNL A   1      42.467  19.336  25.264  1.00  0.00    -0.237 OA
ATOM     58  O   UNL A   1      42.078  19.686  27.673  1.00  0.00    -0.744 OA
ENDBRANCH  51  55
ENDBRANCH  24  48
BRANCH  36  59
ATOM     59  C   UNL A   1      45.716  24.811  33.337  1.00  0.00     0.023 A 
ATOM     60  C   UNL A   1      47.072  25.177  33.327  1.00  0.00     0.031 A 
ATOM     61  C   UNL A   1      45.338  23.666  34.059  1.00  0.00     0.131 A 
ATOM     62  C   UNL A   1      48.012  24.372  33.983  1.00  0.00     0.055 A 
ATOM     63  C   UNL A   1      46.270  22.905  34.763  1.00  0.00     0.041 A 
ATOM     64  F   UNL A   1      44.053  23.276  34.099  1.00  0.00    -0.206 F 
ATOM     65  C   UNL A   1      47.617  23.250  34.717  1.00  0.00     0.022 A 
BRANCH  62  66
ATOM     66  S   UNL A   1      49.771  24.763  33.786  1.00  0.00     0.124 S 
ATOM     67  O   UNL A   1      49.968  24.558  32.355  1.00  0.00    -0.237 OA
ATOM     68  O   UNL A   1      49.835  26.146  34.248  1.00  0.00    -0.237 OA
ATOM     69  O   UNL A   1      50.436  23.790  34.651  1.00  0.00    -0.744 OA
ENDBRANCH  62  66
ENDBRANCH  36  59
ENDBRANCH  10  11
ENDBRANCH   3   5
ENDBRANCH   2   3
ENDBRANCH   1   2
BRANCH   1  70
ATOM     70  C   UNL A   1      31.925  28.801  27.073  1.00  0.00     0.274 C 
BRANCH  70  71
ATOM     71  O   UNL A   1      32.031  28.322  25.717  1.00  0.00    -0.462 OA
BRANCH  71  72
ATOM     72  C   UNL A   1      33.055  27.456  25.464  1.00  0.00     0.312 C 
ATOM     73  O   UNL A   1      34.086  27.432  26.133  1.00  0.00    -0.252 OA
BRANCH  72  74
ATOM     74  C   UNL A   1      32.849  26.738  24.150  1.00  0.00     0.147 C 
ATOM     75  C   UNL A   1      32.927  25.193  24.152  1.00  0.00     0.129 C 
ATOM     76  C   UNL A   1      31.501  26.949  23.451  1.00  0.00     0.157 C 
ATOM     77  C   UNL A   1      31.815  24.819  23.195  1.00  0.00     0.155 C 
ATOM     78  C   UNL A   1      31.649  26.722  21.978  1.00  0.00     0.004 C 
ATOM     79  O   UNL A   1      30.809  25.715  23.707  1.00  0.00    -0.365 OA
ATOM     80  C   UNL A   1      31.933  25.421  21.827  1.00  0.00     0.004 C 
BRANCH  75  81
ATOM     81  C   UNL A   1      32.830  24.452  25.489  1.00  0.00     0.231 C 
ATOM     82  O   UNL A   1      31.800  24.639  26.159  1.00  0.00    -0.274 OA
ATOM     83  N   UNL A   1      33.695  23.532  26.008  1.00  0.00    -0.325 N 
ATOM     84  H   UNL A   1      33.332  23.095  26.813  1.00  0.00     0.169 HD
BRANCH  83  85
ATOM     85  C   UNL A   1      34.981  23.051  25.675  1.00  0.00     0.049 A 
ATOM     86  C   UNL A   1      36.036  23.953  25.919  1.00  0.00     0.027 A 
ATOM     87  C   UNL A   1      35.245  21.845  24.975  1.00  0.00     0.005 A 
ATOM     88  C   UNL A   1      37.357  23.632  25.613  1.00  0.00     0.002 A 
ATOM     89  C   UNL A   1      36.599  21.555  24.668  1.00  0.00     0.011 A 
ATOM     90  C   UNL A   1      37.642  22.424  24.998  1.00  0.00     0.001 A 
BRANCH  87  91
ATOM     91  C   UNL A   1      34.206  20.866  24.554  1.00  0.00    -0.016 A 
ATOM     92  C   UNL A   1      33.124  21.277  23.743  1.00  0.00     0.009 A 
ATOM     93  C   UNL A   1      34.303  19.498  24.850  1.00  0.00     0.009 A 
ATOM     94  C   UNL A   1      32.235  20.356  23.185  1.00  0.00     0.001 A 
ATOM     95  C   UNL A   1      33.419  18.572  24.285  1.00  0.00     0.001 A 
ATOM     96  C   UNL A   1      32.397  18.999  23.441  1.00  0.00     0.000 A 
ENDBRANCH  87  91
ENDBRANCH  83  85
ENDBRANCH  75  81
ENDBRANCH  72  74
ENDBRANCH  71  72
ENDBRANCH  70  71
ENDBRANCH   1  70
TORSDOF 17
ENDMDL
