MODEL 1
REMARK VINA RESULT:     -12.6      0.000      0.000
REMARK SMILES CC(C)[C@H](NC(=O)c1cc2cc(Cl)ccc2n1C)C(=O)N[C@@H](C(=O)OCCOC(=O)c1ccc(-c2c3nc(c(-c4cc(S(=O)(=O)[O-])ccc4F)c4ccc([nH]4)c(-c4cc(S(=O)(=O)[O-])ccc4F)c4nc(c(-c5cc(S(=O)(=O)[O-])ccc5F)c5ccc2[nH]5)C=C4)C=C3)cc1)c1ccccc1
REMARK SMILES IDX 26 1 25 2 23 3 24 4 22 5 21 6 19 7 20 8 4 10 2 11 1 12 3 13
REMARK SMILES IDX 5 14 6 15 7 17 8 18 9 19 17 20 10 21 16 22 18 23 11 24 15 25
REMARK SMILES IDX 12 26 14 27 13 28 94 29 95 30 99 31 96 32 98 33 97 34 27 35
REMARK SMILES IDX 28 36 29 37 30 38 31 39 32 40 93 41 33 42 92 43 34 44 35 45
REMARK SMILES IDX 36 46 86 47 37 48 91 49 85 50 87 51 38 52 90 53 84 54 83 55
REMARK SMILES IDX 39 57 71 58 51 59 70 60 52 61 55 62 69 63 88 64 53 65 54 66
REMARK SMILES IDX 68 68 89 69 56 70 40 71 41 72 49 73 42 74 48 75 50 76 47 77
REMARK SMILES IDX 43 78 44 79 45 80 46 81 72 82 73 83 81 84 74 85 80 86 82 87
REMARK SMILES IDX 79 88 75 89 76 90 77 91 78 92 57 93 58 94 66 95 59 96 65 97
REMARK SMILES IDX 67 98 64 99 60 100 61 101 62 102 63 103
REMARK H PARENT 21 9 5 16 87 56 55 67
REMARK Flexibility Score: inf
ROOT
ATOM      1  C   UNL A   1      33.469  31.069  27.236  1.00  0.00     0.274 C 
ENDROOT
BRANCH   1   2
ATOM      2  O   UNL A   1      32.222  31.041  26.482  1.00  0.00    -0.460 OA
BRANCH   2   3
ATOM      3  C   UNL A   1      31.676  29.803  26.309  1.00  0.00     0.333 C 
ATOM      4  O   UNL A   1      31.377  29.093  27.260  1.00  0.00    -0.249 OA
BRANCH   3   5
ATOM      5  C   UNL A   1      31.514  29.326  24.838  1.00  0.00     0.223 C 
BRANCH   5   6
ATOM      6  N   UNL A   1      32.659  29.346  23.932  1.00  0.00    -0.337 N 
ATOM      7  C   UNL A   1      33.111  28.314  23.158  1.00  0.00     0.243 C 
ATOM      8  O   UNL A   1      33.739  28.606  22.138  1.00  0.00    -0.273 OA
ATOM      9  H   UNL A   1      33.159  30.192  23.874  1.00  0.00     0.164 HD
BRANCH   7  10
ATOM     10  C   UNL A   1      32.817  26.837  23.534  1.00  0.00     0.174 C 
BRANCH  10  11
ATOM     11  C   UNL A   1      32.086  25.999  22.424  1.00  0.00     0.015 C 
ATOM     12  C   UNL A   1      32.810  24.750  21.893  1.00  0.00     0.010 C 
ATOM     13  C   UNL A   1      30.618  25.675  22.747  1.00  0.00     0.010 C 
ENDBRANCH  10  11
BRANCH  10  14
ATOM     14  N   UNL A   1      32.188  26.823  24.867  1.00  0.00    -0.339 N 
ATOM     15  C   UNL A   1      32.275  25.842  25.834  1.00  0.00     0.268 C 
ATOM     16  H   UNL A   1      31.640  27.608  25.096  1.00  0.00     0.164 HD
ATOM     17  O   UNL A   1      31.664  25.999  26.888  1.00  0.00    -0.268 OA
BRANCH  15  18
ATOM     18  C   UNL A   1      33.083  24.669  25.575  1.00  0.00     0.107 A 
ATOM     19  C   UNL A   1      34.451  24.619  25.358  1.00  0.00     0.042 A 
ATOM     20  N   UNL A   1      32.633  23.389  25.316  1.00  0.00    -0.340 N 
ATOM     21  C   UNL A   1      34.836  23.258  25.210  1.00  0.00     0.002 A 
ATOM     22  C   UNL A   1      33.680  22.495  25.342  1.00  0.00     0.048 A 
ATOM     23  C   UNL A   1      31.307  23.017  24.886  1.00  0.00     0.150 C 
ATOM     24  C   UNL A   1      36.057  22.593  24.994  1.00  0.00     0.030 A 
ATOM     25  C   UNL A   1      33.692  21.093  25.401  1.00  0.00     0.028 A 
ATOM     26  C   UNL A   1      36.074  21.193  25.002  1.00  0.00     0.041 A 
ATOM     27  C   UNL A   1      34.919  20.452  25.240  1.00  0.00     0.023 A 
ATOM     28  Cl  UNL A   1      37.556  20.364  24.713  1.00  0.00    -0.084 Cl
ENDBRANCH  15  18
ENDBRANCH  10  14
ENDBRANCH   7  10
ENDBRANCH   5   6
BRANCH   5  29
ATOM     29  C   UNL A   1      30.327  29.861  24.047  1.00  0.00    -0.014 A 
ATOM     30  C   UNL A   1      29.592  29.039  23.172  1.00  0.00     0.006 A 
ATOM     31  C   UNL A   1      29.841  31.157  24.306  1.00  0.00     0.006 A 
ATOM     32  C   UNL A   1      28.407  29.499  22.589  1.00  0.00     0.000 A 
ATOM     33  C   UNL A   1      28.649  31.605  23.740  1.00  0.00     0.000 A 
ATOM     34  C   UNL A   1      27.931  30.776  22.884  1.00  0.00     0.000 A 
ENDBRANCH   5  29
ENDBRANCH   3   5
ENDBRANCH   2   3
ENDBRANCH   1   2
BRANCH   1  35
ATOM     35  C   UNL A   1      33.662  32.382  28.006  1.00  0.00     0.275 C 
BRANCH  35  36
ATOM     36  O   UNL A   1      35.006  32.848  27.813  1.00  0.00    -0.458 OA
BRANCH  36  37
ATOM     37  C   UNL A   1      35.754  32.868  28.942  1.00  0.00     0.338 C 
ATOM     38  O   UNL A   1      35.386  33.215  30.049  1.00  0.00    -0.246 OA
BRANCH  37  39
ATOM     39  C   UNL A   1      36.903  31.982  28.667  1.00  0.00     0.060 A 
ATOM     40  C   UNL A   1      36.805  30.793  27.933  1.00  0.00     0.016 A 
ATOM     41  C   UNL A   1      38.042  32.261  29.406  1.00  0.00     0.016 A 
ATOM     42  C   UNL A   1      37.803  29.816  28.060  1.00  0.00     0.010 A 
ATOM     43  C   UNL A   1      39.012  31.281  29.527  1.00  0.00     0.010 A 
ATOM     44  C   UNL A   1      38.875  30.029  28.929  1.00  0.00    -0.014 A 
BRANCH  44  45
ATOM     45  C   UNL A   1      39.964  29.063  29.119  1.00  0.00     0.031 A 
ATOM     46  C   UNL A   1      40.264  28.755  30.537  1.00  0.00     0.074 A 
ATOM     47  C   UNL A   1      40.578  28.272  28.209  1.00  0.00     0.049 A 
ATOM     48  N   UNL A   1      41.240  29.230  31.233  1.00  0.00    -0.248 NA
ATOM     49  C   UNL A   1      39.352  27.895  31.299  1.00  0.00     0.031 C 
ATOM     50  C   UNL A   1      40.300  28.078  26.788  1.00  0.00     0.029 A 
ATOM     51  N   UNL A   1      41.599  27.382  28.431  1.00  0.00    -0.354 N 
ATOM     52  C   UNL A   1      41.181  28.587  32.461  1.00  0.00     0.074 A 
ATOM     53  C   UNL A   1      39.908  27.918  32.509  1.00  0.00     0.031 C 
ATOM     54  C   UNL A   1      40.983  27.004  26.321  1.00  0.00     0.029 A 
ATOM     55  C   UNL A   1      41.897  26.558  27.355  1.00  0.00     0.049 A 
ATOM     56  H   UNL A   1      42.082  27.333  29.287  1.00  0.00     0.167 HD
ATOM     57  C   UNL A   1      42.273  28.481  33.265  1.00  0.00     0.034 A 
ATOM     58  C   UNL A   1      42.887  25.637  27.274  1.00  0.00     0.034 A 
ATOM     59  C   UNL A   1      43.362  29.284  32.772  1.00  0.00     0.049 A 
ATOM     60  C   UNL A   1      43.949  26.039  28.220  1.00  0.00     0.074 A 
ATOM     61  C   UNL A   1      43.547  30.630  32.534  1.00  0.00     0.029 A 
ATOM     62  N   UNL A   1      44.327  28.625  32.051  1.00  0.00    -0.354 N 
ATOM     63  N   UNL A   1      44.702  27.092  28.070  1.00  0.00    -0.248 NA
ATOM     64  C   UNL A   1      44.021  25.402  29.525  1.00  0.00     0.031 C 
ATOM     65  C   UNL A   1      44.351  30.696  31.360  1.00  0.00     0.029 A 
ATOM     66  C   UNL A   1      44.663  29.393  30.962  1.00  0.00     0.049 A 
ATOM     67  H   UNL A   1      44.714  27.749  32.277  1.00  0.00     0.167 HD
ATOM     68  C   UNL A   1      44.953  27.516  29.359  1.00  0.00     0.074 A 
ATOM     69  C   UNL A   1      44.702  26.341  30.186  1.00  0.00     0.031 C 
ATOM     70  C   UNL A   1      45.037  28.846  29.663  1.00  0.00     0.034 A 
BRANCH  57  71
ATOM     71  C   UNL A   1      42.460  27.415  34.310  1.00  0.00     0.023 A 
ATOM     72  C   UNL A   1      43.202  26.240  34.087  1.00  0.00     0.031 A 
ATOM     73  C   UNL A   1      42.039  27.638  35.636  1.00  0.00     0.131 A 
ATOM     74  C   UNL A   1      43.441  25.317  35.113  1.00  0.00     0.055 A 
ATOM     75  C   UNL A   1      42.345  26.756  36.679  1.00  0.00     0.041 A 
ATOM     76  F   UNL A   1      41.352  28.744  35.963  1.00  0.00    -0.206 F 
ATOM     77  C   UNL A   1      43.039  25.581  36.419  1.00  0.00     0.022 A 
BRANCH  74  78
ATOM     78  S   UNL A   1      44.262  23.741  34.755  1.00  0.00     0.124 S 
ATOM     79  O   UNL A   1      44.344  23.140  36.081  1.00  0.00    -0.237 OA
ATOM     80  O   UNL A   1      43.316  23.117  33.833  1.00  0.00    -0.237 OA
ATOM     81  O   UNL A   1      45.530  24.147  34.157  1.00  0.00    -0.744 OA
ENDBRANCH  74  78
ENDBRANCH  57  71
BRANCH  58  82
ATOM     82  C   UNL A   1      42.957  24.345  26.558  1.00  0.00     0.023 A 
ATOM     83  C   UNL A   1      42.071  23.309  26.907  1.00  0.00     0.031 A 
ATOM     84  C   UNL A   1      44.094  24.001  25.802  1.00  0.00     0.131 A 
ATOM     85  C   UNL A   1      42.379  21.979  26.575  1.00  0.00     0.055 A 
ATOM     86  C   UNL A   1      44.384  22.677  25.455  1.00  0.00     0.041 A 
ATOM     87  F   UNL A   1      44.988  24.937  25.449  1.00  0.00    -0.206 F 
ATOM     88  C   UNL A   1      43.534  21.656  25.860  1.00  0.00     0.022 A 
BRANCH  85  89
ATOM     89  S   UNL A   1      41.324  20.615  27.139  1.00  0.00     0.124 S 
ATOM     90  O   UNL A   1      40.350  20.503  26.055  1.00  0.00    -0.237 OA
ATOM     91  O   UNL A   1      42.281  19.520  27.242  1.00  0.00    -0.237 OA
ATOM     92  O   UNL A   1      40.786  21.112  28.400  1.00  0.00    -0.744 OA
ENDBRANCH  85  89
ENDBRANCH  58  82
BRANCH  70  93
ATOM     93  C   UNL A   1      45.281  29.851  28.545  1.00  0.00     0.023 A 
ATOM     94  C   UNL A   1      46.615  30.247  28.319  1.00  0.00     0.031 A 
ATOM     95  C   UNL A   1      44.283  30.552  27.838  1.00  0.00     0.131 A 
ATOM     96  C   UNL A   1      46.911  31.324  27.472  1.00  0.00     0.055 A 
ATOM     97  C   UNL A   1      44.590  31.571  26.927  1.00  0.00     0.041 A 
ATOM     98  F   UNL A   1      42.980  30.342  28.053  1.00  0.00    -0.206 F 
ATOM     99  C   UNL A   1      45.907  31.976  26.755  1.00  0.00     0.022 A 
BRANCH  96 100
ATOM    100  S   UNL A   1      48.586  32.013  27.413  1.00  0.00     0.124 S 
ATOM    101  O   UNL A   1      49.267  31.090  26.509  1.00  0.00    -0.237 OA
ATOM    102  O   UNL A   1      48.353  33.353  26.878  1.00  0.00    -0.237 OA
ATOM    103  O   UNL A   1      49.035  31.975  28.801  1.00  0.00    -0.744 OA
ENDBRANCH  96 100
ENDBRANCH  70  93
ENDBRANCH  44  45
ENDBRANCH  37  39
ENDBRANCH  36  37
ENDBRANCH  35  36
ENDBRANCH   1  35
TORSDOF 20
ENDMDL
MODEL 2
REMARK VINA RESULT:     -12.5      1.856      2.444
REMARK SMILES CC(C)[C@H](NC(=O)c1cc2cc(Cl)ccc2n1C)C(=O)N[C@@H](C(=O)OCCOC(=O)c1ccc(-c2c3nc(c(-c4cc(S(=O)(=O)[O-])ccc4F)c4ccc([nH]4)c(-c4cc(S(=O)(=O)[O-])ccc4F)c4nc(c(-c5cc(S(=O)(=O)[O-])ccc5F)c5ccc2[nH]5)C=C4)C=C3)cc1)c1ccccc1
REMARK SMILES IDX 26 1 25 2 23 3 24 4 22 5 21 6 19 7 20 8 4 10 2 11 1 12 3 13
REMARK SMILES IDX 5 14 6 15 7 17 8 18 9 19 17 20 10 21 16 22 18 23 11 24 15 25
REMARK SMILES IDX 12 26 14 27 13 28 94 29 95 30 99 31 96 32 98 33 97 34 27 35
REMARK SMILES IDX 28 36 29 37 30 38 31 39 32 40 93 41 33 42 92 43 34 44 35 45
REMARK SMILES IDX 36 46 86 47 37 48 91 49 85 50 87 51 38 52 90 53 84 54 83 55
REMARK SMILES IDX 39 57 71 58 51 59 70 60 52 61 55 62 69 63 88 64 53 65 54 66
REMARK SMILES IDX 68 68 89 69 56 70 40 71 41 72 49 73 42 74 48 75 50 76 47 77
REMARK SMILES IDX 43 78 44 79 45 80 46 81 72 82 73 83 81 84 74 85 80 86 82 87
REMARK SMILES IDX 79 88 75 89 76 90 77 91 78 92 57 93 58 94 66 95 59 96 65 97
REMARK SMILES IDX 67 98 64 99 60 100 61 101 62 102 63 103
REMARK H PARENT 21 9 5 16 87 56 55 67
REMARK Flexibility Score: inf
ROOT
ATOM      1  C   UNL A   1      32.989  29.775  27.167  1.00  0.00     0.274 C 
ENDROOT
BRANCH   1   2
ATOM      2  O   UNL A   1      31.655  29.258  27.445  1.00  0.00    -0.460 OA
BRANCH   2   3
ATOM      3  C   UNL A   1      31.280  28.182  26.694  1.00  0.00     0.333 C 
ATOM      4  O   UNL A   1      31.183  27.062  27.179  1.00  0.00    -0.249 OA
BRANCH   3   5
ATOM      5  C   UNL A   1      31.044  28.451  25.182  1.00  0.00     0.223 C 
BRANCH   5   6
ATOM      6  N   UNL A   1      29.921  27.822  24.493  1.00  0.00    -0.337 N 
ATOM      7  C   UNL A   1      29.588  26.496  24.509  1.00  0.00     0.243 C 
ATOM      8  O   UNL A   1      28.406  26.208  24.306  1.00  0.00    -0.273 OA
ATOM      9  H   UNL A   1      29.343  28.415  23.962  1.00  0.00     0.164 HD
BRANCH   7  10
ATOM     10  C   UNL A   1      30.650  25.402  24.802  1.00  0.00     0.174 C 
BRANCH  10  11
ATOM     11  C   UNL A   1      31.194  24.644  23.538  1.00  0.00     0.015 C 
ATOM     12  C   UNL A   1      30.414  23.401  23.074  1.00  0.00     0.010 C 
ATOM     13  C   UNL A   1      31.509  25.560  22.344  1.00  0.00     0.010 C 
ENDBRANCH  10  11
BRANCH  10  14
ATOM     14  N   UNL A   1      30.137  24.550  25.891  1.00  0.00    -0.339 N 
ATOM     15  C   UNL A   1      30.826  23.600  26.618  1.00  0.00     0.268 C 
ATOM     16  H   UNL A   1      29.190  24.672  26.128  1.00  0.00     0.164 HD
ATOM     17  O   UNL A   1      30.223  22.971  27.484  1.00  0.00    -0.268 OA
BRANCH  15  18
ATOM     18  C   UNL A   1      32.229  23.381  26.338  1.00  0.00     0.107 A 
ATOM     19  C   UNL A   1      33.248  24.322  26.353  1.00  0.00     0.042 A 
ATOM     20  N   UNL A   1      32.808  22.235  25.829  1.00  0.00    -0.340 N 
ATOM     21  C   UNL A   1      34.478  23.659  26.084  1.00  0.00     0.002 A 
ATOM     22  C   UNL A   1      34.181  22.312  25.908  1.00  0.00     0.048 A 
ATOM     23  C   UNL A   1      32.130  21.169  25.133  1.00  0.00     0.150 C 
ATOM     24  C   UNL A   1      35.820  24.068  25.987  1.00  0.00     0.030 A 
ATOM     25  C   UNL A   1      35.167  21.323  25.771  1.00  0.00     0.028 A 
ATOM     26  C   UNL A   1      36.811  23.095  25.801  1.00  0.00     0.041 A 
ATOM     27  C   UNL A   1      36.496  21.741  25.733  1.00  0.00     0.023 A 
ATOM     28  Cl  UNL A   1      38.456  23.582  25.656  1.00  0.00    -0.084 Cl
ENDBRANCH  15  18
ENDBRANCH  10  14
ENDBRANCH   7  10
ENDBRANCH   5   6
BRANCH   5  29
ATOM     29  C   UNL A   1      32.242  28.339  24.247  1.00  0.00    -0.014 A 
ATOM     30  C   UNL A   1      32.282  29.013  23.012  1.00  0.00     0.006 A 
ATOM     31  C   UNL A   1      33.410  27.683  24.683  1.00  0.00     0.006 A 
ATOM     32  C   UNL A   1      33.453  29.036  22.250  1.00  0.00     0.000 A 
ATOM     33  C   UNL A   1      34.582  27.726  23.931  1.00  0.00     0.000 A 
ATOM     34  C   UNL A   1      34.605  28.404  22.717  1.00  0.00     0.000 A 
ENDBRANCH   5  29
ENDBRANCH   3   5
ENDBRANCH   2   3
ENDBRANCH   1   2
BRANCH   1  35
ATOM     35  C   UNL A   1      33.115  31.273  27.470  1.00  0.00     0.275 C 
BRANCH  35  36
ATOM     36  O   UNL A   1      34.484  31.672  27.309  1.00  0.00    -0.458 OA
BRANCH  36  37
ATOM     37  C   UNL A   1      35.141  31.888  28.475  1.00  0.00     0.338 C 
ATOM     38  O   UNL A   1      34.653  32.283  29.517  1.00  0.00    -0.246 OA
BRANCH  37  39
ATOM     39  C   UNL A   1      36.405  31.135  28.358  1.00  0.00     0.060 A 
ATOM     40  C   UNL A   1      36.556  29.995  27.558  1.00  0.00     0.016 A 
ATOM     41  C   UNL A   1      37.368  31.468  29.298  1.00  0.00     0.016 A 
ATOM     42  C   UNL A   1      37.615  29.110  27.807  1.00  0.00     0.010 A 
ATOM     43  C   UNL A   1      38.400  30.577  29.535  1.00  0.00     0.010 A 
ATOM     44  C   UNL A   1      38.497  29.362  28.860  1.00  0.00    -0.014 A 
BRANCH  44  45
ATOM     45  C   UNL A   1      39.633  28.492  29.186  1.00  0.00     0.031 A 
ATOM     46  C   UNL A   1      39.926  28.390  30.635  1.00  0.00     0.074 A 
ATOM     47  C   UNL A   1      40.304  27.623  28.395  1.00  0.00     0.049 A 
ATOM     48  N   UNL A   1      40.864  29.007  31.270  1.00  0.00    -0.248 NA
ATOM     49  C   UNL A   1      39.049  27.590  31.496  1.00  0.00     0.031 C 
ATOM     50  C   UNL A   1      40.060  27.228  27.010  1.00  0.00     0.029 A 
ATOM     51  N   UNL A   1      41.367  26.828  28.742  1.00  0.00    -0.354 N 
ATOM     52  C   UNL A   1      40.819  28.530  32.573  1.00  0.00     0.074 A 
ATOM     53  C   UNL A   1      39.583  27.804  32.697  1.00  0.00     0.031 C 
ATOM     54  C   UNL A   1      40.808  26.140  26.696  1.00  0.00     0.029 A 
ATOM     55  C   UNL A   1      41.727  25.887  27.788  1.00  0.00     0.049 A 
ATOM     56  H   UNL A   1      41.839  26.919  29.602  1.00  0.00     0.167 HD
ATOM     57  C   UNL A   1      41.902  28.592  33.393  1.00  0.00     0.034 A 
ATOM     58  C   UNL A   1      42.766  25.019  27.839  1.00  0.00     0.034 A 
ATOM     59  C   UNL A   1      42.953  29.383  32.808  1.00  0.00     0.049 A 
ATOM     60  C   UNL A   1      43.790  25.602  28.734  1.00  0.00     0.074 A 
ATOM     61  C   UNL A   1      43.070  30.693  32.395  1.00  0.00     0.029 A 
ATOM     62  N   UNL A   1      43.965  28.689  32.190  1.00  0.00    -0.354 N 
ATOM     63  N   UNL A   1      44.488  26.666  28.452  1.00  0.00    -0.248 NA
ATOM     64  C   UNL A   1      43.875  25.147  30.112  1.00  0.00     0.031 C 
ATOM     65  C   UNL A   1      43.889  30.648  31.231  1.00  0.00     0.029 A 
ATOM     66  C   UNL A   1      44.277  29.323  31.011  1.00  0.00     0.049 A 
ATOM     67  H   UNL A   1      44.395  27.873  32.534  1.00  0.00     0.167 HD
ATOM     68  C   UNL A   1      44.693  27.270  29.675  1.00  0.00     0.074 A 
ATOM     69  C   UNL A   1      44.493  26.203  30.649  1.00  0.00     0.031 C 
ATOM     70  C   UNL A   1      44.701  28.631  29.801  1.00  0.00     0.034 A 
BRANCH  57  71
ATOM     71  C   UNL A   1      42.128  27.686  34.573  1.00  0.00     0.023 A 
ATOM     72  C   UNL A   1      42.867  26.490  34.494  1.00  0.00     0.031 A 
ATOM     73  C   UNL A   1      41.752  28.096  35.866  1.00  0.00     0.131 A 
ATOM     74  C   UNL A   1      43.145  25.723  35.632  1.00  0.00     0.055 A 
ATOM     75  C   UNL A   1      42.097  27.371  37.014  1.00  0.00     0.041 A 
ATOM     76  F   UNL A   1      41.072  29.237  36.057  1.00  0.00    -0.206 F 
ATOM     77  C   UNL A   1      42.787  26.170  36.900  1.00  0.00     0.022 A 
BRANCH  74  78
ATOM     78  S   UNL A   1      43.960  24.111  35.475  1.00  0.00     0.124 S 
ATOM     79  O   UNL A   1      42.870  23.273  34.988  1.00  0.00    -0.237 OA
ATOM     80  O   UNL A   1      45.014  24.405  34.507  1.00  0.00    -0.237 OA
ATOM     81  O   UNL A   1      44.426  23.833  36.830  1.00  0.00    -0.744 OA
ENDBRANCH  74  78
ENDBRANCH  57  71
BRANCH  58  82
ATOM     82  C   UNL A   1      42.918  23.650  27.303  1.00  0.00     0.023 A 
ATOM     83  C   UNL A   1      43.998  23.355  26.451  1.00  0.00     0.031 A 
ATOM     84  C   UNL A   1      41.842  22.743  27.326  1.00  0.00     0.131 A 
ATOM     85  C   UNL A   1      43.938  22.237  25.602  1.00  0.00     0.055 A 
ATOM     86  C   UNL A   1      41.798  21.619  26.494  1.00  0.00     0.041 A 
ATOM     87  F   UNL A   1      40.773  22.973  28.103  1.00  0.00    -0.206 F 
ATOM     88  C   UNL A   1      42.841  21.373  25.611  1.00  0.00     0.022 A 
BRANCH  85  89
ATOM     89  S   UNL A   1      45.255  21.918  24.395  1.00  0.00     0.124 S 
ATOM     90  O   UNL A   1      46.425  21.726  25.250  1.00  0.00    -0.237 OA
ATOM     91  O   UNL A   1      44.761  20.721  23.724  1.00  0.00    -0.237 OA
ATOM     92  O   UNL A   1      45.272  23.137  23.594  1.00  0.00    -0.744 OA
ENDBRANCH  85  89
ENDBRANCH  58  82
BRANCH  70  93
ATOM     93  C   UNL A   1      44.909  29.491  28.562  1.00  0.00     0.023 A 
ATOM     94  C   UNL A   1      46.228  29.900  28.279  1.00  0.00     0.031 A 
ATOM     95  C   UNL A   1      43.886  30.061  27.776  1.00  0.00     0.131 A 
ATOM     96  C   UNL A   1      46.486  30.869  27.299  1.00  0.00     0.055 A 
ATOM     97  C   UNL A   1      44.157  30.963  26.739  1.00  0.00     0.041 A 
ATOM     98  F   UNL A   1      42.592  29.836  28.023  1.00  0.00    -0.206 F 
ATOM     99  C   UNL A   1      45.459  31.388  26.509  1.00  0.00     0.022 A 
BRANCH  96 100
ATOM    100  S   UNL A   1      48.136  31.601  27.142  1.00  0.00     0.124 S 
ATOM    101  O   UNL A   1      48.413  32.035  28.508  1.00  0.00    -0.237 OA
ATOM    102  O   UNL A   1      48.934  30.471  26.671  1.00  0.00    -0.237 OA
ATOM    103  O   UNL A   1      47.957  32.675  26.169  1.00  0.00    -0.744 OA
ENDBRANCH  96 100
ENDBRANCH  70  93
ENDBRANCH  44  45
ENDBRANCH  37  39
ENDBRANCH  36  37
ENDBRANCH  35  36
ENDBRANCH   1  35
TORSDOF 20
ENDMDL
MODEL 3
REMARK VINA RESULT:     -12.1      2.383      7.307
REMARK SMILES CC(C)[C@H](NC(=O)c1cc2cc(Cl)ccc2n1C)C(=O)N[C@@H](C(=O)OCCOC(=O)c1ccc(-c2c3nc(c(-c4cc(S(=O)(=O)[O-])ccc4F)c4ccc([nH]4)c(-c4cc(S(=O)(=O)[O-])ccc4F)c4nc(c(-c5cc(S(=O)(=O)[O-])ccc5F)c5ccc2[nH]5)C=C4)C=C3)cc1)c1ccccc1
REMARK SMILES IDX 26 1 25 2 23 3 24 4 22 5 21 6 19 7 20 8 4 10 2 11 1 12 3 13
REMARK SMILES IDX 5 14 6 15 7 17 8 18 9 19 17 20 10 21 16 22 18 23 11 24 15 25
REMARK SMILES IDX 12 26 14 27 13 28 94 29 95 30 99 31 96 32 98 33 97 34 27 35
REMARK SMILES IDX 28 36 29 37 30 38 31 39 32 40 93 41 33 42 92 43 34 44 35 45
REMARK SMILES IDX 36 46 86 47 37 48 91 49 85 50 87 51 38 52 90 53 84 54 83 55
REMARK SMILES IDX 39 57 71 58 51 59 70 60 52 61 55 62 69 63 88 64 53 65 54 66
REMARK SMILES IDX 68 68 89 69 56 70 40 71 41 72 49 73 42 74 48 75 50 76 47 77
REMARK SMILES IDX 43 78 44 79 45 80 46 81 72 82 73 83 81 84 74 85 80 86 82 87
REMARK SMILES IDX 79 88 75 89 76 90 77 91 78 92 57 93 58 94 66 95 59 96 65 97
REMARK SMILES IDX 67 98 64 99 60 100 61 101 62 102 63 103
REMARK H PARENT 21 9 5 16 87 56 55 67
REMARK Flexibility Score: inf
ROOT
ATOM      1  C   UNL A   1      33.774  29.618  26.912  1.00  0.00     0.274 C 
ENDROOT
BRANCH   1   2
ATOM      2  O   UNL A   1      32.731  28.803  26.301  1.00  0.00    -0.460 OA
BRANCH   2   3
ATOM      3  C   UNL A   1      32.830  28.651  24.949  1.00  0.00     0.333 C 
ATOM      4  O   UNL A   1      33.315  29.521  24.237  1.00  0.00    -0.249 OA
BRANCH   3   5
ATOM      5  C   UNL A   1      32.238  27.338  24.363  1.00  0.00     0.223 C 
BRANCH   5   6
ATOM      6  N   UNL A   1      32.966  26.604  23.332  1.00  0.00    -0.337 N 
ATOM      7  C   UNL A   1      33.744  25.493  23.511  1.00  0.00     0.243 C 
ATOM      8  O   UNL A   1      33.881  24.739  22.545  1.00  0.00    -0.273 OA
ATOM      9  H   UNL A   1      32.890  26.945  22.412  1.00  0.00     0.164 HD
BRANCH   7  10
ATOM     10  C   UNL A   1      34.401  25.182  24.882  1.00  0.00     0.174 C 
BRANCH  10  11
ATOM     11  C   UNL A   1      35.298  23.892  24.916  1.00  0.00     0.015 C 
ATOM     12  C   UNL A   1      35.887  23.411  23.579  1.00  0.00     0.010 C 
ATOM     13  C   UNL A   1      36.379  23.909  26.008  1.00  0.00     0.010 C 
ENDBRANCH  10  11
BRANCH  10  14
ATOM     14  N   UNL A   1      33.353  25.263  25.917  1.00  0.00    -0.339 N 
ATOM     15  C   UNL A   1      32.494  24.266  26.330  1.00  0.00     0.268 C 
ATOM     16  H   UNL A   1      33.256  26.132  26.370  1.00  0.00     0.164 HD
ATOM     17  O   UNL A   1      31.669  24.524  27.203  1.00  0.00    -0.268 OA
BRANCH  15  18
ATOM     18  C   UNL A   1      32.594  22.955  25.725  1.00  0.00     0.107 A 
ATOM     19  C   UNL A   1      31.893  22.477  24.628  1.00  0.00     0.042 A 
ATOM     20  N   UNL A   1      33.274  21.858  26.219  1.00  0.00    -0.340 N 
ATOM     21  C   UNL A   1      32.352  21.162  24.336  1.00  0.00     0.002 A 
ATOM     22  C   UNL A   1      33.336  20.861  25.272  1.00  0.00     0.048 A 
ATOM     23  C   UNL A   1      33.708  21.662  27.581  1.00  0.00     0.150 C 
ATOM     24  C   UNL A   1      32.040  20.201  23.358  1.00  0.00     0.030 A 
ATOM     25  C   UNL A   1      34.124  19.702  25.207  1.00  0.00     0.028 A 
ATOM     26  C   UNL A   1      32.787  19.017  23.313  1.00  0.00     0.041 A 
ATOM     27  C   UNL A   1      33.838  18.786  24.196  1.00  0.00     0.023 A 
ATOM     28  Cl  UNL A   1      32.401  17.819  22.137  1.00  0.00    -0.084 Cl
ENDBRANCH  15  18
ENDBRANCH  10  14
ENDBRANCH   7  10
ENDBRANCH   5   6
BRANCH   5  29
ATOM     29  C   UNL A   1      30.776  27.350  23.934  1.00  0.00    -0.014 A 
ATOM     30  C   UNL A   1      29.888  26.324  24.306  1.00  0.00     0.006 A 
ATOM     31  C   UNL A   1      30.246  28.485  23.290  1.00  0.00     0.006 A 
ATOM     32  C   UNL A   1      28.519  26.438  24.051  1.00  0.00     0.000 A 
ATOM     33  C   UNL A   1      28.878  28.606  23.055  1.00  0.00     0.000 A 
ATOM     34  C   UNL A   1      28.014  27.584  23.438  1.00  0.00     0.000 A 
ENDBRANCH   5  29
ENDBRANCH   3   5
ENDBRANCH   2   3
ENDBRANCH   1   2
BRANCH   1  35
ATOM     35  C   UNL A   1      35.139  28.919  26.920  1.00  0.00     0.275 C 
BRANCH  35  36
ATOM     36  O   UNL A   1      36.148  29.861  27.314  1.00  0.00    -0.458 OA
BRANCH  36  37
ATOM     37  C   UNL A   1      36.643  29.657  28.558  1.00  0.00     0.338 C 
ATOM     38  O   UNL A   1      36.024  29.724  29.604  1.00  0.00    -0.246 OA
BRANCH  37  39
ATOM     39  C   UNL A   1      37.904  28.914  28.362  1.00  0.00     0.060 A 
ATOM     40  C   UNL A   1      38.338  27.887  29.209  1.00  0.00     0.016 A 
ATOM     41  C   UNL A   1      38.769  29.474  27.434  1.00  0.00     0.016 A 
ATOM     42  C   UNL A   1      39.691  27.521  29.217  1.00  0.00     0.010 A 
ATOM     43  C   UNL A   1      40.103  29.106  27.464  1.00  0.00     0.010 A 
ATOM     44  C   UNL A   1      40.597  28.195  28.395  1.00  0.00    -0.014 A 
BRANCH  44  45
ATOM     45  C   UNL A   1      42.028  27.873  28.338  1.00  0.00     0.031 A 
ATOM     46  C   UNL A   1      42.341  26.620  27.612  1.00  0.00     0.074 A 
ATOM     47  C   UNL A   1      43.095  28.641  28.660  1.00  0.00     0.049 A 
ATOM     48  N   UNL A   1      42.620  25.478  28.142  1.00  0.00    -0.248 NA
ATOM     49  C   UNL A   1      42.264  26.594  26.148  1.00  0.00     0.031 C 
ATOM     50  C   UNL A   1      43.157  30.037  29.084  1.00  0.00     0.029 A 
ATOM     51  N   UNL A   1      44.421  28.297  28.594  1.00  0.00    -0.354 N 
ATOM     52  C   UNL A   1      42.940  24.635  27.087  1.00  0.00     0.074 A 
ATOM     53  C   UNL A   1      42.534  25.316  25.886  1.00  0.00     0.031 C 
ATOM     54  C   UNL A   1      44.438  30.480  29.047  1.00  0.00     0.029 A 
ATOM     55  C   UNL A   1      45.306  29.347  28.791  1.00  0.00     0.049 A 
ATOM     56  H   UNL A   1      44.722  27.375  28.421  1.00  0.00     0.167 HD
ATOM     57  C   UNL A   1      43.706  23.526  27.266  1.00  0.00     0.034 A 
ATOM     58  C   UNL A   1      46.658  29.286  28.838  1.00  0.00     0.034 A 
ATOM     59  C   UNL A   1      43.923  23.265  28.665  1.00  0.00     0.049 A 
ATOM     60  C   UNL A   1      47.029  27.914  29.248  1.00  0.00     0.074 A 
ATOM     61  C   UNL A   1      43.107  22.992  29.742  1.00  0.00     0.029 A 
ATOM     62  N   UNL A   1      45.123  23.686  29.184  1.00  0.00    -0.354 N 
ATOM     63  N   UNL A   1      46.807  27.420  30.434  1.00  0.00    -0.248 NA
ATOM     64  C   UNL A   1      47.429  26.950  28.236  1.00  0.00     0.031 C 
ATOM     65  C   UNL A   1      43.712  23.654  30.849  1.00  0.00     0.029 A 
ATOM     66  C   UNL A   1      44.894  24.258  30.412  1.00  0.00     0.049 A 
ATOM     67  H   UNL A   1      46.001  23.594  28.748  1.00  0.00     0.167 HD
ATOM     68  C   UNL A   1      46.571  26.080  30.204  1.00  0.00     0.074 A 
ATOM     69  C   UNL A   1      47.173  25.821  28.901  1.00  0.00     0.031 C 
ATOM     70  C   UNL A   1      45.651  25.386  30.940  1.00  0.00     0.034 A 
BRANCH  57  71
ATOM     71  C   UNL A   1      44.514  22.867  26.182  1.00  0.00     0.023 A 
ATOM     72  C   UNL A   1      44.259  21.563  25.717  1.00  0.00     0.031 A 
ATOM     73  C   UNL A   1      45.463  23.609  25.452  1.00  0.00     0.131 A 
ATOM     74  C   UNL A   1      44.964  21.018  24.637  1.00  0.00     0.055 A 
ATOM     75  C   UNL A   1      46.112  23.093  24.324  1.00  0.00     0.041 A 
ATOM     76  F   UNL A   1      45.758  24.873  25.791  1.00  0.00    -0.206 F 
ATOM     77  C   UNL A   1      45.874  21.786  23.917  1.00  0.00     0.022 A 
BRANCH  74  78
ATOM     78  S   UNL A   1      44.724  19.284  24.166  1.00  0.00     0.124 S 
ATOM     79  O   UNL A   1      45.992  18.687  24.568  1.00  0.00    -0.237 OA
ATOM     80  O   UNL A   1      43.564  18.915  24.975  1.00  0.00    -0.237 OA
ATOM     81  O   UNL A   1      44.476  19.353  22.729  1.00  0.00    -0.744 OA
ENDBRANCH  74  78
ENDBRANCH  57  71
BRANCH  58  82
ATOM     82  C   UNL A   1      47.692  30.259  28.425  1.00  0.00     0.023 A 
ATOM     83  C   UNL A   1      48.570  30.789  29.387  1.00  0.00     0.031 A 
ATOM     84  C   UNL A   1      47.597  30.931  27.191  1.00  0.00     0.131 A 
ATOM     85  C   UNL A   1      49.248  31.993  29.132  1.00  0.00     0.055 A 
ATOM     86  C   UNL A   1      48.291  32.117  26.935  1.00  0.00     0.041 A 
ATOM     87  F   UNL A   1      46.766  30.488  26.235  1.00  0.00    -0.206 F 
ATOM     88  C   UNL A   1      49.107  32.665  27.916  1.00  0.00     0.022 A 
BRANCH  85  89
ATOM     89  S   UNL A   1      50.274  32.768  30.412  1.00  0.00     0.124 S 
ATOM     90  O   UNL A   1      49.340  33.700  31.041  1.00  0.00    -0.237 OA
ATOM     91  O   UNL A   1      50.660  31.619  31.222  1.00  0.00    -0.237 OA
ATOM     92  O   UNL A   1      51.344  33.395  29.644  1.00  0.00    -0.744 OA
ENDBRANCH  85  89
ENDBRANCH  58  82
BRANCH  70  93
ATOM     93  C   UNL A   1      45.191  25.950  32.278  1.00  0.00     0.023 A 
ATOM     94  C   UNL A   1      45.797  25.426  33.437  1.00  0.00     0.031 A 
ATOM     95  C   UNL A   1      44.094  26.815  32.472  1.00  0.00     0.131 A 
ATOM     96  C   UNL A   1      45.286  25.716  34.710  1.00  0.00     0.055 A 
ATOM     97  C   UNL A   1      43.641  27.171  33.749  1.00  0.00     0.041 A 
ATOM     98  F   UNL A   1      43.371  27.285  31.450  1.00  0.00    -0.206 F 
ATOM     99  C   UNL A   1      44.223  26.605  34.876  1.00  0.00     0.022 A 
BRANCH  96 100
ATOM    100  S   UNL A   1      45.879  24.815  36.166  1.00  0.00     0.124 S 
ATOM    101  O   UNL A   1      45.574  25.745  37.250  1.00  0.00    -0.237 OA
ATOM    102  O   UNL A   1      45.064  23.603  36.135  1.00  0.00    -0.237 OA
ATOM    103  O   UNL A   1      47.300  24.609  35.901  1.00  0.00    -0.744 OA
ENDBRANCH  96 100
ENDBRANCH  70  93
ENDBRANCH  44  45
ENDBRANCH  37  39
ENDBRANCH  36  37
ENDBRANCH  35  36
ENDBRANCH   1  35
TORSDOF 20
ENDMDL
