MODEL 1
REMARK VINA RESULT:     -12.3      0.000      0.000
REMARK SMILES O=C(OCCOC(=O)c1cc(Br)cc2c1N[C@H](c1cccc([N+](=O)[O-])c1)[C@H]1CC=C[C@H]21)c1ccc(-c2c3nc(c(-c4cc(S(=O)(=O)[O-])ccc4F)c4ccc([nH]4)c(-c4cc(S(=O)(=O)[O-])ccc4F)c4nc(c(-c5cc(S(=O)(=O)[O-])ccc5F)c5ccc2[nH]5)C=C4)C=C3)cc1
REMARK SMILES IDX 4 1 3 2 2 3 1 4 32 5 33 6 94 7 34 8 93 9 35 10 36 11 37 12
REMARK SMILES IDX 87 13 38 14 92 15 86 16 88 17 39 18 91 19 85 20 84 21 40 23
REMARK SMILES IDX 72 24 52 25 71 26 53 27 56 28 70 29 89 30 54 31 55 32 69 34
REMARK SMILES IDX 90 35 57 36 41 37 42 38 50 39 43 40 49 41 51 42 48 43 44 44
REMARK SMILES IDX 45 45 46 46 47 47 73 48 74 49 82 50 75 51 81 52 83 53 80 54
REMARK SMILES IDX 76 55 77 56 78 57 79 58 58 59 59 60 67 61 60 62 66 63 68 64
REMARK SMILES IDX 65 65 61 66 62 67 63 68 64 69 5 70 6 71 7 72 8 73 9 74 10 75
REMARK SMILES IDX 15 76 11 77 14 78 16 79 12 80 13 81 31 82 17 83 27 85 30 86
REMARK SMILES IDX 28 87 29 88 18 89 19 90 26 91 20 92 22 93 21 94 23 95 24 96
REMARK SMILES IDX 25 97
REMARK H PARENT 88 22 56 33 16 84
REMARK Flexibility Score: inf
ROOT
ATOM      1  C   UNL A   1      37.178  21.805  25.126  1.00  0.00     0.275 C 
ENDROOT
BRANCH   1   2
ATOM      2  O   UNL A   1      38.516  21.365  25.422  1.00  0.00    -0.458 OA
BRANCH   2   3
ATOM      3  C   UNL A   1      39.394  21.709  26.392  1.00  0.00     0.338 C 
ATOM      4  O   UNL A   1      39.884  20.785  27.047  1.00  0.00    -0.246 OA
BRANCH   3   5
ATOM      5  C   UNL A   1      39.751  23.113  26.819  1.00  0.00     0.060 A 
ATOM      6  C   UNL A   1      40.894  23.232  27.632  1.00  0.00     0.016 A 
ATOM      7  C   UNL A   1      39.095  24.304  26.497  1.00  0.00     0.016 A 
ATOM      8  C   UNL A   1      41.322  24.465  28.154  1.00  0.00     0.010 A 
ATOM      9  C   UNL A   1      39.566  25.556  26.966  1.00  0.00     0.010 A 
ATOM     10  C   UNL A   1      40.673  25.662  27.818  1.00  0.00    -0.014 A 
BRANCH  10  11
ATOM     11  C   UNL A   1      41.258  26.977  28.252  1.00  0.00     0.031 A 
ATOM     12  C   UNL A   1      42.699  27.386  28.044  1.00  0.00     0.074 A 
ATOM     13  C   UNL A   1      40.473  27.863  28.889  1.00  0.00     0.049 A 
ATOM     14  N   UNL A   1      43.273  28.569  28.120  1.00  0.00    -0.248 NA
ATOM     15  C   UNL A   1      43.628  26.317  27.709  1.00  0.00     0.031 C 
ATOM     16  C   UNL A   1      39.080  27.644  29.267  1.00  0.00     0.029 A 
ATOM     17  N   UNL A   1      40.757  29.125  29.346  1.00  0.00    -0.354 N 
ATOM     18  C   UNL A   1      44.602  28.382  27.737  1.00  0.00     0.074 A 
ATOM     19  C   UNL A   1      44.757  26.988  27.518  1.00  0.00     0.031 C 
ATOM     20  C   UNL A   1      38.632  28.735  29.905  1.00  0.00     0.029 A 
ATOM     21  C   UNL A   1      39.715  29.713  30.012  1.00  0.00     0.049 A 
ATOM     22  H   UNL A   1      41.627  29.565  29.208  1.00  0.00     0.167 HD
ATOM     23  C   UNL A   1      45.625  29.256  27.570  1.00  0.00     0.034 A 
ATOM     24  C   UNL A   1      39.641  30.898  30.650  1.00  0.00     0.034 A 
ATOM     25  C   UNL A   1      45.537  30.620  27.957  1.00  0.00     0.049 A 
ATOM     26  C   UNL A   1      40.794  31.867  30.565  1.00  0.00     0.074 A 
ATOM     27  C   UNL A   1      46.504  31.597  27.848  1.00  0.00     0.029 A 
ATOM     28  N   UNL A   1      44.440  31.168  28.578  1.00  0.00    -0.354 N 
ATOM     29  N   UNL A   1      41.936  31.741  29.930  1.00  0.00    -0.248 NA
ATOM     30  C   UNL A   1      40.640  33.156  31.254  1.00  0.00     0.031 C 
ATOM     31  C   UNL A   1      46.005  32.739  28.459  1.00  0.00     0.029 A 
ATOM     32  C   UNL A   1      44.717  32.473  28.905  1.00  0.00     0.049 A 
ATOM     33  H   UNL A   1      43.592  30.701  28.758  1.00  0.00     0.167 HD
ATOM     34  C   UNL A   1      42.602  32.955  30.092  1.00  0.00     0.074 A 
ATOM     35  C   UNL A   1      41.745  33.797  30.892  1.00  0.00     0.031 C 
ATOM     36  C   UNL A   1      43.815  33.335  29.617  1.00  0.00     0.034 A 
BRANCH  23  37
ATOM     37  C   UNL A   1      46.913  28.862  26.870  1.00  0.00     0.023 A 
ATOM     38  C   UNL A   1      47.021  28.599  25.493  1.00  0.00     0.031 A 
ATOM     39  C   UNL A   1      48.006  28.507  27.686  1.00  0.00     0.131 A 
ATOM     40  C   UNL A   1      48.221  28.058  24.985  1.00  0.00     0.055 A 
ATOM     41  C   UNL A   1      49.216  28.043  27.170  1.00  0.00     0.041 A 
ATOM     42  F   UNL A   1      47.892  28.575  29.023  1.00  0.00    -0.206 F 
ATOM     43  C   UNL A   1      49.331  27.824  25.808  1.00  0.00     0.022 A 
BRANCH  40  44
ATOM     44  S   UNL A   1      48.353  27.453  23.275  1.00  0.00     0.124 S 
ATOM     45  O   UNL A   1      47.260  28.170  22.622  1.00  0.00    -0.237 OA
ATOM     46  O   UNL A   1      49.695  27.886  22.894  1.00  0.00    -0.237 OA
ATOM     47  O   UNL A   1      48.172  26.013  23.400  1.00  0.00    -0.744 OA
ENDBRANCH  40  44
ENDBRANCH  23  37
BRANCH  24  48
ATOM     48  C   UNL A   1      38.370  31.220  31.357  1.00  0.00     0.023 A 
ATOM     49  C   UNL A   1      37.372  31.972  30.707  1.00  0.00     0.031 A 
ATOM     50  C   UNL A   1      38.213  30.944  32.723  1.00  0.00     0.131 A 
ATOM     51  C   UNL A   1      36.313  32.508  31.448  1.00  0.00     0.055 A 
ATOM     52  C   UNL A   1      37.112  31.413  33.440  1.00  0.00     0.041 A 
ATOM     53  F   UNL A   1      39.148  30.247  33.385  1.00  0.00    -0.206 F 
ATOM     54  C   UNL A   1      36.169  32.221  32.809  1.00  0.00     0.022 A 
BRANCH  51  55
ATOM     55  S   UNL A   1      35.209  33.748  30.714  1.00  0.00     0.124 S 
ATOM     56  O   UNL A   1      35.986  34.203  29.567  1.00  0.00    -0.237 OA
ATOM     57  O   UNL A   1      34.025  32.950  30.400  1.00  0.00    -0.237 OA
ATOM     58  O   UNL A   1      35.027  34.724  31.784  1.00  0.00    -0.744 OA
ENDBRANCH  51  55
ENDBRANCH  24  48
BRANCH  36  59
ATOM     59  C   UNL A   1      44.337  34.722  29.861  1.00  0.00     0.023 A 
ATOM     60  C   UNL A   1      44.038  35.730  28.921  1.00  0.00     0.031 A 
ATOM     61  C   UNL A   1      45.357  34.950  30.794  1.00  0.00     0.131 A 
ATOM     62  C   UNL A   1      44.818  36.889  28.879  1.00  0.00     0.055 A 
ATOM     63  C   UNL A   1      46.089  36.136  30.789  1.00  0.00     0.041 A 
ATOM     64  F   UNL A   1      45.700  33.997  31.676  1.00  0.00    -0.206 F 
ATOM     65  C   UNL A   1      45.838  37.099  29.812  1.00  0.00     0.022 A 
BRANCH  62  66
ATOM     66  S   UNL A   1      44.670  38.050  27.489  1.00  0.00     0.124 S 
ATOM     67  O   UNL A   1      44.709  39.339  28.174  1.00  0.00    -0.237 OA
ATOM     68  O   UNL A   1      45.849  37.732  26.688  1.00  0.00    -0.237 OA
ATOM     69  O   UNL A   1      43.392  37.704  26.876  1.00  0.00    -0.744 OA
ENDBRANCH  62  66
ENDBRANCH  36  59
ENDBRANCH  10  11
ENDBRANCH   3   5
ENDBRANCH   2   3
ENDBRANCH   1   2
BRANCH   1  70
ATOM     70  C   UNL A   1      36.128  21.238  26.080  1.00  0.00     0.275 C 
BRANCH  70  71
ATOM     71  O   UNL A   1      35.374  22.282  26.696  1.00  0.00    -0.458 OA
BRANCH  71  72
ATOM     72  C   UNL A   1      34.030  22.069  26.715  1.00  0.00     0.340 C 
ATOM     73  O   UNL A   1      33.311  21.979  27.693  1.00  0.00    -0.246 OA
BRANCH  72  74
ATOM     74  C   UNL A   1      33.534  22.112  25.333  1.00  0.00     0.084 A 
ATOM     75  C   UNL A   1      33.203  20.872  24.759  1.00  0.00     0.033 A 
ATOM     76  C   UNL A   1      33.419  23.320  24.625  1.00  0.00     0.053 A 
ATOM     77  C   UNL A   1      32.704  20.827  23.467  1.00  0.00     0.019 A 
ATOM     78  C   UNL A   1      33.040  23.216  23.276  1.00  0.00    -0.016 A 
ATOM     79  N   UNL A   1      33.762  24.552  25.183  1.00  0.00    -0.377 N 
ATOM     80  Br  UNL A   1      32.151  19.183  22.716  1.00  0.00    -0.051 Br
ATOM     81  C   UNL A   1      32.631  21.990  22.717  1.00  0.00     0.022 A 
ATOM     82  C   UNL A   1      33.274  24.429  22.444  1.00  0.00     0.049 C 
ATOM     83  C   UNL A   1      33.691  25.862  24.491  1.00  0.00     0.114 C 
ATOM     84  H   UNL A   1      34.078  24.553  26.115  1.00  0.00     0.161 HD
ATOM     85  C   UNL A   1      32.863  25.690  23.212  1.00  0.00     0.031 C 
ATOM     86  C   UNL A   1      32.536  24.618  21.168  1.00  0.00    -0.023 C 
ATOM     87  C   UNL A   1      32.894  26.752  22.113  1.00  0.00     0.034 C 
ATOM     88  C   UNL A   1      32.397  25.930  20.953  1.00  0.00    -0.030 C 
BRANCH  83  89
ATOM     89  C   UNL A   1      33.228  26.901  25.542  1.00  0.00    -0.019 A 
ATOM     90  C   UNL A   1      31.907  26.861  26.023  1.00  0.00     0.006 A 
ATOM     91  C   UNL A   1      34.018  27.954  26.022  1.00  0.00     0.091 A 
ATOM     92  C   UNL A   1      31.405  27.837  26.902  1.00  0.00     0.007 A 
ATOM     93  C   UNL A   1      33.520  28.957  26.879  1.00  0.00     0.269 A 
ATOM     94  C   UNL A   1      32.204  28.897  27.323  1.00  0.00     0.085 A 
BRANCH  93  95
ATOM     95  N   UNL A   1      34.359  30.111  27.255  1.00  0.00     0.062 N 
ATOM     96  O   UNL A   1      35.589  29.949  27.254  1.00  0.00    -0.258 OA
ATOM     97  O   UNL A   1      33.787  31.144  27.617  1.00  0.00    -0.258 OA
ENDBRANCH  93  95
ENDBRANCH  83  89
ENDBRANCH  72  74
ENDBRANCH  71  72
ENDBRANCH  70  71
ENDBRANCH   1  70
TORSDOF 16
ENDMDL
MODEL 2
REMARK VINA RESULT:     -12.3      4.895     10.090
REMARK SMILES O=C(OCCOC(=O)c1cc(Br)cc2c1N[C@H](c1cccc([N+](=O)[O-])c1)[C@H]1CC=C[C@H]21)c1ccc(-c2c3nc(c(-c4cc(S(=O)(=O)[O-])ccc4F)c4ccc([nH]4)c(-c4cc(S(=O)(=O)[O-])ccc4F)c4nc(c(-c5cc(S(=O)(=O)[O-])ccc5F)c5ccc2[nH]5)C=C4)C=C3)cc1
REMARK SMILES IDX 4 1 3 2 2 3 1 4 32 5 33 6 94 7 34 8 93 9 35 10 36 11 37 12
REMARK SMILES IDX 87 13 38 14 92 15 86 16 88 17 39 18 91 19 85 20 84 21 40 23
REMARK SMILES IDX 72 24 52 25 71 26 53 27 56 28 70 29 89 30 54 31 55 32 69 34
REMARK SMILES IDX 90 35 57 36 41 37 42 38 50 39 43 40 49 41 51 42 48 43 44 44
REMARK SMILES IDX 45 45 46 46 47 47 73 48 74 49 82 50 75 51 81 52 83 53 80 54
REMARK SMILES IDX 76 55 77 56 78 57 79 58 58 59 59 60 67 61 60 62 66 63 68 64
REMARK SMILES IDX 65 65 61 66 62 67 63 68 64 69 5 70 6 71 7 72 8 73 9 74 10 75
REMARK SMILES IDX 15 76 11 77 14 78 16 79 12 80 13 81 31 82 17 83 27 85 30 86
REMARK SMILES IDX 28 87 29 88 18 89 19 90 26 91 20 92 22 93 21 94 23 95 24 96
REMARK SMILES IDX 25 97
REMARK H PARENT 88 22 56 33 16 84
REMARK Flexibility Score: inf
ROOT
ATOM      1  C   UNL A   1      32.972  30.094  26.472  1.00  0.00     0.275 C 
ENDROOT
BRANCH   1   2
ATOM      2  O   UNL A   1      32.764  31.422  26.986  1.00  0.00    -0.458 OA
BRANCH   2   3
ATOM      3  C   UNL A   1      33.581  32.290  27.626  1.00  0.00     0.338 C 
ATOM      4  O   UNL A   1      33.234  33.474  27.632  1.00  0.00    -0.246 OA
BRANCH   3   5
ATOM      5  C   UNL A   1      34.922  31.967  28.241  1.00  0.00     0.060 A 
ATOM      6  C   UNL A   1      34.963  30.812  29.046  1.00  0.00     0.016 A 
ATOM      7  C   UNL A   1      36.124  32.664  28.098  1.00  0.00     0.016 A 
ATOM      8  C   UNL A   1      36.124  30.411  29.728  1.00  0.00     0.010 A 
ATOM      9  C   UNL A   1      37.313  32.221  28.731  1.00  0.00     0.010 A 
ATOM     10  C   UNL A   1      37.334  31.101  29.573  1.00  0.00    -0.014 A 
BRANCH  10  11
ATOM     11  C   UNL A   1      38.593  30.547  30.179  1.00  0.00     0.031 A 
ATOM     12  C   UNL A   1      39.181  30.993  31.499  1.00  0.00     0.074 A 
ATOM     13  C   UNL A   1      39.278  29.601  29.512  1.00  0.00     0.049 A 
ATOM     14  N   UNL A   1      40.093  30.431  32.264  1.00  0.00    -0.248 NA
ATOM     15  C   UNL A   1      38.675  32.249  32.035  1.00  0.00     0.031 C 
ATOM     16  C   UNL A   1      38.942  29.084  28.188  1.00  0.00     0.029 A 
ATOM     17  N   UNL A   1      40.418  28.923  29.864  1.00  0.00    -0.354 N 
ATOM     18  C   UNL A   1      40.181  31.221  33.411  1.00  0.00     0.074 A 
ATOM     19  C   UNL A   1      39.306  32.321  33.200  1.00  0.00     0.031 C 
ATOM     20  C   UNL A   1      39.860  28.174  27.836  1.00  0.00     0.029 A 
ATOM     21  C   UNL A   1      40.867  28.068  28.893  1.00  0.00     0.049 A 
ATOM     22  H   UNL A   1      40.868  29.040  30.731  1.00  0.00     0.167 HD
ATOM     23  C   UNL A   1      40.903  31.084  34.551  1.00  0.00     0.034 A 
ATOM     24  C   UNL A   1      41.973  27.298  28.848  1.00  0.00     0.034 A 
ATOM     25  C   UNL A   1      41.912  30.096  34.702  1.00  0.00     0.049 A 
ATOM     26  C   UNL A   1      42.856  27.185  30.066  1.00  0.00     0.074 A 
ATOM     27  C   UNL A   1      42.714  29.862  35.799  1.00  0.00     0.029 A 
ATOM     28  N   UNL A   1      42.286  29.227  33.703  1.00  0.00    -0.354 N 
ATOM     29  N   UNL A   1      42.719  27.749  31.243  1.00  0.00    -0.248 NA
ATOM     30  C   UNL A   1      44.027  26.303  29.966  1.00  0.00     0.031 C 
ATOM     31  C   UNL A   1      43.622  28.875  35.442  1.00  0.00     0.029 A 
ATOM     32  C   UNL A   1      43.348  28.475  34.141  1.00  0.00     0.049 A 
ATOM     33  H   UNL A   1      41.860  29.156  32.818  1.00  0.00     0.167 HD
ATOM     34  C   UNL A   1      43.747  27.240  32.036  1.00  0.00     0.074 A 
ATOM     35  C   UNL A   1      44.504  26.334  31.205  1.00  0.00     0.031 C 
ATOM     36  C   UNL A   1      44.033  27.502  33.335  1.00  0.00     0.034 A 
BRANCH  23  37
ATOM     37  C   UNL A   1      40.622  31.919  35.786  1.00  0.00     0.023 A 
ATOM     38  C   UNL A   1      39.502  31.754  36.620  1.00  0.00     0.031 A 
ATOM     39  C   UNL A   1      41.401  33.079  35.969  1.00  0.00     0.131 A 
ATOM     40  C   UNL A   1      39.244  32.707  37.628  1.00  0.00     0.055 A 
ATOM     41  C   UNL A   1      41.187  33.977  37.014  1.00  0.00     0.041 A 
ATOM     42  F   UNL A   1      42.377  33.374  35.093  1.00  0.00    -0.206 F 
ATOM     43  C   UNL A   1      40.106  33.788  37.858  1.00  0.00     0.022 A 
BRANCH  40  44
ATOM     44  S   UNL A   1      37.691  32.709  38.573  1.00  0.00     0.124 S 
ATOM     45  O   UNL A   1      37.959  33.733  39.581  1.00  0.00    -0.237 OA
ATOM     46  O   UNL A   1      36.709  33.080  37.557  1.00  0.00    -0.237 OA
ATOM     47  O   UNL A   1      37.588  31.346  39.076  1.00  0.00    -0.744 OA
ENDBRANCH  40  44
ENDBRANCH  23  37
BRANCH  24  48
ATOM     48  C   UNL A   1      42.225  26.530  27.597  1.00  0.00     0.023 A 
ATOM     49  C   UNL A   1      42.040  25.134  27.576  1.00  0.00     0.031 A 
ATOM     50  C   UNL A   1      42.816  27.140  26.481  1.00  0.00     0.131 A 
ATOM     51  C   UNL A   1      42.536  24.383  26.505  1.00  0.00     0.055 A 
ATOM     52  C   UNL A   1      43.236  26.395  25.379  1.00  0.00     0.041 A 
ATOM     53  F   UNL A   1      43.028  28.464  26.466  1.00  0.00    -0.206 F 
ATOM     54  C   UNL A   1      43.121  25.007  25.399  1.00  0.00     0.022 A 
BRANCH  51  55
ATOM     55  S   UNL A   1      42.615  22.572  26.607  1.00  0.00     0.124 S 
ATOM     56  O   UNL A   1      41.951  22.170  25.372  1.00  0.00    -0.237 OA
ATOM     57  O   UNL A   1      44.056  22.335  26.656  1.00  0.00    -0.237 OA
ATOM     58  O   UNL A   1      41.899  22.264  27.841  1.00  0.00    -0.744 OA
ENDBRANCH  51  55
ENDBRANCH  24  48
BRANCH  36  59
ATOM     59  C   UNL A   1      45.167  26.802  34.030  1.00  0.00     0.023 A 
ATOM     60  C   UNL A   1      44.894  25.612  34.735  1.00  0.00     0.031 A 
ATOM     61  C   UNL A   1      46.381  27.461  34.263  1.00  0.00     0.131 A 
ATOM     62  C   UNL A   1      45.788  25.165  35.710  1.00  0.00     0.055 A 
ATOM     63  C   UNL A   1      47.300  26.975  35.191  1.00  0.00     0.041 A 
ATOM     64  F   UNL A   1      46.658  28.620  33.644  1.00  0.00    -0.206 F 
ATOM     65  C   UNL A   1      46.993  25.839  35.938  1.00  0.00     0.022 A 
BRANCH  62  66
ATOM     66  S   UNL A   1      45.319  23.831  36.851  1.00  0.00     0.124 S 
ATOM     67  O   UNL A   1      44.522  24.552  37.839  1.00  0.00    -0.237 OA
ATOM     68  O   UNL A   1      44.570  22.925  35.982  1.00  0.00    -0.237 OA
ATOM     69  O   UNL A   1      46.595  23.314  37.332  1.00  0.00    -0.744 OA
ENDBRANCH  62  66
ENDBRANCH  36  59
ENDBRANCH  10  11
ENDBRANCH   3   5
ENDBRANCH   2   3
ENDBRANCH   1   2
BRANCH   1  70
ATOM     70  C   UNL A   1      32.493  29.919  25.032  1.00  0.00     0.275 C 
BRANCH  70  71
ATOM     71  O   UNL A   1      33.476  29.254  24.238  1.00  0.00    -0.458 OA
BRANCH  71  72
ATOM     72  C   UNL A   1      32.970  28.554  23.187  1.00  0.00     0.340 C 
ATOM     73  O   UNL A   1      33.435  28.465  22.066  1.00  0.00    -0.246 OA
BRANCH  72  74
ATOM     74  C   UNL A   1      31.819  27.773  23.660  1.00  0.00     0.084 A 
ATOM     75  C   UNL A   1      30.552  28.266  23.302  1.00  0.00     0.033 A 
ATOM     76  C   UNL A   1      31.979  26.617  24.442  1.00  0.00     0.053 A 
ATOM     77  C   UNL A   1      29.414  27.575  23.688  1.00  0.00     0.019 A 
ATOM     78  C   UNL A   1      30.800  26.026  24.927  1.00  0.00    -0.016 A 
ATOM     79  N   UNL A   1      33.233  26.132  24.817  1.00  0.00    -0.377 N 
ATOM     80  Br  UNL A   1      27.708  28.160  23.125  1.00  0.00    -0.051 Br
ATOM     81  C   UNL A   1      29.529  26.464  24.508  1.00  0.00     0.022 A 
ATOM     82  C   UNL A   1      30.977  25.045  26.035  1.00  0.00     0.049 C 
ATOM     83  C   UNL A   1      33.480  24.937  25.658  1.00  0.00     0.114 C 
ATOM     84  H   UNL A   1      34.022  26.626  24.495  1.00  0.00     0.161 HD
ATOM     85  C   UNL A   1      32.177  24.134  25.754  1.00  0.00     0.031 C 
ATOM     86  C   UNL A   1      29.919  24.043  26.326  1.00  0.00    -0.023 C 
ATOM     87  C   UNL A   1      32.004  23.049  26.817  1.00  0.00     0.034 C 
ATOM     88  C   UNL A   1      30.501  22.955  26.839  1.00  0.00    -0.030 C 
BRANCH  83  89
ATOM     89  C   UNL A   1      34.742  24.241  25.091  1.00  0.00    -0.019 A 
ATOM     90  C   UNL A   1      34.698  23.659  23.812  1.00  0.00     0.006 A 
ATOM     91  C   UNL A   1      35.944  24.077  25.794  1.00  0.00     0.091 A 
ATOM     92  C   UNL A   1      35.781  22.930  23.288  1.00  0.00     0.007 A 
ATOM     93  C   UNL A   1      37.026  23.322  25.294  1.00  0.00     0.269 A 
ATOM     94  C   UNL A   1      36.944  22.746  24.032  1.00  0.00     0.085 A 
BRANCH  93  95
ATOM     95  N   UNL A   1      38.220  23.078  26.126  1.00  0.00     0.062 N 
ATOM     96  O   UNL A   1      38.616  24.007  26.847  1.00  0.00    -0.258 OA
ATOM     97  O   UNL A   1      38.794  21.991  26.002  1.00  0.00    -0.258 OA
ENDBRANCH  93  95
ENDBRANCH  83  89
ENDBRANCH  72  74
ENDBRANCH  71  72
ENDBRANCH  70  71
ENDBRANCH   1  70
TORSDOF 16
ENDMDL
MODEL 3
REMARK VINA RESULT:     -12.2      5.991     12.176
REMARK SMILES O=C(OCCOC(=O)c1cc(Br)cc2c1N[C@H](c1cccc([N+](=O)[O-])c1)[C@H]1CC=C[C@H]21)c1ccc(-c2c3nc(c(-c4cc(S(=O)(=O)[O-])ccc4F)c4ccc([nH]4)c(-c4cc(S(=O)(=O)[O-])ccc4F)c4nc(c(-c5cc(S(=O)(=O)[O-])ccc5F)c5ccc2[nH]5)C=C4)C=C3)cc1
REMARK SMILES IDX 4 1 3 2 2 3 1 4 32 5 33 6 94 7 34 8 93 9 35 10 36 11 37 12
REMARK SMILES IDX 87 13 38 14 92 15 86 16 88 17 39 18 91 19 85 20 84 21 40 23
REMARK SMILES IDX 72 24 52 25 71 26 53 27 56 28 70 29 89 30 54 31 55 32 69 34
REMARK SMILES IDX 90 35 57 36 41 37 42 38 50 39 43 40 49 41 51 42 48 43 44 44
REMARK SMILES IDX 45 45 46 46 47 47 73 48 74 49 82 50 75 51 81 52 83 53 80 54
REMARK SMILES IDX 76 55 77 56 78 57 79 58 58 59 59 60 67 61 60 62 66 63 68 64
REMARK SMILES IDX 65 65 61 66 62 67 63 68 64 69 5 70 6 71 7 72 8 73 9 74 10 75
REMARK SMILES IDX 15 76 11 77 14 78 16 79 12 80 13 81 31 82 17 83 27 85 30 86
REMARK SMILES IDX 28 87 29 88 18 89 19 90 26 91 20 92 22 93 21 94 23 95 24 96
REMARK SMILES IDX 25 97
REMARK H PARENT 88 22 56 33 16 84
REMARK Flexibility Score: inf
ROOT
ATOM      1  C   UNL A   1      46.303  29.364  26.552  1.00  0.00     0.275 C 
ENDROOT
BRANCH   1   2
ATOM      2  O   UNL A   1      45.214  30.209  26.139  1.00  0.00    -0.458 OA
BRANCH   2   3
ATOM      3  C   UNL A   1      44.878  31.482  26.453  1.00  0.00     0.338 C 
ATOM      4  O   UNL A   1      45.249  32.361  25.672  1.00  0.00    -0.246 OA
BRANCH   3   5
ATOM      5  C   UNL A   1      44.188  31.937  27.717  1.00  0.00     0.060 A 
ATOM      6  C   UNL A   1      43.429  30.957  28.386  1.00  0.00     0.016 A 
ATOM      7  C   UNL A   1      44.220  33.203  28.308  1.00  0.00     0.016 A 
ATOM      8  C   UNL A   1      42.686  31.241  29.544  1.00  0.00     0.010 A 
ATOM      9  C   UNL A   1      43.526  33.472  29.515  1.00  0.00     0.010 A 
ATOM     10  C   UNL A   1      42.730  32.506  30.145  1.00  0.00    -0.014 A 
BRANCH  10  11
ATOM     11  C   UNL A   1      42.064  32.726  31.474  1.00  0.00     0.031 A 
ATOM     12  C   UNL A   1      40.664  33.268  31.654  1.00  0.00     0.074 A 
ATOM     13  C   UNL A   1      42.744  32.448  32.601  1.00  0.00     0.049 A 
ATOM     14  N   UNL A   1      39.870  33.260  32.705  1.00  0.00    -0.248 NA
ATOM     15  C   UNL A   1      40.072  33.915  30.492  1.00  0.00     0.031 C 
ATOM     16  C   UNL A   1      44.131  31.997  32.665  1.00  0.00     0.029 A 
ATOM     17  N   UNL A   1      42.350  32.530  33.913  1.00  0.00    -0.354 N 
ATOM     18  C   UNL A   1      38.657  33.807  32.282  1.00  0.00     0.074 A 
ATOM     19  C   UNL A   1      38.853  34.202  30.931  1.00  0.00     0.031 C 
ATOM     20  C   UNL A   1      44.474  31.846  33.952  1.00  0.00     0.029 A 
ATOM     21  C   UNL A   1      43.345  32.224  34.802  1.00  0.00     0.049 A 
ATOM     22  H   UNL A   1      41.439  32.783  34.187  1.00  0.00     0.167 HD
ATOM     23  C   UNL A   1      37.474  33.982  32.920  1.00  0.00     0.034 A 
ATOM     24  C   UNL A   1      43.355  32.259  36.150  1.00  0.00     0.034 A 
ATOM     25  C   UNL A   1      37.317  33.762  34.314  1.00  0.00     0.049 A 
ATOM     26  C   UNL A   1      42.077  32.539  36.901  1.00  0.00     0.074 A 
ATOM     27  C   UNL A   1      36.175  33.912  35.074  1.00  0.00     0.029 A 
ATOM     28  N   UNL A   1      38.347  33.405  35.152  1.00  0.00    -0.354 N 
ATOM     29  N   UNL A   1      40.874  32.770  36.430  1.00  0.00    -0.248 NA
ATOM     30  C   UNL A   1      42.146  32.529  38.369  1.00  0.00     0.031 C 
ATOM     31  C   UNL A   1      36.532  33.695  36.398  1.00  0.00     0.029 A 
ATOM     32  C   UNL A   1      37.881  33.371  36.443  1.00  0.00     0.049 A 
ATOM     33  H   UNL A   1      39.269  33.205  34.871  1.00  0.00     0.167 HD
ATOM     34  C   UNL A   1      40.038  32.868  37.542  1.00  0.00     0.074 A 
ATOM     35  C   UNL A   1      40.871  32.684  38.707  1.00  0.00     0.031 C 
ATOM     36  C   UNL A   1      38.701  33.089  37.589  1.00  0.00     0.034 A 
BRANCH  23  37
ATOM     37  C   UNL A   1      36.202  34.339  32.171  1.00  0.00     0.023 A 
ATOM     38  C   UNL A   1      35.426  35.484  32.422  1.00  0.00     0.031 A 
ATOM     39  C   UNL A   1      35.643  33.344  31.344  1.00  0.00     0.131 A 
ATOM     40  C   UNL A   1      34.167  35.616  31.798  1.00  0.00     0.055 A 
ATOM     41  C   UNL A   1      34.433  33.513  30.671  1.00  0.00     0.041 A 
ATOM     42  F   UNL A   1      36.263  32.159  31.209  1.00  0.00    -0.206 F 
ATOM     43  C   UNL A   1      33.691  34.661  30.890  1.00  0.00     0.022 A 
BRANCH  40  44
ATOM     44  S   UNL A   1      32.998  36.928  32.264  1.00  0.00     0.124 S 
ATOM     45  O   UNL A   1      33.654  37.507  33.434  1.00  0.00    -0.237 OA
ATOM     46  O   UNL A   1      32.990  37.775  31.073  1.00  0.00    -0.237 OA
ATOM     47  O   UNL A   1      31.758  36.211  32.531  1.00  0.00    -0.744 OA
ENDBRANCH  40  44
ENDBRANCH  23  37
BRANCH  24  48
ATOM     48  C   UNL A   1      44.639  31.941  36.836  1.00  0.00     0.023 A 
ATOM     49  C   UNL A   1      44.865  30.649  37.348  1.00  0.00     0.031 A 
ATOM     50  C   UNL A   1      45.563  32.951  37.144  1.00  0.00     0.131 A 
ATOM     51  C   UNL A   1      45.932  30.425  38.224  1.00  0.00     0.055 A 
ATOM     52  C   UNL A   1      46.671  32.703  37.953  1.00  0.00     0.041 A 
ATOM     53  F   UNL A   1      45.377  34.200  36.692  1.00  0.00    -0.206 F 
ATOM     54  C   UNL A   1      46.846  31.442  38.519  1.00  0.00     0.022 A 
BRANCH  51  55
ATOM     55  S   UNL A   1      46.049  28.872  39.157  1.00  0.00     0.124 S 
ATOM     56  O   UNL A   1      47.437  28.893  39.605  1.00  0.00    -0.237 OA
ATOM     57  O   UNL A   1      45.044  29.070  40.200  1.00  0.00    -0.237 OA
ATOM     58  O   UNL A   1      45.717  27.850  38.169  1.00  0.00    -0.744 OA
ENDBRANCH  51  55
ENDBRANCH  24  48
BRANCH  36  59
ATOM     59  C   UNL A   1      37.969  33.108  38.901  1.00  0.00     0.023 A 
ATOM     60  C   UNL A   1      38.228  34.160  39.803  1.00  0.00     0.031 A 
ATOM     61  C   UNL A   1      37.310  31.963  39.370  1.00  0.00     0.131 A 
ATOM     62  C   UNL A   1      37.907  34.007  41.154  1.00  0.00     0.055 A 
ATOM     63  C   UNL A   1      36.934  31.843  40.706  1.00  0.00     0.041 A 
ATOM     64  F   UNL A   1      37.085  30.922  38.551  1.00  0.00    -0.206 F 
ATOM     65  C   UNL A   1      37.256  32.855  41.609  1.00  0.00     0.022 A 
BRANCH  62  66
ATOM     66  S   UNL A   1      38.514  35.197  42.386  1.00  0.00     0.124 S 
ATOM     67  O   UNL A   1      37.382  35.274  43.305  1.00  0.00    -0.237 OA
ATOM     68  O   UNL A   1      39.701  34.526  42.912  1.00  0.00    -0.237 OA
ATOM     69  O   UNL A   1      38.776  36.404  41.611  1.00  0.00    -0.744 OA
ENDBRANCH  62  66
ENDBRANCH  36  59
ENDBRANCH  10  11
ENDBRANCH   3   5
ENDBRANCH   2   3
ENDBRANCH   1   2
BRANCH   1  70
ATOM     70  C   UNL A   1      45.881  28.259  27.520  1.00  0.00     0.275 C 
BRANCH  70  71
ATOM     71  O   UNL A   1      44.529  27.862  27.290  1.00  0.00    -0.458 OA
BRANCH  71  72
ATOM     72  C   UNL A   1      44.101  26.841  28.081  1.00  0.00     0.340 C 
ATOM     73  O   UNL A   1      44.714  26.298  28.981  1.00  0.00    -0.246 OA
BRANCH  72  74
ATOM     74  C   UNL A   1      42.687  26.580  27.779  1.00  0.00     0.084 A 
ATOM     75  C   UNL A   1      41.823  27.685  27.872  1.00  0.00     0.033 A 
ATOM     76  C   UNL A   1      42.229  25.297  27.437  1.00  0.00     0.053 A 
ATOM     77  C   UNL A   1      40.478  27.529  27.579  1.00  0.00     0.019 A 
ATOM     78  C   UNL A   1      40.839  25.154  27.282  1.00  0.00    -0.016 A 
ATOM     79  N   UNL A   1      43.078  24.192  27.360  1.00  0.00    -0.377 N 
ATOM     80  Br  UNL A   1      39.321  29.022  27.593  1.00  0.00    -0.051 Br
ATOM     81  C   UNL A   1      39.977  26.267  27.295  1.00  0.00     0.022 A 
ATOM     82  C   UNL A   1      40.328  23.755  27.289  1.00  0.00     0.049 C 
ATOM     83  C   UNL A   1      42.663  22.806  27.031  1.00  0.00     0.114 C 
ATOM     84  H   UNL A   1      44.033  24.344  27.538  1.00  0.00     0.161 HD
ATOM     85  C   UNL A   1      41.243  22.849  26.457  1.00  0.00     0.031 C 
ATOM     86  C   UNL A   1      39.000  23.437  26.702  1.00  0.00    -0.023 C 
ATOM     87  C   UNL A   1      40.406  21.574  26.345  1.00  0.00     0.034 C 
ATOM     88  C   UNL A   1      39.031  22.182  26.246  1.00  0.00    -0.030 C 
BRANCH  83  89
ATOM     89  C   UNL A   1      43.794  22.191  26.172  1.00  0.00    -0.019 A 
ATOM     90  C   UNL A   1      44.855  23.004  25.734  1.00  0.00     0.006 A 
ATOM     91  C   UNL A   1      43.819  20.864  25.720  1.00  0.00     0.091 A 
ATOM     92  C   UNL A   1      45.855  22.522  24.871  1.00  0.00     0.007 A 
ATOM     93  C   UNL A   1      44.797  20.375  24.831  1.00  0.00     0.269 A 
ATOM     94  C   UNL A   1      45.824  21.210  24.404  1.00  0.00     0.085 A 
BRANCH  93  95
ATOM     95  N   UNL A   1      44.706  19.005  24.290  1.00  0.00     0.062 N 
ATOM     96  O   UNL A   1      44.932  18.851  23.080  1.00  0.00    -0.258 OA
ATOM     97  O   UNL A   1      44.339  18.108  25.055  1.00  0.00    -0.258 OA
ENDBRANCH  93  95
ENDBRANCH  83  89
ENDBRANCH  72  74
ENDBRANCH  71  72
ENDBRANCH  70  71
ENDBRANCH   1  70
TORSDOF 16
ENDMDL
